#------------------------------------------------------------------------------
#$Date: 2020-05-04 05:47:33 +0300 (Mon, 04 May 2020) $
#$Revision: 251484 $
#$URL: file:///home/coder/svn-repositories/cod/cif/4/03/82/4038278.cif $
#------------------------------------------------------------------------------
#
# This file is available in the Crystallography Open Database (COD),
# http://www.crystallography.net/
#
# All data on this site have been placed in the public domain by the
# contributors.
#
data_4038278
loop_
_publ_author_name
'Sundaravelu, Nallappan'
'Guha, Somraj'
'Sekar, Govindasamy'
_publ_section_title
;
 Iodonium Ion-Catalyzed Domino Synthesis of <i>Z</i>-Selective
 \a,\b-Diphenylthio Enones from Easily Accessible Secondary Alcohols.
;
_journal_issue                   9
_journal_name_full               'The Journal of organic chemistry'
_journal_page_first              5895
_journal_page_last               5906
_journal_paper_doi               10.1021/acs.joc.0c00183
_journal_volume                  85
_journal_year                    2020
_chemical_formula_moiety         'C21 H12 Cl2 O S2'
_chemical_formula_sum            'C21 H12 Cl2 O S2'
_chemical_formula_weight         415.33
_space_group_crystal_system      triclinic
_space_group_IT_number           2
_space_group_name_Hall           '-P 1'
_space_group_name_H-M_alt        'P -1'
_atom_sites_solution_hydrogens   geom
_audit_creation_method           SHELXL-2014/7
_cell_angle_alpha                72.0273(13)
_cell_angle_beta                 79.5744(13)
_cell_angle_gamma                77.9792(13)
_cell_formula_units_Z            2
_cell_length_a                   8.2801(3)
_cell_length_b                   10.9055(4)
_cell_length_c                   11.3166(3)
_cell_measurement_reflns_used    6987
_cell_measurement_temperature    296(2)
_cell_measurement_theta_max      26.41
_cell_measurement_theta_min      2.96
_cell_volume                     943.19(6)
_computing_cell_refinement       'Bruker SAINT'
_computing_data_collection       'Bruker APEX2'
_computing_data_reduction        'Bruker SAINT'
_computing_molecular_graphics    'Bruker SHELXTL'
_computing_publication_material  'Bruker SHELXTL'
_computing_structure_refinement  'SHELXL-2014/7 (Sheldrick, 2014)'
_computing_structure_solution    'SHELXS-97 (Sheldrick 2008)'
_diffrn_ambient_temperature      296(2)
_diffrn_measured_fraction_theta_full 0.981
_diffrn_measured_fraction_theta_max 0.981
_diffrn_measurement_device_type  'Bruker APEX-II CCD'
_diffrn_measurement_method       '\f and \w scans'
_diffrn_radiation_type           MoK\a
_diffrn_radiation_wavelength     0.71073
_diffrn_reflns_av_R_equivalents  0.0162
_diffrn_reflns_av_unetI/netI     0.0148
_diffrn_reflns_Laue_measured_fraction_full 0.981
_diffrn_reflns_Laue_measured_fraction_max 0.981
_diffrn_reflns_limit_h_max       9
_diffrn_reflns_limit_h_min       -9
_diffrn_reflns_limit_k_max       12
_diffrn_reflns_limit_k_min       -12
_diffrn_reflns_limit_l_max       12
_diffrn_reflns_limit_l_min       -13
_diffrn_reflns_number            13086
_diffrn_reflns_point_group_measured_fraction_full 0.981
_diffrn_reflns_point_group_measured_fraction_max 0.981
_diffrn_reflns_theta_full        24.999
_diffrn_reflns_theta_max         24.999
_diffrn_reflns_theta_min         1.990
_exptl_absorpt_coefficient_mu    0.573
_exptl_absorpt_correction_T_max  0.945
_exptl_absorpt_correction_T_min  0.856
_exptl_absorpt_correction_type   multi-scan
_exptl_absorpt_process_details   'SADABS V2014/5(Bruker AXS.Inc)'
_exptl_crystal_colour            purple
_exptl_crystal_density_diffrn    1.462
_exptl_crystal_description       Block
_exptl_crystal_F_000             424
_exptl_crystal_size_max          0.280
_exptl_crystal_size_mid          0.220
_exptl_crystal_size_min          0.100
_refine_diff_density_max         0.349
_refine_diff_density_min         -0.320
_refine_diff_density_rms         0.040
_refine_ls_extinction_method     none
_refine_ls_goodness_of_fit_ref   1.035
_refine_ls_hydrogen_treatment    constr
_refine_ls_matrix_type           full
_refine_ls_number_parameters     235
_refine_ls_number_reflns         3260
_refine_ls_number_restraints     0
_refine_ls_restrained_S_all      1.035
_refine_ls_R_factor_all          0.0446
_refine_ls_R_factor_gt           0.0369
_refine_ls_shift/su_max          0.001
_refine_ls_shift/su_mean         0.000
_refine_ls_structure_factor_coef Fsqd
_refine_ls_weighting_details
'w=1/[\s^2^(Fo^2^)+(0.0374P)^2^+0.6144P] where P=(Fo^2^+2Fc^2^)/3'
_refine_ls_weighting_scheme      calc
_refine_ls_wR_factor_gt          0.0884
_refine_ls_wR_factor_ref         0.0952
_reflns_Friedel_coverage         0.000
_reflns_number_gt                2777
_reflns_number_total             3260
_reflns_threshold_expression     'I > 2\s(I)'
_cod_data_source_file            jo0c00183_si_003.cif
_cod_data_source_block           295
_cod_depositor_comments
'Adding full bibliography for 4038277--4038278.cif.'
_cod_database_code               4038278
_shelx_shelxl_version_number     2014/7
_shelx_space_group_comment
; 
The symmetry employed for this shelxl refinement is uniquely defined 
by the following loop, which should always be used as a source of 
symmetry information in preference to the above space-group names. 
They are only intended as comments. 
;
_shelx_estimated_absorpt_t_min   0.856
_shelx_estimated_absorpt_t_max   0.945
_shelx_res_file
; 
  
    295.res created by SHELXL-2014/7 
  
TITL 295 in P-1 
CELL 0.71073   8.28010  10.90550  11.31660  72.0273  79.5744  77.9792 
ZERR   2.00   0.00030   0.00040   0.00030   0.0013   0.0013   0.0013 
LATT 1 
SFAC C  H  O  S  Cl 
UNIT 42  24  2  4  4 
OMIT -3 50 
L.S. 8 
ACTA 
BOND $H 
FMAP 2 
PLAN 5 
SIZE 0.10 0.22 0.28 
CONF 
TEMP 23.000 
WGHT    0.037400    0.614400 
FVAR       0.20674 
MOLE 1 
C1    1    0.158586    0.135585    0.402921    11.00000    0.03907    0.03969 = 
         0.03326   -0.00801   -0.00467   -0.00662 
C2    1   -0.024583    0.182276    0.406483    11.00000    0.03780    0.03879 = 
         0.04039   -0.00718   -0.00378   -0.00883 
C3    1   -0.145207    0.214004    0.497752    11.00000    0.04422    0.05363 = 
         0.05114   -0.01600   -0.00023   -0.00949 
AFIX  43 
H3    2   -0.119047    0.208567    0.575936    11.00000   -1.20000 
AFIX   0 
C4    1   -0.309247    0.254898    0.468902    11.00000    0.04024    0.06605 = 
         0.08429   -0.03051    0.00584   -0.00597 
AFIX  43 
H4    2   -0.393111    0.276629    0.529281    11.00000   -1.20000 
AFIX   0 
C5    1   -0.348984    0.263608    0.353018    11.00000    0.04003    0.06768 = 
         0.09359   -0.02144   -0.01934   -0.00399 
AFIX  43 
H5    2   -0.458348    0.292942    0.335824    11.00000   -1.20000 
AFIX   0 
C6    1   -0.227929    0.229188    0.262228    11.00000    0.04757    0.06366 = 
         0.06521   -0.01091   -0.01936   -0.01155 
AFIX  43 
H6    2   -0.254264    0.234145    0.184230    11.00000   -1.20000 
AFIX   0 
C7    1   -0.067580    0.187445    0.290642    11.00000    0.04381    0.04788 = 
         0.04341   -0.00718   -0.01015   -0.01245 
C8    1    0.082502    0.135811    0.216057    11.00000    0.05018    0.05363 = 
         0.03571   -0.00906   -0.00804   -0.01562 
C9    1    0.220684    0.111576    0.291738    11.00000    0.04191    0.05176 = 
         0.03280   -0.01074   -0.00489   -0.00724 
C10   1    0.192880    0.204642    0.613518    11.00000    0.03928    0.04787 = 
         0.03364   -0.01092   -0.00627   -0.00702 
C11   1    0.183359    0.337983    0.563730    11.00000    0.06845    0.05180 = 
         0.04907   -0.00325   -0.00331   -0.01602 
AFIX  43 
H11   2    0.216323    0.372935    0.478853    11.00000   -1.20000 
AFIX   0 
C12   1    0.125325    0.419408    0.639104    11.00000    0.08626    0.04076 = 
         0.08583   -0.01480   -0.01987   -0.00993 
AFIX  43 
H12   2    0.117778    0.509441    0.605642    11.00000   -1.20000 
AFIX   0 
C13   1    0.078598    0.366145    0.764497    11.00000    0.06891    0.06376 = 
         0.07011   -0.03886   -0.02140    0.00554 
C14   1    0.088404    0.234022    0.815803    11.00000    0.07377    0.07330 = 
         0.03530   -0.01905   -0.00869    0.00048 
AFIX  43 
H14   2    0.056969    0.199410    0.900978    11.00000   -1.20000 
AFIX   0 
C15   1    0.145393    0.153055    0.739696    11.00000    0.05925    0.04374 = 
         0.03707   -0.00800   -0.00973   -0.00549 
AFIX  43 
H15   2    0.151935    0.063124    0.773468    11.00000   -1.20000 
AFIX   0 
C16   1    0.476479    0.154814    0.101790    11.00000    0.03662    0.05610 = 
         0.03972   -0.02222   -0.00358   -0.00769 
C17   1    0.601545    0.107943    0.019678    11.00000    0.04158    0.05510 = 
         0.05096   -0.02393   -0.00363   -0.00360 
AFIX  43 
H17   2    0.652185    0.020934    0.042268    11.00000   -1.20000 
AFIX   0 
C18   1    0.651097    0.189513   -0.095049    11.00000    0.05040    0.06796 = 
         0.05174   -0.02754    0.01097   -0.01205 
AFIX  43 
H18   2    0.736320    0.158555   -0.149610    11.00000   -1.20000 
AFIX   0 
C19   1    0.573576    0.316728   -0.127989    11.00000    0.05680    0.06270 = 
         0.05160   -0.01462    0.00406   -0.01873 
C20   1    0.449815    0.365733   -0.047659    11.00000    0.05696    0.04901 = 
         0.06883   -0.01623    0.00091   -0.00721 
AFIX  43 
H20   2    0.398766    0.452576   -0.071225    11.00000   -1.20000 
AFIX   0 
C21   1    0.402679    0.284323    0.068097    11.00000    0.04744    0.05685 = 
         0.05698   -0.02697    0.00569   -0.00434 
AFIX  43 
H21   2    0.320792    0.316750    0.123782    11.00000   -1.20000 
AFIX   0 
CL1   5    0.004298    0.468770    0.860239    11.00000    0.13173    0.11352 = 
         0.13341   -0.09489   -0.03865    0.02659 
CL2   5    0.632747    0.418310   -0.275789    11.00000    0.11248    0.08558 = 
         0.07098   -0.00036    0.02253   -0.02309 
O1    3    0.089682    0.111658    0.117245    11.00000    0.07060    0.09625 = 
         0.04180   -0.02642   -0.01317   -0.01627 
S1    4    0.281653    0.095218    0.521986    11.00000    0.04889    0.06552 = 
         0.03947   -0.02209   -0.01379    0.00863 
S2    4    0.424468    0.043532    0.249195    11.00000    0.04667    0.06514 = 
         0.03793   -0.01551   -0.00372    0.00273 
HKLF 4 
  
REM  295 in P-1 
REM R1 =  0.0369 for    2777 Fo > 4sig(Fo)  and  0.0446 for all    3260 data 
REM    235 parameters refined using      0 restraints 
  
END 
  
WGHT      0.0374      0.6144 
  
REM Highest difference peak  0.349,  deepest hole -0.320,  1-sigma level  0.040 
Q1    1   0.3035  0.1799  0.4937  11.00000  0.05    0.35 
Q2    1  -0.0461  0.3971  0.8981  11.00000  0.05    0.31 
Q3    1   0.6333  0.4608 -0.2202  11.00000  0.05    0.30 
Q4    1   0.5195  0.4395 -0.2982  11.00000  0.05    0.25 
Q5    1   0.3089  0.0837  0.2645  11.00000  0.05    0.21 
;
_shelx_res_checksum              33064
_shelx_hkl_file
; 
  -1   0   0    6.16    0.11 
   1   0   0    6.50    0.11 
   1   0   0    6.07    0.11 
   1   0   0    6.19    0.11 
  -2   0   0   20.50    0.34 
  -2   0   0   20.84    0.33 
  -2   0   0   20.38    0.34 
   2   0   0   20.31    0.34 
   2   0   0   20.94    0.34 
   2   0   0   20.41    0.34 
  -3   0   0   13.85    0.26 
   3   0   0   13.62    0.28 
   3   0   0   13.55    0.27 
   3   0   0   14.01    0.27 
  -4   0   0   20.43    0.38 
   4   0   0   20.39    0.39 
   4   0   0   19.74    0.39 
   4   0   0   20.57    0.40 
   4   0   0   20.49    0.39 
  -5   0   0    4.64    0.16 
   5   0   0    4.37    0.16 
   5   0   0    4.47    0.17 
   5   0   0    4.55    0.17 
   5   0   0    4.85    0.18 
  -6   0   0    4.30    0.17 
   6   0   0    4.58    0.20 
   6   0   0    4.56    0.19 
   6   0   0    4.70    0.19 
   6   0   0    4.42    0.19 
  -7   0   0    3.56    0.17 
   7   0   0    3.47    0.18 
   7   0   0    3.47    0.18 
   7   0   0    3.47    0.20 
   7   0   0    3.44    0.18 
  -8   0   0    1.54    0.13 
   8   0   0    1.40    0.16 
   8   0   0    1.53    0.15 
   9   0   0   -0.18    0.07 
   9   0   0   -0.03    0.08 
  10   0   0   -0.02    0.09 
  10   0   0    0.10    0.09 
   9  -1   0    2.98    0.21 
   9  -1   0    3.47    0.25 
   8  -1   0    0.66    0.13 
   8  -1   0    0.54    0.10 
  -8   1   0    0.66    0.10 
   7  -1   0    3.01    0.19 
   7  -1   0    2.94    0.17 
   7  -1   0    2.56    0.16 
   7  -1   0    2.59    0.16 
   7  -1   0    2.63    0.16 
  -7   1   0    2.69    0.15 
   6  -1   0   33.52    0.64 
   6  -1   0   33.55    0.64 
   6  -1   0   34.00    0.64 
   6  -1   0   34.35    0.67 
  -6   1   0   34.46    0.62 
   5  -1   0    0.35    0.06 
   5  -1   0    0.41    0.07 
   5  -1   0    0.32    0.05 
  -5   1   0    0.31    0.05 
   4  -1   0    8.65    0.23 
   4  -1   0    8.63    0.22 
   4  -1   0    8.71    0.22 
   4  -1   0    9.17    0.22 
  -4   1   0    9.05    0.21 
  -4   1   0    8.80    0.21 
   3  -1   0   16.36    0.31 
   3  -1   0   16.23    0.32 
   3  -1   0   16.70    0.31 
   3  -1   0   16.93    0.31 
  -3   1   0   16.59    0.30 
  -3   1   0   16.10    0.30 
   2  -1   0   29.49    0.46 
   2  -1   0   28.89    0.46 
   2  -1   0   29.33    0.46 
  -2   1   0   29.56    0.46 
  -2   1   0   29.73    0.46 
   1  -1   0    0.29    0.02 
   1  -1   0    0.30    0.02 
   1  -1   0    0.27    0.02 
  -1   1   0    0.27    0.02 
  -1   1   0    0.25    0.02 
  -1   1   0    0.33    0.02 
   0   1   0   46.27    0.65 
   0   1   0   46.97    0.66 
   0   1   0   45.39    0.66 
  -1  -1   0   59.44    0.85 
  -1  -1   0   57.29    0.84 
  -1  -1   0   57.70    0.85 
  -1  -1   0   58.30    0.84 
   1   1   0   60.14    0.85 
   1   1   0   59.65    0.85 
   1   1   0   59.86    0.85 
   1   1   0   59.85    0.84 
  -2  -1   0  328.84    4.60 
  -2  -1   0  338.67    4.56 
  -2  -1   0  326.76    4.60 
   2   1   0  328.06    4.66 
   2   1   0  325.52    4.57 
   2   1   0  328.57    4.66 
  -3  -1   0   39.22    0.61 
  -3  -1   0   38.38    0.61 
   3   1   0   37.71    0.62 
   3   1   0   38.28    0.62 
   3   1   0   37.31    0.61 
   3   1   0   38.26    0.61 
  -4  -1   0   15.78    0.32 
  -4  -1   0   15.97    0.32 
   4   1   0   16.05    0.33 
   4   1   0   15.81    0.33 
   4   1   0   15.84    0.33 
   4   1   0   15.68    0.34 
  -5  -1   0   22.83    0.44 
   5   1   0   22.29    0.46 
   5   1   0   23.08    0.46 
   5   1   0   22.81    0.47 
   5   1   0   22.83    0.46 
  -6  -1   0    0.69    0.08 
   6   1   0    0.69    0.09 
   6   1   0    0.71    0.10 
   6   1   0    0.81    0.09 
   6   1   0    0.76    0.09 
  -7  -1   0    4.71    0.20 
   7   1   0    4.71    0.21 
   7   1   0    4.86    0.21 
   7   1   0    5.21    0.24 
   7   1   0    4.96    0.22 
  -8  -1   0    2.43    0.16 
   8   1   0    2.67    0.22 
   8   1   0    2.06    0.19 
   9   1   0    0.27    0.12 
  10   1   0    1.52    0.17 
  10   1   0    1.80    0.22 
   9  -2   0    0.49    0.12 
   9  -2   0    0.26    0.09 
   8  -2   0    0.30    0.09 
   8  -2   0    0.24    0.10 
   7  -2   0    4.48    0.23 
   7  -2   0    4.29    0.20 
   7  -2   0    4.26    0.20 
  -7   2   0    4.53    0.19 
   6  -2   0   12.73    0.33 
   6  -2   0   13.14    0.34 
   6  -2   0   12.72    0.34 
   6  -2   0   13.31    0.36 
  -6   2   0   13.26    0.32 
   5  -2   0    7.38    0.23 
   5  -2   0    7.18    0.22 
   5  -2   0    7.03    0.21 
   5  -2   0    7.27    0.22 
  -5   2   0    7.26    0.21 
  -5   2   0    7.23    0.20 
   4  -2   0    2.70    0.12 
   4  -2   0    2.52    0.11 
   4  -2   0    2.68    0.12 
  -4   2   0    2.66    0.11 
  -4   2   0    2.66    0.11 
   3  -2   0    8.77    0.20 
   3  -2   0    8.51    0.20 
   3  -2   0    8.61    0.20 
  -3   2   0    8.61    0.20 
  -3   2   0    8.87    0.20 
   2  -2   0    8.58    0.18 
   2  -2   0    8.43    0.18 
   2  -2   0    8.33    0.18 
  -2   2   0    8.53    0.18 
  -2   2   0    8.61    0.18 
  -2   2   0    8.24    0.18 
   1  -2   0   62.69    0.93 
   1  -2   0   64.26    0.93 
   1  -2   0   65.67    0.93 
  -1   2   0   65.25    0.93 
  -1   2   0   62.94    0.93 
  -1   2   0   64.68    0.93 
   0  -2   0   30.91    0.48 
   0  -2   0   31.15    0.48 
   0  -2   0   30.94    0.48 
   0  -2   0   30.63    0.47 
   0   2   0   31.21    0.48 
   0   2   0   30.87    0.48 
   0   2   0   31.68    0.48 
  -1  -2   0  144.78    2.05 
  -1  -2   0  143.63    2.06 
  -1  -2   0  148.38    2.06 
  -1  -2   0  149.50    2.05 
   1   2   0  146.39    2.06 
   1   2   0  145.18    2.06 
   1   2   0  146.03    2.04 
   1   2   0  148.00    2.05 
  -2  -2   0   77.35    1.12 
  -2  -2   0   77.23    1.12 
  -2  -2   0   76.41    1.13 
  -2  -2   0   76.27    1.13 
   2   2   0   75.40    1.13 
   2   2   0   76.12    1.13 
   2   2   0   75.61    1.13 
   2   2   0   77.23    1.13 
  -3  -2   0   16.61    0.32 
  -3  -2   0   16.76    0.33 
  -3  -2   0   17.02    0.33 
   3   2   0   17.27    0.35 
   3   2   0   16.70    0.33 
   3   2   0   16.54    0.33 
   3   2   0   16.50    0.34 
  -4  -2   0    2.98    0.12 
  -4  -2   0    3.19    0.13 
  -4  -2   0    3.13    0.13 
   4   2   0    2.97    0.13 
   4   2   0    2.79    0.13 
   4   2   0    2.97    0.13 
   4   2   0    3.23    0.13 
  -5  -2   0    1.21    0.10 
   5   2   0    1.26    0.11 
   5   2   0    1.34    0.11 
   5   2   0    1.30    0.10 
   5   2   0    1.30    0.10 
  -6  -2   0    0.16    0.06 
   6   2   0    0.36    0.07 
   6   2   0    0.47    0.08 
   6   2   0    0.15    0.06 
   6   2   0    0.10    0.05 
  -7  -2   0    7.22    0.25 
   7   2   0    7.50    0.29 
   7   2   0    6.80    0.26 
   7   2   0    6.41    0.25 
  -8  -2   0    0.04    0.06 
   8   2   0   -0.06    0.07 
   8   2   0    0.10    0.06 
   9   2   0    0.16    0.10 
  10   2   0    0.56    0.16 
  10   2   0    0.56    0.15 
   9  -3   0    0.14    0.08 
   9  -3   0    0.12    0.09 
   8  -3   0    0.12    0.07 
   8  -3   0    0.06    0.09 
   7  -3   0    1.81    0.17 
   7  -3   0    1.73    0.15 
   7  -3   0    1.88    0.21 
  -7   3   0    1.83    0.13 
   6  -3   0   35.79    0.68 
   6  -3   0   35.38    0.67 
   6  -3   0   34.52    0.68 
   6  -3   0   35.73    0.70 
  -6   3   0   36.28    0.65 
  -6   3   0   34.83    0.63 
   5  -3   0   18.01    0.40 
   5  -3   0   18.17    0.39 
   5  -3   0   17.87    0.40 
  -5   3   0   18.35    0.37 
  -5   3   0   17.52    0.37 
   4  -3   0    0.97    0.08 
   4  -3   0    1.10    0.08 
   4  -3   0    1.18    0.09 
  -4   3   0    1.14    0.08 
  -4   3   0    1.11    0.08 
   3  -3   0    5.90    0.17 
   3  -3   0    5.63    0.17 
   3  -3   0    5.86    0.17 
  -3   3   0    5.74    0.16 
  -3   3   0    5.61    0.16 
  -3   3   0    5.95    0.16 
   2  -3   0    9.17    0.20 
   2  -3   0    9.13    0.21 
   2  -3   0    8.95    0.21 
  -2   3   0    9.02    0.20 
  -2   3   0    8.77    0.20 
  -2   3   0    8.90    0.20 
   1  -3   0    4.80    0.13 
   1  -3   0    5.08    0.13 
   1  -3   0    4.96    0.13 
   1  -3   0    4.92    0.14 
  -1   3   0    5.19    0.13 
  -1   3   0    5.10    0.13 
   0  -3   0  137.92    1.95 
   0  -3   0  137.88    1.95 
   0  -3   0  133.45    1.93 
   0  -3   0  136.66    1.95 
   0   3   0  136.24    1.95 
   0   3   0  139.76    1.94 
   0   3   0  138.91    1.94 
  -1  -3   0  711.40    9.82 
  -1  -3   0  691.60    9.77 
  -1  -3   0  698.51    9.72 
  -1  -3   0  694.91    9.63 
   1   3   0  705.64    9.69 
   1   3   0  695.24    9.66 
   1   3   0  660.70    9.84 
   1   3   0  695.71    9.81 
  -2  -3   0   34.00    0.57 
  -2  -3   0   34.09    0.57 
  -2  -3   0   34.24    0.58 
  -2  -3   0   34.36    0.58 
   2   3   0   34.49    0.57 
   2   3   0   35.16    0.58 
   2   3   0   33.79    0.58 
   2   3   0   34.39    0.59 
  -3  -3   0    0.31    0.05 
  -3  -3   0    0.34    0.05 
  -3  -3   0    0.30    0.05 
   3   3   0    0.32    0.05 
   3   3   0    0.29    0.05 
   3   3   0    0.31    0.05 
   3   3   0    0.29    0.05 
  -4  -3   0    9.17    0.24 
  -4  -3   0    9.40    0.25 
  -4  -3   0    9.59    0.24 
   4   3   0    8.75    0.26 
   4   3   0    9.39    0.25 
   4   3   0    8.88    0.25 
   4   3   0    8.84    0.26 
  -5  -3   0    2.94    0.14 
  -5  -3   0    2.93    0.14 
   5   3   0    2.68    0.15 
   5   3   0    3.21    0.15 
   5   3   0    2.93    0.15 
   5   3   0    2.83    0.17 
   5   3   0    3.19    0.17 
  -6  -3   0    2.11    0.14 
   6   3   0    1.99    0.14 
   6   3   0    1.94    0.16 
   6   3   0    2.04    0.17 
   6   3   0    1.95    0.14 
   6   3   0    1.91    0.14 
  -7  -3   0    0.64    0.09 
   7   3   0    0.61    0.10 
   7   3   0    0.59    0.10 
   7   3   0    0.83    0.13 
   7   3   0    0.65    0.12 
  -8  -3   0    3.31    0.19 
   8   3   0    3.03    0.23 
   8   3   0    2.93    0.25 
   8   3   0    3.31    0.24 
   9   3   0    0.63    0.15 
   9   3   0    0.79    0.15 
  10   3   0    0.02    0.12 
  10   3   0    0.12    0.11 
   9  -4   0    0.29    0.10 
   9  -4   0    0.52    0.14 
   8  -4   0    0.95    0.15 
   8  -4   0    0.90    0.13 
   7  -4   0    0.18    0.08 
   7  -4   0    0.07    0.07 
  -7   4   0    0.17    0.07 
   6  -4   0    0.47    0.08 
   6  -4   0    0.71    0.10 
   6  -4   0    0.87    0.11 
   6  -4   0    0.79    0.11 
  -6   4   0    0.81    0.09 
  -6   4   0    0.74    0.09 
   5  -4   0   18.46    0.41 
   5  -4   0   19.17    0.43 
   5  -4   0   18.28    0.42 
  -5   4   0   18.88    0.40 
  -5   4   0   18.45    0.39 
   4  -4   0    1.65    0.10 
   4  -4   0    1.91    0.11 
   4  -4   0    1.79    0.11 
  -4   4   0    1.47    0.09 
  -4   4   0    1.74    0.10 
   3  -4   0   22.03    0.43 
   3  -4   0   21.70    0.42 
   3  -4   0   22.53    0.43 
  -3   4   0   21.89    0.41 
  -3   4   0   21.53    0.41 
  -3   4   0   21.56    0.41 
   2  -4   0    8.96    0.22 
   2  -4   0    8.74    0.22 
   2  -4   0    8.68    0.22 
  -2   4   0    8.59    0.21 
  -2   4   0    8.71    0.21 
   1  -4   0   47.12    0.76 
   1  -4   0   46.47    0.76 
   1  -4   0   48.18    0.76 
   1  -4   0   48.43    0.75 
  -1   4   0   47.33    0.75 
  -1   4   0   47.70    0.75 
   0  -4   0   32.96    0.54 
   0  -4   0   32.21    0.56 
   0  -4   0   32.81    0.56 
   0  -4   0   32.24    0.56 
   0   4   0   32.14    0.55 
   0   4   0   33.20    0.55 
   0   4   0   32.25    0.55 
  -1  -4   0   65.72    0.99 
  -1  -4   0   64.65    1.01 
  -1  -4   0   63.60    1.01 
   1   4   0   64.01    1.01 
   1   4   0   65.19    1.00 
   1   4   0   65.67    1.01 
   1   4   0   65.74    0.98 
  -2  -4   0   50.86    0.84 
  -2  -4   0   52.78    0.84 
  -2  -4   0   51.39    0.82 
  -2  -4   0   50.15    0.83 
   2   4   0   49.65    0.83 
   2   4   0   51.39    0.83 
   2   4   0   50.92    0.81 
   2   4   0   50.54    0.84 
  -3  -4   0    2.41    0.12 
  -3  -4   0    2.38    0.12 
  -3  -4   0    2.08    0.12 
  -3  -4   0    2.40    0.12 
   3   4   0    2.35    0.12 
   3   4   0    2.24    0.12 
   3   4   0    2.34    0.12 
   3   4   0    2.31    0.13 
  -4  -4   0    0.55    0.08 
  -4  -4   0    0.57    0.07 
   4   4   0    0.50    0.08 
   4   4   0    0.51    0.08 
   4   4   0    0.57    0.09 
   4   4   0    0.57    0.08 
  -5  -4   0    1.25    0.11 
  -5  -4   0    1.31    0.11 
   5   4   0    1.34    0.12 
   5   4   0    1.11    0.11 
   5   4   0    1.22    0.12 
   5   4   0    1.36    0.13 
  -6  -4   0    0.06    0.05 
  -6  -4   0    0.00    0.05 
   6   4   0    0.05    0.06 
   6   4   0    0.09    0.06 
   6   4   0    0.01    0.06 
   6   4   0    0.05    0.05 
  -7  -4   0    0.48    0.09 
   7   4   0    0.37    0.10 
   7   4   0    0.54    0.10 
   7   4   0    0.41    0.11 
   7   4   0    0.36    0.08 
  -8  -4   0    1.36    0.14 
   8   4   0    1.14    0.17 
   8   4   0    1.40    0.18 
   9   4   0    1.01    0.18 
   9   4   0    1.20    0.18 
  10   4   0    0.33    0.15 
  10   4   0    0.43    0.13 
   8  -5   0    0.88    0.14 
   8  -5   0    0.92    0.13 
   7  -5   0    6.16    0.28 
   7  -5   0    5.93    0.26 
   6  -5   0    1.12    0.13 
   6  -5   0    0.88    0.11 
  -6   5   0    1.13    0.10 
  -6   5   0    1.01    0.11 
   5  -5   0    8.32    0.27 
   5  -5   0    8.33    0.27 
   5  -5   0    8.62    0.27 
  -5   5   0    8.39    0.25 
  -5   5   0    8.47    0.24 
   4  -5   0   12.87    0.33 
   4  -5   0   11.98    0.32 
   4  -5   0   12.54    0.31 
  -4   5   0   12.39    0.29 
  -4   5   0   12.57    0.31 
   3  -5   0    0.09    0.04 
   3  -5   0    0.06    0.04 
   3  -5   0    0.01    0.04 
  -3   5   0    0.10    0.04 
  -3   5   0    0.06    0.04 
   2  -5   0    1.46    0.10 
   2  -5   0    1.49    0.10 
   2  -5   0    1.55    0.10 
   2  -5   0    1.40    0.10 
  -2   5   0    1.52    0.09 
  -2   5   0    1.42    0.09 
   1  -5   0    8.84    0.24 
   1  -5   0    8.68    0.24 
   1  -5   0    8.67    0.23 
   1  -5   0    8.68    0.24 
  -1   5   0    8.64    0.22 
  -1   5   0    8.62    0.22 
   0  -5   0    0.00    0.03 
   0  -5   0    0.09    0.04 
   0  -5   0    0.01    0.03 
   0  -5   0   -0.01    0.03 
   0   5   0    0.01    0.03 
   0   5   0    0.18    0.04 
   0   5   0    0.06    0.03 
  -1  -5   0   30.86    0.55 
  -1  -5   0   31.06    0.58 
  -1  -5   0   30.64    0.57 
  -1  -5   0   30.64    0.57 
   1   5   0   31.21    0.57 
   1   5   0   30.84    0.54 
   1   5   0   31.02    0.56 
   1   5   0   31.01    0.56 
  -2  -5   0   22.78    0.45 
  -2  -5   0   22.07    0.46 
  -2  -5   0   21.70    0.46 
  -2  -5   0   21.77    0.46 
   2   5   0   25.51    0.45 
   2   5   0   22.06    0.45 
   2   5   0   22.06    0.47 
   2   5   0   22.38    0.46 
  -3  -5   0    7.20    0.23 
  -3  -5   0    7.86    0.24 
  -3  -5   0    8.06    0.27 
   3   5   0    7.21    0.23 
   3   5   0    7.19    0.24 
   3   5   0    7.39    0.24 
   3   5   0    7.33    0.23 
  -4  -5   0    3.24    0.17 
  -4  -5   0    2.94    0.16 
   4   5   0    2.96    0.17 
   4   5   0    2.98    0.16 
   4   5   0    2.67    0.16 
   4   5   0    2.86    0.16 
  -5  -5   0    3.10    0.17 
  -5  -5   0    2.93    0.17 
   5   5   0    3.28    0.18 
   5   5   0    3.28    0.19 
   5   5   0    2.90    0.17 
   5   5   0    3.37    0.19 
  -6  -5   0    2.78    0.17 
  -6  -5   0    3.02    0.17 
   6   5   0    3.13    0.18 
   6   5   0    3.19    0.21 
   6   5   0    3.02    0.18 
   6   5   0    2.81    0.19 
  -7  -5   0    0.27    0.08 
  -7  -5   0    0.23    0.08 
   7   5   0    0.27    0.10 
   7   5   0    0.25    0.10 
   7   5   0    0.27    0.09 
  -8  -5   0    2.04    0.17 
   8   5   0    2.20    0.22 
   8   5   0    1.95    0.20 
  -9  -5   0    2.39    0.30 
   9   5   0    2.56    0.28 
   9   5   0    2.51    0.26 
   8  -6   0    0.25    0.09 
   8  -6   0    0.03    0.09 
   7  -6   0    0.17    0.08 
   7  -6   0    0.02    0.08 
   6  -6   0    1.18    0.14 
   5  -6   0    4.87    0.21 
   5  -6   0    5.09    0.23 
  -5   6   0    5.25    0.19 
   4  -6   0    3.14    0.16 
   4  -6   0    3.08    0.17 
   4  -6   0    3.09    0.17 
   4  -6   0    3.06    0.18 
  -4   6   0    2.99    0.14 
   3  -6   0    0.05    0.06 
   3  -6   0   -0.04    0.04 
   3  -6   0   -0.02    0.04 
   3  -6   0    0.03    0.05 
  -3   6   0    0.01    0.04 
   2  -6   0    0.40    0.07 
   2  -6   0    0.51    0.08 
   2  -6   0    0.26    0.06 
   2  -6   0    0.52    0.08 
  -2   6   0    0.40    0.07 
  -2   6   0    0.30    0.06 
   1  -6   0    1.71    0.11 
   1  -6   0    1.89    0.11 
   1  -6   0    1.73    0.12 
   1  -6   0    1.50    0.11 
  -1   6   0    1.56    0.10 
  -1   6   0    1.69    0.11 
   0  -6   0    7.39    0.23 
   0  -6   0    6.70    0.23 
   0  -6   0    7.08    0.23 
   0   6   0    7.68    0.22 
   0   6   0    7.50    0.22 
   0   6   0    7.54    0.23 
  -1  -6   0   26.16    0.53 
  -1  -6   0   26.04    0.53 
  -1  -6   0   25.42    0.52 
   1   6   0   26.81    0.51 
   1   6   0   25.56    0.52 
   1   6   0   26.22    0.51 
  -2  -6   0   91.81    1.49 
  -2  -6   0   86.67    1.40 
  -2  -6   0   86.72    1.39 
   2   6   0   87.05    1.35 
   2   6   0   86.56    1.38 
   2   6   0   88.98    1.40 
   2   6   0   86.10    1.38 
  -3  -6   0   26.79    0.56 
  -3  -6   0   27.86    0.56 
   3   6   0   26.93    0.54 
   3   6   0   26.42    0.57 
   3   6   0   26.53    0.56 
   3   6   0   27.06    0.55 
  -4  -6   0   23.21    0.51 
  -4  -6   0   23.89    0.52 
   4   6   0   23.44    0.54 
   4   6   0   23.27    0.52 
   4   6   0   23.34    0.51 
  -5  -6   0    0.05    0.06 
  -5  -6   0   -0.07    0.06 
   5   6   0   -0.05    0.06 
   5   6   0    0.28    0.08 
   5   6   0   -0.07    0.05 
   5   6   0   -0.05    0.07 
  -6  -6   0    1.42    0.15 
  -6  -6   0    1.51    0.15 
   6   6   0    1.59    0.17 
   6   6   0    1.68    0.19 
   6   6   0    1.72    0.16 
  -7  -6   0    0.09    0.07 
  -7  -6   0    0.05    0.07 
   7   6   0    0.04    0.10 
   7   6   0    0.03    0.08 
   7   6   0   -0.01    0.09 
  -8  -6   0    0.70    0.12 
   8   6   0    0.82    0.17 
   8   6   0    0.51    0.13 
   9   6   0    1.26    0.19 
   9   6   0    0.91    0.17 
   7  -7   0    0.12    0.09 
   6  -7   0    2.31    0.19 
   5  -7   0    0.75    0.12 
   5  -7   0    0.91    0.13 
   4  -7   0   21.40    0.50 
   4  -7   0   22.74    0.55 
   4  -7   0   22.50    0.53 
   4  -7   0   21.93    0.53 
  -4   7   0   22.31    0.47 
   3  -7   0    2.33    0.15 
   3  -7   0    2.09    0.16 
   3  -7   0    2.58    0.16 
   3  -7   0    2.16    0.15 
  -3   7   0    2.12    0.13 
   2  -7   0    5.00    0.22 
   2  -7   0    5.83    0.21 
   2  -7   0    5.27    0.22 
   2  -7   0    5.39    0.23 
  -2   7   0    4.89    0.19 
   1  -7   0    3.77    0.18 
   1  -7   0    3.56    0.17 
   1  -7   0    3.34    0.17 
   1  -7   0    3.34    0.18 
  -1   7   0    3.76    0.17 
   0  -7   0    0.04    0.05 
   0  -7   0    0.13    0.05 
   0  -7   0    0.09    0.05 
   0  -7   0    0.08    0.05 
   0   7   0    0.05    0.05 
  -1  -7   0    1.47    0.13 
  -1  -7   0    1.41    0.13 
   1   7   0    1.33    0.16 
   1   7   0    1.61    0.13 
  -2  -7   0   17.83    0.44 
  -2  -7   0   17.26    0.43 
   2   7   0   17.05    0.43 
   2   7   0   17.42    0.40 
  -3  -7   0    0.00    0.05 
  -3  -7   0    0.03    0.05 
   3   7   0    0.10    0.06 
   3   7   0   -0.04    0.04 
   3   7   0    0.07    0.06 
  -4  -7   0    0.13    0.08 
  -4  -7   0    0.12    0.07 
   4   7   0    0.16    0.07 
   4   7   0    0.15    0.06 
  -5  -7   0    1.62    0.16 
  -5  -7   0    1.62    0.15 
   5   7   0    1.60    0.15 
   5   7   0    1.36    0.14 
  -6  -7   0   -0.08    0.06 
  -6  -7   0    0.05    0.08 
   6   7   0    0.06    0.07 
   6   7   0   -0.10    0.07 
  -7  -7   0    0.63    0.12 
  -7  -7   0    0.54    0.12 
   7   7   0    0.39    0.11 
   7   7   0    0.53    0.13 
  -8  -7   0    0.88    0.14 
   8   7   0    0.61    0.14 
   8   7   0    0.65    0.16 
   9   7   0    0.28    0.11 
   9   7   0    0.04    0.13 
   6  -8   0    0.03    0.07 
   6  -8   0   -0.01    0.08 
   5  -8   0    1.75    0.18 
   5  -8   0    2.16    0.18 
   4  -8   0    5.72    0.27 
   4  -8   0    6.40    0.29 
  -4   8   0    5.57    0.21 
   3  -8   0    3.75    0.20 
   3  -8   0    4.23    0.24 
   3  -8   0    3.93    0.22 
  -3   8   0    4.15    0.19 
   2  -8   0    0.22    0.09 
   2  -8   0    0.32    0.09 
   2  -8   0    0.43    0.10 
  -2   8   0    0.34    0.08 
   1  -8   0   -0.10    0.06 
   1  -8   0   -0.06    0.06 
   1  -8   0   -0.02    0.05 
  -1   8   0   -0.08    0.05 
   0  -8   0    0.08    0.07 
   0  -8   0    0.31    0.08 
   0  -8   0    0.25    0.08 
   0   8   0    0.30    0.08 
  -1  -8   0    6.19    0.26 
  -1  -8   0    5.46    0.24 
   1   8   0    5.73    0.24 
  -2  -8   0    3.12    0.20 
  -2  -8   0    3.24    0.20 
   2   8   0    3.23    0.20 
  -3  -8   0   11.64    0.38 
  -3  -8   0   11.61    0.37 
   3   8   0   11.70    0.34 
   3   8   0   12.40    0.39 
  -4  -8   0    9.58    0.34 
  -4  -8   0   10.00    0.35 
   4   8   0    9.35    0.31 
   4   8   0   10.19    0.37 
  -5  -8   0    2.96    0.21 
  -5  -8   0    2.28    0.18 
   5   8   0    2.38    0.21 
   5   8   0    2.11    0.18 
  -6  -8   0    0.47    0.11 
  -6  -8   0    0.52    0.12 
   6   8   0    0.52    0.11 
   6   8   0    0.42    0.13 
  -7  -8   0    0.15    0.09 
  -7  -8   0    0.01    0.08 
   7   8   0   -0.08    0.09 
   7   8   0   -0.11    0.08 
  -8  -8   0    0.03    0.09 
   8   8   0    0.27    0.13 
   8   8   0    0.05    0.10 
   6  -9   0    0.10    0.10 
   6  -9   0    0.15    0.09 
   5  -9   0   -0.01    0.09 
   5  -9   0   -0.11    0.07 
   4  -9   0    0.35    0.11 
   4  -9   0    0.13    0.09 
   3  -9   0    7.71    0.31 
   3  -9   0    8.05    0.34 
  -3   9   0    7.45    0.26 
   2  -9   0    4.34    0.24 
   2  -9   0    3.85    0.24 
   2  -9   0    4.07    0.22 
  -2   9   0    4.21    0.21 
   1  -9   0    2.99    0.19 
   1  -9   0    3.34    0.23 
   1  -9   0    2.80    0.20 
  -1   9   0    2.92    0.18 
   0  -9   0    0.39    0.11 
   0  -9   0    0.38    0.10 
   0   9   0    0.54    0.11 
  -1  -9   0    0.14    0.09 
  -1  -9   0    0.25    0.10 
   1   9   0    0.22    0.09 
  -2  -9   0    4.37    0.26 
  -2  -9   0    4.22    0.26 
   2   9   0    4.67    0.25 
  -3  -9   0   20.58    0.55 
  -3  -9   0   21.37    0.56 
   3   9   0   21.70    0.56 
   3   9   0   20.81    0.50 
  -4  -9   0    0.91    0.15 
  -4  -9   0    0.79    0.14 
   4   9   0    0.98    0.15 
   4   9   0    0.72    0.12 
  -5  -9   0    0.11    0.08 
  -5  -9   0    0.04    0.08 
   5   9   0    0.32    0.11 
   5   9   0    0.16    0.09 
  -6  -9   0    0.68    0.14 
  -6  -9   0    0.53    0.12 
   6   9   0    0.71    0.13 
   6   9   0    0.81    0.16 
  -7  -9   0    0.07    0.09 
   7   9   0    0.20    0.12 
   7   9   0    0.30    0.11 
  -8  -9   0   -0.05    0.08 
   8   9   0    0.08    0.12 
   8   9   0   -0.11    0.08 
   5 -10   0    0.22    0.12 
   5 -10   0    0.20    0.11 
   4 -10   0    0.12    0.10 
   4 -10   0    0.28    0.13 
   3 -10   0    1.60    0.19 
   3 -10   0    1.43    0.18 
   2 -10   0    0.11    0.08 
   2 -10   0    0.06    0.09 
  -2  10   0   -0.04    0.06 
   1 -10   0    0.20    0.10 
   1 -10   0    0.06    0.08 
  -1  10   0    0.29    0.09 
   0 -10   0    0.07    0.09 
   0 -10   0    0.13    0.09 
   0  10   0    0.01    0.07 
  -1 -10   0    0.32    0.11 
  -1 -10   0    0.28    0.11 
   1  10   0    0.29    0.10 
  -2 -10   0    7.97    0.34 
  -2 -10   0    8.07    0.36 
   2  10   0    7.79    0.33 
  -3 -10   0    0.79    0.15 
  -3 -10   0    1.01    0.17 
   3  10   0    0.88    0.15 
  -4 -10   0   -0.10    0.08 
  -4 -10   0    0.01    0.09 
   4  10   0   -0.09    0.10 
   4  10   0    0.03    0.07 
  -5 -10   0    0.00    0.10 
  -5 -10   0    0.11    0.10 
   5  10   0    0.09    0.08 
   5  10   0   -0.03    0.10 
  -6 -10   0    0.23    0.10 
  -6 -10   0    0.12    0.11 
   6  10   0    0.18    0.11 
   6  10   0    0.24    0.10 
  -7 -10   0    0.72    0.14 
   7  10   0    0.74    0.18 
   7  10   0    0.56    0.13 
   3 -11   0    1.05    0.17 
   3 -11   0    1.01    0.19 
   2 -11   0    1.09    0.17 
   2 -11   0    1.14    0.18 
   1 -11   0    0.39    0.12 
   1 -11   0    0.38    0.13 
  -1  11   0    0.39    0.10 
   0 -11   0    0.03    0.09 
   0 -11   0   -0.01    0.10 
   0  11   0   -0.01    0.07 
  -1 -11   0    0.05    0.10 
  -1 -11   0    0.02    0.09 
   1  11   0   -0.01    0.07 
  -2 -11   0    0.39    0.13 
  -2 -11   0    0.49    0.15 
   2  11   0    0.42    0.11 
  -3 -11   0    2.65    0.25 
  -3 -11   0    2.98    0.27 
   3  11   0    3.04    0.25 
  -4 -11   0    0.73    0.16 
  -4 -11   0    0.99    0.17 
   4  11   0    0.62    0.18 
  -5 -11   0    0.83    0.16 
  -5 -11   0    0.60    0.14 
   5  11   0    0.99    0.20 
   5  11   0    0.55    0.12 
  -6 -11   0   -0.05    0.10 
  -6 -11   0    0.18    0.15 
   6  11   0    0.17    0.14 
   6  11   0    0.22    0.10 
   2 -12   0    0.49    0.15 
   2 -12   0    0.68    0.15 
   1 -12   0   -0.02    0.11 
   1 -12   0    0.07    0.11 
   0 -12   0   -0.07    0.11 
   0 -12   0    0.11    0.11 
   0  12   0    0.03    0.11 
  -1 -12   0   -0.02    0.10 
  -1 -12   0   -0.19    0.09 
   1  12   0    0.06    0.09 
  -2 -12   0    0.38    0.13 
  -2 -12   0    0.22    0.13 
   2  12   0    0.11    0.09 
  -3 -12   0    2.51    0.28 
  -3 -12   0    2.31    0.24 
   3  12   0    2.66    0.25 
  -4 -12   0    0.48    0.15 
  -4 -12   0    0.57    0.16 
   4  12   0    0.29    0.11 
  -5 -12   0    0.79    0.16 
  -5 -12   0    0.56    0.15 
   5  12   0    0.97    0.21 
   4  12  -1    0.07    0.11 
  -4 -12   1   -0.02    0.11 
  -4 -12   1    0.08    0.11 
   3  12  -1    0.75    0.14 
  -3 -12   1    0.98    0.18 
  -3 -12   1    1.11    0.19 
   2  12  -1    0.06    0.09 
  -2 -12   1   -0.14    0.11 
  -2 -12   1    0.19    0.12 
   1  12  -1    0.13    0.11 
  -1 -12   1    0.26    0.14 
  -1 -12   1    0.05    0.12 
   0  12  -1    0.12    0.10 
   0 -12   1    0.02    0.11 
   0 -12   1    0.29    0.14 
   1 -12   1    0.30    0.14 
   1 -12   1    0.24    0.14 
   6  11  -1   -0.14    0.10 
   6  11  -1   -0.03    0.08 
  -6 -11   1   -0.09    0.09 
   5  11  -1   -0.06    0.10 
   5  11  -1    0.03    0.09 
  -5 -11   1    0.03    0.10 
  -5 -11   1   -0.10    0.10 
   4  11  -1    2.41    0.21 
   4  11  -1    1.78    0.22 
  -4 -11   1    2.08    0.24 
  -4 -11   1    1.59    0.21 
   3  11  -1    6.33    0.34 
  -3 -11   1    6.04    0.34 
  -3 -11   1    6.53    0.36 
   2  11  -1   -0.04    0.08 
  -2 -11   1    0.02    0.11 
  -2 -11   1    0.06    0.11 
   1  11  -1    0.23    0.10 
  -1 -11   1    0.24    0.12 
  -1 -11   1    0.24    0.13 
   0  11  -1    0.25    0.10 
   0 -11   1    0.30    0.11 
   0 -11   1    0.34    0.12 
  -1  11  -1    0.22    0.10 
   1 -11   1    0.18    0.12 
   1 -11   1    0.22    0.12 
   2 -11   1    0.04    0.10 
   2 -11   1   -0.04    0.10 
   3 -11   1    0.00    0.10 
   3 -11   1    0.08    0.11 
   7  10  -1    0.10    0.10 
   7  10  -1   -0.02    0.12 
  -7 -10   1   -0.02    0.09 
   6  10  -1   -0.03    0.09 
   6  10  -1    0.00    0.11 
  -6 -10   1   -0.16    0.08 
   5  10  -1    0.04    0.10 
   5  10  -1    0.02    0.09 
  -5 -10   1   -0.05    0.09 
  -5 -10   1    0.00    0.08 
   4  10  -1    0.47    0.14 
   4  10  -1    0.52    0.12 
  -4 -10   1    0.67    0.14 
  -4 -10   1    0.37    0.11 
   3  10  -1   -0.02    0.10 
  -3 -10   1    0.06    0.09 
  -3 -10   1    0.15    0.10 
   2  10  -1   -0.11    0.07 
  -2 -10   1   -0.05    0.08 
  -2 -10   1   -0.09    0.09 
   1  10  -1    0.14    0.09 
  -1 -10   1    0.25    0.11 
  -1 -10   1    0.15    0.11 
   0  10  -1    0.40    0.11 
   0 -10   1    0.48    0.12 
   0 -10   1    0.13    0.10 
  -1  10  -1    0.15    0.08 
   1 -10   1    0.05    0.09 
   1 -10   1    0.11    0.09 
  -2  10  -1   -0.02    0.06 
   2 -10   1   -0.03    0.08 
   2 -10   1   -0.07    0.07 
   3 -10   1    0.07    0.10 
   3 -10   1    0.19    0.11 
   4 -10   1    0.11    0.12 
   4 -10   1    0.45    0.13 
   8   9  -1   -0.06    0.11 
  -8  -9   1    0.10    0.09 
   7   9  -1   -0.09    0.08 
   7   9  -1   -0.07    0.11 
  -7  -9   1    0.13    0.09 
   6   9  -1    0.15    0.11 
   6   9  -1    0.33    0.11 
  -6  -9   1    0.26    0.11 
  -6  -9   1    0.26    0.11 
   5   9  -1    0.03    0.09 
   5   9  -1    0.06    0.08 
  -5  -9   1    0.11    0.09 
  -5  -9   1    0.10    0.09 
   4   9  -1    0.71    0.14 
   4   9  -1    0.72    0.12 
  -4  -9   1    0.97    0.15 
  -4  -9   1    0.81    0.14 
   3   9  -1    1.77    0.17 
   3   9  -1    1.19    0.15 
  -3  -9   1    1.60    0.17 
  -3  -9   1    1.26    0.15 
   2   9  -1    5.34    0.28 
  -2  -9   1    5.67    0.29 
  -2  -9   1    5.44    0.30 
   1   9  -1    9.65    0.35 
  -1  -9   1   10.07    0.37 
  -1  -9   1    9.66    0.37 
   0   9  -1    0.50    0.11 
   0  -9   1    0.45    0.12 
   0  -9   1    0.43    0.11 
  -1   9  -1    0.22    0.08 
   1  -9   1    0.19    0.09 
   1  -9   1    0.11    0.09 
  -2   9  -1    2.10    0.17 
   2  -9   1    1.97    0.19 
   2  -9   1    2.14    0.20 
  -3   9  -1   -0.01    0.06 
   3  -9   1    0.06    0.07 
   3  -9   1    0.09    0.09 
   4  -9   1    2.24    0.22 
   4  -9   1    2.08    0.20 
   5  -9   1    2.66    0.27 
   5  -9   1    2.47    0.22 
   8   8  -1    0.91    0.17 
   8   8  -1    0.98    0.17 
  -8  -8   1    0.89    0.15 
   7   8  -1    1.01    0.17 
   7   8  -1    0.57    0.16 
  -7  -8   1    0.58    0.12 
   6   8  -1    1.05    0.15 
   6   8  -1    1.01    0.18 
  -6  -8   1    1.20    0.16 
  -6  -8   1    1.25    0.15 
   5   8  -1    0.19    0.10 
   5   8  -1    0.08    0.07 
  -5  -8   1   -0.02    0.08 
  -5  -8   1    0.05    0.07 
   4   8  -1    2.65    0.22 
   4   8  -1    2.28    0.18 
  -4  -8   1    2.15    0.19 
  -4  -8   1    2.45    0.20 
   3   8  -1    0.33    0.10 
   3   8  -1    0.17    0.08 
  -3  -8   1    0.21    0.08 
  -3  -8   1    0.25    0.10 
   2   8  -1   67.65    1.15 
   2   8  -1   67.64    1.20 
  -2  -8   1   67.16    1.20 
  -2  -8   1   67.20    1.21 
   1   8  -1    3.56    0.21 
  -1  -8   1    3.25    0.21 
  -1  -8   1    3.72    0.23 
   0   8  -1    3.58    0.20 
   0  -8   1    3.48    0.25 
   0  -8   1    3.91    0.22 
   0  -8   1    3.66    0.21 
  -1   8  -1    7.83    0.28 
   1  -8   1    7.37    0.29 
   1  -8   1    7.72    0.28 
   1  -8   1    7.36    0.30 
  -2   8  -1    1.90    0.16 
   2  -8   1    1.94    0.16 
   2  -8   1    1.74    0.17 
   2  -8   1    2.32    0.19 
  -3   8  -1    0.00    0.06 
   3  -8   1    0.00    0.08 
   3  -8   1    0.07    0.08 
   3  -8   1    0.00    0.07 
  -4   8  -1    0.33    0.09 
   4  -8   1    0.44    0.11 
   4  -8   1    0.17    0.11 
   5  -8   1    2.32    0.20 
   5  -8   1    2.80    0.23 
   6  -8   1    1.40    0.18 
   6  -8   1    1.63    0.21 
   9   7  -1    1.66    0.22 
   9   7  -1    1.23    0.21 
   8   7  -1    4.47    0.32 
   8   7  -1    3.91    0.28 
  -8  -7   1    3.39    0.23 
   7   7  -1    1.29    0.17 
   7   7  -1    1.25    0.17 
  -7  -7   1    1.44    0.16 
  -7  -7   1    1.57    0.24 
   6   7  -1    0.08    0.09 
   6   7  -1    0.09    0.09 
  -6  -7   1    0.15    0.08 
  -6  -7   1    0.06    0.08 
   5   7  -1    0.41    0.10 
   5   7  -1    0.26    0.09 
  -5  -7   1    0.41    0.09 
  -5  -7   1    0.33    0.09 
   4   7  -1   -0.09    0.06 
   4   7  -1   -0.01    0.07 
   4   7  -1   -0.09    0.05 
  -4  -7   1    0.02    0.06 
  -4  -7   1    0.03    0.07 
   3   7  -1    3.68    0.19 
   3   7  -1    3.77    0.22 
   3   7  -1    3.79    0.20 
  -3  -7   1    3.73    0.20 
  -3  -7   1    3.73    0.20 
   2   7  -1    1.08    0.12 
   2   7  -1    1.34    0.12 
  -2  -7   1    0.97    0.12 
  -2  -7   1    1.06    0.11 
   1   7  -1    0.09    0.07 
  -1  -7   1   -0.04    0.06 
  -1  -7   1   -0.01    0.06 
   0   7  -1    2.51    0.15 
   0  -7   1    2.30    0.16 
   0  -7   1    2.88    0.16 
   0  -7   1    2.49    0.16 
  -1   7  -1   11.24    0.32 
   1  -7   1   11.12    0.34 
   1  -7   1   10.68    0.33 
   1  -7   1   10.81    0.31 
  -2   7  -1   -0.02    0.04 
   2  -7   1   -0.01    0.05 
   2  -7   1   -0.09    0.06 
   2  -7   1   -0.01    0.05 
  -3   7  -1    2.22    0.15 
   3  -7   1    2.10    0.15 
   3  -7   1    2.26    0.17 
   3  -7   1    2.39    0.18 
  -4   7  -1   -0.04    0.05 
   4  -7   1   -0.04    0.06 
   4  -7   1    0.00    0.07 
   4  -7   1   -0.10    0.05 
  -5   7  -1    0.10    0.07 
   5  -7   1    0.01    0.08 
   5  -7   1    0.06    0.08 
   6  -7   1    7.16    0.32 
   6  -7   1    7.76    0.35 
   7  -7   1    0.38    0.11 
   9   6  -1   -0.03    0.10 
   9   6  -1   -0.02    0.11 
   8   6  -1    1.94    0.22 
   8   6  -1    2.13    0.24 
  -8  -6   1    1.99    0.18 
   7   6  -1    4.68    0.29 
   7   6  -1    4.46    0.28 
  -7  -6   1    4.60    0.23 
  -7  -6   1    4.72    0.24 
   6   6  -1    0.88    0.12 
   6   6  -1    0.92    0.13 
   6   6  -1    1.16    0.15 
  -6  -6   1    0.94    0.12 
  -6  -6   1    0.87    0.12 
   5   6  -1    0.03    0.06 
   5   6  -1    0.11    0.07 
   5   6  -1    0.12    0.07 
   5   6  -1    0.01    0.06 
  -5  -6   1    0.14    0.07 
  -5  -6   1    0.08    0.06 
   4   6  -1    3.73    0.19 
   4   6  -1    3.74    0.19 
   4   6  -1    3.52    0.19 
  -4  -6   1    3.65    0.20 
  -4  -6   1    3.91    0.20 
   3   6  -1    1.83    0.14 
   3   6  -1    2.17    0.14 
   3   6  -1    2.14    0.16 
   3   6  -1    2.03    0.14 
  -3  -6   1    2.18    0.15 
  -3  -6   1    2.12    0.15 
   2   6  -1   -0.02    0.04 
   2   6  -1    0.15    0.07 
   2   6  -1    0.28    0.07 
   2   6  -1    0.08    0.06 
  -2  -6   1    0.06    0.06 
  -2  -6   1    0.12    0.07 
   1   6  -1   36.70    0.66 
   1   6  -1   37.15    0.68 
   1   6  -1   36.73    0.69 
   1   6  -1   36.71    0.68 
  -1  -6   1   36.68    0.69 
  -1  -6   1   36.36    0.70 
   0   6  -1   14.26    0.34 
   0   6  -1   13.99    0.35 
   0   6  -1   14.05    0.34 
   0  -6   1   13.91    0.36 
   0  -6   1   14.39    0.36 
   0  -6   1   14.89    0.35 
   0  -6   1   14.10    0.36 
  -1   6  -1    6.26    0.20 
  -1   6  -1    6.39    0.22 
   1  -6   1    5.92    0.22 
   1  -6   1    6.38    0.21 
   1  -6   1    5.82    0.22 
   1  -6   1    6.14    0.23 
  -2   6  -1    0.25    0.06 
   2  -6   1    0.35    0.07 
   2  -6   1    0.20    0.06 
   2  -6   1    0.39    0.08 
   2  -6   1    0.34    0.06 
  -3   6  -1   13.83    0.34 
   3  -6   1   13.91    0.37 
   3  -6   1   13.88    0.37 
   3  -6   1   13.40    0.37 
   3  -6   1   13.12    0.34 
  -4   6  -1    3.13    0.16 
   4  -6   1    3.35    0.21 
   4  -6   1    3.36    0.19 
   4  -6   1    3.11    0.17 
   4  -6   1    3.01    0.19 
  -5   6  -1   -0.02    0.05 
  -5   6  -1   -0.07    0.05 
   5  -6   1   -0.07    0.05 
   5  -6   1   -0.03    0.07 
  -6   6  -1    0.61    0.10 
   6  -6   1    0.56    0.11 
   7  -6   1    6.48    0.30 
   8  -6   1    0.49    0.12 
   8  -6   1    0.62    0.15 
   9   5  -1    2.05    0.24 
   9   5  -1    1.98    0.24 
   8   5  -1    1.27    0.19 
   8   5  -1    1.13    0.16 
  -8  -5   1    1.22    0.14 
   7   5  -1    3.37    0.24 
   7   5  -1    3.03    0.23 
   7   5  -1    2.99    0.23 
  -7  -5   1    3.55    0.20 
  -7  -5   1    2.85    0.19 
   6   5  -1    2.16    0.19 
   6   5  -1    2.24    0.16 
   6   5  -1    2.00    0.18 
   6   5  -1    2.10    0.16 
  -6  -5   1    2.06    0.15 
  -6  -5   1    2.06    0.15 
   5   5  -1    1.14    0.12 
   5   5  -1    1.15    0.12 
   5   5  -1    1.11    0.13 
   5   5  -1    0.97    0.13 
  -5  -5   1    1.06    0.12 
  -5  -5   1    1.07    0.11 
   4   5  -1    7.41    0.26 
   4   5  -1    6.80    0.25 
   4   5  -1    7.27    0.25 
   4   5  -1    7.33    0.27 
  -4  -5   1    7.16    0.24 
  -4  -5   1    7.12    0.24 
   3   5  -1    0.31    0.07 
   3   5  -1    0.35    0.07 
   3   5  -1    0.31    0.07 
   3   5  -1    0.28    0.06 
  -3  -5   1    0.36    0.08 
  -3  -5   1    0.33    0.07 
   2   5  -1  120.93    1.87 
   2   5  -1  127.45    1.91 
   2   5  -1  127.53    1.90 
   2   5  -1  126.42    1.88 
  -2  -5   1  126.26    1.90 
  -2  -5   1  126.05    1.90 
  -2  -5   1  127.50    1.90 
   1   5  -1  122.65    1.83 
   1   5  -1  123.00    1.82 
   1   5  -1  123.12    1.84 
   1   5  -1  123.90    1.85 
  -1  -5   1  124.08    1.86 
  -1  -5   1  123.45    1.86 
  -1  -5   1  123.05    1.85 
   0   5  -1    2.58    0.13 
   0   5  -1    2.66    0.13 
   0   5  -1    2.66    0.14 
   0  -5   1    2.53    0.14 
   0  -5   1    2.80    0.14 
   0  -5   1    2.70    0.13 
   0  -5   1    2.73    0.14 
  -1   5  -1   10.44    0.26 
  -1   5  -1   10.56    0.27 
   1  -5   1   10.56    0.28 
   1  -5   1   10.89    0.27 
   1  -5   1   10.75    0.28 
   1  -5   1   10.91    0.29 
  -2   5  -1    0.17    0.05 
  -2   5  -1    0.15    0.04 
   2  -5   1    0.13    0.04 
   2  -5   1    0.18    0.05 
   2  -5   1    0.18    0.06 
   2  -5   1    0.22    0.05 
  -3   5  -1    0.08    0.04 
  -3   5  -1    0.05    0.04 
  -3   5  -1    0.02    0.04 
   3  -5   1   -0.01    0.04 
   3  -5   1    0.08    0.04 
   3  -5   1    0.01    0.04 
   3  -5   1    0.06    0.04 
  -4   5  -1    0.27    0.06 
  -4   5  -1    0.24    0.06 
   4  -5   1    0.29    0.07 
   4  -5   1    0.17    0.05 
   4  -5   1    0.20    0.07 
  -5   5  -1    2.81    0.15 
  -5   5  -1    2.77    0.16 
   5  -5   1    2.66    0.17 
   5  -5   1    2.89    0.17 
   5  -5   1    2.94    0.16 
  -6   5  -1    0.34    0.08 
  -6   5  -1    0.56    0.09 
   6  -5   1    0.50    0.09 
   6  -5   1    0.31    0.08 
   7  -5   1    2.03    0.20 
   7  -5   1    2.33    0.19 
   8  -5   1    1.07    0.16 
   8  -5   1    1.26    0.18 
   9   4  -1   -0.02    0.09 
   9   4  -1    0.15    0.12 
   8   4  -1    9.04    0.37 
   8   4  -1    8.26    0.39 
  -8  -4   1    8.96    0.31 
   7   4  -1    3.01    0.24 
   7   4  -1    3.28    0.22 
   7   4  -1    2.89    0.19 
   7   4  -1    2.97    0.19 
  -7  -4   1    2.87    0.17 
   6   4  -1    4.65    0.24 
   6   4  -1    4.89    0.25 
   6   4  -1    4.79    0.22 
   6   4  -1    4.19    0.21 
  -6  -4   1    4.52    0.20 
  -6  -4   1    4.68    0.20 
   5   4  -1   23.60    0.52 
   5   4  -1   24.59    0.55 
   5   4  -1   23.71    0.55 
   5   4  -1   24.16    0.52 
  -5  -4   1   23.99    0.50 
  -5  -4   1   24.19    0.50 
   4   4  -1   12.73    0.35 
   4   4  -1   13.17    0.34 
   4   4  -1   13.03    0.33 
   4   4  -1   12.94    0.35 
  -4  -4   1   13.23    0.32 
  -4  -4   1   12.92    0.32 
   3   4  -1   11.76    0.31 
   3   4  -1   11.51    0.31 
   3   4  -1   12.25    0.30 
   3   4  -1   12.19    0.30 
  -3  -4   1   11.70    0.29 
  -3  -4   1   12.19    0.30 
  -3  -4   1   11.95    0.30 
   2   4  -1   12.20    0.29 
   2   4  -1   12.28    0.30 
   2   4  -1   12.55    0.30 
   2   4  -1   12.35    0.29 
  -2  -4   1   12.42    0.29 
  -2  -4   1   12.48    0.30 
  -2  -4   1   12.36    0.30 
  -2  -4   1   12.15    0.30 
   1   4  -1    7.64    0.20 
   1   4  -1    7.44    0.21 
   1   4  -1    7.74    0.22 
  -1  -4   1    7.81    0.22 
  -1  -4   1    7.60    0.21 
  -1  -4   1    7.72    0.21 
  -1  -4   1    7.74    0.22 
   0   4  -1   73.96    1.13 
   0   4  -1   73.56    1.14 
   0   4  -1   73.63    1.13 
   0  -4   1   73.92    1.15 
   0  -4   1   73.08    1.15 
   0  -4   1   75.62    1.13 
   0  -4   1   73.82    1.13 
   0  -4   1   74.77    1.14 
  -1   4  -1    1.24    0.08 
  -1   4  -1    1.32    0.08 
   1  -4   1    1.35    0.09 
   1  -4   1    1.21    0.08 
   1  -4   1    1.45    0.09 
   1  -4   1    1.36    0.09 
  -2   4  -1    0.39    0.06 
  -2   4  -1    0.29    0.05 
  -2   4  -1    0.26    0.04 
   2  -4   1    0.26    0.05 
   2  -4   1    0.25    0.05 
   2  -4   1    0.28    0.05 
   2  -4   1    0.23    0.05 
  -3   4  -1    7.40    0.21 
  -3   4  -1    7.34    0.21 
  -3   4  -1    7.51    0.21 
   3  -4   1    7.83    0.23 
   3  -4   1    7.48    0.22 
   3  -4   1    7.70    0.22 
  -4   4  -1    0.11    0.04 
  -4   4  -1    0.07    0.04 
   4  -4   1    0.07    0.04 
   4  -4   1    0.11    0.04 
   4  -4   1    0.02    0.03 
  -5   4  -1    0.29    0.06 
  -5   4  -1    0.18    0.05 
   5  -4   1    0.21    0.06 
   5  -4   1    0.31    0.06 
   5  -4   1    0.26    0.07 
  -6   4  -1    3.46    0.17 
  -6   4  -1    3.67    0.17 
   6  -4   1    3.37    0.19 
   6  -4   1    3.36    0.18 
   6  -4   1    3.56    0.19 
  -7   4  -1    4.72    0.21 
   7  -4   1    4.56    0.23 
   7  -4   1    4.87    0.26 
   8  -4   1    5.78    0.30 
   8  -4   1    5.33    0.27 
   9  -4   1   -0.13    0.07 
   9  -4   1   -0.08    0.08 
   9   3  -1    0.31    0.14 
   9   3  -1    0.26    0.11 
   8   3  -1    2.20    0.23 
   8   3  -1    2.57    0.21 
  -8  -3   1    2.61    0.17 
   7   3  -1    3.85    0.26 
   7   3  -1    3.90    0.20 
   7   3  -1    4.07    0.23 
   7   3  -1    4.00    0.21 
  -7  -3   1    4.05    0.19 
   6   3  -1   16.31    0.47 
   6   3  -1   15.79    0.40 
   6   3  -1   15.67    0.40 
   6   3  -1   16.71    0.43 
   6   3  -1   15.52    0.40 
  -6  -3   1   16.28    0.38 
   5   3  -1    2.69    0.14 
   5   3  -1    2.80    0.16 
   5   3  -1    2.64    0.14 
   5   3  -1    2.61    0.18 
  -5  -3   1    2.68    0.14 
  -5  -3   1    2.66    0.14 
   4   3  -1   -0.05    0.04 
   4   3  -1   -0.01    0.03 
   4   3  -1    0.02    0.04 
   4   3  -1   -0.03    0.03 
  -4  -3   1    0.01    0.03 
  -4  -3   1    0.00    0.03 
   3   3  -1   42.36    0.71 
   3   3  -1   41.99    0.74 
   3   3  -1   41.86    0.72 
   3   3  -1   43.26    0.73 
  -3  -3   1   43.24    0.71 
  -3  -3   1   42.75    0.74 
  -3  -3   1   41.86    0.70 
  -3  -3   1   42.77    0.71 
   2   3  -1    8.48    0.21 
   2   3  -1    8.60    0.21 
   2   3  -1    8.34    0.22 
   2   3  -1    8.35    0.22 
  -2  -3   1    8.19    0.21 
  -2  -3   1    8.44    0.21 
  -2  -3   1    8.42    0.22 
   1   3  -1   75.12    1.14 
   1   3  -1   74.14    1.13 
   1   3  -1   76.27    1.12 
   1   3  -1   74.49    1.12 
  -1  -3   1   74.22    1.13 
  -1  -3   1   75.04    1.13 
  -1  -3   1   75.33    1.13 
   0   3  -1   10.67    0.23 
   0   3  -1   10.52    0.23 
   0  -3   1   10.86    0.24 
   0  -3   1   10.33    0.23 
   0  -3   1   10.61    0.24 
   0  -3   1   10.87    0.23 
   0  -3   1   10.31    0.24 
  -1   3  -1   90.20    1.31 
  -1   3  -1   89.16    1.32 
  -1   3  -1   89.30    1.31 
   1  -3   1   88.95    1.32 
   1  -3   1   89.43    1.31 
   1  -3   1   88.34    1.32 
   1  -3   1   89.45    1.32 
  -2   3  -1   10.02    0.23 
  -2   3  -1    9.83    0.23 
  -2   3  -1    9.90    0.23 
   2  -3   1    9.77    0.24 
   2  -3   1   10.07    0.23 
   2  -3   1   10.40    0.24 
  -3   3  -1   42.46    0.70 
  -3   3  -1   42.50    0.69 
  -3   3  -1   41.59    0.70 
   3  -3   1   42.16    0.70 
   3  -3   1   42.09    0.72 
   3  -3   1   42.01    0.71 
  -4   3  -1    0.22    0.05 
  -4   3  -1    0.20    0.04 
   4  -3   1    0.24    0.05 
   4  -3   1    0.23    0.05 
   4  -3   1    0.14    0.04 
  -5   3  -1    0.94    0.09 
  -5   3  -1    0.97    0.09 
   5  -3   1    0.87    0.10 
   5  -3   1    0.74    0.09 
   5  -3   1    0.67    0.08 
  -6   3  -1    0.87    0.10 
  -6   3  -1    1.02    0.10 
   6  -3   1    0.97    0.11 
   6  -3   1    1.08    0.13 
   6  -3   1    0.75    0.10 
   6  -3   1    1.05    0.11 
  -7   3  -1    6.58    0.24 
  -7   3  -1    6.09    0.23 
   7  -3   1    6.08    0.25 
   7  -3   1    6.56    0.28 
   7  -3   1    6.56    0.26 
   8  -3   1   21.60    0.55 
   8  -3   1   22.28    0.59 
   9  -3   1    0.37    0.11 
   9  -3   1    0.61    0.15 
  10   2  -1    0.04    0.09 
   9   2  -1   -0.13    0.08 
   9   2  -1   -0.02    0.11 
   8   2  -1    0.00    0.10 
   8   2  -1    0.03    0.07 
  -8  -2   1   -0.03    0.05 
   7   2  -1    1.93    0.15 
   7   2  -1    1.99    0.20 
   7   2  -1    1.75    0.15 
   7   2  -1    1.85    0.17 
   7   2  -1    1.99    0.15 
  -7  -2   1    1.77    0.14 
   6   2  -1    0.19    0.06 
   6   2  -1    0.23    0.06 
   6   2  -1    0.18    0.06 
   6   2  -1    0.20    0.07 
   6   2  -1    0.23    0.09 
  -6  -2   1    0.16    0.05 
   5   2  -1   12.46    0.31 
   5   2  -1   13.01    0.33 
   5   2  -1   12.57    0.31 
   5   2  -1   12.55    0.37 
   5   2  -1   12.72    0.32 
  -5  -2   1   13.06    0.30 
   4   2  -1    6.12    0.19 
   4   2  -1    5.88    0.18 
   4   2  -1    6.15    0.22 
   4   2  -1    5.94    0.20 
  -4  -2   1    5.98    0.18 
  -4  -2   1    5.82    0.17 
  -4  -2   1    6.05    0.18 
   3   2  -1    2.29    0.11 
   3   2  -1    2.36    0.10 
   3   2  -1    2.23    0.10 
   3   2  -1    2.34    0.12 
  -3  -2   1    2.28    0.10 
  -3  -2   1    2.35    0.10 
  -3  -2   1    2.47    0.10 
   2   2  -1   10.89    0.23 
   2   2  -1   10.92    0.25 
   2   2  -1   11.07    0.24 
   2   2  -1   10.79    0.24 
  -2  -2   1   11.22    0.25 
  -2  -2   1   10.96    0.23 
  -2  -2   1   10.98    0.23 
  -2  -2   1   10.97    0.23 
   1   2  -1  445.09    6.55 
   1   2  -1  458.14    6.48 
   1   2  -1  462.88    6.41 
   1   2  -1  461.07    6.43 
  -1  -2   1  463.98    6.47 
  -1  -2   1  453.11    6.28 
  -1  -2   1  461.30    6.35 
  -1  -2   1  449.65    6.53 
   0   2  -1  510.59    7.64 
   0   2  -1  552.38    7.67 
   0   2  -1  562.22    7.68 
   0   2  -1  546.93    7.75 
   0  -2   1  546.49    7.64 
   0  -2   1  547.14    7.55 
   0  -2   1  532.30    7.43 
   0  -2   1  549.11    7.59 
   0  -2   1  524.57    7.70 
  -1   2  -1   34.35    0.54 
  -1   2  -1   34.56    0.54 
  -1   2  -1   33.58    0.53 
   1  -2   1   33.84    0.54 
   1  -2   1   33.66    0.54 
   1  -2   1   34.03    0.55 
   1  -2   1   33.87    0.54 
  -2   2  -1  286.28    3.94 
  -2   2  -1  287.82    3.94 
  -2   2  -1  279.55    3.99 
   2  -2   1  281.01    3.95 
   2  -2   1  288.59    3.94 
   2  -2   1  283.08    3.94 
  -3   2  -1    4.45    0.14 
  -3   2  -1    4.46    0.14 
  -3   2  -1    4.43    0.14 
   3  -2   1    4.23    0.14 
   3  -2   1    4.52    0.15 
   3  -2   1    4.52    0.15 
  -4   2  -1    0.17    0.05 
  -4   2  -1    0.15    0.04 
   4  -2   1    0.11    0.04 
   4  -2   1    0.13    0.04 
   4  -2   1    0.07    0.04 
  -5   2  -1    1.65    0.11 
  -5   2  -1    1.50    0.10 
   5  -2   1    1.62    0.11 
   5  -2   1    1.69    0.11 
   5  -2   1    1.38    0.10 
   5  -2   1    1.57    0.12 
  -6   2  -1    0.01    0.05 
  -6   2  -1    0.16    0.06 
   6  -2   1   -0.06    0.05 
   6  -2   1    0.01    0.05 
   6  -2   1    0.02    0.04 
   6  -2   1    0.06    0.05 
  -7   2  -1    0.04    0.05 
  -7   2  -1    0.10    0.06 
   7  -2   1    0.05    0.07 
   7  -2   1    0.15    0.07 
   7  -2   1    0.07    0.06 
  -8   2  -1    4.01    0.21 
   8  -2   1    4.17    0.23 
   8  -2   1    4.06    0.26 
   9  -2   1    3.55    0.25 
   9  -2   1    2.96    0.25 
  10   1  -1    0.11    0.09 
   9   1  -1    0.59    0.13 
   8   1  -1    0.49    0.11 
  -8  -1   1    0.55    0.09 
   7   1  -1    9.49    0.31 
   7   1  -1    9.93    0.30 
   7   1  -1   10.20    0.33 
   7   1  -1    9.63    0.30 
  -7  -1   1    9.90    0.28 
   6   1  -1    6.54    0.22 
   6   1  -1    6.20    0.22 
   6   1  -1    6.51    0.24 
   6   1  -1    6.46    0.23 
  -6  -1   1    6.37    0.20 
   5   1  -1    6.51    0.20 
   5   1  -1    6.61    0.21 
   5   1  -1    6.73    0.22 
   5   1  -1    6.50    0.21 
  -5  -1   1    6.67    0.19 
   4   1  -1   45.72    0.74 
   4   1  -1   44.72    0.74 
   4   1  -1   45.20    0.75 
   4   1  -1   46.56    0.75 
  -4  -1   1   45.70    0.73 
  -4  -1   1   45.68    0.73 
   3   1  -1   25.59    0.45 
   3   1  -1   26.03    0.46 
   3   1  -1   26.39    0.45 
  -3  -1   1   26.62    0.44 
  -3  -1   1   26.35    0.44 
   2   1  -1   29.73    0.48 
   2   1  -1   29.65    0.48 
   2   1  -1   29.88    0.51 
   2   1  -1   30.26    0.48 
  -2  -1   1   30.49    0.48 
  -2  -1   1   30.37    0.47 
   1   1  -1    0.36    0.03 
   1   1  -1    0.29    0.03 
   1   1  -1    0.25    0.03 
   1   1  -1    0.31    0.03 
  -1  -1   1    0.26    0.03 
  -1  -1   1    0.33    0.03 
  -1  -1   1    0.27    0.03 
   0   1  -1   22.55    0.36 
   0   1  -1   23.45    0.36 
   0   1  -1   23.09    0.36 
   0   1  -1   22.86    0.36 
   0  -1   1   23.35    0.36 
   0  -1   1   22.83    0.35 
   0  -1   1   23.04    0.36 
   0  -1   1   23.27    0.36 
  -1   1  -1   53.32    0.78 
  -1   1  -1   53.41    0.77 
  -1   1  -1   53.47    0.77 
   1  -1   1   51.72    0.78 
   1  -1   1   52.16    0.77 
   1  -1   1   52.83    0.77 
  -2   1  -1    6.33    0.16 
  -2   1  -1    6.68    0.16 
  -2   1  -1    6.51    0.15 
   2  -1   1    6.58    0.16 
   2  -1   1    6.49    0.16 
   2  -1   1    6.47    0.16 
  -3   1  -1    0.91    0.06 
  -3   1  -1    0.79    0.06 
   3  -1   1    0.99    0.07 
   3  -1   1    0.80    0.06 
   3  -1   1    0.95    0.06 
  -4   1  -1    5.61    0.17 
  -4   1  -1    5.65    0.17 
   4  -1   1    5.56    0.18 
   4  -1   1    5.66    0.18 
   4  -1   1    5.81    0.18 
   4  -1   1    5.80    0.19 
  -5   1  -1    6.59    0.20 
  -5   1  -1    6.49    0.20 
   5  -1   1    6.45    0.21 
   5  -1   1    6.24    0.20 
   5  -1   1    6.21    0.21 
   5  -1   1    6.58    0.22 
  -6   1  -1    0.20    0.06 
  -6   1  -1    0.08    0.05 
   6  -1   1    0.18    0.06 
   6  -1   1    0.19    0.06 
   6  -1   1    0.22    0.06 
   6  -1   1    0.15    0.06 
  -7   1  -1    5.54    0.22 
   7  -1   1    5.27    0.22 
   7  -1   1    5.46    0.23 
   7  -1   1    5.14    0.22 
   7  -1   1    6.00    0.26 
  -8   1  -1    0.57    0.10 
   8  -1   1    0.42    0.10 
   8  -1   1    0.40    0.11 
   9  -1   1    5.20    0.27 
   9  -1   1    5.51    0.32 
   9   0  -1    0.05    0.07 
   9   0  -1   -0.06    0.07 
   8   0  -1    0.28    0.09 
  -8   0   1    0.40    0.08 
   7   0  -1    6.56    0.26 
   7   0  -1    6.44    0.24 
   7   0  -1    6.47    0.24 
   7   0  -1    6.32    0.24 
  -7   0   1    6.64    0.22 
   6   0  -1    4.17    0.20 
   6   0  -1    4.90    0.19 
   6   0  -1    4.67    0.19 
   6   0  -1    4.78    0.19 
  -6   0   1    4.70    0.17 
   5   0  -1    6.73    0.20 
   5   0  -1    7.08    0.22 
   5   0  -1    6.95    0.21 
   5   0  -1    6.71    0.20 
  -5   0   1    7.05    0.19 
   4   0  -1   32.42    0.55 
   4   0  -1   32.72    0.55 
   4   0  -1   32.13    0.56 
   4   0  -1   31.85    0.55 
  -4   0   1   32.62    0.54 
   3   0  -1   65.07    0.97 
   3   0  -1   63.28    0.96 
   3   0  -1   64.71    0.97 
   3   0  -1   64.37    0.96 
  -3   0   1   65.73    0.95 
  -3   0   1   65.78    0.95 
   2   0  -1    2.46    0.07 
   2   0  -1    2.35    0.07 
   2   0  -1    2.50    0.07 
  -2   0   1    2.40    0.07 
   1   0  -1   26.20    0.38 
   1   0  -1   26.33    0.38 
   1   0  -1   26.23    0.38 
  -1   0   1   26.07    0.38 
  -1   0  -1   60.97    0.87 
  -1   0  -1   61.49    0.87 
  -1   0  -1   61.41    0.87 
   1   0   1   59.66    0.87 
   1   0   1   60.07    0.87 
   1   0   1   62.11    0.87 
  -2   0  -1 1000.00   13.51 
  -2   0  -1  969.05   13.56 
   2   0   1  981.55   13.54 
   2   0   1  942.43   13.56 
   2   0   1  949.17   13.53 
  -3   0  -1   12.91    0.26 
  -3   0  -1   12.17    0.26 
   3   0   1   12.55    0.26 
   3   0   1   12.21    0.26 
   3   0   1   13.08    0.27 
  -4   0  -1   12.76    0.28 
  -4   0  -1   12.82    0.29 
   4   0   1   13.08    0.29 
   4   0   1   13.18    0.29 
   4   0   1   12.68    0.30 
  -5   0  -1    3.94    0.16 
  -5   0  -1    3.82    0.16 
   5   0   1    3.93    0.17 
   5   0   1    4.06    0.16 
   5   0   1    4.10    0.16 
  -6   0  -1    3.58    0.16 
   6   0   1    3.63    0.18 
   6   0   1    3.71    0.17 
   6   0   1    3.67    0.17 
   6   0   1    3.30    0.16 
  -7   0  -1    0.71    0.09 
   7   0   1    0.63    0.10 
   7   0   1    0.56    0.09 
   7   0   1    0.74    0.10 
   7   0   1    0.80    0.11 
  -8   0  -1    0.29    0.08 
   8   0   1    0.05    0.07 
   8   0   1   -0.04    0.07 
   8   0   1   -0.01    0.06 
   9   0   1    3.24    0.22 
   9   0   1    3.23    0.26 
  10   0   1    0.17    0.11 
  10   0   1    0.28    0.10 
   9  -1  -1    0.06    0.07 
   9  -1  -1    0.02    0.08 
   8  -1  -1    0.09    0.07 
   8  -1  -1    0.12    0.07 
   7  -1  -1    2.11    0.14 
   7  -1  -1    2.04    0.14 
   7  -1  -1    2.08    0.14 
   7  -1  -1    2.16    0.16 
  -7   1   1    2.14    0.13 
   6  -1  -1    0.29    0.07 
   6  -1  -1    0.31    0.07 
   6  -1  -1    0.39    0.07 
   6  -1  -1    0.35    0.09 
  -6   1   1    0.38    0.07 
   5  -1  -1   12.77    0.31 
   5  -1  -1   13.04    0.30 
   5  -1  -1   12.81    0.30 
  -5   1   1   13.19    0.28 
   4  -1  -1   60.75    0.96 
   4  -1  -1   62.23    0.97 
   4  -1  -1   63.10    0.96 
  -4   1   1   63.44    0.94 
   3  -1  -1   50.70    0.75 
   3  -1  -1   49.49    0.76 
   3  -1  -1   51.29    0.75 
  -3   1   1   46.35    0.73 
   2  -1  -1   15.50    0.25 
   2  -1  -1   15.11    0.25 
   1  -1  -1    5.14    0.09 
  -1   1   1    5.18    0.08 
   0  -1  -1   36.65    0.58 
   0  -1  -1   42.25    0.58 
   0  -1  -1   42.75    0.58 
   0   1   1   42.93    0.57 
   0   1   1   42.71    0.58 
  -1  -1  -1    7.28    0.15 
  -1  -1  -1    7.00    0.15 
  -1  -1  -1    7.23    0.14 
   1   1   1    7.25    0.15 
   1   1   1    7.12    0.14 
   1   1   1    6.89    0.15 
  -2  -1  -1   15.62    0.28 
  -2  -1  -1   15.39    0.28 
  -2  -1  -1   15.22    0.28 
  -2  -1  -1   15.19    0.28 
   2   1   1   15.53    0.28 
   2   1   1   15.21    0.28 
   2   1   1   15.25    0.28 
   2   1   1   14.97    0.28 
  -3  -1  -1  215.64    3.01 
  -3  -1  -1  218.99    3.00 
  -3  -1  -1  215.26    3.01 
   3   1   1  208.94    3.01 
   3   1   1  213.02    3.02 
   3   1   1  213.14    3.01 
   3   1   1  215.24    3.00 
  -4  -1  -1   62.57    0.98 
  -4  -1  -1   63.90    0.99 
   4   1   1   62.57    0.99 
   4   1   1   63.59    0.99 
   4   1   1   62.46    1.00 
   4   1   1   61.63    0.99 
  -5  -1  -1   18.15    0.38 
   5   1   1   17.89    0.41 
   5   1   1   17.93    0.39 
   5   1   1   17.75    0.39 
   5   1   1   17.89    0.39 
  -6  -1  -1    7.13    0.23 
   6   1   1    6.92    0.24 
   6   1   1    6.76    0.24 
   6   1   1    6.62    0.23 
   6   1   1    7.11    0.26 
  -7  -1  -1    3.20    0.17 
   7   1   1    3.17    0.18 
   7   1   1    3.44    0.20 
   7   1   1    3.13    0.18 
  -8  -1  -1    2.09    0.15 
   8   1   1    1.59    0.17 
   8   1   1    2.06    0.16 
   9   1   1    0.52    0.14 
   9   1   1    0.28    0.10 
  10   1   1    0.73    0.14 
  10   1   1    0.78    0.16 
   9  -2  -1    0.12    0.08 
   9  -2  -1   -0.02    0.08 
   8  -2  -1    0.84    0.11 
   8  -2  -1    0.94    0.14 
   7  -2  -1    0.99    0.11 
   7  -2  -1    0.94    0.12 
   7  -2  -1    0.98    0.11 
  -7   2   1    0.87    0.09 
   6  -2  -1   32.55    0.61 
   6  -2  -1   33.02    0.62 
   6  -2  -1   31.40    0.61 
   6  -2  -1   32.43    0.64 
  -6   2   1   33.07    0.58 
   5  -2  -1    1.35    0.10 
   5  -2  -1    1.32    0.09 
   5  -2  -1    1.55    0.11 
   5  -2  -1    1.38    0.09 
  -5   2   1    1.60    0.09 
   4  -2  -1    0.34    0.05 
   4  -2  -1    0.39    0.05 
   4  -2  -1    0.27    0.05 
   4  -2  -1    0.43    0.06 
  -4   2   1    0.30    0.04 
   3  -2  -1   46.93    0.70 
   3  -2  -1   47.02    0.69 
   3  -2  -1   46.57    0.69 
  -3   2   1   38.19    0.66 
   2  -2  -1    1.28    0.05 
   2  -2  -1    1.20    0.05 
   1  -2  -1   59.02    0.84 
   1  -2  -1   59.30    0.84 
   1  -2  -1   58.42    0.84 
  -1   2   1   58.74    0.83 
   0  -2  -1  245.66    3.46 
   0  -2  -1  247.87    3.45 
   0  -2  -1  243.46    3.43 
   0   2   1  245.74    3.45 
   0   2   1  248.55    3.42 
   0   2   1  249.13    3.43 
  -1  -2  -1   14.53    0.26 
  -1  -2  -1   14.74    0.26 
  -1  -2  -1   14.68    0.26 
  -1  -2  -1   14.67    0.24 
   1   2   1   15.12    0.26 
   1   2   1   14.40    0.26 
   1   2   1   15.09    0.26 
   1   2   1   14.36    0.23 
  -2  -2  -1  208.98    2.89 
  -2  -2  -1  205.67    2.89 
  -2  -2  -1  209.53    2.89 
   2   2   1  204.73    2.90 
   2   2   1  207.42    2.89 
   2   2   1  206.99    2.89 
   2   2   1  207.61    2.88 
   2   2   1  206.80    2.89 
  -3  -2  -1   52.77    0.82 
  -3  -2  -1   53.07    0.83 
   3   2   1   52.36    0.83 
   3   2   1   52.78    0.83 
   3   2   1   53.23    0.83 
   3   2   1   52.36    0.84 
  -4  -2  -1   14.09    0.31 
  -4  -2  -1   14.00    0.30 
   4   2   1   13.65    0.31 
   4   2   1   13.54    0.31 
   4   2   1   13.39    0.32 
   4   2   1   13.35    0.31 
  -5  -2  -1    1.61    0.11 
   5   2   1    1.58    0.13 
   5   2   1    1.85    0.12 
   5   2   1    1.83    0.12 
   5   2   1    1.77    0.12 
  -6  -2  -1    7.46    0.24 
   6   2   1    7.19    0.24 
   6   2   1    7.32    0.25 
   6   2   1    7.41    0.25 
   6   2   1    7.27    0.27 
  -7  -2  -1    0.26    0.07 
   7   2   1    0.51    0.11 
   7   2   1    0.43    0.08 
   7   2   1    0.19    0.07 
  -8  -2  -1    4.45    0.21 
   8   2   1    4.72    0.26 
   8   2   1    4.70    0.27 
  -9  -2  -1   -0.19    0.05 
   9   2   1   -0.04    0.08 
  10   2   1    1.31    0.19 
   9  -3  -1    0.84    0.13 
   9  -3  -1    0.81    0.15 
   8  -3  -1   -0.06    0.06 
   8  -3  -1    0.08    0.07 
   7  -3  -1    0.43    0.09 
   7  -3  -1    0.46    0.09 
  -7   3   1    0.49    0.07 
   6  -3  -1    8.78    0.27 
   6  -3  -1    9.05    0.27 
   6  -3  -1    8.96    0.27 
   6  -3  -1    9.28    0.29 
  -6   3   1    9.12    0.24 
   5  -3  -1    1.80    0.12 
   5  -3  -1    1.75    0.11 
   5  -3  -1    1.68    0.11 
   5  -3  -1    1.73    0.11 
  -5   3   1    1.78    0.10 
   4  -3  -1   21.52    0.40 
   4  -3  -1   21.36    0.41 
   4  -3  -1   21.47    0.40 
  -4   3   1   21.13    0.38 
  -4   3   1   18.88    0.36 
   3  -3  -1   50.31    0.80 
   3  -3  -1   51.66    0.80 
   3  -3  -1   51.90    0.79 
  -3   3   1   51.89    0.77 
  -3   3   1   50.76    0.78 
   2  -3  -1   11.86    0.23 
   2  -3  -1   11.50    0.23 
   2  -3  -1   11.88    0.23 
  -2   3   1   11.97    0.22 
  -2   3   1   11.94    0.22 
   1  -3  -1   65.98    0.96 
   1  -3  -1   64.98    0.96 
   1  -3  -1   65.01    0.96 
   1  -3  -1   66.02    0.96 
  -1   3   1   65.58    0.95 
  -1   3   1   66.57    0.95 
   0  -3  -1   30.07    0.48 
   0  -3  -1   30.22    0.48 
   0  -3  -1   30.25    0.49 
   0   3   1   30.36    0.48 
   0   3   1   30.56    0.48 
   0   3   1   30.59    0.47 
  -1  -3  -1   53.75    0.79 
  -1  -3  -1   53.78    0.82 
  -1  -3  -1   54.48    0.82 
  -1  -3  -1   53.76    0.82 
   1   3   1   53.92    0.79 
   1   3   1   53.84    0.82 
   1   3   1   54.29    0.82 
   1   3   1   53.98    0.81 
  -2  -3  -1   10.51    0.24 
  -2  -3  -1   10.61    0.24 
  -2  -3  -1   10.95    0.24 
  -2  -3  -1   10.67    0.22 
   2   3   1   10.57    0.24 
   2   3   1   10.81    0.22 
   2   3   1   10.23    0.24 
   2   3   1   10.59    0.23 
  -3  -3  -1    0.79    0.07 
  -3  -3  -1    0.67    0.07 
  -3  -3  -1    0.71    0.07 
   3   3   1    0.69    0.07 
   3   3   1    0.67    0.07 
   3   3   1    0.62    0.06 
   3   3   1    0.66    0.06 
  -4  -3  -1   12.42    0.29 
  -4  -3  -1   11.72    0.29 
  -4  -3  -1   12.44    0.30 
   4   3   1   11.82    0.31 
   4   3   1   12.41    0.30 
   4   3   1   12.41    0.30 
   4   3   1   12.31    0.30 
   4   3   1   12.17    0.30 
  -5  -3  -1    2.52    0.14 
  -5  -3  -1    2.57    0.14 
   5   3   1    2.52    0.14 
   5   3   1    2.42    0.14 
   5   3   1    3.06    0.16 
   5   3   1    2.54    0.15 
   5   3   1    2.30    0.15 
  -6  -3  -1   -0.04    0.05 
   6   3   1   -0.05    0.06 
   6   3   1    0.01    0.05 
   6   3   1    0.07    0.05 
   6   3   1    0.04    0.06 
  -7  -3  -1    0.29    0.07 
   7   3   1    0.20    0.08 
   7   3   1    0.18    0.09 
   7   3   1    0.18    0.07 
   7   3   1    0.12    0.06 
  -8  -3  -1    2.30    0.17 
   8   3   1    2.34    0.21 
   8   3   1    2.05    0.21 
  -9  -3  -1    0.03    0.06 
   9   3   1   -0.02    0.09 
   9   3   1   -0.01    0.08 
  10   3   1    2.47    0.27 
  10   3   1    2.87    0.27 
   9  -4  -1    3.79    0.23 
   8  -4  -1    0.34    0.10 
   8  -4  -1    0.45    0.10 
   7  -4  -1    0.02    0.06 
   7  -4  -1    0.00    0.06 
   6  -4  -1   -0.01    0.06 
   6  -4  -1   -0.08    0.07 
   6  -4  -1    0.15    0.06 
   6  -4  -1   -0.02    0.05 
  -6   4   1    0.02    0.05 
   5  -4  -1    9.78    0.27 
   5  -4  -1    9.32    0.26 
   5  -4  -1    9.58    0.27 
  -5   4   1    9.59    0.24 
   4  -4  -1    6.35    0.20 
   4  -4  -1    6.45    0.19 
   4  -4  -1    6.29    0.20 
  -4   4   1    6.37    0.16 
  -4   4   1    6.54    0.18 
   3  -4  -1    2.08    0.11 
   3  -4  -1    2.15    0.11 
   3  -4  -1    2.14    0.10 
  -3   4   1    2.22    0.10 
  -3   4   1    2.14    0.09 
   2  -4  -1   26.39    0.46 
   2  -4  -1   26.60    0.47 
   2  -4  -1   27.10    0.46 
  -2   4   1   27.25    0.45 
  -2   4   1   26.83    0.44 
   1  -4  -1    0.92    0.06 
   1  -4  -1    0.85    0.06 
   1  -4  -1    0.88    0.06 
   1  -4  -1    0.77    0.06 
  -1   4   1    0.84    0.06 
  -1   4   1    0.87    0.06 
   0  -4  -1   73.23    1.11 
   0  -4  -1   73.37    1.11 
   0  -4  -1   73.46    1.10 
   0   4   1   74.00    1.09 
   0   4   1   73.92    1.10 
   0   4   1   75.24    1.10 
  -1  -4  -1  199.16    2.91 
  -1  -4  -1  208.35    2.91 
  -1  -4  -1  208.80    2.88 
  -1  -4  -1  208.67    2.92 
   1   4   1  210.32    2.91 
   1   4   1  205.36    2.91 
   1   4   1  204.23    2.91 
  -2  -4  -1    4.14    0.13 
  -2  -4  -1    4.12    0.14 
  -2  -4  -1    4.04    0.15 
  -2  -4  -1    4.00    0.14 
   2   4   1    3.85    0.15 
   2   4   1    4.27    0.14 
   2   4   1    4.00    0.13 
   2   4   1    3.92    0.14 
  -3  -4  -1    4.62    0.16 
  -3  -4  -1    4.57    0.17 
  -3  -4  -1    4.53    0.16 
  -3  -4  -1    4.49    0.16 
   3   4   1    4.38    0.17 
   3   4   1    4.65    0.16 
   3   4   1    4.33    0.16 
   3   4   1    4.50    0.15 
  -4  -4  -1   75.04    1.19 
  -4  -4  -1   74.73    1.19 
   4   4   1   75.18    1.19 
   4   4   1   75.32    1.19 
   4   4   1   75.56    1.19 
   4   4   1   73.89    1.20 
   4   4   1   74.94    1.21 
  -5  -4  -1    0.02    0.05 
  -5  -4  -1   -0.08    0.04 
   5   4   1    0.04    0.06 
   5   4   1   -0.01    0.05 
   5   4   1   -0.04    0.04 
   5   4   1    0.00    0.05 
   5   4   1    0.00    0.05 
  -6  -4  -1    0.52    0.09 
  -6  -4  -1    0.74    0.10 
   6   4   1    0.79    0.11 
   6   4   1    0.57    0.10 
   6   4   1    0.55    0.10 
   6   4   1    0.52    0.09 
  -7  -4  -1    0.20    0.08 
   7   4   1    0.18    0.07 
   7   4   1    0.46    0.11 
   7   4   1    0.34    0.10 
  -8  -4  -1    0.02    0.07 
   8   4   1   -0.09    0.08 
   8   4   1    0.02    0.08 
  -9  -4  -1    0.41    0.10 
   9   4   1    0.62    0.14 
   9   4   1    0.63    0.15 
  10   4   1    0.32    0.13 
  10   4   1    0.37    0.14 
   8  -5  -1    1.57    0.16 
   8  -5  -1    1.59    0.17 
   7  -5  -1    0.31    0.09 
   7  -5  -1    0.23    0.08 
   6  -5  -1    3.21    0.18 
  -6   5   1    3.27    0.15 
   5  -5  -1   43.37    0.78 
   5  -5  -1   44.59    0.78 
   5  -5  -1   43.02    0.79 
  -5   5   1   44.34    0.74 
   4  -5  -1   10.31    0.27 
   4  -5  -1   10.52    0.28 
   4  -5  -1   10.15    0.27 
  -4   5   1    9.97    0.23 
   3  -5  -1    4.54    0.17 
   3  -5  -1    4.62    0.17 
   3  -5  -1    4.75    0.16 
  -3   5   1    4.74    0.15 
  -3   5   1    5.04    0.15 
   2  -5  -1   85.23    1.27 
   2  -5  -1   83.56    1.29 
   2  -5  -1   84.77    1.28 
   2  -5  -1   85.22    1.29 
  -2   5   1   83.96    1.25 
  -2   5   1   84.20    1.25 
   1  -5  -1   15.12    0.32 
   1  -5  -1   15.15    0.32 
   1  -5  -1   15.58    0.33 
   1  -5  -1   15.41    0.32 
  -1   5   1   15.30    0.31 
  -1   5   1   15.48    0.31 
   0  -5  -1    2.44    0.11 
   0  -5  -1    2.34    0.11 
   0  -5  -1    2.17    0.11 
   0  -5  -1    2.51    0.10 
   0   5   1    2.40    0.11 
   0   5   1    2.49    0.10 
   0   5   1    2.34    0.11 
  -1  -5  -1    0.71    0.07 
  -1  -5  -1    0.80    0.06 
  -1  -5  -1    0.70    0.07 
  -1  -5  -1    0.96    0.08 
   1   5   1    0.81    0.07 
   1   5   1    0.77    0.07 
   1   5   1    0.92    0.08 
  -2  -5  -1   21.99    0.45 
  -2  -5  -1   22.71    0.43 
  -2  -5  -1   22.11    0.45 
  -2  -5  -1   22.71    0.45 
   2   5   1   22.93    0.41 
   2   5   1   22.44    0.46 
   2   5   1   22.38    0.44 
   2   5   1   22.66    0.44 
  -3  -5  -1   18.80    0.41 
  -3  -5  -1   19.14    0.41 
  -3  -5  -1   18.18    0.40 
  -3  -5  -1   18.56    0.39 
   3   5   1   18.59    0.38 
   3   5   1   18.82    0.41 
   3   5   1   18.89    0.42 
   3   5   1   19.24    0.41 
  -4  -5  -1   13.94    0.35 
  -4  -5  -1   13.68    0.35 
   4   5   1   13.69    0.35 
   4   5   1   13.00    0.36 
   4   5   1   14.31    0.35 
   4   5   1   13.75    0.33 
  -5  -5  -1    0.28    0.07 
  -5  -5  -1    0.35    0.07 
   5   5   1    0.42    0.08 
   5   5   1    0.36    0.07 
   5   5   1    0.32    0.07 
   5   5   1    0.47    0.09 
  -6  -5  -1    2.02    0.15 
  -6  -5  -1    1.81    0.14 
   6   5   1    1.64    0.15 
   6   5   1    1.60    0.14 
   6   5   1    1.67    0.16 
   6   5   1    1.76    0.17 
  -7  -5  -1    2.01    0.16 
  -7  -5  -1    1.94    0.16 
   7   5   1    2.11    0.19 
   7   5   1    1.92    0.19 
   7   5   1    2.09    0.17 
  -8  -5  -1    0.08    0.08 
   8   5   1    0.05    0.09 
   8   5   1   -0.07    0.09 
  -9  -5  -1    1.25    0.15 
   9   5   1    1.31    0.19 
   9   5   1    1.45    0.19 
  10   5   1   -0.04    0.10 
  10   5   1   -0.02    0.11 
   8  -6  -1    0.97    0.16 
   8  -6  -1    0.89    0.14 
   7  -6  -1    1.33    0.14 
   7  -6  -1    1.08    0.14 
   6  -6  -1    1.30    0.14 
   5  -6  -1    9.27    0.28 
   5  -6  -1    9.76    0.30 
   4  -6  -1    0.01    0.05 
   4  -6  -1    0.09    0.05 
   4  -6  -1   -0.05    0.04 
  -4   6   1   -0.02    0.03 
   3  -6  -1    0.63    0.09 
   3  -6  -1    0.97    0.10 
   3  -6  -1    0.62    0.09 
   3  -6  -1    0.70    0.09 
  -3   6   1    0.69    0.08 
  -3   6   1    0.72    0.09 
   2  -6  -1   12.19    0.29 
   2  -6  -1   11.53    0.30 
   2  -6  -1   11.84    0.30 
   2  -6  -1   11.74    0.30 
  -2   6   1   11.59    0.27 
  -2   6   1   11.72    0.27 
   1  -6  -1    0.50    0.07 
   1  -6  -1    0.40    0.06 
   1  -6  -1    0.41    0.07 
   1  -6  -1    0.36    0.06 
  -1   6   1    0.48    0.06 
  -1   6   1    0.42    0.06 
   0  -6  -1    9.65    0.26 
   0  -6  -1    9.31    0.26 
   0  -6  -1    9.51    0.26 
   0   6   1    9.50    0.25 
   0   6   1    9.48    0.24 
   0   6   1    9.35    0.24 
  -1  -6  -1    2.42    0.13 
  -1  -6  -1    2.49    0.12 
  -1  -6  -1    2.24    0.13 
   1   6   1    2.28    0.12 
   1   6   1    2.32    0.13 
   1   6   1    2.54    0.12 
  -2  -6  -1   28.91    0.58 
  -2  -6  -1   29.26    0.57 
  -2  -6  -1   29.71    0.58 
  -2  -6  -1   28.98    0.54 
   2   6   1   29.17    0.56 
   2   6   1   29.26    0.57 
   2   6   1   28.77    0.52 
   2   6   1   29.16    0.56 
  -3  -6  -1    3.91    0.17 
  -3  -6  -1    3.87    0.17 
  -3  -6  -1    3.62    0.17 
   3   6   1    3.63    0.17 
   3   6   1    3.75    0.15 
   3   6   1    3.71    0.17 
   3   6   1    3.87    0.18 
  -4  -6  -1    0.25    0.07 
  -4  -6  -1    0.46    0.08 
   4   6   1    0.52    0.08 
   4   6   1    0.39    0.09 
   4   6   1    0.52    0.08 
   4   6   1    0.42    0.07 
  -5  -6  -1   29.42    0.61 
  -5  -6  -1   28.76    0.60 
   5   6   1   28.10    0.59 
   5   6   1   29.11    0.64 
   5   6   1   28.07    0.62 
  -6  -6  -1   12.64    0.37 
  -6  -6  -1   13.16    0.38 
   6   6   1   12.89    0.40 
   6   6   1   13.00    0.42 
   6   6   1   13.07    0.38 
  -7  -6  -1    1.25    0.14 
  -7  -6  -1    1.36    0.15 
   7   6   1    1.52    0.18 
   7   6   1    1.44    0.16 
  -8  -6  -1    0.22    0.09 
   8   6   1    0.29    0.10 
   8   6   1    0.13    0.09 
  -9  -6  -1    0.31    0.10 
   9   6   1    0.24    0.12 
   9   6   1    0.35    0.14 
   7  -7  -1    0.42    0.10 
   6  -7  -1    1.53    0.15 
   5  -7  -1    3.57    0.20 
   5  -7  -1    3.53    0.20 
   4  -7  -1    9.06    0.30 
   4  -7  -1    8.38    0.29 
   4  -7  -1    8.61    0.27 
   4  -7  -1    8.34    0.32 
  -4   7   1    8.64    0.23 
   3  -7  -1    0.30    0.07 
   3  -7  -1    0.35    0.08 
   3  -7  -1    0.42    0.08 
   3  -7  -1    0.29    0.07 
  -3   7   1    0.36    0.06 
   2  -7  -1    4.76    0.19 
   2  -7  -1    4.37    0.20 
   2  -7  -1    4.60    0.20 
   2  -7  -1    4.89    0.20 
  -2   7   1    4.26    0.16 
   1  -7  -1   23.67    0.51 
   1  -7  -1   24.89    0.50 
   1  -7  -1   23.78    0.50 
   1  -7  -1   24.02    0.51 
  -1   7   1   24.57    0.48 
   0  -7  -1    1.48    0.12 
   0  -7  -1    1.74    0.13 
   0  -7  -1    1.64    0.12 
   0   7   1    1.55    0.11 
   0   7   1    1.59    0.11 
  -1  -7  -1    0.41    0.08 
  -1  -7  -1    0.45    0.08 
  -1  -7  -1    0.35    0.07 
   1   7   1    0.41    0.07 
   1   7   1    0.49    0.08 
  -2  -7  -1   11.99    0.33 
  -2  -7  -1   11.92    0.34 
   2   7   1   12.07    0.33 
   2   7   1   11.50    0.29 
   2   7   1   12.16    0.33 
  -3  -7  -1    0.84    0.10 
  -3  -7  -1    0.84    0.11 
   3   7   1    0.93    0.09 
   3   7   1    0.91    0.12 
  -4  -7  -1    0.32    0.08 
  -4  -7  -1    0.30    0.08 
   4   7   1    0.27    0.08 
   4   7   1    0.24    0.06 
  -5  -7  -1    2.68    0.19 
  -5  -7  -1    2.84    0.18 
   5   7   1    2.80    0.21 
   5   7   1    2.96    0.17 
  -6  -7  -1    0.03    0.07 
  -6  -7  -1   -0.05    0.07 
   6   7   1    0.06    0.07 
   6   7   1    0.01    0.09 
  -7  -7  -1    0.02    0.08 
  -7  -7  -1    0.13    0.09 
   7   7   1    0.04    0.07 
   7   7   1    0.04    0.09 
  -8  -7  -1    0.16    0.09 
   8   7   1   -0.03    0.08 
   8   7   1    0.04    0.11 
  -9  -7  -1    0.17    0.10 
   9   7   1    0.02    0.10 
   9   7   1    0.01    0.11 
   6  -8  -1    0.03    0.07 
   6  -8  -1   -0.02    0.06 
   5  -8  -1   -0.01    0.06 
   5  -8  -1    0.29    0.09 
   4  -8  -1    0.17    0.07 
   4  -8  -1    0.15    0.07 
   3  -8  -1   12.03    0.37 
   3  -8  -1   11.24    0.39 
   3  -8  -1   11.16    0.35 
   3  -8  -1   11.37    0.33 
  -3   8   1   11.69    0.30 
   2  -8  -1    0.13    0.08 
   2  -8  -1    0.12    0.07 
   2  -8  -1    0.10    0.08 
   2  -8  -1    0.08    0.07 
  -2   8   1    0.20    0.06 
   1  -8  -1    6.42    0.26 
   1  -8  -1    6.59    0.25 
   1  -8  -1    6.21    0.25 
   1  -8  -1    6.52    0.24 
  -1   8   1    6.12    0.22 
   0  -8  -1    1.51    0.14 
   0  -8  -1    1.31    0.13 
   0  -8  -1    1.09    0.12 
   0   8   1    1.37    0.12 
  -1  -8  -1   -0.02    0.06 
  -1  -8  -1    0.00    0.05 
   1   8   1    0.02    0.05 
  -2  -8  -1    3.79    0.21 
  -2  -8  -1    3.43    0.19 
   2   8   1    3.52    0.19 
  -3  -8  -1    2.37    0.18 
  -3  -8  -1    2.61    0.18 
   3   8   1    2.45    0.15 
   3   8   1    2.56    0.18 
  -4  -8  -1    1.29    0.15 
  -4  -8  -1    1.53    0.15 
   4   8   1    1.91    0.18 
   4   8   1    1.56    0.13 
  -5  -8  -1    1.34    0.15 
  -5  -8  -1    1.50    0.15 
   5   8   1    1.26    0.15 
   5   8   1    1.43    0.14 
  -6  -8  -1    0.25    0.09 
  -6  -8  -1    0.15    0.09 
   6   8   1    0.38    0.12 
   6   8   1    0.19    0.08 
  -7  -8  -1    1.29    0.16 
  -7  -8  -1    1.23    0.16 
   7   8   1    1.55    0.21 
   7   8   1    1.48    0.16 
  -8  -8  -1    0.50    0.12 
   8   8   1    0.43    0.15 
   8   8   1    0.42    0.12 
  -9  -8  -1    0.39    0.12 
   9   8   1    0.28    0.13 
   9   8   1    0.36    0.12 
   6  -9  -1    0.20    0.10 
   6  -9  -1    0.08    0.10 
   5  -9  -1   -0.02    0.08 
   5  -9  -1    0.03    0.07 
   4  -9  -1    4.53    0.26 
   4  -9  -1    4.17    0.23 
   3  -9  -1    0.14    0.07 
   3  -9  -1    0.05    0.08 
  -3   9   1    0.18    0.08 
   2  -9  -1    5.19    0.24 
   2  -9  -1    5.01    0.23 
   2  -9  -1    4.94    0.25 
  -2   9   1    4.99    0.20 
   1  -9  -1   16.50    0.46 
   1  -9  -1   16.32    0.45 
   1  -9  -1   16.79    0.43 
  -1   9   1   15.61    0.40 
   0  -9  -1    6.55    0.26 
   0  -9  -1    7.22    0.30 
   0  -9  -1    7.17    0.29 
   0   9   1    7.04    0.26 
  -1  -9  -1    2.20    0.19 
  -1  -9  -1    2.35    0.18 
   1   9   1    2.45    0.18 
  -2  -9  -1    5.86    0.28 
  -2  -9  -1    5.72    0.27 
   2   9   1    5.51    0.26 
  -3  -9  -1    2.73    0.20 
  -3  -9  -1    2.96    0.22 
   3   9   1    2.98    0.21 
  -4  -9  -1    0.29    0.09 
  -4  -9  -1    0.46    0.11 
   4   9   1    0.42    0.11 
   4   9   1    0.34    0.08 
  -5  -9  -1    0.41    0.11 
  -5  -9  -1    0.52    0.11 
   5   9   1    0.41    0.11 
   5   9   1    0.27    0.09 
  -6  -9  -1    0.19    0.09 
  -6  -9  -1    0.05    0.09 
   6   9   1   -0.06    0.06 
   6   9   1    0.06    0.09 
  -7  -9  -1    0.12    0.10 
  -7  -9  -1    0.18    0.09 
   7   9   1    0.04    0.08 
   7   9   1    0.07    0.11 
  -8  -9  -1    0.17    0.11 
   8   9   1    0.37    0.11 
   8   9   1    0.48    0.14 
   5 -10  -1    0.00    0.09 
   5 -10  -1    0.12    0.10 
   4 -10  -1    0.21    0.11 
   4 -10  -1    0.18    0.09 
   3 -10  -1    1.26    0.17 
   3 -10  -1    1.15    0.15 
   2 -10  -1    0.33    0.10 
   2 -10  -1    0.42    0.12 
  -2  10   1    0.48    0.11 
   1 -10  -1    1.02    0.14 
   1 -10  -1    1.10    0.15 
   1 -10  -1    1.06    0.15 
  -1  10   1    1.19    0.13 
   0 -10  -1    0.96    0.14 
   0 -10  -1    0.83    0.15 
   0  10   1    1.05    0.14 
  -1 -10  -1    0.35    0.10 
  -1 -10  -1    0.36    0.11 
   1  10   1    0.42    0.11 
  -2 -10  -1   -0.09    0.08 
  -2 -10  -1    0.16    0.09 
   2  10   1   -0.04    0.07 
  -3 -10  -1    5.62    0.31 
  -3 -10  -1    5.62    0.30 
   3  10   1    5.87    0.30 
  -4 -10  -1   10.35    0.40 
  -4 -10  -1   11.13    0.42 
   4  10   1   11.04    0.41 
   4  10   1   11.13    0.35 
  -5 -10  -1    3.51    0.25 
  -5 -10  -1    3.55    0.27 
   5  10   1    3.41    0.21 
   5  10   1    3.80    0.27 
  -6 -10  -1    0.47    0.13 
  -6 -10  -1    0.39    0.12 
   6  10   1    0.34    0.10 
   6  10   1    0.51    0.15 
  -7 -10  -1    0.21    0.12 
  -7 -10  -1   -0.09    0.08 
   7  10   1    0.09    0.11 
   7  10   1    0.29    0.10 
   8  10   1    0.21    0.13 
   4 -11  -1    0.15    0.10 
   4 -11  -1    0.09    0.10 
   3 -11  -1    1.17    0.17 
   3 -11  -1    1.41    0.19 
   2 -11  -1    4.90    0.28 
   2 -11  -1    5.31    0.32 
   1 -11  -1    0.46    0.12 
   1 -11  -1    0.81    0.15 
   0 -11  -1    0.48    0.12 
   0 -11  -1    0.69    0.15 
   0  11   1    0.64    0.11 
  -1 -11  -1    0.52    0.13 
  -1 -11  -1    0.65    0.14 
   1  11   1    0.74    0.13 
  -2 -11  -1    1.18    0.18 
  -2 -11  -1    1.09    0.16 
   2  11   1    1.15    0.14 
  -3 -11  -1    0.21    0.11 
  -3 -11  -1    0.33    0.13 
   3  11   1    0.17    0.11 
  -4 -11  -1    0.24    0.12 
  -4 -11  -1    0.02    0.11 
   4  11   1   -0.10    0.08 
  -5 -11  -1    1.06    0.17 
  -5 -11  -1    1.26    0.18 
   5  11   1    0.92    0.13 
   5  11   1    0.67    0.15 
  -6 -11  -1    0.84    0.16 
  -6 -11  -1    0.76    0.17 
   6  11   1    0.77    0.16 
   6  11   1    0.68    0.12 
  -7 -11  -1    0.04    0.10 
   7  11   1    0.03    0.09 
   7  11   1    0.30    0.14 
   2 -12  -1   -0.11    0.09 
   2 -12  -1    0.06    0.11 
   1 -12  -1    1.16    0.18 
   1 -12  -1    1.57    0.21 
   0 -12  -1    1.21    0.18 
   0 -12  -1    0.96    0.17 
  -1 -12  -1    0.28    0.14 
  -1 -12  -1    0.27    0.12 
   1  12   1    0.47    0.12 
  -2 -12  -1   -0.06    0.09 
  -2 -12  -1    0.04    0.11 
   2  12   1   -0.13    0.07 
  -3 -12  -1    0.46    0.13 
  -3 -12  -1    0.95    0.19 
   3  12   1    0.70    0.14 
  -4 -12  -1    0.11    0.11 
  -4 -12  -1    0.22    0.13 
   4  12   1   -0.13    0.09 
  -5 -12  -1   -0.01    0.11 
  -5 -12  -1   -0.02    0.10 
   5  12   1   -0.07    0.10 
   0 -13  -1    0.78    0.20 
   0 -13  -1    0.50    0.15 
  -1 -13  -1    0.90    0.18 
  -1 -13  -1    0.70    0.16 
  -2 -13  -1    0.24    0.13 
  -2 -13  -1    0.06    0.13 
  -3 -13  -1    0.13    0.13 
  -3 -13  -1    0.20    0.12 
   3  13   1    0.11    0.11 
   3  12  -2    0.30    0.12 
  -3 -12   2    0.55    0.17 
  -3 -12   2    0.40    0.14 
   2  12  -2    0.14    0.10 
  -2 -12   2    0.02    0.12 
  -2 -12   2    0.01    0.11 
   1  12  -2    0.03    0.09 
  -1 -12   2   -0.19    0.11 
  -1 -12   2   -0.13    0.10 
   0  12  -2    0.23    0.12 
   0 -12   2    0.17    0.13 
   0 -12   2    0.03    0.12 
   5  11  -2   -0.01    0.09 
   5  11  -2   -0.18    0.09 
  -5 -11   2    0.04    0.11 
   4  11  -2    0.06    0.09 
   4  11  -2    0.17    0.10 
  -4 -11   2    0.06    0.11 
  -4 -11   2    0.13    0.11 
   3  11  -2    0.36    0.14 
  -3 -11   2    0.57    0.15 
  -3 -11   2    0.54    0.15 
   2  11  -2    0.12    0.12 
  -2 -11   2    0.14    0.12 
  -2 -11   2    0.26    0.14 
   1  11  -2    0.03    0.08 
  -1 -11   2    0.04    0.10 
  -1 -11   2    0.08    0.11 
   0  11  -2    2.08    0.21 
   0 -11   2    1.98    0.22 
   0 -11   2    2.09    0.23 
  -1  11  -2    3.29    0.25 
   1 -11   2    3.23    0.29 
   1 -11   2    3.58    0.31 
   2 -11   2   -0.12    0.10 
   2 -11   2    0.00    0.11 
   3 -11   2    0.24    0.13 
   3 -11   2    0.23    0.13 
   6  10  -2    0.33    0.14 
   6  10  -2    0.56    0.13 
  -6 -10   2    0.61    0.14 
   5  10  -2    0.62    0.14 
   5  10  -2    0.55    0.14 
  -5 -10   2    0.56    0.14 
  -5 -10   2    0.67    0.14 
   4  10  -2    0.22    0.10 
   4  10  -2    0.49    0.14 
  -4 -10   2    0.42    0.12 
  -4 -10   2    0.28    0.11 
   3  10  -2    1.74    0.18 
   3  10  -2    1.53    0.20 
  -3 -10   2    1.31    0.17 
  -3 -10   2    1.37    0.18 
   2  10  -2    0.49    0.11 
  -2 -10   2    0.76    0.15 
  -2 -10   2    0.76    0.15 
   1  10  -2    0.29    0.10 
  -1 -10   2    0.54    0.14 
  -1 -10   2    0.54    0.15 
   0  10  -2    5.47    0.29 
   0 -10   2    5.88    0.33 
   0 -10   2    5.07    0.29 
  -1  10  -2    0.35    0.10 
   1 -10   2    0.27    0.11 
   1 -10   2    0.19    0.12 
  -2  10  -2   -0.09    0.06 
   2 -10   2    0.03    0.09 
   2 -10   2   -0.02    0.09 
   3 -10   2   -0.04    0.08 
   3 -10   2    0.22    0.11 
   4 -10   2    0.11    0.10 
   4 -10   2   -0.04    0.10 
   7   9  -2    0.15    0.13 
   7   9  -2   -0.06    0.08 
  -7  -9   2    0.07    0.09 
   6   9  -2    0.25    0.12 
   6   9  -2    0.44    0.15 
  -6  -9   2    0.19    0.10 
   5   9  -2   -0.13    0.08 
   5   9  -2   -0.06    0.08 
  -5  -9   2    0.07    0.08 
  -5  -9   2    0.05    0.09 
   4   9  -2    0.19    0.09 
   4   9  -2    0.22    0.10 
  -4  -9   2    0.35    0.11 
  -4  -9   2    0.25    0.10 
   3   9  -2    0.28    0.12 
   3   9  -2    0.34    0.09 
  -3  -9   2    0.51    0.12 
  -3  -9   2    0.32    0.11 
   2   9  -2    0.19    0.08 
  -2  -9   2    0.03    0.09 
  -2  -9   2    0.08    0.10 
   1   9  -2    1.48    0.16 
  -1  -9   2    1.62    0.17 
  -1  -9   2    1.47    0.17 
   0   9  -2    0.01    0.08 
   0  -9   2    0.00    0.09 
   0  -9   2   -0.10    0.08 
  -1   9  -2    5.98    0.27 
   1  -9   2    6.26    0.30 
   1  -9   2    6.39    0.31 
  -2   9  -2    1.00    0.14 
   2  -9   2    1.04    0.17 
   2  -9   2    0.94    0.15 
  -3   9  -2    0.08    0.07 
   3  -9   2    0.05    0.09 
   3  -9   2    0.03    0.09 
   4  -9   2    0.61    0.14 
   4  -9   2    0.67    0.14 
   5  -9   2    0.69    0.14 
   5  -9   2    0.59    0.15 
   8   8  -2   -0.11    0.10 
   8   8  -2   -0.15    0.11 
   7   8  -2    0.01    0.10 
   7   8  -2   -0.09    0.10 
  -7  -8   2   -0.11    0.07 
   6   8  -2    3.88    0.29 
   6   8  -2    3.78    0.26 
  -6  -8   2    3.47    0.24 
  -6  -8   2    3.58    0.26 
   5   8  -2    1.18    0.15 
   5   8  -2    1.37    0.17 
  -5  -8   2    1.46    0.17 
  -5  -8   2    1.59    0.17 
   4   8  -2    0.35    0.11 
   4   8  -2    0.42    0.10 
  -4  -8   2    0.20    0.09 
  -4  -8   2    0.26    0.09 
   3   8  -2    0.45    0.13 
   3   8  -2    0.44    0.10 
  -3  -8   2    0.43    0.11 
  -3  -8   2    0.41    0.10 
   2   8  -2    2.78    0.21 
   2   8  -2    3.06    0.19 
  -2  -8   2    2.95    0.22 
  -2  -8   2    3.23    0.23 
   1   8  -2    4.92    0.26 
  -1  -8   2    5.52    0.28 
  -1  -8   2    4.84    0.27 
   0   8  -2    2.41    0.19 
   0  -8   2    2.85    0.20 
   0  -8   2    2.49    0.21 
  -1   8  -2    6.41    0.27 
   1  -8   2    6.44    0.30 
   1  -8   2    5.88    0.28 
  -2   8  -2    8.83    0.31 
   2  -8   2    8.11    0.32 
   2  -8   2    8.99    0.35 
  -3   8  -2    2.97    0.19 
   3  -8   2    3.36    0.24 
   3  -8   2    2.82    0.22 
  -4   8  -2    0.77    0.12 
   4  -8   2    0.65    0.13 
   4  -8   2    0.48    0.11 
   5  -8   2    0.17    0.10 
   5  -8   2    0.33    0.12 
   6  -8   2    0.97    0.17 
   6  -8   2    0.63    0.14 
   8   7  -2    0.09    0.10 
   8   7  -2    0.08    0.12 
   7   7  -2    1.03    0.16 
   7   7  -2    1.01    0.16 
  -7  -7   2    0.90    0.13 
   6   7  -2    3.52    0.27 
   6   7  -2    3.45    0.25 
  -6  -7   2    3.26    0.22 
  -6  -7   2    2.74    0.20 
   5   7  -2    2.62    0.20 
   5   7  -2    2.85    0.23 
  -5  -7   2    2.39    0.19 
  -5  -7   2    2.46    0.19 
   4   7  -2    1.11    0.15 
   4   7  -2    1.01    0.13 
   4   7  -2    0.89    0.12 
  -4  -7   2    0.93    0.13 
  -4  -7   2    0.98    0.12 
   3   7  -2   -0.01    0.07 
   3   7  -2    0.16    0.09 
   3   7  -2    0.11    0.08 
  -3  -7   2    0.08    0.08 
  -3  -7   2    0.20    0.07 
   2   7  -2    9.56    0.31 
   2   7  -2    9.79    0.33 
  -2  -7   2    9.80    0.33 
  -2  -7   2    9.35    0.32 
   1   7  -2   -0.08    0.05 
  -1  -7   2    0.02    0.07 
  -1  -7   2    0.25    0.09 
   0   7  -2   13.93    0.38 
   0  -7   2   14.05    0.40 
   0  -7   2   14.42    0.43 
   0  -7   2   13.71    0.39 
  -1   7  -2    4.09    0.20 
   1  -7   2    4.17    0.22 
   1  -7   2    3.85    0.19 
   1  -7   2    3.61    0.20 
  -2   7  -2    4.80    0.22 
   2  -7   2    4.91    0.22 
   2  -7   2    4.71    0.24 
   2  -7   2    4.74    0.23 
  -3   7  -2   10.62    0.32 
   3  -7   2   10.44    0.35 
   3  -7   2   10.01    0.34 
   3  -7   2    9.89    0.36 
  -4   7  -2   -0.04    0.06 
   4  -7   2   -0.05    0.07 
   4  -7   2   -0.03    0.08 
  -5   7  -2    0.55    0.10 
   5  -7   2    0.65    0.12 
   5  -7   2    0.77    0.14 
   6  -7   2    1.21    0.16 
   6  -7   2    1.08    0.17 
   7  -7   2    0.34    0.12 
   7  -7   2    0.52    0.14 
   9   6  -2    0.44    0.14 
   9   6  -2    0.20    0.14 
   8   6  -2    1.38    0.20 
   8   6  -2    1.07    0.19 
   7   6  -2    0.46    0.13 
   7   6  -2    0.38    0.14 
  -7  -6   2    0.17    0.09 
   6   6  -2    2.84    0.23 
   6   6  -2    2.41    0.19 
   6   6  -2    2.47    0.22 
  -6  -6   2    2.59    0.18 
  -6  -6   2    2.57    0.18 
   5   6  -2   15.50    0.45 
   5   6  -2   14.24    0.42 
   5   6  -2   14.59    0.43 
  -5  -6   2   14.35    0.40 
  -5  -6   2   14.87    0.41 
   4   6  -2    4.04    0.20 
   4   6  -2    4.10    0.21 
   4   6  -2    4.37    0.23 
   4   6  -2    4.02    0.21 
  -4  -6   2    3.96    0.21 
  -4  -6   2    4.12    0.20 
   3   6  -2    2.24    0.17 
   3   6  -2    2.12    0.16 
   3   6  -2    2.39    0.15 
   3   6  -2    2.28    0.15 
  -3  -6   2    2.03    0.15 
  -3  -6   2    2.32    0.16 
   2   6  -2   11.12    0.31 
   2   6  -2   10.68    0.31 
   2   6  -2   10.87    0.32 
   2   6  -2   10.76    0.33 
  -2  -6   2   11.08    0.33 
  -2  -6   2   10.92    0.32 
   1   6  -2    0.22    0.07 
   1   6  -2    0.34    0.07 
   1   6  -2    0.42    0.07 
   1   6  -2    0.35    0.07 
  -1  -6   2    0.27    0.07 
  -1  -6   2    0.46    0.08 
  -1  -6   2    0.29    0.07 
   0   6  -2   -0.03    0.04 
   0   6  -2   -0.08    0.03 
   0   6  -2   -0.02    0.04 
   0  -6   2    0.01    0.04 
   0  -6   2   -0.06    0.05 
   0  -6   2   -0.03    0.04 
  -1   6  -2    3.09    0.16 
   1  -6   2    3.08    0.17 
   1  -6   2    2.92    0.15 
   1  -6   2    2.89    0.16 
  -2   6  -2    5.21    0.21 
   2  -6   2    5.21    0.21 
   2  -6   2    5.48    0.23 
   2  -6   2    5.05    0.22 
  -3   6  -2   11.20    0.32 
   3  -6   2   11.34    0.35 
   3  -6   2   11.30    0.32 
   3  -6   2   11.07    0.34 
  -4   6  -2    1.07    0.12 
  -4   6  -2    0.99    0.12 
   4  -6   2    0.83    0.11 
   4  -6   2    0.74    0.10 
   4  -6   2    0.92    0.12 
  -5   6  -2    5.07    0.23 
  -5   6  -2    5.39    0.23 
   5  -6   2    5.42    0.27 
   5  -6   2    5.11    0.23 
   5  -6   2    5.40    0.25 
  -6   6  -2    4.47    0.23 
  -6   6  -2    3.99    0.22 
   6  -6   2    4.69    0.25 
   7  -6   2    1.27    0.16 
   9   5  -2    0.10    0.10 
   9   5  -2    0.08    0.11 
   8   5  -2    0.27    0.11 
   8   5  -2    0.51    0.15 
  -8  -5   2    0.13    0.09 
   7   5  -2    5.43    0.31 
   7   5  -2    5.44    0.30 
  -7  -5   2    5.34    0.24 
   6   5  -2    0.09    0.07 
   6   5  -2    0.11    0.09 
   6   5  -2    0.27    0.08 
   6   5  -2    0.10    0.08 
  -6  -5   2    0.04    0.06 
  -6  -5   2    0.20    0.07 
   5   5  -2    3.51    0.19 
   5   5  -2    3.76    0.22 
   5   5  -2    3.78    0.20 
   5   5  -2    3.27    0.21 
  -5  -5   2    3.57    0.19 
  -5  -5   2    3.88    0.19 
   4   5  -2    5.72    0.24 
   4   5  -2    5.52    0.22 
   4   5  -2    5.87    0.24 
  -4  -5   2    5.99    0.23 
  -4  -5   2    5.69    0.22 
   3   5  -2   11.29    0.32 
   3   5  -2   11.21    0.31 
   3   5  -2   11.90    0.34 
   3   5  -2   11.33    0.32 
  -3  -5   2   11.57    0.32 
  -3  -5   2   10.96    0.31 
   2   5  -2    3.09    0.17 
   2   5  -2    3.00    0.15 
   2   5  -2    3.21    0.16 
   2   5  -2    2.74    0.15 
  -2  -5   2    3.06    0.16 
   1   5  -2    0.52    0.08 
   1   5  -2    0.42    0.07 
   1   5  -2    0.68    0.09 
   1   5  -2    0.57    0.08 
  -1  -5   2    0.44    0.08 
  -1  -5   2    0.44    0.08 
  -1  -5   2    0.61    0.08 
   0   5  -2   39.65    0.70 
   0   5  -2   38.83    0.70 
   0  -5   2   39.32    0.71 
   0  -5   2   39.24    0.69 
   0  -5   2   39.44    0.72 
   0  -5   2   38.25    0.71 
  -1   5  -2    2.71    0.13 
  -1   5  -2    2.61    0.14 
   1  -5   2    2.43    0.14 
   1  -5   2    2.75    0.15 
   1  -5   2    2.63    0.15 
   1  -5   2    2.78    0.14 
  -2   5  -2    0.05    0.04 
  -2   5  -2    0.04    0.04 
   2  -5   2    0.05    0.05 
   2  -5   2    0.06    0.04 
   2  -5   2    0.04    0.04 
   2  -5   2    0.06    0.04 
  -3   5  -2   17.72    0.40 
  -3   5  -2   16.66    0.40 
   3  -5   2   16.94    0.42 
   3  -5   2   17.92    0.43 
   3  -5   2   17.00    0.40 
   3  -5   2   16.42    0.41 
  -4   5  -2    4.28    0.19 
  -4   5  -2    4.24    0.19 
   4  -5   2    4.42    0.19 
   4  -5   2    4.64    0.21 
  -5   5  -2    0.28    0.07 
  -5   5  -2    0.20    0.07 
   5  -5   2    0.30    0.07 
   5  -5   2    0.21    0.07 
  -6   5  -2    1.10    0.12 
  -6   5  -2    1.07    0.13 
   6  -5   2    1.13    0.13 
   6  -5   2    1.26    0.15 
   7  -5   2    2.92    0.23 
   7  -5   2    2.90    0.21 
   8  -5   2    0.11    0.10 
   8  -5   2    0.27    0.10 
   9   4  -2    0.32    0.13 
   9   4  -2    0.34    0.14 
   8   4  -2   -0.02    0.08 
   8   4  -2    0.00    0.10 
  -8  -4   2    0.16    0.08 
   7   4  -2    1.78    0.18 
   7   4  -2    1.75    0.17 
   7   4  -2    1.94    0.21 
  -7  -4   2    1.48    0.14 
   6   4  -2   15.95    0.47 
   6   4  -2   15.96    0.44 
   6   4  -2   14.58    0.41 
   6   4  -2   15.49    0.41 
  -6  -4   2   15.51    0.39 
  -6  -4   2   15.73    0.38 
   5   4  -2    1.29    0.14 
   5   4  -2    1.29    0.15 
   5   4  -2    1.19    0.12 
   5   4  -2    1.25    0.13 
  -5  -4   2    1.07    0.11 
  -5  -4   2    1.32    0.12 
   4   4  -2   26.39    0.57 
   4   4  -2   26.21    0.53 
   4   4  -2   26.33    0.56 
   4   4  -2   26.38    0.55 
  -4  -4   2   26.36    0.52 
  -4  -4   2   26.45    0.52 
   3   4  -2   43.04    0.76 
   3   4  -2   42.83    0.78 
   3   4  -2   43.19    0.75 
  -3  -4   2   43.10    0.75 
  -3  -4   2   43.11    0.75 
   2   4  -2   48.49    0.84 
   2   4  -2   48.60    0.83 
   2   4  -2   48.96    0.82 
  -2  -4   2   48.45    0.82 
  -2  -4   2   50.13    0.83 
  -2  -4   2   49.34    0.83 
   1   4  -2   71.31    1.13 
   1   4  -2   72.79    1.13 
   1   4  -2   71.85    1.15 
   1   4  -2   72.12    1.14 
  -1  -4   2   73.18    1.15 
  -1  -4   2   72.90    1.12 
  -1  -4   2   73.27    1.14 
  -1  -4   2   72.42    1.15 
  -1  -4   2   71.10    1.14 
   0   4  -2    0.02    0.03 
   0   4  -2    0.14    0.04 
   0   4  -2    0.16    0.04 
   0   4  -2    0.03    0.04 
   0  -4   2    0.10    0.04 
   0  -4   2    0.09    0.05 
   0  -4   2    0.08    0.04 
   0  -4   2    0.10    0.05 
   0  -4   2    0.09    0.05 
  -1   4  -2   32.75    0.59 
  -1   4  -2   33.35    0.59 
   1  -4   2   32.96    0.60 
   1  -4   2   32.26    0.60 
   1  -4   2   33.77    0.60 
   1  -4   2   33.25    0.58 
  -2   4  -2   71.94    1.11 
  -2   4  -2   71.04    1.12 
  -2   4  -2   69.84    1.12 
   2  -4   2   70.69    1.14 
   2  -4   2   71.79    1.12 
   2  -4   2   69.53    1.13 
   2  -4   2   70.57    1.13 
  -3   4  -2    0.24    0.05 
  -3   4  -2    0.24    0.05 
  -3   4  -2    0.32    0.06 
   3  -4   2    0.29    0.06 
   3  -4   2    0.25    0.05 
   3  -4   2    0.37    0.06 
  -4   4  -2    7.62    0.24 
  -4   4  -2    7.35    0.24 
   4  -4   2    7.34    0.24 
   4  -4   2    7.77    0.26 
   4  -4   2    8.10    0.26 
  -5   4  -2    0.11    0.06 
  -5   4  -2    0.16    0.06 
   5  -4   2    0.10    0.06 
   5  -4   2    0.06    0.05 
  -6   4  -2    1.08    0.12 
  -6   4  -2    1.09    0.12 
   6  -4   2    0.71    0.11 
   6  -4   2    0.96    0.12 
  -7   4  -2    1.46    0.13 
  -7   4  -2    1.41    0.15 
   7  -4   2    1.19    0.15 
   7  -4   2    1.22    0.15 
   8  -4   2    0.74    0.13 
   8  -4   2    1.03    0.16 
   9   3  -2    0.88    0.18 
   9   3  -2    1.30    0.19 
   8   3  -2    0.27    0.12 
   8   3  -2    0.42    0.11 
  -8  -3   2    0.44    0.10 
   7   3  -2   13.06    0.43 
   7   3  -2   13.06    0.38 
   7   3  -2   13.35    0.47 
   7   3  -2   13.44    0.41 
  -7  -3   2   13.07    0.35 
   6   3  -2    1.41    0.13 
   6   3  -2    1.36    0.16 
   6   3  -2    1.66    0.14 
   6   3  -2    1.74    0.15 
  -6  -3   2    1.47    0.12 
   5   3  -2    2.40    0.15 
   5   3  -2    2.29    0.17 
   5   3  -2    2.25    0.14 
   5   3  -2    2.31    0.14 
  -5  -3   2    2.42    0.13 
   4   3  -2   73.15    1.17 
   4   3  -2   70.99    1.20 
   4   3  -2   72.06    1.16 
   4   3  -2   71.91    1.15 
  -4  -3   2   71.14    1.12 
  -4  -3   2   72.45    1.13 
   3   3  -2    9.45    0.27 
   3   3  -2    8.69    0.25 
   3   3  -2    9.40    0.25 
   3   3  -2    9.34    0.25 
  -3  -3   2    9.44    0.24 
  -3  -3   2    9.58    0.24 
  -3  -3   2    9.56    0.24 
   2   3  -2    0.17    0.04 
   2   3  -2    0.17    0.05 
   2   3  -2    0.22    0.05 
   2   3  -2    0.18    0.05 
  -2  -3   2    0.17    0.04 
  -2  -3   2    0.26    0.05 
  -2  -3   2    0.15    0.04 
  -2  -3   2    0.15    0.04 
   1   3  -2    0.24    0.04 
   1   3  -2    0.19    0.04 
   1   3  -2    0.16    0.04 
  -1  -3   2    0.23    0.05 
  -1  -3   2    0.23    0.04 
  -1  -3   2    0.13    0.04 
  -1  -3   2    0.16    0.04 
   0   3  -2   22.96    0.42 
   0   3  -2   22.79    0.41 
   0   3  -2   22.48    0.41 
   0   3  -2   22.63    0.42 
   0  -3   2   22.11    0.42 
   0  -3   2   22.73    0.41 
   0  -3   2   22.80    0.42 
   0  -3   2   22.46    0.42 
   0  -3   2   21.84    0.42 
  -1   3  -2   38.58    0.63 
  -1   3  -2   37.38    0.64 
  -1   3  -2   38.79    0.64 
   1  -3   2   38.28    0.65 
   1  -3   2   38.31    0.65 
   1  -3   2   38.68    0.64 
   1  -3   2   37.87    0.63 
  -2   3  -2    6.50    0.19 
  -2   3  -2    6.63    0.19 
   2  -3   2    6.81    0.19 
   2  -3   2    6.92    0.20 
   2  -3   2    6.52    0.20 
  -3   3  -2    4.96    0.16 
  -3   3  -2    5.10    0.17 
  -3   3  -2    4.67    0.17 
   3  -3   2    4.87    0.18 
   3  -3   2    4.70    0.17 
   3  -3   2    4.73    0.17 
  -4   3  -2   18.43    0.40 
  -4   3  -2   18.62    0.40 
  -4   3  -2   19.02    0.41 
   4  -3   2   18.45    0.40 
   4  -3   2   18.42    0.42 
   4  -3   2   18.60    0.41 
  -5   3  -2   16.00    0.38 
  -5   3  -2   16.00    0.38 
   5  -3   2   15.62    0.39 
   5  -3   2   15.26    0.38 
  -6   3  -2    5.22    0.21 
  -6   3  -2    5.52    0.22 
   6  -3   2    5.30    0.24 
   6  -3   2    5.53    0.23 
   6  -3   2    5.74    0.23 
  -7   3  -2    0.31    0.08 
  -7   3  -2    0.33    0.08 
   7  -3   2    0.32    0.08 
   7  -3   2    0.38    0.10 
   7  -3   2    0.42    0.09 
   8  -3   2    0.28    0.11 
   8  -3   2    0.33    0.10 
   9  -3   2    0.76    0.13 
   9  -3   2    0.87    0.15 
   9   2  -2    0.03    0.11 
   9   2  -2    0.07    0.09 
   8   2  -2    0.01    0.10 
   8   2  -2   -0.04    0.06 
   7   2  -2    6.25    0.27 
   7   2  -2    6.21    0.25 
   7   2  -2    6.47    0.25 
   7   2  -2    5.62    0.32 
  -7  -2   2    6.10    0.22 
   6   2  -2    2.06    0.13 
   6   2  -2    1.94    0.15 
   6   2  -2    2.03    0.14 
   6   2  -2    1.77    0.18 
   6   2  -2    2.05    0.14 
  -6  -2   2    2.16    0.13 
   5   2  -2   34.09    0.63 
   5   2  -2   34.86    0.72 
   5   2  -2   34.55    0.65 
   5   2  -2   33.08    0.63 
  -5  -2   2   35.33    0.61 
   4   2  -2    0.68    0.08 
   4   2  -2    0.52    0.07 
   4   2  -2    0.67    0.08 
   4   2  -2    0.62    0.10 
  -4  -2   2    0.53    0.06 
  -4  -2   2    0.84    0.07 
  -4  -2   2    0.58    0.07 
   3   2  -2   20.05    0.40 
   3   2  -2   20.34    0.39 
   3   2  -2   20.39    0.39 
   3   2  -2   20.37    0.44 
  -3  -2   2   20.07    0.38 
  -3  -2   2   20.21    0.38 
   2   2  -2    3.90    0.13 
   2   2  -2    3.75    0.14 
   2   2  -2    3.99    0.13 
   2   2  -2    3.82    0.13 
  -2  -2   2    3.71    0.12 
  -2  -2   2    3.71    0.12 
  -2  -2   2    3.82    0.14 
  -2  -2   2    3.98    0.12 
   1   2  -2   16.99    0.32 
   1   2  -2   16.52    0.32 
   1   2  -2   16.50    0.32 
   1   2  -2   16.47    0.32 
  -1  -2   2   16.76    0.32 
  -1  -2   2   16.85    0.32 
  -1  -2   2   16.68    0.31 
  -1  -2   2   17.10    0.32 
  -1  -2   2   17.11    0.33 
   0   2  -2   24.56    0.41 
   0   2  -2   24.08    0.41 
   0   2  -2   24.41    0.41 
   0   2  -2   23.64    0.41 
   0  -2   2   24.36    0.42 
   0  -2   2   23.83    0.42 
   0  -2   2   24.18    0.41 
   0  -2   2   24.04    0.42 
   0  -2   2   24.24    0.42 
  -1   2  -2   21.15    0.38 
  -1   2  -2   20.97    0.37 
  -1   2  -2   20.65    0.37 
   1  -2   2   21.01    0.37 
   1  -2   2   20.43    0.37 
   1  -2   2   20.77    0.38 
   1  -2   2   20.83    0.38 
   1  -2   2   20.84    0.38 
  -2   2  -2    0.08    0.03 
  -2   2  -2    0.13    0.04 
  -2   2  -2    0.12    0.04 
   2  -2   2    0.13    0.03 
   2  -2   2    0.07    0.03 
   2  -2   2    0.13    0.04 
  -3   2  -2   35.70    0.62 
  -3   2  -2   36.53    0.63 
   3  -2   2   36.44    0.63 
   3  -2   2   35.55    0.62 
  -4   2  -2   86.77    1.34 
  -4   2  -2   87.19    1.34 
   4  -2   2   88.03    1.34 
   4  -2   2   87.46    1.35 
   4  -2   2   85.76    1.36 
  -5   2  -2    8.40    0.25 
  -5   2  -2    7.77    0.25 
   5  -2   2    8.43    0.27 
   5  -2   2    8.35    0.26 
   5  -2   2    8.08    0.26 
   5  -2   2    8.47    0.25 
  -6   2  -2    2.92    0.16 
  -6   2  -2    2.94    0.16 
   6  -2   2    2.87    0.17 
   6  -2   2    3.13    0.18 
   6  -2   2    3.02    0.17 
  -7   2  -2    0.08    0.06 
  -7   2  -2   -0.04    0.04 
   7  -2   2   -0.01    0.06 
   7  -2   2    0.08    0.07 
   7  -2   2   -0.04    0.05 
  -8   2  -2    1.17    0.14 
  -8   2  -2    0.92    0.14 
   8  -2   2    1.19    0.16 
   8  -2   2    0.80    0.12 
   9  -2   2    0.28    0.10 
   9  -2   2    0.22    0.11 
   9   1  -2    3.52    0.25 
   9   1  -2    3.96    0.33 
   8   1  -2    2.06    0.18 
   7   1  -2    0.35    0.08 
   7   1  -2    0.26    0.07 
   7   1  -2    0.31    0.08 
  -7  -1   2    0.17    0.06 
   6   1  -2    0.46    0.07 
   6   1  -2    0.53    0.08 
   6   1  -2    0.64    0.10 
   6   1  -2    0.48    0.08 
  -6  -1   2    0.46    0.07 
   5   1  -2    5.37    0.19 
   5   1  -2    5.79    0.20 
   5   1  -2    5.71    0.19 
  -5  -1   2    5.79    0.17 
   4   1  -2    5.62    0.17 
   4   1  -2    6.00    0.18 
   4   1  -2    6.06    0.18 
  -4  -1   2    5.93    0.16 
  -4  -1   2    5.88    0.16 
   3   1  -2   55.35    0.87 
   3   1  -2   55.60    0.94 
   3   1  -2   55.83    0.86 
   3   1  -2   55.32    0.86 
  -3  -1   2   57.26    0.85 
  -3  -1   2   57.28    0.84 
  -3  -1   2   56.94    0.85 
   2   1  -2    9.03    0.19 
   2   1  -2    8.62    0.22 
   2   1  -2    8.67    0.19 
   2   1  -2    8.79    0.19 
  -2  -1   2    8.81    0.18 
  -2  -1   2    8.89    0.18 
  -2  -1   2    8.82    0.18 
   1   1  -2    1.79    0.07 
   1   1  -2    1.43    0.07 
   1   1  -2    1.46    0.06 
   1   1  -2    1.30    0.06 
  -1  -1   2    1.39    0.06 
  -1  -1   2    1.41    0.06 
  -1  -1   2    1.39    0.06 
  -1  -1   2    1.29    0.07 
   0   1  -2   -0.02    0.02 
   0   1  -2    0.01    0.02 
   0   1  -2    0.03    0.02 
   0   1  -2   -0.02    0.02 
   0   1  -2    0.01    0.02 
   0  -1   2   -0.02    0.02 
   0  -1   2   -0.01    0.02 
   0  -1   2   -0.04    0.02 
   0  -1   2   -0.03    0.02 
   0  -1   2    0.00    0.02 
  -1   1  -2   -0.01    0.02 
  -1   1  -2    0.14    0.03 
   1  -1   2    0.09    0.02 
   1  -1   2    0.01    0.02 
   1  -1   2    0.09    0.03 
  -2   1  -2   89.94    1.34 
  -2   1  -2   93.68    1.35 
  -2   1  -2   93.07    1.35 
   2  -1   2   90.66    1.35 
   2  -1   2   93.24    1.35 
  -3   1  -2   13.50    0.29 
  -3   1  -2   13.83    0.29 
   3  -1   2   13.56    0.30 
   3  -1   2   13.71    0.29 
   3  -1   2   13.54    0.29 
  -4   1  -2    7.91    0.22 
  -4   1  -2    7.71    0.22 
   4  -1   2    7.72    0.23 
   4  -1   2    8.04    0.23 
   4  -1   2    7.71    0.22 
   4  -1   2    7.88    0.22 
  -5   1  -2   12.72    0.32 
  -5   1  -2   12.16    0.32 
   5  -1   2   12.82    0.33 
   5  -1   2   13.33    0.34 
   5  -1   2   12.73    0.32 
  -6   1  -2    2.00    0.14 
  -6   1  -2    1.88    0.13 
   6  -1   2    1.88    0.13 
   6  -1   2    1.93    0.13 
   6  -1   2    2.13    0.14 
   6  -1   2    2.01    0.16 
  -7   1  -2    0.22    0.07 
  -7   1  -2    0.22    0.07 
   7  -1   2    0.25    0.07 
   7  -1   2    0.23    0.09 
   7  -1   2    0.17    0.07 
  -8   1  -2    3.49    0.20 
   8  -1   2    3.42    0.21 
   8  -1   2    3.58    0.23 
   9  -1   2    3.18    0.25 
   9  -1   2    3.50    0.23 
   9   0  -2    3.16    0.23 
   8   0  -2    0.09    0.07 
   7   0  -2    8.16    0.27 
   7   0  -2    8.71    0.28 
   7   0  -2    9.01    0.30 
  -7   0   2    8.81    0.24 
   6   0  -2    5.80    0.21 
   6   0  -2    5.71    0.22 
   6   0  -2    5.96    0.21 
   6   0  -2    5.75    0.20 
  -6   0   2    5.93    0.18 
   5   0  -2    4.14    0.15 
   5   0  -2    4.07    0.16 
   5   0  -2    4.41    0.15 
   5   0  -2    4.34    0.16 
  -5   0   2    4.17    0.14 
   4   0  -2   25.76    0.45 
   4   0  -2   25.27    0.45 
   4   0  -2   25.66    0.46 
  -4   0   2   25.77    0.43 
   3   0  -2    8.85    0.19 
   3   0  -2    8.91    0.20 
   3   0  -2    9.20    0.19 
  -3   0   2    9.34    0.17 
   2   0  -2   44.17    0.66 
   2   0  -2   44.73    0.66 
   2   0  -2   45.23    0.66 
  -2   0   2   45.40    0.64 
   1   0  -2   29.44    0.43 
   1   0  -2   29.32    0.43 
   1   0  -2   29.83    0.43 
   1   0  -2   28.65    0.48 
  -1   0   2   28.65    0.42 
  -1   0   2   28.81    0.42 
   0   0  -2   44.42    0.64 
   0   0  -2   44.75    0.64 
   0   0  -2   44.74    0.64 
   0   0  -2   43.97    0.64 
   0   0  -2   43.74    0.65 
   0   0   2   45.04    0.64 
   0   0   2   43.77    0.65 
   0   0   2   40.58    0.63 
   0   0   2   44.87    0.63 
  -1   0  -2  174.45    2.40 
  -1   0  -2  178.18    2.44 
  -1   0  -2  169.71    2.40 
   1   0   2  169.31    2.40 
   1   0   2  173.73    2.43 
   1   0   2  171.01    2.41 
   1   0   2  174.56    2.40 
  -2   0  -2   45.85    0.71 
  -2   0  -2   45.62    0.71 
   2   0   2   45.91    0.71 
   2   0   2   46.00    0.71 
   2   0   2   46.75    0.71 
   2   0   2   45.00    0.72 
  -3   0  -2    5.42    0.16 
  -3   0  -2    5.30    0.16 
   3   0   2    5.50    0.16 
   3   0   2    5.56    0.16 
   3   0   2    5.37    0.17 
  -4   0  -2    3.71    0.15 
  -4   0  -2    3.61    0.14 
   4   0   2    3.62    0.14 
   4   0   2    3.57    0.14 
   4   0   2    3.64    0.14 
   4   0   2    3.63    0.15 
  -5   0  -2   13.26    0.33 
  -5   0  -2   13.35    0.32 
   5   0   2   13.12    0.32 
   5   0   2   13.40    0.33 
   5   0   2   13.18    0.34 
   5   0   2   13.14    0.33 
  -6   0  -2   10.45    0.30 
  -6   0  -2   10.38    0.30 
   6   0   2   10.55    0.30 
   6   0   2   10.06    0.30 
   6   0   2   10.43    0.30 
   6   0   2   10.06    0.30 
   6   0   2   10.38    0.32 
  -7   0  -2    3.79    0.19 
   7   0   2    3.82    0.19 
   7   0   2    3.63    0.19 
   7   0   2    4.02    0.22 
   7   0   2    3.74    0.19 
  -8   0  -2    1.12    0.13 
   8   0   2    1.16    0.14 
   8   0   2    1.20    0.15 
   9   0   2    2.63    0.23 
   9   0   2    3.00    0.21 
  10   0   2    0.49    0.12 
  10   0   2    0.55    0.14 
   9  -1  -2    0.22    0.09 
   9  -1  -2    0.16    0.08 
   8  -1  -2    0.62    0.11 
   8  -1  -2    0.81    0.11 
   7  -1  -2    0.11    0.05 
   7  -1  -2    0.01    0.04 
   7  -1  -2    0.07    0.06 
  -7   1   2    0.03    0.04 
   6  -1  -2    8.56    0.26 
   6  -1  -2    8.66    0.25 
   6  -1  -2    8.58    0.25 
   6  -1  -2    8.20    0.24 
  -6   1   2    7.89    0.21 
   5  -1  -2    0.40    0.05 
   5  -1  -2    0.30    0.05 
   5  -1  -2    0.35    0.05 
   5  -1  -2    0.27    0.06 
   4  -1  -2    7.32    0.18 
   4  -1  -2    6.72    0.18 
   4  -1  -2    6.69    0.18 
   3  -1  -2   74.16    1.06 
   3  -1  -2   71.83    1.06 
   3  -1  -2   72.02    1.06 
  -3   1   2   73.72    1.04 
   2  -1  -2   69.02    0.97 
   2  -1  -2   69.35    0.97 
  -2   1   2   69.50    0.96 
   0  -1  -2   41.42    0.58 
   0  -1  -2   42.60    0.58 
   0  -1  -2   40.79    0.58 
   0  -1  -2   41.54    0.58 
   0  -1  -2   41.38    0.58 
   0   1   2   42.35    0.58 
   0   1   2   39.59    0.58 
  -1  -1  -2    0.45    0.03 
  -1  -1  -2    0.43    0.03 
  -1  -1  -2    0.45    0.03 
  -1  -1  -2    0.52    0.04 
   1   1   2    0.43    0.03 
   1   1   2    0.47    0.03 
   1   1   2    0.43    0.03 
   1   1   2    0.46    0.03 
   1   1   2    0.40    0.03 
  -2  -1  -2   35.99    0.56 
  -2  -1  -2   34.79    0.57 
  -2  -1  -2   35.48    0.57 
   2   1   2   36.27    0.56 
   2   1   2   35.83    0.57 
   2   1   2   34.61    0.56 
   2   1   2   35.34    0.56 
  -3  -1  -2  236.14    3.31 
  -3  -1  -2  234.50    3.31 
  -3  -1  -2  239.35    3.30 
   3   1   2  229.38    3.30 
   3   1   2  234.93    3.31 
   3   1   2  235.72    3.30 
   3   1   2  237.38    3.30 
  -4  -1  -2    3.52    0.14 
  -4  -1  -2    3.43    0.14 
  -4  -1  -2    3.33    0.14 
   4   1   2    3.55    0.14 
   4   1   2    3.75    0.16 
   4   1   2    3.50    0.14 
   4   1   2    3.44    0.14 
  -5  -1  -2   29.41    0.56 
  -5  -1  -2   28.77    0.57 
   5   1   2   29.92    0.59 
   5   1   2   29.71    0.57 
   5   1   2   29.62    0.57 
   5   1   2   28.99    0.57 
  -6  -1  -2    5.93    0.23 
  -6  -1  -2    5.87    0.22 
   6   1   2    5.87    0.22 
   6   1   2    6.59    0.24 
   6   1   2    5.42    0.24 
   6   1   2    5.66    0.24 
  -7  -1  -2    0.27    0.07 
   7   1   2    0.32    0.08 
   7   1   2    0.35    0.09 
   7   1   2    0.31    0.08 
  -8  -1  -2    3.37    0.19 
   8   1   2    3.45    0.23 
   8   1   2    3.52    0.20 
  -9  -1  -2    0.95    0.13 
   9   1   2    1.22    0.17 
   9   1   2    1.28    0.15 
  10   1   2    0.41    0.12 
  10   1   2    0.16    0.10 
   9  -2  -2    0.58    0.11 
   9  -2  -2    0.38    0.10 
   8  -2  -2    2.99    0.20 
   8  -2  -2    2.90    0.17 
   7  -2  -2    5.83    0.22 
   7  -2  -2    6.26    0.25 
   6  -2  -2    6.62    0.22 
   6  -2  -2    6.90    0.22 
   6  -2  -2    7.06    0.22 
   6  -2  -2    7.05    0.24 
   5  -2  -2    0.97    0.09 
   5  -2  -2    0.78    0.07 
   5  -2  -2    0.71    0.07 
   5  -2  -2    0.93    0.08 
  -5   2   2    0.70    0.06 
   4  -2  -2   47.01    0.73 
   4  -2  -2   46.58    0.73 
   4  -2  -2   45.78    0.74 
  -4   2   2   47.00    0.70 
   3  -2  -2   73.63    1.08 
   3  -2  -2   75.67    1.08 
  -3   2   2   73.83    1.05 
   2  -2  -2    3.97    0.09 
   2  -2  -2    4.09    0.09 
   2  -2  -2    3.99    0.09 
   1  -2  -2    5.08    0.09 
   0  -2  -2  102.63    1.42 
   0  -2  -2  100.80    1.42 
   0  -2  -2  102.53    1.42 
   0  -2  -2  102.67    1.42 
   0   2   2  101.93    1.41 
  -1  -2  -2  380.18    5.25 
  -1  -2  -2  378.47    5.17 
  -1  -2  -2  386.97    5.30 
  -1  -2  -2  379.35    5.29 
  -1  -2  -2  380.86    5.43 
   1   2   2  363.13    5.25 
   1   2   2  370.91    5.28 
   1   2   2  388.00    5.28 
   1   2   2  380.47    5.30 
  -2  -2  -2  409.86    5.75 
  -2  -2  -2  419.15    5.84 
  -2  -2  -2  410.09    6.00 
  -2  -2  -2  419.81    5.80 
   2   2   2  422.89    5.86 
   2   2   2  418.94    5.88 
   2   2   2  421.46    5.87 
   2   2   2  425.82    5.93 
  -3  -2  -2   76.31    1.16 
  -3  -2  -2   77.36    1.17 
  -3  -2  -2   77.12    1.17 
  -3  -2  -2   77.29    1.16 
   3   2   2   76.00    1.17 
   3   2   2   77.06    1.16 
   3   2   2   78.23    1.16 
  -4  -2  -2   42.56    0.72 
  -4  -2  -2   42.88    0.73 
  -4  -2  -2   42.58    0.71 
   4   2   2   42.44    0.74 
   4   2   2   41.95    0.72 
   4   2   2   42.62    0.72 
   4   2   2   41.54    0.72 
  -5  -2  -2   13.50    0.33 
   5   2   2   13.72    0.34 
   5   2   2   13.39    0.34 
   5   2   2   13.46    0.34 
   5   2   2   13.68    0.36 
  -6  -2  -2   26.69    0.55 
   6   2   2   26.66    0.57 
   6   2   2   27.66    0.57 
   6   2   2   28.09    0.60 
  -7  -2  -2    1.29    0.13 
   7   2   2    1.49    0.17 
   7   2   2    1.31    0.13 
   7   2   2    1.49    0.15 
  -8  -2  -2    0.18    0.08 
   8   2   2    0.14    0.09 
  -9  -2  -2    0.21    0.08 
   9   2   2    0.17    0.09 
  10   2   2    0.53    0.12 
  10   2   2    0.36    0.13 
   9  -3  -2    0.19    0.09 
   9  -3  -2    0.04    0.08 
   8  -3  -2    2.29    0.18 
   8  -3  -2    1.79    0.15 
   7  -3  -2    0.50    0.09 
   7  -3  -2    0.40    0.08 
   6  -3  -2    0.37    0.06 
   6  -3  -2    0.44    0.07 
   6  -3  -2    0.34    0.07 
   6  -3  -2    0.47    0.08 
  -6   3   2    0.41    0.06 
   5  -3  -2    0.09    0.05 
   5  -3  -2    0.09    0.05 
   5  -3  -2    0.12    0.04 
   5  -3  -2    0.10    0.04 
  -5   3   2    0.12    0.03 
   4  -3  -2   36.00    0.59 
   4  -3  -2   35.23    0.59 
   4  -3  -2   36.25    0.60 
  -4   3   2   35.57    0.56 
   3  -3  -2   44.53    0.68 
   3  -3  -2   44.27    0.68 
   3  -3  -2   44.28    0.69 
   2  -3  -2   13.43    0.24 
   2  -3  -2   13.21    0.24 
   2  -3  -2   13.26    0.23 
   1  -3  -2   79.60    1.13 
   1  -3  -2   79.14    1.12 
  -1   3   2   79.73    1.11 
   0  -3  -2   26.10    0.41 
   0  -3  -2   26.46    0.42 
   0  -3  -2   25.72    0.42 
   0   3   2   26.45    0.41 
   0   3   2   26.27    0.40 
   0   3   2   26.63    0.40 
   0   3   2   26.09    0.40 
  -1  -3  -2    8.16    0.18 
  -1  -3  -2    8.40    0.18 
  -1  -3  -2    8.28    0.18 
  -1  -3  -2    8.37    0.15 
   1   3   2    8.35    0.18 
   1   3   2    8.54    0.18 
   1   3   2    8.48    0.18 
   1   3   2    8.34    0.18 
  -2  -3  -2   15.17    0.30 
  -2  -3  -2   14.82    0.30 
  -2  -3  -2   14.79    0.30 
  -2  -3  -2   14.96    0.26 
   2   3   2   15.00    0.30 
   2   3   2   15.14    0.31 
   2   3   2   14.96    0.30 
   2   3   2   14.99    0.26 
   2   3   2   15.22    0.30 
  -3  -3  -2    2.96    0.12 
  -3  -3  -2    2.92    0.12 
  -3  -3  -2    3.03    0.13 
   3   3   2    2.96    0.12 
   3   3   2    3.19    0.11 
   3   3   2    2.84    0.12 
   3   3   2    2.89    0.13 
   3   3   2    2.93    0.12 
  -4  -3  -2    3.18    0.14 
  -4  -3  -2    3.44    0.15 
  -4  -3  -2    3.16    0.14 
   4   3   2    3.24    0.14 
   4   3   2    3.18    0.14 
   4   3   2    3.20    0.14 
   4   3   2    2.99    0.15 
  -5  -3  -2   56.85    0.94 
   5   3   2   56.08    0.98 
   5   3   2   54.50    0.96 
   5   3   2   57.89    0.96 
  -6  -3  -2   13.79    0.36 
   6   3   2   13.93    0.37 
   6   3   2   13.80    0.38 
   6   3   2   13.33    0.39 
  -7  -3  -2    2.22    0.17 
   7   3   2    2.10    0.17 
   7   3   2    2.13    0.18 
   7   3   2    2.35    0.20 
  -8  -3  -2    4.06    0.21 
   8   3   2    3.93    0.27 
   8   3   2    3.67    0.25 
  -9  -3  -2    0.23    0.08 
   9   3   2    0.27    0.11 
  10   3   2    0.66    0.15 
  10   3   2    0.62    0.16 
   8  -4  -2    0.48    0.11 
   8  -4  -2    0.57    0.10 
   7  -4  -2    2.14    0.15 
   7  -4  -2    2.21    0.17 
   6  -4  -2    0.22    0.06 
   6  -4  -2    0.14    0.06 
   6  -4  -2    0.13    0.05 
  -6   4   2    0.19    0.05 
   5  -4  -2   10.73    0.28 
   5  -4  -2   10.73    0.27 
   5  -4  -2   11.29    0.28 
  -5   4   2   11.01    0.24 
   4  -4  -2   11.85    0.26 
   4  -4  -2   11.63    0.27 
   4  -4  -2   11.64    0.27 
   3  -4  -2   89.98    1.32 
   3  -4  -2   89.78    1.33 
   3  -4  -2   90.82    1.32 
   2  -4  -2    0.66    0.05 
   2  -4  -2    0.67    0.06 
   2  -4  -2    0.64    0.05 
  -2   4   2    0.71    0.05 
   1  -4  -2    2.04    0.08 
   1  -4  -2    2.07    0.08 
   1  -4  -2    1.98    0.08 
  -1   4   2    2.03    0.07 
   0  -4  -2   33.31    0.54 
   0  -4  -2   33.80    0.54 
   0  -4  -2   33.28    0.55 
   0   4   2   33.49    0.53 
   0   4   2   33.38    0.53 
   0   4   2   34.27    0.53 
  -1  -4  -2    7.71    0.19 
  -1  -4  -2    7.76    0.19 
  -1  -4  -2    7.46    0.19 
  -1  -4  -2    7.53    0.16 
   1   4   2    7.46    0.18 
   1   4   2    7.60    0.18 
   1   4   2    7.22    0.18 
  -2  -4  -2   16.33    0.33 
  -2  -4  -2   15.83    0.32 
  -2  -4  -2   15.77    0.29 
  -2  -4  -2   15.68    0.33 
   2   4   2   15.57    0.32 
   2   4   2   15.55    0.33 
   2   4   2   15.17    0.32 
   2   4   2   16.50    0.33 
   2   4   2   15.59    0.28 
  -3  -4  -2    0.89    0.08 
  -3  -4  -2    0.80    0.08 
  -3  -4  -2    0.87    0.09 
   3   4   2    0.78    0.07 
   3   4   2    0.89    0.08 
   3   4   2    0.64    0.07 
   3   4   2    0.90    0.08 
   3   4   2    0.83    0.06 
  -4  -4  -2   22.09    0.46 
  -4  -4  -2   22.39    0.45 
  -4  -4  -2   21.81    0.45 
   4   4   2   21.93    0.47 
   4   4   2   22.04    0.46 
   4   4   2   21.38    0.43 
   4   4   2   22.08    0.45 
   4   4   2   22.21    0.46 
  -5  -4  -2    2.65    0.15 
  -5  -4  -2    2.84    0.16 
   5   4   2    2.95    0.16 
   5   4   2    2.75    0.16 
   5   4   2    2.80    0.17 
   5   4   2    2.92    0.15 
  -6  -4  -2    3.33    0.18 
   6   4   2    2.93    0.18 
   6   4   2    3.23    0.21 
   6   4   2    3.18    0.18 
   6   4   2    3.40    0.19 
  -7  -4  -2    8.33    0.29 
   7   4   2    8.27    0.31 
   7   4   2    9.05    0.33 
   7   4   2    9.00    0.35 
  -8  -4  -2    0.84    0.12 
   8   4   2    0.89    0.14 
   8   4   2    1.01    0.16 
   8   4   2    0.88    0.18 
  -9  -4  -2    0.05    0.07 
   9   4   2   -0.04    0.09 
   9   4   2    0.12    0.10 
  10   4   2   -0.05    0.10 
  10   4   2    0.06    0.11 
   8  -5  -2    0.10    0.08 
   8  -5  -2    0.08    0.07 
   7  -5  -2    1.39    0.15 
   7  -5  -2    1.23    0.13 
   6  -5  -2   20.31    0.45 
   5  -5  -2    1.32    0.12 
   5  -5  -2    1.14    0.11 
   5  -5  -2    1.26    0.11 
   4  -5  -2   13.54    0.30 
   4  -5  -2   12.95    0.31 
   4  -5  -2   13.28    0.31 
   3  -5  -2   15.21    0.32 
   3  -5  -2   15.12    0.32 
   3  -5  -2   15.44    0.31 
  -3   5   2   15.31    0.29 
   2  -5  -2   61.98    0.96 
   2  -5  -2   62.17    0.95 
   2  -5  -2   61.79    0.95 
   2  -5  -2   61.77    0.96 
  -2   5   2   61.93    0.92 
   1  -5  -2   27.73    0.49 
   1  -5  -2   27.84    0.49 
   1  -5  -2   28.25    0.49 
  -1   5   2   28.32    0.46 
  -1   5   2   27.82    0.46 
   0  -5  -2   17.82    0.35 
   0  -5  -2   16.90    0.35 
   0  -5  -2   17.83    0.35 
   0   5   2   17.78    0.33 
   0   5   2   17.52    0.33 
   0   5   2   17.64    0.33 
  -1  -5  -2   35.14    0.57 
  -1  -5  -2   34.47    0.61 
  -1  -5  -2   34.87    0.60 
  -1  -5  -2   35.06    0.61 
   1   5   2   35.14    0.59 
   1   5   2   34.41    0.60 
   1   5   2   35.21    0.59 
  -2  -5  -2    0.02    0.02 
  -2  -5  -2    0.03    0.03 
  -2  -5  -2    0.01    0.03 
  -2  -5  -2   -0.03    0.03 
   2   5   2   -0.03    0.03 
   2   5   2    0.02    0.02 
   2   5   2    0.02    0.03 
   2   5   2    0.00    0.02 
  -3  -5  -2    4.15    0.17 
  -3  -5  -2    4.05    0.17 
  -3  -5  -2    4.07    0.14 
  -3  -5  -2    4.25    0.16 
   3   5   2    3.91    0.16 
   3   5   2    3.91    0.17 
   3   5   2    3.85    0.16 
   3   5   2    3.96    0.13 
  -4  -5  -2    0.29    0.07 
  -4  -5  -2    0.26    0.06 
   4   5   2    0.28    0.05 
   4   5   2    0.37    0.07 
   4   5   2    0.40    0.07 
   4   5   2    0.27    0.07 
  -5  -5  -2    2.38    0.15 
  -5  -5  -2    2.83    0.16 
   5   5   2    3.04    0.18 
   5   5   2    2.69    0.15 
   5   5   2    2.72    0.16 
   5   5   2    2.61    0.14 
  -6  -5  -2    0.23    0.07 
  -6  -5  -2    0.15    0.07 
   6   5   2    0.14    0.08 
   6   5   2    0.30    0.08 
   6   5   2    0.21    0.07 
  -7  -5  -2    2.16    0.18 
   7   5   2    2.12    0.18 
   7   5   2    2.28    0.25 
   7   5   2    2.33    0.21 
  -8  -5  -2    1.19    0.15 
   8   5   2    1.29    0.16 
   8   5   2    1.42    0.19 
  -9  -5  -2    0.04    0.08 
   9   5   2    0.06    0.09 
   9   5   2   -0.18    0.07 
  10   5   2   -0.04    0.11 
  10   5   2    0.00    0.10 
   8  -6  -2    1.02    0.13 
   8  -6  -2    1.21    0.16 
   7  -6  -2    1.82    0.15 
   7  -6  -2    1.94    0.17 
   6  -6  -2    1.72    0.14 
   5  -6  -2    0.06    0.06 
   5  -6  -2   -0.01    0.05 
   4  -6  -2    6.75    0.23 
   4  -6  -2    7.18    0.22 
   4  -6  -2    7.35    0.23 
   3  -6  -2    4.69    0.18 
   3  -6  -2    4.45    0.16 
   3  -6  -2    4.83    0.18 
   3  -6  -2    4.30    0.17 
  -3   6   2    4.88    0.15 
  -3   6   2    4.22    0.12 
   2  -6  -2    8.82    0.23 
   2  -6  -2    8.64    0.24 
   2  -6  -2    8.39    0.24 
   2  -6  -2    8.77    0.24 
  -2   6   2    8.77    0.20 
  -2   6   2    8.63    0.21 
   1  -6  -2   24.07    0.47 
   1  -6  -2   24.74    0.47 
   1  -6  -2   24.22    0.46 
  -1   6   2   24.31    0.43 
  -1   6   2   24.06    0.44 
   0  -6  -2    0.28    0.06 
   0  -6  -2    0.35    0.06 
   0  -6  -2    0.19    0.05 
   0   6   2    0.39    0.06 
   0   6   2    0.35    0.06 
   0   6   2    0.33    0.06 
  -1  -6  -2    4.72    0.17 
  -1  -6  -2    4.83    0.18 
  -1  -6  -2    5.71    0.19 
  -1  -6  -2    4.93    0.15 
   1   6   2    4.49    0.16 
   1   6   2    4.85    0.17 
   1   6   2    4.91    0.17 
  -2  -6  -2    0.36    0.07 
  -2  -6  -2    0.44    0.07 
  -2  -6  -2    0.36    0.07 
  -2  -6  -2    0.43    0.06 
   2   6   2    0.34    0.06 
   2   6   2    0.38    0.06 
   2   6   2    0.32    0.06 
  -3  -6  -2    0.79    0.08 
  -3  -6  -2    0.67    0.09 
  -3  -6  -2    0.67    0.08 
  -3  -6  -2    0.68    0.09 
   3   6   2    0.70    0.09 
   3   6   2    0.76    0.07 
   3   6   2    0.64    0.09 
   3   6   2    0.50    0.07 
  -4  -6  -2    3.49    0.17 
  -4  -6  -2    3.28    0.18 
  -4  -6  -2    3.17    0.15 
   4   6   2    3.43    0.15 
   4   6   2    2.83    0.16 
   4   6   2    3.18    0.18 
   4   6   2    3.32    0.17 
  -5  -6  -2    0.69    0.10 
  -5  -6  -2    0.61    0.10 
   5   6   2    0.53    0.09 
   5   6   2    0.70    0.09 
   5   6   2    0.54    0.09 
  -6  -6  -2   10.45    0.34 
  -6  -6  -2   10.14    0.33 
   6   6   2   10.17    0.32 
   6   6   2   10.84    0.38 
  -7  -6  -2    8.25    0.31 
  -7  -6  -2    7.60    0.30 
   7   6   2    8.21    0.35 
   7   6   2    8.12    0.31 
  -8  -6  -2    5.40    0.27 
   8   6   2    5.58    0.32 
   8   6   2    5.16    0.27 
  -9  -6  -2    0.44    0.12 
   9   6   2    0.49    0.13 
   9   6   2    0.47    0.13 
   7  -7  -2   -0.09    0.07 
   6  -7  -2    0.06    0.06 
   5  -7  -2    0.90    0.11 
   4  -7  -2    4.86    0.19 
   4  -7  -2    4.19    0.28 
   4  -7  -2    5.01    0.20 
   4  -7  -2    4.85    0.21 
   3  -7  -2   16.27    0.37 
   3  -7  -2   15.79    0.38 
   3  -7  -2   15.63    0.38 
   3  -7  -2   15.95    0.38 
   2  -7  -2   45.05    0.77 
   2  -7  -2   44.66    0.79 
   2  -7  -2   44.12    0.79 
   2  -7  -2   45.17    0.79 
  -2   7   2   44.73    0.79 
  -2   7   2   44.44    0.72 
   1  -7  -2   -0.08    0.04 
   1  -7  -2   -0.04    0.04 
   1  -7  -2    0.01    0.05 
   1  -7  -2    0.04    0.04 
  -1   7   2   -0.07    0.03 
  -1   7   2   -0.04    0.03 
   0  -7  -2    1.26    0.11 
   0  -7  -2    1.20    0.11 
   0  -7  -2    1.31    0.11 
   0   7   2    1.18    0.09 
   0   7   2    1.39    0.10 
  -1  -7  -2   25.74    0.53 
  -1  -7  -2   24.90    0.53 
  -1  -7  -2   25.50    0.52 
   1   7   2   25.77    0.51 
   1   7   2   26.50    0.51 
  -2  -7  -2    4.40    0.20 
  -2  -7  -2    4.31    0.17 
  -2  -7  -2    4.45    0.19 
  -2  -7  -2    4.47    0.19 
   2   7   2    4.22    0.19 
   2   7   2    4.24    0.18 
  -3  -7  -2    0.42    0.08 
  -3  -7  -2    0.33    0.07 
  -3  -7  -2    0.34    0.06 
   3   7   2    0.31    0.05 
   3   7   2    0.32    0.08 
  -4  -7  -2    0.03    0.06 
  -4  -7  -2   -0.06    0.05 
   4   7   2    0.03    0.04 
   4   7   2    0.08    0.06 
  -5  -7  -2    0.07    0.07 
  -5  -7  -2    0.06    0.07 
   5   7   2    0.17    0.09 
   5   7   2    0.17    0.06 
  -6  -7  -2    4.21    0.23 
  -6  -7  -2    3.74    0.21 
   6   7   2    3.64    0.20 
   6   7   2    3.71    0.25 
  -7  -7  -2    0.47    0.11 
  -7  -7  -2    0.28    0.10 
   7   7   2    0.51    0.14 
   7   7   2    0.50    0.11 
  -8  -7  -2    1.42    0.17 
  -8  -7  -2    1.38    0.16 
   8   7   2    1.67    0.21 
   8   7   2    1.33    0.17 
  -9  -7  -2   -0.10    0.08 
   9   7   2    0.23    0.13 
   9   7   2    0.16    0.10 
   6  -8  -2    0.46    0.11 
   6  -8  -2    0.35    0.10 
   5  -8  -2    3.14    0.20 
   5  -8  -2    2.88    0.18 
   4  -8  -2    0.00    0.05 
   4  -8  -2    0.12    0.06 
   3  -8  -2    0.00    0.04 
   3  -8  -2    0.13    0.06 
   3  -8  -2   -0.05    0.06 
   3  -8  -2    0.06    0.06 
  -3   8   2    0.07    0.03 
   2  -8  -2    4.90    0.22 
   2  -8  -2    4.40    0.19 
   2  -8  -2    4.10    0.20 
   2  -8  -2    4.63    0.20 
  -2   8   2    4.86    0.16 
   1  -8  -2   32.95    0.63 
   1  -8  -2   32.57    0.65 
   1  -8  -2   31.86    0.64 
   1  -8  -2   30.78    0.64 
  -1   8   2   32.13    0.59 
   0  -8  -2    0.06    0.07 
   0  -8  -2    0.01    0.06 
   0  -8  -2    0.05    0.06 
   0   8   2    0.01    0.05 
  -1  -8  -2    0.13    0.06 
  -1  -8  -2    0.01    0.05 
  -1  -8  -2    0.07    0.06 
   1   8   2    0.04    0.05 
  -2  -8  -2    1.47    0.14 
  -2  -8  -2    1.32    0.13 
   2   8   2    1.48    0.13 
  -3  -8  -2    0.15    0.07 
  -3  -8  -2    0.23    0.08 
   3   8   2    0.21    0.05 
   3   8   2    0.37    0.09 
  -4  -8  -2    6.14    0.26 
  -4  -8  -2    6.56    0.27 
   4   8   2    5.89    0.21 
   4   8   2    5.92    0.27 
  -5  -8  -2    5.94    0.26 
  -5  -8  -2    5.84    0.28 
   5   8   2    5.40    0.22 
   5   8   2    6.01    0.28 
  -6  -8  -2    0.68    0.12 
  -6  -8  -2    0.98    0.14 
   6   8   2    0.72    0.10 
   6   8   2    0.81    0.15 
  -7  -8  -2    2.78    0.23 
  -7  -8  -2    2.69    0.20 
   7   8   2    2.83    0.25 
   7   8   2    2.72    0.19 
  -8  -8  -2   -0.07    0.10 
  -8  -8  -2    0.00    0.09 
   8   8   2   -0.04    0.08 
   8   8   2    0.14    0.13 
  -9  -8  -2    0.53    0.13 
   9   8   2    0.60    0.16 
   9   8   2    0.68    0.14 
   6  -9  -2    0.04    0.09 
   6  -9  -2    0.11    0.08 
   5  -9  -2    0.14    0.08 
   5  -9  -2    0.16    0.09 
   4  -9  -2    2.44    0.19 
   4  -9  -2    2.67    0.18 
   3  -9  -2    0.77    0.11 
   3  -9  -2    1.03    0.14 
   2  -9  -2    1.33    0.14 
   2  -9  -2    1.65    0.15 
   2  -9  -2    1.63    0.14 
  -2   9   2    1.69    0.11 
   1  -9  -2    2.97    0.19 
   1  -9  -2    2.88    0.18 
   1  -9  -2    3.03    0.19 
   1  -9  -2    2.98    0.17 
  -1   9   2    2.73    0.15 
   0  -9  -2   16.20    0.44 
   0  -9  -2   15.77    0.42 
   0   9   2   15.87    0.39 
  -1  -9  -2    7.47    0.28 
  -1  -9  -2    7.46    0.30 
   1   9   2    7.30    0.27 
  -2  -9  -2    5.22    0.24 
  -2  -9  -2    5.39    0.27 
   2   9   2    5.50    0.24 
  -3  -9  -2    0.96    0.13 
  -3  -9  -2    1.14    0.14 
   3   9   2    1.15    0.13 
  -4  -9  -2    0.03    0.07 
  -4  -9  -2    0.07    0.08 
   4   9   2    0.11    0.06 
   4   9   2    0.14    0.08 
  -5  -9  -2    0.37    0.10 
  -5  -9  -2    0.52    0.12 
   5   9   2    0.55    0.12 
   5   9   2    0.53    0.09 
  -6  -9  -2    0.24    0.09 
  -6  -9  -2    0.16    0.10 
   6   9   2    0.12    0.07 
   6   9   2    0.08    0.09 
  -7  -9  -2    1.47    0.18 
  -7  -9  -2    1.56    0.18 
   7   9   2    1.13    0.14 
   7   9   2    1.25    0.19 
  -8  -9  -2    0.12    0.09 
   8   9   2   -0.03    0.07 
   8   9   2   -0.20    0.09 
   5 -10  -2    0.33    0.10 
   5 -10  -2    0.39    0.12 
   4 -10  -2    0.00    0.07 
   4 -10  -2    0.02    0.08 
   3 -10  -2    1.09    0.17 
   3 -10  -2    1.09    0.14 
   2 -10  -2    0.11    0.08 
   2 -10  -2    0.02    0.07 
   1 -10  -2    1.61    0.16 
   1 -10  -2    1.91    0.16 
   1 -10  -2    1.87    0.19 
  -1  10   2    1.75    0.13 
   0 -10  -2    0.44    0.10 
   0 -10  -2    0.28    0.09 
   0 -10  -2    0.35    0.10 
   0  10   2    0.43    0.09 
  -1 -10  -2    4.27    0.26 
  -1 -10  -2    4.29    0.24 
   1  10   2    4.52    0.22 
  -2 -10  -2    1.72    0.18 
  -2 -10  -2    1.96    0.19 
   2  10   2    1.79    0.18 
  -3 -10  -2    0.38    0.11 
  -3 -10  -2    0.30    0.11 
   3  10   2    0.69    0.14 
  -4 -10  -2    0.81    0.14 
  -4 -10  -2    0.70    0.14 
   4  10   2    0.51    0.12 
  -5 -10  -2    0.55    0.13 
  -5 -10  -2    0.27    0.11 
   5  10   2    0.54    0.13 
   5  10   2    0.58    0.10 
  -6 -10  -2    4.59    0.30 
  -6 -10  -2    4.23    0.26 
   6  10   2    3.96    0.22 
   6  10   2    4.54    0.31 
  -7 -10  -2    1.19    0.17 
  -7 -10  -2    1.09    0.17 
   7  10   2    1.25    0.22 
   7  10   2    1.24    0.15 
  -8 -10  -2   -0.23    0.07 
   8  10   2   -0.01    0.12 
   8  10   2   -0.08    0.07 
   4 -11  -2    2.24    0.24 
   4 -11  -2    1.95    0.21 
   3 -11  -2    0.12    0.10 
   3 -11  -2   -0.05    0.08 
   2 -11  -2    0.20    0.10 
   2 -11  -2    0.14    0.11 
   1 -11  -2    0.51    0.12 
   1 -11  -2    0.40    0.13 
   0 -11  -2    8.08    0.34 
   0 -11  -2    8.77    0.37 
   0  11   2    8.10    0.30 
  -1 -11  -2    1.93    0.20 
  -1 -11  -2    1.78    0.20 
   1  11   2    2.06    0.17 
  -2 -11  -2   -0.04    0.09 
  -2 -11  -2    0.15    0.10 
   2  11   2    0.05    0.08 
  -3 -11  -2    0.64    0.14 
  -3 -11  -2    0.50    0.12 
   3  11   2    0.62    0.13 
  -4 -11  -2    0.73    0.16 
  -4 -11  -2    0.58    0.14 
   4  11   2    0.78    0.14 
  -5 -11  -2    0.27    0.12 
  -5 -11  -2    0.51    0.15 
   5  11   2    0.34    0.09 
   5  11   2    0.43    0.14 
  -6 -11  -2    0.22    0.13 
  -6 -11  -2    0.15    0.11 
   6  11   2    0.26    0.09 
   6  11   2    0.28    0.14 
  -7 -11  -2   -0.07    0.08 
  -7 -11  -2    0.06    0.12 
   7  11   2    0.06    0.12 
   7  11   2    0.14    0.08 
   2 -12  -2   -0.07    0.08 
   2 -12  -2    0.09    0.11 
   1 -12  -2    0.13    0.10 
   1 -12  -2    0.09    0.11 
   0 -12  -2    0.04    0.10 
   0 -12  -2    0.12    0.11 
  -1 -12  -2    1.09    0.17 
  -1 -12  -2    1.49    0.20 
   1  12   2    1.35    0.18 
  -2 -12  -2    0.11    0.12 
  -2 -12  -2    0.20    0.11 
   2  12   2    0.22    0.10 
  -3 -12  -2    0.15    0.11 
  -3 -12  -2   -0.09    0.10 
   3  12   2    0.04    0.09 
  -4 -12  -2    0.55    0.14 
  -4 -12  -2    0.43    0.15 
   4  12   2    0.40    0.14 
  -5 -12  -2    0.11    0.12 
  -5 -12  -2    0.14    0.12 
   5  12   2   -0.05    0.11 
  -6 -12  -2    0.41    0.14 
  -6 -12  -2    0.39    0.15 
   6  12   2    0.32    0.10 
   6  12   2    0.26    0.14 
   0 -13  -2    0.37    0.14 
   0 -13  -2    0.27    0.13 
  -1 -13  -2    0.16    0.14 
  -1 -13  -2    0.10    0.11 
  -2 -13  -2    0.24    0.12 
  -2 -13  -2    0.32    0.15 
  -3 -13  -2    0.80    0.17 
  -3 -13  -2    0.63    0.18 
   3  13   2    0.69    0.14 
  -4 -13  -2    0.14    0.13 
  -4 -13  -2   -0.08    0.11 
   4  13   2   -0.04    0.09 
   4  11  -3    0.13    0.11 
   4  11  -3    0.15    0.12 
  -4 -11   3    0.23    0.13 
   3  11  -3    0.40    0.14 
  -3 -11   3    0.43    0.14 
  -3 -11   3    0.54    0.14 
   2  11  -3   -0.14    0.10 
  -2 -11   3    0.16    0.12 
  -2 -11   3   -0.05    0.10 
   1  11  -3   -0.01    0.08 
  -1 -11   3    0.09    0.12 
  -1 -11   3   -0.03    0.11 
   0  11  -3    0.44    0.13 
   0 -11   3    0.61    0.15 
   0 -11   3    0.57    0.16 
  -1  11  -3    0.31    0.12 
   1 -11   3    0.03    0.12 
   1 -11   3    0.11    0.13 
  -2  11  -3    1.62    0.26 
   2 -11   3    1.50    0.23 
   2 -11   3    1.94    0.24 
   6  10  -3    0.25    0.15 
   5  10  -3    0.02    0.11 
   5  10  -3   -0.02    0.09 
  -5 -10   3    0.02    0.10 
   4  10  -3    0.64    0.14 
   4  10  -3    0.58    0.12 
  -4 -10   3    0.71    0.15 
  -4 -10   3    0.50    0.15 
   3  10  -3    2.74    0.24 
   3  10  -3    2.82    0.26 
  -3 -10   3    2.09    0.22 
  -3 -10   3    2.21    0.22 
   2  10  -3    1.27    0.19 
  -2 -10   3    1.34    0.19 
  -2 -10   3    1.64    0.22 
   1  10  -3    0.50    0.15 
  -1 -10   3    0.70    0.16 
  -1 -10   3    0.48    0.14 
   0  10  -3    0.04    0.09 
   0 -10   3    0.21    0.11 
   0 -10   3    0.17    0.11 
  -1  10  -3    0.32    0.11 
   1 -10   3    0.36    0.13 
   1 -10   3    0.37    0.13 
  -2  10  -3    2.19    0.23 
   2 -10   3    1.78    0.23 
   2 -10   3    2.19    0.23 
  -3  10  -3    1.15    0.16 
   3 -10   3    1.01    0.18 
   3 -10   3    1.40    0.20 
   4 -10   3   -0.18    0.08 
   4 -10   3    0.07    0.11 
   7   9  -3    0.30    0.15 
   6   9  -3    0.22    0.13 
   6   9  -3    0.25    0.11 
  -6  -9   3    0.19    0.11 
   5   9  -3    0.11    0.11 
   5   9  -3   -0.08    0.09 
  -5  -9   3   -0.08    0.08 
   4   9  -3   -0.08    0.07 
   4   9  -3   -0.05    0.10 
  -4  -9   3    0.08    0.09 
  -4  -9   3   -0.01    0.09 
   3   9  -3   -0.06    0.08 
   3   9  -3   -0.01    0.08 
  -3  -9   3   -0.12    0.06 
  -3  -9   3    0.01    0.09 
   2   9  -3    0.17    0.08 
  -2  -9   3    0.23    0.11 
  -2  -9   3    0.10    0.09 
   1   9  -3    0.03    0.07 
  -1  -9   3    0.09    0.10 
  -1  -9   3   -0.02    0.08 
   0   9  -3    0.71    0.12 
   0  -9   3    0.59    0.13 
   0  -9   3    0.62    0.13 
  -1   9  -3    2.48    0.21 
   1  -9   3    2.84    0.22 
   1  -9   3    2.32    0.22 
  -2   9  -3    1.25    0.15 
   2  -9   3    1.21    0.17 
   2  -9   3    1.27    0.18 
  -3   9  -3    4.94    0.26 
   3  -9   3    4.81    0.30 
   3  -9   3    4.69    0.31 
  -4   9  -3    0.54    0.14 
   4  -9   3    0.37    0.12 
   4  -9   3    0.43    0.14 
   5  -9   3    0.16    0.12 
   5  -9   3    0.00    0.09 
   7   8  -3    0.08    0.12 
   7   8  -3    0.24    0.12 
  -7  -8   3    0.16    0.11 
   6   8  -3    4.31    0.31 
   6   8  -3    4.43    0.29 
  -6  -8   3    3.66    0.24 
   5   8  -3    0.04    0.11 
   5   8  -3    0.10    0.09 
  -5  -8   3    0.19    0.10 
  -5  -8   3    0.11    0.08 
   4   8  -3    1.04    0.17 
   4   8  -3    0.92    0.13 
  -4  -8   3    0.97    0.14 
  -4  -8   3    0.80    0.13 
   3   8  -3    0.18    0.08 
   3   8  -3    0.05    0.07 
  -3  -8   3    0.20    0.09 
  -3  -8   3    0.12    0.08 
   2   8  -3    2.63    0.19 
   2   8  -3    2.79    0.21 
  -2  -8   3    2.79    0.21 
  -2  -8   3    2.73    0.21 
   1   8  -3    1.16    0.16 
  -1  -8   3    1.02    0.14 
  -1  -8   3    0.94    0.15 
   0   8  -3    2.41    0.19 
   0  -8   3    2.48    0.20 
   0  -8   3    2.18    0.20 
  -1   8  -3    0.85    0.13 
   1  -8   3    0.63    0.12 
   1  -8   3    0.67    0.13 
  -2   8  -3    3.57    0.22 
   2  -8   3    3.12    0.22 
   2  -8   3    3.44    0.24 
  -3   8  -3    2.24    0.19 
   3  -8   3    1.95    0.19 
   3  -8   3    2.16    0.21 
  -4   8  -3    5.05    0.26 
   4  -8   3    5.69    0.32 
   4  -8   3    5.66    0.30 
   5  -8   3    1.47    0.18 
   5  -8   3    1.08    0.17 
   6  -8   3    0.40    0.13 
   6  -8   3    0.20    0.12 
   8   7  -3    4.07    0.31 
   8   7  -3    3.99    0.32 
   7   7  -3    3.11    0.27 
   7   7  -3    3.21    0.28 
  -7  -7   3    2.86    0.21 
   6   7  -3    0.04    0.10 
   6   7  -3    0.06    0.11 
  -6  -7   3    0.06    0.08 
   5   7  -3    0.12    0.09 
   5   7  -3    0.11    0.11 
  -5  -7   3    0.19    0.09 
  -5  -7   3    0.06    0.08 
   4   7  -3    2.16    0.19 
   4   7  -3    1.69    0.19 
   4   7  -3    2.13    0.22 
  -4  -7   3    2.14    0.18 
  -4  -7   3    1.97    0.18 
   3   7  -3    0.16    0.08 
   3   7  -3    0.22    0.08 
  -3  -7   3    0.23    0.09 
  -3  -7   3    0.19    0.08 
   2   7  -3    0.03    0.07 
   2   7  -3   -0.06    0.07 
  -2  -7   3   -0.04    0.06 
  -2  -7   3    0.05    0.07 
   1   7  -3    0.41    0.09 
   1   7  -3    0.27    0.08 
  -1  -7   3    0.25    0.09 
  -1  -7   3    0.31    0.10 
   0   7  -3   -0.09    0.06 
   0  -7   3   -0.07    0.07 
   0  -7   3   -0.11    0.07 
  -1   7  -3    6.45    0.27 
   1  -7   3    6.71    0.29 
   1  -7   3    6.70    0.28 
  -2   7  -3   12.15    0.37 
   2  -7   3   11.73    0.38 
   2  -7   3   11.87    0.40 
  -3   7  -3    0.06    0.07 
   3  -7   3    0.04    0.08 
   3  -7   3    0.06    0.08 
  -4   7  -3   12.73    0.39 
   4  -7   3   13.12    0.43 
   4  -7   3   13.23    0.44 
  -5   7  -3    1.62    0.16 
   5  -7   3    1.53    0.19 
   5  -7   3    1.52    0.18 
   6  -7   3    0.85    0.15 
   6  -7   3    0.51    0.14 
   7  -7   3    0.56    0.14 
   7  -7   3    0.36    0.13 
   8   6  -3   -0.09    0.09 
   8   6  -3    0.17    0.12 
   7   6  -3   -0.04    0.08 
   7   6  -3   -0.01    0.11 
  -7  -6   3   -0.11    0.06 
   6   6  -3   -0.10    0.08 
   6   6  -3   -0.03    0.09 
  -6  -6   3    0.03    0.06 
  -6  -6   3    0.11    0.08 
   5   6  -3   15.57    0.47 
   5   6  -3   15.33    0.47 
   5   6  -3   14.47    0.43 
  -5  -6   3   14.86    0.42 
  -5  -6   3   15.21    0.42 
   4   6  -3   11.79    0.36 
   4   6  -3   11.19    0.36 
   4   6  -3   11.00    0.37 
   4   6  -3   10.78    0.36 
  -4  -6   3   10.82    0.34 
  -4  -6   3   11.26    0.35 
   3   6  -3    6.04    0.25 
   3   6  -3    6.22    0.26 
   3   6  -3    6.38    0.25 
   3   6  -3    6.51    0.27 
  -3  -6   3    6.40    0.26 
  -3  -6   3    6.38    0.25 
   2   6  -3   14.22    0.39 
   2   6  -3   14.72    0.39 
   2   6  -3   14.99    0.41 
   2   6  -3   14.55    0.39 
  -2  -6   3   14.45    0.40 
  -2  -6   3   14.26    0.39 
   1   6  -3   26.95    0.59 
   1   6  -3   27.62    0.58 
   1   6  -3   27.23    0.57 
   1   6  -3   27.34    0.57 
  -1  -6   3   27.97    0.60 
  -1  -6   3   27.29    0.60 
   0   6  -3   14.28    0.39 
   0   6  -3   14.79    0.39 
   0  -6   3   14.49    0.39 
   0  -6   3   14.10    0.39 
   0  -6   3   14.63    0.42 
  -1   6  -3    6.13    0.24 
   1  -6   3    6.20    0.25 
   1  -6   3    6.11    0.23 
   1  -6   3    6.04    0.25 
  -2   6  -3   -0.01    0.05 
   2  -6   3   -0.05    0.05 
   2  -6   3    0.01    0.06 
   2  -6   3   -0.03    0.05 
  -3   6  -3    1.85    0.15 
  -3   6  -3    2.03    0.15 
   3  -6   3    1.86    0.16 
   3  -6   3    1.96    0.17 
  -4   6  -3    6.35    0.26 
  -4   6  -3    6.47    0.27 
   4  -6   3    6.85    0.30 
   4  -6   3    6.11    0.28 
  -5   6  -3    6.75    0.27 
  -5   6  -3    6.51    0.27 
   5  -6   3    6.81    0.30 
   5  -6   3    6.32    0.30 
  -6   6  -3    0.16    0.08 
  -6   6  -3   -0.02    0.06 
   6  -6   3    0.06    0.08 
   6  -6   3   -0.11    0.08 
   7  -6   3    0.04    0.09 
   9   5  -3   -0.23    0.08 
   8   5  -3    1.44    0.20 
   8   5  -3    1.59    0.21 
   7   5  -3    2.04    0.22 
   7   5  -3    2.03    0.20 
  -7  -5   3    2.14    0.16 
   6   5  -3   -0.07    0.09 
   6   5  -3   -0.03    0.06 
   6   5  -3    0.03    0.07 
   6   5  -3   -0.03    0.08 
  -6  -5   3    0.02    0.06 
  -6  -5   3    0.04    0.06 
   5   5  -3    0.44    0.11 
   5   5  -3    0.48    0.09 
   5   5  -3    0.36    0.08 
   5   5  -3    0.50    0.10 
  -5  -5   3    0.51    0.09 
  -5  -5   3    0.56    0.10 
   4   5  -3    0.85    0.12 
   4   5  -3    0.90    0.11 
   4   5  -3    0.69    0.11 
   4   5  -3    0.82    0.10 
  -4  -5   3    0.84    0.10 
  -4  -5   3    0.90    0.11 
   3   5  -3    0.59    0.09 
   3   5  -3    0.43    0.08 
   3   5  -3    0.70    0.10 
   3   5  -3    0.66    0.09 
  -3  -5   3    0.74    0.10 
  -3  -5   3    0.68    0.09 
   2   5  -3    3.78    0.19 
   2   5  -3    3.78    0.17 
   2   5  -3    3.54    0.17 
   2   5  -3    3.52    0.18 
  -2  -5   3    3.72    0.18 
  -2  -5   3    3.75    0.17 
  -2  -5   3    3.76    0.18 
   1   5  -3   -0.02    0.04 
   1   5  -3   -0.02    0.04 
   1   5  -3   -0.01    0.04 
   1   5  -3    0.00    0.04 
  -1  -5   3   -0.02    0.05 
  -1  -5   3    0.00    0.04 
  -1  -5   3    0.01    0.05 
   0   5  -3    2.28    0.13 
   0   5  -3    2.25    0.13 
   0   5  -3    2.12    0.14 
   0  -5   3    2.39    0.13 
   0  -5   3    2.26    0.14 
   0  -5   3    2.39    0.15 
  -1   5  -3   -0.05    0.04 
  -1   5  -3   -0.04    0.04 
   1  -5   3    0.09    0.05 
   1  -5   3   -0.01    0.04 
   1  -5   3    0.01    0.04 
  -2   5  -3    4.89    0.20 
  -2   5  -3    4.94    0.20 
   2  -5   3    4.62    0.20 
   2  -5   3    4.94    0.19 
   2  -5   3    4.96    0.21 
  -3   5  -3   30.22    0.62 
  -3   5  -3   30.89    0.62 
   3  -5   3   30.40    0.63 
   3  -5   3   30.80    0.64 
   3  -5   3   29.74    0.60 
  -4   5  -3    0.05    0.06 
  -4   5  -3    0.08    0.07 
   4  -5   3    0.12    0.06 
   4  -5   3    0.09    0.06 
   4  -5   3   -0.02    0.06 
  -5   5  -3    8.75    0.30 
  -5   5  -3    8.15    0.30 
   5  -5   3    8.45    0.31 
  -6   5  -3    0.04    0.07 
  -6   5  -3    0.03    0.06 
   6  -5   3    0.15    0.08 
  -7   5  -3    0.04    0.07 
   7  -5   3    0.03    0.08 
   7  -5   3    0.19    0.09 
   8  -5   3   -0.02    0.09 
   8  -5   3   -0.14    0.08 
   9   4  -3    0.05    0.10 
   9   4  -3    0.22    0.12 
   8   4  -3   -0.02    0.08 
   8   4  -3    0.24    0.13 
   7   4  -3    6.64    0.35 
   7   4  -3    6.47    0.31 
  -7  -4   3    6.84    0.25 
   6   4  -3    0.03    0.08 
   6   4  -3    0.24    0.08 
   6   4  -3   -0.06    0.05 
   6   4  -3    0.09    0.09 
  -6  -4   3    0.08    0.06 
  -6  -4   3    0.09    0.05 
   5   4  -3   11.01    0.32 
   5   4  -3   10.43    0.36 
   5   4  -3   11.00    0.34 
   5   4  -3   10.72    0.33 
  -5  -4   3   10.39    0.30 
  -5  -4   3    9.69    0.28 
   4   4  -3    3.82    0.18 
   4   4  -3    3.54    0.19 
   4   4  -3    3.58    0.17 
   4   4  -3    3.49    0.20 
  -4  -4   3    3.41    0.16 
  -4  -4   3    3.61    0.17 
   3   4  -3   10.76    0.32 
   3   4  -3   10.91    0.30 
   3   4  -3   10.66    0.30 
   3   4  -3   11.17    0.32 
  -3  -4   3   11.01    0.29 
  -3  -4   3   11.34    0.30 
   2   4  -3    9.62    0.28 
   2   4  -3   10.25    0.28 
   2   4  -3   10.37    0.28 
   2   4  -3   10.17    0.29 
  -2  -4   3   10.29    0.27 
  -2  -4   3   10.05    0.28 
  -2  -4   3   10.35    0.28 
   1   4  -3   47.27    0.80 
   1   4  -3   46.91    0.82 
   1   4  -3   47.71    0.81 
   1   4  -3   47.55    0.80 
  -1  -4   3   47.37    0.81 
  -1  -4   3   46.46    0.81 
  -1  -4   3   47.58    0.79 
   0   4  -3   28.07    0.52 
   0   4  -3   26.92    0.51 
   0   4  -3   26.66    0.52 
   0   4  -3   27.26    0.53 
   0  -4   3   26.69    0.53 
   0  -4   3   26.89    0.53 
   0  -4   3   27.05    0.53 
   0  -4   3   27.22    0.51 
  -1   4  -3    0.34    0.06 
  -1   4  -3    0.49    0.07 
  -1   4  -3    0.45    0.08 
   1  -4   3    0.43    0.07 
   1  -4   3    0.40    0.07 
   1  -4   3    0.41    0.07 
   1  -4   3    0.57    0.07 
  -2   4  -3    7.05    0.23 
  -2   4  -3    7.33    0.23 
   2  -4   3    6.88    0.23 
   2  -4   3    7.02    0.22 
   2  -4   3    7.06    0.23 
   2  -4   3    7.27    0.24 
  -3   4  -3   23.97    0.60 
  -3   4  -3   26.13    0.53 
  -3   4  -3   26.17    0.53 
   3  -4   3   25.54    0.54 
   3  -4   3   25.31    0.52 
   3  -4   3   25.45    0.53 
  -4   4  -3    0.12    0.07 
  -4   4  -3    0.09    0.06 
   4  -4   3    0.06    0.06 
   4  -4   3    0.05    0.06 
  -5   4  -3    6.89    0.26 
  -5   4  -3    7.60    0.27 
   5  -4   3    7.24    0.26 
   5  -4   3    7.27    0.27 
  -6   4  -3    0.32    0.08 
  -6   4  -3    0.21    0.07 
   6  -4   3    0.24    0.08 
  -7   4  -3    1.11    0.14 
  -7   4  -3    0.93    0.13 
   7  -4   3    0.80    0.12 
   7  -4   3    0.84    0.14 
   8  -4   3    0.06    0.08 
   8  -4   3    0.10    0.08 
   9   3  -3    0.78    0.18 
   9   3  -3    0.62    0.15 
   8   3  -3    8.18    0.40 
   8   3  -3    7.86    0.34 
   7   3  -3    8.65    0.39 
   7   3  -3    8.30    0.45 
   7   3  -3    7.97    0.33 
  -7  -3   3    8.04    0.26 
   6   3  -3    5.04    0.22 
   6   3  -3    5.24    0.28 
   6   3  -3    5.38    0.25 
   6   3  -3    5.12    0.22 
  -6  -3   3    5.03    0.20 
   5   3  -3    0.42    0.09 
   5   3  -3    0.53    0.08 
   5   3  -3    0.37    0.09 
   5   3  -3    0.55    0.08 
  -5  -3   3    0.57    0.08 
  -5  -3   3    0.60    0.07 
   4   3  -3    2.77    0.16 
   4   3  -3    2.68    0.15 
   4   3  -3    2.77    0.18 
   4   3  -3    2.74    0.14 
  -4  -3   3    2.70    0.14 
   3   3  -3    0.39    0.06 
   3   3  -3    0.63    0.09 
   3   3  -3    0.76    0.09 
   3   3  -3    0.48    0.07 
  -3  -3   3    0.59    0.07 
  -3  -3   3    0.64    0.07 
   2   3  -3    8.84    0.24 
   2   3  -3    9.18    0.25 
   2   3  -3    8.87    0.24 
  -2  -3   3    9.08    0.24 
  -2  -3   3    8.84    0.24 
  -2  -3   3    9.01    0.24 
   1   3  -3   17.77    0.36 
   1   3  -3   17.51    0.37 
   1   3  -3   17.50    0.37 
  -1  -3   3   17.85    0.36 
  -1  -3   3   17.94    0.39 
  -1  -3   3   17.93    0.37 
  -1  -3   3   17.73    0.37 
  -1  -3   3   17.55    0.37 
   0   3  -3    3.00    0.13 
   0   3  -3    2.93    0.13 
   0   3  -3    2.79    0.12 
   0   3  -3    2.84    0.12 
   0  -3   3    2.87    0.13 
   0  -3   3    2.78    0.13 
   0  -3   3    3.19    0.12 
   0  -3   3    2.98    0.13 
   0  -3   3    2.95    0.13 
  -1   3  -3    0.58    0.07 
  -1   3  -3    0.78    0.08 
  -1   3  -3    0.70    0.07 
   1  -3   3    0.83    0.07 
   1  -3   3    0.80    0.07 
   1  -3   3    0.69    0.07 
   1  -3   3    0.59    0.07 
   1  -3   3    0.80    0.08 
  -2   3  -3    7.60    0.23 
  -2   3  -3    8.05    0.23 
   2  -3   3    8.32    0.24 
   2  -3   3    8.31    0.23 
   2  -3   3    8.72    0.24 
   2  -3   3    8.60    0.24 
  -3   3  -3   13.46    0.32 
  -3   3  -3   13.63    0.33 
  -3   3  -3   12.92    0.32 
   3  -3   3   12.83    0.33 
   3  -3   3   13.55    0.32 
   3  -3   3   13.29    0.33 
  -4   3  -3   22.05    0.47 
  -4   3  -3   21.95    0.47 
   4  -3   3   20.96    0.56 
   4  -3   3   21.69    0.46 
   4  -3   3   22.35    0.48 
  -5   3  -3    5.20    0.22 
  -5   3  -3    5.52    0.22 
   5  -3   3    5.03    0.21 
   5  -3   3    5.01    0.22 
  -6   3  -3    3.52    0.19 
  -6   3  -3    3.78    0.19 
   6  -3   3    3.86    0.22 
   6  -3   3    3.63    0.20 
   6  -3   3    3.88    0.19 
  -7   3  -3    0.68    0.11 
  -7   3  -3    0.65    0.11 
   7  -3   3    0.67    0.13 
   7  -3   3    0.70    0.12 
  -8   3  -3    0.02    0.07 
   8  -3   3    0.42    0.11 
   8  -3   3    0.25    0.10 
   9  -3   3    0.27    0.11 
   9  -3   3    0.12    0.09 
   9   2  -3    0.10    0.11 
   9   2  -3    0.15    0.13 
   8   2  -3    0.86    0.13 
   8   2  -3    0.93    0.19 
   7   2  -3    4.66    0.24 
   7   2  -3    4.72    0.26 
   7   2  -3    3.89    0.28 
  -7  -2   3    4.38    0.18 
   6   2  -3    0.02    0.09 
   6   2  -3    0.11    0.05 
   6   2  -3   -0.03    0.05 
   6   2  -3    0.00    0.05 
  -6  -2   3    0.02    0.04 
   5   2  -3    0.22    0.06 
   5   2  -3    0.21    0.06 
   5   2  -3    0.17    0.08 
   5   2  -3    0.24    0.06 
  -5  -2   3    0.25    0.05 
   4   2  -3    8.12    0.24 
   4   2  -3    8.01    0.23 
   4   2  -3    8.19    0.23 
   4   2  -3    7.91    0.28 
  -4  -2   3    8.00    0.20 
  -4  -2   3    8.01    0.21 
   3   2  -3  102.02    1.53 
   3   2  -3  103.05    1.54 
   3   2  -3  101.81    1.53 
   3   2  -3  102.10    1.60 
  -3  -2   3  103.04    1.51 
  -3  -2   3  103.24    1.50 
  -3  -2   3  101.99    1.51 
   2   2  -3   52.12    0.85 
   2   2  -3   52.16    0.84 
   2   2  -3   53.01    0.88 
   2   2  -3   53.04    0.84 
  -2  -2   3   52.88    0.83 
  -2  -2   3   53.88    0.83 
  -2  -2   3   53.64    0.89 
   1   2  -3    1.81    0.10 
   1   2  -3    1.84    0.09 
   1   2  -3    1.90    0.10 
   1   2  -3    1.83    0.09 
  -1  -2   3    1.81    0.09 
  -1  -2   3    2.04    0.09 
  -1  -2   3    1.95    0.09 
  -1  -2   3    1.89    0.09 
  -1  -2   3    1.86    0.10 
   0   2  -3    6.53    0.17 
   0   2  -3    6.55    0.17 
   0   2  -3    6.47    0.18 
   0   2  -3    6.58    0.17 
   0   2  -3    6.64    0.18 
   0  -2   3    6.33    0.18 
   0  -2   3    6.59    0.17 
   0  -2   3    6.62    0.18 
   0  -2   3    6.68    0.18 
   0  -2   3    6.43    0.18 
  -1   2  -3   25.82    0.46 
  -1   2  -3   25.64    0.46 
   1  -2   3   25.63    0.47 
   1  -2   3   25.17    0.45 
   1  -2   3   26.00    0.47 
   1  -2   3   25.85    0.45 
   1  -2   3   26.41    0.47 
  -2   2  -3    6.09    0.18 
  -2   2  -3    6.34    0.18 
   2  -2   3    5.96    0.19 
   2  -2   3    5.99    0.18 
   2  -2   3    6.40    0.19 
  -3   2  -3   20.55    0.43 
  -3   2  -3   20.78    0.43 
  -3   2  -3   21.72    0.42 
   3  -2   3   20.60    0.43 
   3  -2   3   20.80    0.43 
   3  -2   3   21.11    0.42 
  -4   2  -3   50.78    0.86 
  -4   2  -3   49.42    0.86 
  -4   2  -3   50.06    0.85 
   4  -2   3   50.72    0.87 
   4  -2   3   50.17    0.87 
   4  -2   3   49.65    0.85 
  -5   2  -3    5.50    0.21 
  -5   2  -3    5.80    0.22 
   5  -2   3    5.29    0.23 
   5  -2   3    5.65    0.21 
   5  -2   3    5.58    0.22 
  -6   2  -3   14.40    0.38 
  -6   2  -3   14.66    0.39 
   6  -2   3   13.85    0.41 
   6  -2   3   14.48    0.40 
   6  -2   3   14.90    0.39 
  -7   2  -3    0.03    0.05 
  -7   2  -3    0.13    0.07 
   7  -2   3    0.11    0.08 
   7  -2   3    0.08    0.06 
  -8   2  -3   -0.05    0.06 
  -8   2  -3   -0.04    0.05 
   8  -2   3    0.02    0.07 
   8  -2   3   -0.09    0.06 
   9  -2   3   -0.02    0.07 
   9  -2   3   -0.06    0.07 
   9   1  -3    0.76    0.15 
   9   1  -3    1.04    0.21 
   8   1  -3    0.26    0.12 
   8   1  -3    0.18    0.08 
   7   1  -3    0.07    0.06 
   7   1  -3    0.06    0.06 
   7   1  -3    0.01    0.10 
  -7  -1   3    0.07    0.05 
   6   1  -3   10.16    0.29 
   6   1  -3    9.92    0.29 
   6   1  -3   10.58    0.29 
   6   1  -3   10.65    0.31 
   6   1  -3   10.68    0.39 
  -6  -1   3   10.45    0.26 
   5   1  -3    0.32    0.06 
   5   1  -3    0.45    0.07 
   5   1  -3    0.27    0.08 
   5   1  -3    0.30    0.06 
  -5  -1   3    0.39    0.05 
   4   1  -3   18.41    0.37 
   4   1  -3   18.49    0.38 
   4   1  -3   17.59    0.45 
   4   1  -3   17.58    0.36 
  -4  -1   3   18.43    0.34 
  -4  -1   3   18.33    0.33 
   3   1  -3   14.17    0.30 
   3   1  -3   14.03    0.36 
   3   1  -3   13.99    0.29 
   3   1  -3   13.97    0.29 
  -3  -1   3   14.33    0.27 
  -3  -1   3   14.78    0.26 
  -3  -1   3   13.99    0.27 
   2   1  -3   78.46    1.14 
   2   1  -3   77.43    1.15 
   2   1  -3   77.43    1.14 
   2   1  -3   76.63    1.20 
  -2  -1   3   76.44    1.12 
  -2  -1   3   76.93    1.12 
  -2  -1   3   77.53    1.13 
  -2  -1   3   77.22    1.12 
   1   1  -3   48.12    0.74 
   1   1  -3   48.00    0.77 
   1   1  -3   47.37    0.74 
   1   1  -3   47.90    0.73 
  -1  -1   3   48.31    0.78 
  -1  -1   3   48.25    0.73 
  -1  -1   3   48.25    0.73 
  -1  -1   3   47.34    0.72 
   0   1  -3    6.38    0.16 
   0   1  -3    6.28    0.16 
   0   1  -3    6.64    0.16 
   0   1  -3    6.07    0.16 
   0   1  -3    6.53    0.15 
   0  -1   3    6.35    0.16 
   0  -1   3    6.02    0.15 
   0  -1   3    6.22    0.16 
   0  -1   3    6.20    0.15 
   0  -1   3    6.24    0.15 
  -1   1  -3    1.84    0.08 
  -1   1  -3    1.73    0.08 
  -1   1  -3    1.74    0.08 
   1  -1   3    1.71    0.08 
   1  -1   3    1.73    0.08 
   1  -1   3    1.78    0.08 
   1  -1   3    1.76    0.08 
   1  -1   3    1.73    0.07 
  -2   1  -3   26.87    0.48 
  -2   1  -3   26.68    0.48 
  -2   1  -3   27.14    0.47 
   2  -1   3   27.11    0.48 
   2  -1   3   27.08    0.48 
   2  -1   3   26.88    0.47 
  -3   1  -3    0.34    0.05 
  -3   1  -3    0.39    0.06 
  -3   1  -3    0.40    0.06 
   3  -1   3    0.30    0.05 
   3  -1   3    0.32    0.05 
   3  -1   3    0.35    0.05 
  -4   1  -3   48.31    0.81 
  -4   1  -3   47.98    0.82 
   4  -1   3   47.23    0.82 
   4  -1   3   47.27    0.81 
   4  -1   3   46.74    0.83 
   4  -1   3   48.46    0.82 
  -5   1  -3   27.94    0.56 
  -5   1  -3   27.61    0.56 
   5  -1   3   28.11    0.56 
   5  -1   3   27.87    0.56 
   5  -1   3   26.88    0.57 
   5  -1   3   28.04    0.58 
  -6   1  -3    3.81    0.19 
  -6   1  -3    3.93    0.19 
   6  -1   3    4.27    0.20 
   6  -1   3    3.73    0.21 
   6  -1   3    3.75    0.18 
  -7   1  -3    0.49    0.09 
  -7   1  -3    0.37    0.08 
   7  -1   3    0.52    0.10 
   7  -1   3    0.48    0.10 
  -8   1  -3    5.85    0.26 
  -8   1  -3    5.86    0.26 
   8  -1   3    6.16    0.30 
   8  -1   3    5.70    0.27 
   9  -1   3    1.45    0.20 
   9  -1   3    1.25    0.15 
   9   0  -3    1.57    0.18 
   8   0  -3    0.28    0.09 
   7   0  -3    6.17    0.31 
   7   0  -3    6.66    0.26 
   7   0  -3    6.90    0.35 
   6   0  -3    0.07    0.04 
   6   0  -3    0.09    0.05 
   6   0  -3    0.01    0.05 
   6   0  -3    0.15    0.06 
  -6   0   3    0.01    0.02 
   5   0  -3    6.87    0.20 
   5   0  -3    6.71    0.21 
   5   0  -3    6.68    0.20 
   4   0  -3    2.59    0.11 
   4   0  -3    2.53    0.10 
   4   0  -3    2.51    0.10 
   3   0  -3    7.14    0.17 
   3   0  -3    7.08    0.17 
   3   0  -3    7.26    0.17 
  -3   0   3    7.21    0.15 
   2   0  -3   70.43    1.01 
   2   0  -3   69.31    1.01 
   2   0  -3   69.59    1.01 
   2   0  -3   68.92    1.10 
  -2   0   3   70.16    0.99 
  -2   0   3   70.18    0.99 
   1   0  -3  147.73    2.03 
   1   0  -3  142.35    2.08 
   1   0  -3  147.66    2.03 
   1   0  -3  147.92    2.03 
   1   0  -3  144.28    2.02 
  -1   0   3  145.50    2.00 
  -1   0   3  143.53    2.01 
  -1   0   3  147.19    2.01 
  -1   0   3  145.05    2.09 
   0   0  -3   48.58    0.74 
   0   0  -3   48.75    0.73 
   0   0  -3   49.76    0.73 
   0   0  -3   48.87    0.73 
   0   0  -3   50.06    0.73 
   0   0   3   49.39    0.73 
   0   0   3   49.56    0.72 
   0   0   3   49.44    0.73 
   0   0   3   48.07    0.73 
   0   0   3   49.58    0.75 
  -1   0  -3    8.84    0.19 
  -1   0  -3    8.72    0.19 
  -1   0  -3    8.72    0.19 
   1   0   3    9.00    0.19 
   1   0   3    8.63    0.19 
   1   0   3    8.81    0.19 
   1   0   3    8.62    0.17 
   1   0   3    8.71    0.19 
  -2   0  -3  100.87    1.49 
  -2   0  -3  104.40    1.49 
   2   0   3  102.96    1.50 
   2   0   3  100.50    1.49 
   2   0   3  102.86    1.50 
   2   0   3  101.89    1.49 
  -3   0  -3   13.80    0.30 
  -3   0  -3   14.39    0.31 
   3   0   3   14.08    0.31 
   3   0   3   14.30    0.31 
   3   0   3   13.90    0.31 
   3   0   3   14.57    0.31 
  -4   0  -3   42.54    0.74 
  -4   0  -3   42.67    0.73 
   4   0   3   43.79    0.74 
   4   0   3   41.85    0.74 
   4   0   3   43.89    0.76 
   4   0   3   42.01    0.73 
  -5   0  -3   28.25    0.56 
  -5   0  -3   27.72    0.56 
   5   0   3   27.65    0.56 
   5   0   3   27.96    0.56 
   5   0   3   28.24    0.58 
   5   0   3   27.99    0.55 
  -6   0  -3    0.66    0.10 
  -6   0  -3    0.69    0.10 
   6   0   3    0.78    0.10 
   6   0   3    0.74    0.11 
   6   0   3    0.72    0.10 
  -7   0  -3    4.51    0.21 
  -7   0  -3    4.45    0.22 
   7   0   3    4.14    0.22 
   7   0   3    4.27    0.24 
   7   0   3    4.32    0.24 
   7   0   3    4.33    0.22 
  -8   0  -3    2.19    0.18 
  -8   0  -3    2.00    0.16 
   8   0   3    1.99    0.17 
   8   0   3    2.28    0.21 
  -9   0  -3    0.09    0.07 
   9   0   3    0.12    0.09 
   9   0   3    0.03    0.07 
  10   0   3    0.04    0.09 
  10   0   3   -0.11    0.09 
   9  -1  -3    4.99    0.24 
   9  -1  -3    5.27    0.28 
   8  -1  -3    3.84    0.22 
   7  -1  -3    0.40    0.09 
  -7   1   3    0.33    0.06 
   6  -1  -3    0.14    0.05 
   6  -1  -3    0.15    0.06 
   6  -1  -3    0.14    0.05 
   6  -1  -3    0.15    0.05 
  -6   1   3    0.15    0.04 
   5  -1  -3    0.40    0.06 
   5  -1  -3    0.42    0.06 
   5  -1  -3    0.30    0.05 
   5  -1  -3    0.30    0.06 
  -5   1   3    0.34    0.04 
   4  -1  -3    1.28    0.07 
   4  -1  -3    1.26    0.08 
   4  -1  -3    1.27    0.07 
  -4   1   3    1.38    0.06 
   3  -1  -3    7.70    0.16 
   3  -1  -3    7.75    0.16 
   3  -1  -3    7.67    0.16 
  -3   1   3    7.78    0.13 
   2  -1  -3   16.76    0.26 
   1  -1  -3   12.20    0.19 
   1  -1  -3   12.34    0.19 
   0  -1  -3    2.52    0.07 
   0  -1  -3    2.62    0.07 
   0  -1  -3    2.51    0.07 
   0  -1  -3    2.83    0.07 
   0  -1  -3    2.52    0.08 
   0   1   3    2.61    0.06 
   0   1   3    2.54    0.06 
   0   1   3    2.82    0.06 
   0   1   3    2.58    0.06 
  -1  -1  -3   23.70    0.35 
  -1  -1  -3   22.97    0.39 
  -1  -1  -3   23.85    0.39 
  -1  -1  -3   23.50    0.38 
  -1  -1  -3   23.30    0.39 
   1   1   3   23.83    0.38 
   1   1   3   23.85    0.38 
   1   1   3   23.11    0.39 
   1   1   3   23.70    0.38 
   1   1   3   22.99    0.38 
   1   1   3   23.56    0.35 
  -2  -1  -3    9.34    0.22 
  -2  -1  -3    9.55    0.22 
  -2  -1  -3    9.74    0.21 
   2   1   3    9.81    0.21 
   2   1   3    9.57    0.21 
   2   1   3    9.57    0.21 
   2   1   3    9.66    0.22 
   2   1   3    9.52    0.21 
  -3  -1  -3    0.86    0.07 
  -3  -1  -3    0.93    0.07 
  -3  -1  -3    0.83    0.07 
   3   1   3    0.88    0.07 
   3   1   3    0.86    0.07 
   3   1   3    0.81    0.07 
   3   1   3    0.80    0.07 
   3   1   3    0.97    0.07 
  -4  -1  -3   70.12    1.14 
  -4  -1  -3   71.17    1.12 
  -4  -1  -3   72.23    1.14 
   4   1   3   71.81    1.13 
   4   1   3   71.56    1.13 
   4   1   3   72.02    1.13 
   4   1   3   71.19    1.13 
   4   1   3   72.62    1.15 
  -5  -1  -3  151.14    2.26 
  -5  -1  -3  150.99    2.24 
   5   1   3  149.98    2.27 
   5   1   3  151.80    2.25 
   5   1   3  151.87    2.24 
   5   1   3  150.87    2.25 
   5   1   3  152.37    2.24 
  -6  -1  -3    0.43    0.09 
  -6  -1  -3    0.23    0.07 
   6   1   3    0.28    0.08 
   6   1   3    0.28    0.08 
   6   1   3    0.27    0.09 
   6   1   3    0.30    0.08 
  -7  -1  -3    6.16    0.25 
  -7  -1  -3    6.09    0.26 
   7   1   3    6.39    0.26 
   7   1   3    6.07    0.28 
   7   1   3    6.07    0.32 
   7   1   3    6.03    0.25 
  -8  -1  -3    0.00    0.06 
   8   1   3    0.14    0.09 
   8   1   3    0.06    0.07 
  -9  -1  -3    0.10    0.07 
   9   1   3    0.21    0.10 
   9   1   3    0.24    0.09 
  10   1   3   -0.02    0.08 
  10   1   3    0.13    0.12 
   9  -2  -3    1.66    0.19 
   9  -2  -3    1.85    0.16 
   8  -2  -3    3.67    0.21 
   8  -2  -3    3.44    0.18 
   7  -2  -3    0.74    0.09 
   7  -2  -3    0.92    0.11 
   6  -2  -3   -0.04    0.03 
   6  -2  -3    0.00    0.04 
   6  -2  -3   -0.03    0.03 
   6  -2  -3    0.03    0.04 
  -6   2   3    0.01    0.02 
   5  -2  -3   22.76    0.44 
   5  -2  -3   22.50    0.42 
   5  -2  -3   22.93    0.43 
  -5   2   3   22.88    0.36 
   4  -2  -3   17.52    0.32 
   4  -2  -3   17.51    0.32 
   4  -2  -3   17.39    0.33 
   3  -2  -3   26.09    0.41 
   3  -2  -3   26.61    0.41 
   0  -2  -3    2.42    0.06 
   0  -2  -3    2.33    0.06 
   0  -2  -3    2.44    0.06 
   0  -2  -3    2.39    0.06 
   0   2   3    2.48    0.06 
   0   2   3    2.49    0.06 
  -1  -2  -3    1.96    0.07 
  -1  -2  -3    1.92    0.07 
  -1  -2  -3    2.06    0.07 
  -1  -2  -3    1.95    0.07 
   1   2   3    1.96    0.07 
   1   2   3    1.93    0.07 
   1   2   3    1.94    0.07 
   1   2   3    2.04    0.07 
  -2  -2  -3  226.65    3.12 
  -2  -2  -3  222.67    3.13 
  -2  -2  -3  225.70    3.14 
  -2  -2  -3  223.34    3.13 
   2   2   3  217.81    3.12 
   2   2   3  225.20    3.12 
   2   2   3  222.81    3.13 
   2   2   3  225.79    3.12 
  -3  -2  -3  131.54    1.89 
  -3  -2  -3  130.11    1.87 
  -3  -2  -3  128.50    1.89 
   3   2   3  127.81    1.88 
   3   2   3  125.39    1.89 
   3   2   3  130.04    1.87 
   3   2   3  128.72    1.87 
  -4  -2  -3   23.12    0.45 
  -4  -2  -3   21.84    0.45 
  -4  -2  -3   21.69    0.45 
   4   2   3   21.88    0.44 
   4   2   3   22.29    0.46 
   4   2   3   21.96    0.44 
   4   2   3   22.00    0.45 
  -5  -2  -3   13.92    0.36 
  -5  -2  -3   14.19    0.35 
   5   2   3   14.33    0.37 
   5   2   3   13.96    0.35 
   5   2   3   13.59    0.35 
   5   2   3   14.27    0.38 
  -6  -2  -3   40.63    0.78 
  -6  -2  -3   41.34    0.76 
   6   2   3   42.04    0.81 
   6   2   3   41.26    0.77 
   6   2   3   39.37    0.77 
  -7  -2  -3   12.87    0.37 
   7   2   3   13.27    0.41 
   7   2   3   12.69    0.38 
  -8  -2  -3    0.35    0.09 
   8   2   3    0.20    0.08 
   8   2   3    0.29    0.10 
  -9  -2  -3    0.82    0.13 
   9   2   3    0.49    0.14 
   9   2   3    0.51    0.11 
  10   2   3    0.09    0.10 
  10   2   3    0.08    0.09 
   9  -3  -3    0.45    0.10 
   9  -3  -3    0.36    0.11 
   8  -3  -3    2.40    0.18 
   8  -3  -3    2.39    0.16 
   7  -3  -3    6.23    0.22 
   7  -3  -3    6.25    0.24 
   6  -3  -3    2.64    0.14 
   6  -3  -3    2.51    0.13 
   6  -3  -3    2.64    0.14 
   6  -3  -3    2.61    0.13 
  -6   3   3    2.65    0.09 
   5  -3  -3    0.27    0.06 
   5  -3  -3    0.23    0.05 
   5  -3  -3    0.17    0.04 
   5  -3  -3    0.26    0.05 
   4  -3  -3   21.72    0.38 
   4  -3  -3   22.20    0.39 
   4  -3  -3   22.25    0.39 
   3  -3  -3    4.37    0.11 
   3  -3  -3    4.38    0.11 
   3  -3  -3    4.21    0.11 
   2  -3  -3   84.59    1.19 
   2  -3  -3   86.50    1.19 
   1  -3  -3   66.03    0.93 
   0  -3  -3   18.39    0.30 
   0  -3  -3   18.02    0.30 
   0  -3  -3   18.71    0.30 
   0  -3  -3   17.94    0.30 
   0   3   3   18.72    0.29 
  -1  -3  -3  101.16    1.45 
  -1  -3  -3   99.52    1.45 
  -1  -3  -3  100.56    1.39 
  -1  -3  -3  100.85    1.44 
  -1  -3  -3  100.52    1.45 
   1   3   3  102.90    1.44 
   1   3   3  101.89    1.44 
   1   3   3  100.09    1.45 
   1   3   3  100.50    1.44 
  -2  -3  -3    0.64    0.06 
  -2  -3  -3    0.70    0.06 
  -2  -3  -3    0.56    0.06 
   2   3   3    0.72    0.06 
   2   3   3    0.79    0.06 
   2   3   3    0.76    0.03 
   2   3   3    0.74    0.06 
   2   3   3    0.68    0.06 
  -3  -3  -3   30.15    0.54 
  -3  -3  -3   30.81    0.55 
  -3  -3  -3   31.20    0.54 
  -3  -3  -3   31.35    0.56 
   3   3   3   30.27    0.54 
   3   3   3   30.34    0.54 
   3   3   3   29.50    0.55 
   3   3   3   30.32    0.54 
   3   3   3   30.02    0.49 
  -4  -3  -3    8.18    0.24 
  -4  -3  -3    8.25    0.23 
  -4  -3  -3    8.33    0.24 
  -4  -3  -3    8.06    0.24 
   4   3   3    7.74    0.24 
   4   3   3    7.82    0.23 
   4   3   3    8.66    0.24 
   4   3   3    7.91    0.24 
  -5  -3  -3    2.39    0.15 
   5   3   3    2.40    0.15 
   5   3   3    2.76    0.15 
  -6  -3  -3   13.98    0.37 
   6   3   3   14.40    0.41 
   6   3   3   14.09    0.39 
   6   3   3   14.84    0.39 
  -7  -3  -3   13.30    0.38 
   7   3   3   12.37    0.38 
   7   3   3   13.29    0.42 
  -8  -3  -3    1.98    0.17 
   8   3   3    2.24    0.21 
  -9  -3  -3    0.07    0.08 
   9   3   3   -0.01    0.09 
  10   3   3    0.14    0.11 
  10   3   3    0.17    0.10 
   8  -4  -3    2.64    0.17 
   8  -4  -3    2.27    0.18 
   7  -4  -3    0.99    0.12 
   7  -4  -3    1.18    0.11 
   6  -4  -3    0.31    0.06 
   6  -4  -3    0.40    0.07 
   6  -4  -3    0.35    0.07 
   5  -4  -3    0.01    0.04 
   5  -4  -3   -0.04    0.03 
   5  -4  -3    0.00    0.03 
   4  -4  -3    0.26    0.04 
   4  -4  -3    0.22    0.04 
   4  -4  -3    0.20    0.04 
   3  -4  -3    0.62    0.05 
   3  -4  -3    0.63    0.05 
   3  -4  -3    0.52    0.05 
   2  -4  -3   34.90    0.53 
   2  -4  -3   34.77    0.53 
   2  -4  -3   34.10    0.53 
   1  -4  -3  106.83    1.51 
   1  -4  -3  105.05    1.51 
   1  -4  -3  107.34    1.51 
  -1   4   3  108.31    1.48 
   0  -4  -3    1.96    0.08 
   0  -4  -3    2.13    0.08 
   0  -4  -3    2.10    0.08 
   0   4   3    2.06    0.06 
   0   4   3    2.10    0.07 
   0   4   3    2.03    0.06 
  -1  -4  -3   36.86    0.55 
  -1  -4  -3   37.05    0.60 
  -1  -4  -3   36.46    0.60 
  -1  -4  -3   36.93    0.60 
   1   4   3   37.12    0.58 
   1   4   3   36.87    0.59 
   1   4   3   36.92    0.59 
   1   4   3   36.85    0.59 
  -2  -4  -3    6.30    0.13 
  -2  -4  -3    6.23    0.18 
  -2  -4  -3    6.37    0.18 
  -2  -4  -3    6.37    0.18 
   2   4   3    6.46    0.18 
   2   4   3    6.42    0.18 
   2   4   3    6.36    0.18 
   2   4   3    6.30    0.12 
   2   4   3    6.45    0.17 
  -3  -4  -3    1.29    0.10 
  -3  -4  -3    1.29    0.10 
  -3  -4  -3    1.30    0.10 
   3   4   3    1.28    0.10 
   3   4   3    1.87    0.11 
   3   4   3    1.23    0.09 
   3   4   3    1.33    0.07 
   3   4   3    1.25    0.09 
  -4  -4  -3    0.29    0.07 
  -4  -4  -3    0.27    0.06 
  -4  -4  -3    0.21    0.06 
   4   4   3    0.22    0.06 
   4   4   3    0.38    0.07 
   4   4   3    0.45    0.05 
   4   4   3    0.30    0.07 
   4   4   3    0.31    0.06 
  -5  -4  -3   13.69    0.35 
  -5  -4  -3   13.75    0.34 
   5   4   3   13.61    0.37 
   5   4   3   13.42    0.35 
   5   4   3   13.50    0.32 
   5   4   3   13.30    0.35 
  -6  -4  -3   19.86    0.46 
   6   4   3   18.84    0.45 
   6   4   3   20.34    0.51 
   6   4   3   20.22    0.54 
   6   4   3   19.06    0.48 
  -7  -4  -3    7.22    0.28 
   7   4   3    7.19    0.31 
   7   4   3    7.78    0.33 
   7   4   3    7.71    0.29 
  -8  -4  -3    0.27    0.09 
   8   4   3    0.27    0.10 
   8   4   3    0.45    0.12 
  -9  -4  -3    0.22    0.09 
   9   4   3    0.04    0.10 
   9   4   3    0.15    0.10 
  10   4   3   -0.04    0.09 
  10   4   3    0.17    0.12 
   8  -5  -3    0.71    0.12 
   8  -5  -3    0.52    0.10 
   7  -5  -3    6.14    0.25 
   7  -5  -3    5.84    0.23 
   6  -5  -3    2.16    0.13 
   6  -5  -3    2.28    0.15 
   5  -5  -3    0.28    0.06 
   5  -5  -3    0.21    0.05 
   5  -5  -3    0.21    0.05 
   4  -5  -3   25.14    0.47 
   4  -5  -3   25.12    0.46 
   4  -5  -3   24.91    0.46 
   3  -5  -3    3.49    0.12 
   3  -5  -3    3.28    0.12 
   3  -5  -3    3.30    0.12 
   2  -5  -3   32.77    0.54 
   2  -5  -3   32.71    0.54 
   2  -5  -3   32.78    0.54 
   2  -5  -3   33.15    0.54 
  -2   5   3   33.01    0.50 
   1  -5  -3    9.13    0.21 
   1  -5  -3    9.41    0.21 
   1  -5  -3    9.63    0.21 
  -1   5   3    9.23    0.18 
   0  -5  -3  106.19    1.58 
   0  -5  -3  108.47    1.58 
   0  -5  -3  107.82    1.57 
   0   5   3  110.16    1.55 
   0   5   3  108.80    1.55 
   0   5   3  108.96    1.56 
   0   5   3  107.85    1.54 
  -1  -5  -3   17.32    0.35 
  -1  -5  -3   17.35    0.30 
  -1  -5  -3   16.80    0.35 
  -1  -5  -3   17.07    0.34 
   1   5   3   17.04    0.34 
   1   5   3   17.74    0.33 
   1   5   3   17.11    0.34 
   1   5   3   17.58    0.33 
  -2  -5  -3    0.08    0.03 
  -2  -5  -3    0.10    0.04 
  -2  -5  -3    0.11    0.04 
  -2  -5  -3    0.06    0.04 
   2   5   3    0.08    0.03 
   2   5   3    0.05    0.04 
   2   5   3    0.19    0.04 
   2   5   3    0.02    0.04 
  -3  -5  -3   17.07    0.38 
  -3  -5  -3   17.56    0.38 
  -3  -5  -3   16.99    0.39 
  -3  -5  -3   17.36    0.33 
   3   5   3   17.47    0.32 
   3   5   3   17.76    0.38 
   3   5   3   17.04    0.39 
   3   5   3   16.87    0.38 
   3   5   3   17.26    0.42 
  -4  -5  -3    0.25    0.06 
  -4  -5  -3    0.10    0.05 
   4   5   3    0.20    0.06 
   4   5   3    0.23    0.06 
   4   5   3    0.12    0.05 
   4   5   3    0.18    0.04 
  -5  -5  -3    2.12    0.15 
  -5  -5  -3    2.09    0.14 
   5   5   3    2.01    0.14 
   5   5   3    2.01    0.14 
   5   5   3    2.27    0.12 
   5   5   3    1.93    0.15 
  -6  -5  -3   -0.02    0.06 
  -6  -5  -3    0.11    0.07 
   6   5   3    0.18    0.08 
   6   5   3    0.22    0.09 
   6   5   3    0.21    0.06 
  -7  -5  -3    8.57    0.31 
   7   5   3    8.90    0.36 
   7   5   3    8.68    0.31 
  -8  -5  -3   -0.12    0.06 
   8   5   3   -0.17    0.08 
   8   5   3    0.02    0.07 
  -9  -5  -3   -0.16    0.08 
   9   5   3   -0.12    0.09 
   9   5   3   -0.02    0.08 
 -10  -5  -3    0.48    0.13 
  10   5   3    0.29    0.12 
  10   5   3    0.43    0.14 
   7  -6  -3    3.31    0.20 
   7  -6  -3    3.28    0.18 
   6  -6  -3    7.13    0.25 
   5  -6  -3    2.46    0.15 
   5  -6  -3    2.48    0.14 
   4  -6  -3    0.05    0.05 
   4  -6  -3    0.05    0.05 
   4  -6  -3   -0.01    0.04 
   3  -6  -3    1.97    0.11 
   3  -6  -3    2.04    0.11 
   3  -6  -3    1.77    0.11 
   3  -6  -3    1.97    0.11 
   2  -6  -3   29.46    0.53 
   2  -6  -3   29.14    0.53 
   2  -6  -3   30.19    0.52 
   2  -6  -3   29.95    0.53 
  -2   6   3   29.79    0.48 
   1  -6  -3    0.58    0.07 
   1  -6  -3    0.55    0.06 
   1  -6  -3    0.45    0.06 
  -1   6   3    0.58    0.05 
   0  -6  -3   14.87    0.33 
   0  -6  -3   15.73    0.34 
   0  -6  -3   15.30    0.33 
   0   6   3   15.06    0.29 
   0   6   3   15.73    0.31 
   0   6   3   15.65    0.30 
  -1  -6  -3   81.49    1.25 
  -1  -6  -3   78.90    1.25 
  -1  -6  -3   80.97    1.19 
  -1  -6  -3   80.62    1.24 
   1   6   3   80.83    1.22 
   1   6   3   80.58    1.23 
   1   6   3   80.29    1.23 
  -2  -6  -3    2.15    0.12 
  -2  -6  -3    2.21    0.13 
  -2  -6  -3    2.11    0.13 
  -2  -6  -3    2.03    0.10 
   2   6   3    2.01    0.12 
   2   6   3    2.22    0.12 
   2   6   3    2.08    0.12 
  -3  -6  -3   18.40    0.42 
  -3  -6  -3   18.43    0.41 
  -3  -6  -3   18.17    0.42 
  -3  -6  -3   18.11    0.36 
   3   6   3   17.96    0.41 
   3   6   3   17.57    0.34 
   3   6   3   18.63    0.41 
   3   6   3   18.15    0.42 
  -4  -6  -3    3.68    0.18 
  -4  -6  -3    3.79    0.18 
   4   6   3    3.99    0.19 
   4   6   3    3.55    0.14 
   4   6   3    3.66    0.18 
   4   6   3    3.90    0.18 
  -5  -6  -3    0.37    0.08 
  -5  -6  -3    0.32    0.08 
   5   6   3    0.33    0.08 
   5   6   3    0.45    0.07 
  -6  -6  -3    0.32    0.08 
  -6  -6  -3    0.32    0.09 
   6   6   3    0.40    0.07 
   6   6   3    0.41    0.10 
  -7  -6  -3    2.47    0.19 
  -7  -6  -3    2.85    0.20 
   7   6   3    3.26    0.24 
   7   6   3    2.75    0.18 
  -8  -6  -3    2.98    0.21 
   8   6   3    3.10    0.21 
   8   6   3    3.43    0.26 
  -9  -6  -3    0.85    0.14 
   9   6   3    0.91    0.17 
   9   6   3    0.83    0.14 
 -10  -6  -3    0.44    0.12 
  10   6   3    0.49    0.15 
   7  -7  -3    0.44    0.10 
   7  -7  -3    0.67    0.11 
   6  -7  -3    2.69    0.17 
   5  -7  -3    2.68    0.16 
   4  -7  -3   17.57    0.40 
   4  -7  -3   17.55    0.41 
   4  -7  -3   16.30    0.38 
   3  -7  -3    2.58    0.14 
   3  -7  -3    2.72    0.13 
   3  -7  -3    2.82    0.15 
   3  -7  -3    2.52    0.14 
  -3   7   3    2.54    0.10 
   2  -7  -3    0.03    0.05 
   2  -7  -3    0.02    0.04 
   2  -7  -3    0.07    0.05 
   2  -7  -3    0.07    0.05 
  -2   7   3    0.11    0.04 
   1  -7  -3    4.19    0.17 
   1  -7  -3    4.12    0.17 
   1  -7  -3    4.08    0.17 
  -1   7   3    4.11    0.13 
  -1   7   3    4.16    0.14 
   0  -7  -3   49.76    0.85 
   0  -7  -3   49.55    0.85 
   0  -7  -3   49.92    0.84 
   0   7   3   49.86    0.81 
   0   7   3   51.10    0.82 
  -1  -7  -3    9.38    0.27 
  -1  -7  -3    9.25    0.23 
  -1  -7  -3    9.17    0.27 
  -1  -7  -3    9.41    0.27 
   1   7   3    9.73    0.26 
   1   7   3    9.27    0.25 
  -2  -7  -3    6.95    0.23 
  -2  -7  -3    6.97    0.20 
  -2  -7  -3    6.48    0.23 
  -2  -7  -3    6.77    0.24 
   2   7   3    6.75    0.22 
   2   7   3    6.17    0.22 
  -3  -7  -3    1.73    0.14 
  -3  -7  -3    1.62    0.14 
  -3  -7  -3    1.58    0.21 
  -3  -7  -3    1.71    0.11 
   3   7   3    1.73    0.09 
   3   7   3    1.60    0.13 
  -4  -7  -3    2.02    0.16 
  -4  -7  -3    2.25    0.15 
  -4  -7  -3    2.04    0.12 
   4   7   3    2.02    0.16 
   4   7   3    2.08    0.11 
  -5  -7  -3    0.53    0.10 
  -5  -7  -3    0.47    0.09 
   5   7   3    0.43    0.07 
   5   7   3    0.49    0.10 
  -6  -7  -3    1.65    0.16 
  -6  -7  -3    1.96    0.17 
   6   7   3    2.26    0.19 
   6   7   3    1.80    0.13 
  -7  -7  -3    0.71    0.12 
  -7  -7  -3    0.56    0.12 
   7   7   3    0.59    0.10 
   7   7   3    0.53    0.13 
  -8  -7  -3    4.68    0.26 
  -8  -7  -3    4.63    0.27 
   8   7   3    4.41    0.25 
   8   7   3    5.05    0.32 
  -9  -7  -3    0.03    0.09 
   9   7   3    0.06    0.08 
   9   7   3    0.08    0.10 
   6  -8  -3    3.25    0.22 
   6  -8  -3    3.08    0.19 
   5  -8  -3    2.61    0.18 
   5  -8  -3    2.36    0.16 
   4  -8  -3    0.51    0.09 
   4  -8  -3    0.47    0.09 
   3  -8  -3    0.39    0.08 
   3  -8  -3    0.41    0.08 
   3  -8  -3    0.35    0.07 
   2  -8  -3    3.72    0.18 
   2  -8  -3    3.41    0.16 
   2  -8  -3    3.65    0.17 
   2  -8  -3    3.66    0.17 
  -2   8   3    3.28    0.11 
   1  -8  -3   -0.03    0.05 
   1  -8  -3   -0.11    0.04 
   1  -8  -3   -0.04    0.05 
   1  -8  -3   -0.05    0.04 
  -1   8   3   -0.08    0.03 
   0  -8  -3   16.15    0.41 
   0  -8  -3   16.42    0.40 
   0  -8  -3   16.96    0.40 
   0   8   3   16.43    0.36 
  -1  -8  -3   18.64    0.45 
  -1  -8  -3   18.15    0.44 
  -1  -8  -3   18.88    0.44 
   1   8   3   18.45    0.41 
  -2  -8  -3   -0.01    0.05 
  -2  -8  -3   -0.12    0.04 
  -2  -8  -3   -0.05    0.05 
   2   8   3    0.08    0.06 
  -3  -8  -3    0.45    0.09 
  -3  -8  -3    0.45    0.10 
   3   8   3    0.43    0.09 
  -4  -8  -3    1.46    0.15 
  -4  -8  -3    1.36    0.14 
   4   8   3    1.44    0.15 
   4   8   3    1.46    0.10 
  -5  -8  -3    0.11    0.08 
  -5  -8  -3   -0.04    0.06 
   5   8   3    0.06    0.05 
   5   8   3   -0.05    0.06 
  -6  -8  -3    0.65    0.12 
  -6  -8  -3    0.88    0.13 
   6   8   3    0.65    0.14 
   6   8   3    0.63    0.10 
  -7  -8  -3    1.38    0.17 
  -7  -8  -3    1.07    0.14 
   7   8   3    1.58    0.20 
   7   8   3    1.38    0.14 
  -8  -8  -3    2.68    0.22 
  -8  -8  -3    2.77    0.24 
   8   8   3    3.45    0.29 
   8   8   3    3.05    0.21 
  -9  -8  -3    0.37    0.12 
   9   8   3    0.51    0.12 
   9   8   3    0.51    0.15 
   6  -9  -3    1.52    0.18 
   6  -9  -3    1.33    0.15 
   5  -9  -3    8.55    0.31 
   5  -9  -3    9.59    0.35 
   4  -9  -3    0.19    0.08 
   4  -9  -3    0.19    0.08 
   3  -9  -3    0.05    0.06 
   3  -9  -3    0.04    0.06 
   2  -9  -3    0.01    0.05 
   2  -9  -3   -0.01    0.05 
   2  -9  -3    0.10    0.06 
  -2   9   3    0.03    0.02 
   1  -9  -3    2.18    0.14 
   1  -9  -3    2.31    0.17 
   1  -9  -3    2.37    0.15 
   1  -9  -3    2.14    0.15 
  -1   9   3    2.17    0.12 
   0  -9  -3    1.57    0.15 
   0  -9  -3    1.29    0.13 
   0  -9  -3    1.51    0.16 
   0   9   3    1.50    0.11 
  -1  -9  -3    2.71    0.20 
  -1  -9  -3    2.66    0.18 
  -1  -9  -3    2.73    0.18 
   1   9   3    2.81    0.16 
  -2  -9  -3   15.01    0.42 
  -2  -9  -3   15.43    0.44 
   2   9   3   15.03    0.40 
  -3  -9  -3    1.69    0.18 
  -3  -9  -3    1.39    0.15 
   3   9   3    1.44    0.15 
  -4  -9  -3   -0.02    0.07 
  -4  -9  -3    0.03    0.08 
   4   9   3    0.16    0.05 
   4   9   3    0.02    0.07 
  -5  -9  -3    1.17    0.15 
  -5  -9  -3    1.29    0.17 
   5   9   3    1.28    0.12 
   5   9   3    1.15    0.17 
  -6  -9  -3    0.03    0.08 
  -6  -9  -3   -0.11    0.07 
   6   9   3    0.03    0.05 
   6   9   3    0.13    0.10 
  -7  -9  -3    0.06    0.09 
  -7  -9  -3   -0.05    0.08 
   7   9   3    0.11    0.07 
   7   9   3    0.07    0.11 
  -8  -9  -3    0.09    0.10 
  -8  -9  -3    0.08    0.10 
   8   9   3    0.05    0.11 
   8   9   3    0.07    0.08 
   5 -10  -3    2.04    0.20 
   5 -10  -3    1.74    0.18 
   4 -10  -3    0.38    0.11 
   4 -10  -3    0.31    0.09 
   3 -10  -3    0.02    0.07 
   3 -10  -3    0.13    0.08 
   2 -10  -3    0.12    0.08 
   2 -10  -3    0.18    0.08 
   1 -10  -3    0.26    0.12 
   1 -10  -3    0.12    0.07 
   1 -10  -3    0.34    0.09 
  -1  10   3    0.34    0.07 
   0 -10  -3    0.38    0.10 
   0 -10  -3    0.39    0.09 
   0  10   3    0.40    0.07 
  -1 -10  -3    0.16    0.08 
  -1 -10  -3    0.23    0.09 
   1  10   3    0.10    0.06 
  -2 -10  -3    2.15    0.19 
  -2 -10  -3    2.54    0.21 
   2  10   3    2.06    0.17 
  -3 -10  -3    4.48    0.27 
  -3 -10  -3    4.40    0.25 
   3  10   3    4.08    0.24 
  -4 -10  -3    0.07    0.09 
  -4 -10  -3    0.20    0.10 
   4  10   3    0.06    0.08 
  -5 -10  -3    0.54    0.14 
  -5 -10  -3    0.67    0.13 
   5  10   3    0.55    0.12 
   5  10   3    0.43    0.08 
  -6 -10  -3    0.24    0.12 
  -6 -10  -3    0.18    0.11 
   6  10   3    0.18    0.12 
   6  10   3    0.16    0.07 
  -7 -10  -3    0.38    0.13 
  -7 -10  -3    0.20    0.10 
   7  10   3    0.29    0.09 
   7  10   3    0.41    0.15 
  -8 -10  -3    0.28    0.12 
   8  10   3    0.58    0.16 
   8  10   3    0.21    0.09 
   4 -11  -3    0.89    0.15 
   4 -11  -3    0.94    0.14 
   3 -11  -3    0.45    0.11 
   3 -11  -3    0.16    0.10 
   2 -11  -3    0.17    0.09 
   2 -11  -3    0.23    0.11 
   1 -11  -3    0.05    0.08 
   1 -11  -3    0.03    0.08 
   0 -11  -3    0.54    0.13 
   0 -11  -3    0.53    0.11 
  -1 -11  -3    0.12    0.09 
  -1 -11  -3    0.36    0.11 
   1  11   3    0.19    0.07 
  -2 -11  -3    3.03    0.24 
  -2 -11  -3    2.87    0.22 
   2  11   3    2.82    0.19 
  -3 -11  -3    2.81    0.25 
  -3 -11  -3    2.66    0.22 
   3  11   3    2.41    0.20 
  -4 -11  -3   -0.04    0.09 
  -4 -11  -3    0.08    0.11 
   4  11   3    0.05    0.10 
  -5 -11  -3    0.32    0.12 
  -5 -11  -3    0.52    0.15 
   5  11   3    0.50    0.13 
  -6 -11  -3    0.15    0.12 
  -6 -11  -3    0.16    0.10 
   6  11   3    0.41    0.13 
   6  11   3    0.20    0.08 
  -7 -11  -3   -0.03    0.09 
  -7 -11  -3    0.02    0.11 
   7  11   3    0.05    0.07 
   7  11   3    0.14    0.12 
   2 -12  -3    0.05    0.10 
   2 -12  -3   -0.09    0.08 
   1 -12  -3   -0.03    0.10 
   1 -12  -3    0.01    0.08 
   0 -12  -3    0.02    0.10 
   0 -12  -3   -0.01    0.08 
  -1 -12  -3    1.70    0.20 
  -1 -12  -3    1.40    0.19 
  -2 -12  -3    0.00    0.09 
  -2 -12  -3   -0.09    0.09 
   2  12   3   -0.01    0.07 
  -3 -12  -3    0.97    0.15 
  -3 -12  -3    1.04    0.16 
   3  12   3    1.17    0.15 
  -4 -12  -3    0.17    0.10 
  -4 -12  -3    0.08    0.12 
   4  12   3   -0.04    0.10 
  -5 -12  -3    1.15    0.18 
  -5 -12  -3    1.53    0.21 
   5  12   3    1.46    0.21 
  -6 -12  -3    0.49    0.16 
  -6 -12  -3    0.50    0.14 
   6  12   3    0.55    0.16 
   0 -13  -3    0.60    0.14 
   0 -13  -3    0.66    0.16 
  -1 -13  -3    0.00    0.10 
  -1 -13  -3   -0.05    0.10 
  -2 -13  -3    0.16    0.12 
  -2 -13  -3    0.13    0.11 
  -3 -13  -3    0.41    0.15 
  -3 -13  -3    0.47    0.14 
  -4 -13  -3    0.69    0.18 
  -4 -13  -3    0.58    0.15 
   4  13   3    0.29    0.12 
   3  11  -4    0.10    0.11 
   2  11  -4    0.31    0.13 
  -2 -11   4   -0.07    0.11 
  -2 -11   4    0.28    0.14 
   1  11  -4    0.02    0.10 
  -1 -11   4    0.32    0.15 
  -1 -11   4    0.25    0.14 
   0  11  -4   -0.01    0.10 
   0 -11   4    0.14    0.13 
   0 -11   4    0.02    0.11 
   1 -11   4    0.04    0.12 
   5  10  -4    1.19    0.22 
   5  10  -4    0.88    0.17 
  -5 -10   4    0.82    0.16 
   4  10  -4    0.87    0.15 
  -4 -10   4    1.24    0.19 
   3  10  -4   -0.05    0.09 
   3  10  -4    0.10    0.10 
  -3 -10   4    0.00    0.10 
  -3 -10   4    0.01    0.12 
   2  10  -4    0.40    0.12 
  -2 -10   4    0.33    0.14 
  -2 -10   4    0.13    0.11 
   1  10  -4    1.99    0.20 
  -1 -10   4    1.92    0.22 
  -1 -10   4    2.20    0.23 
   0  10  -4    0.34    0.13 
   0 -10   4    0.44    0.14 
   0 -10   4    0.38    0.13 
  -1  10  -4    2.08    0.23 
   1 -10   4    1.47    0.21 
   1 -10   4    1.58    0.20 
  -2  10  -4    0.38    0.12 
   2 -10   4    0.32    0.13 
   2 -10   4    0.35    0.14 
  -3  10  -4    0.26    0.10 
   3 -10   4    0.40    0.14 
   3 -10   4    0.48    0.17 
   6   9  -4    0.08    0.13 
   6   9  -4    0.19    0.12 
  -6  -9   4    0.16    0.13 
   5   9  -4    0.75    0.15 
   5   9  -4    0.39    0.14 
  -5  -9   4    0.47    0.13 
   4   9  -4    0.21    0.11 
   4   9  -4    0.26    0.11 
  -4  -9   4    0.36    0.12 
   3   9  -4    0.46    0.12 
   3   9  -4    0.48    0.13 
  -3  -9   4    0.90    0.15 
  -3  -9   4    0.38    0.12 
   2   9  -4    0.07    0.08 
  -2  -9   4    0.14    0.11 
  -2  -9   4   -0.05    0.07 
   1   9  -4   -0.04    0.07 
  -1  -9   4   -0.06    0.09 
  -1  -9   4    0.10    0.10 
   0   9  -4   -0.02    0.07 
   0  -9   4    0.02    0.10 
   0  -9   4    0.04    0.09 
  -1   9  -4    0.16    0.09 
   1  -9   4   -0.01    0.09 
   1  -9   4    0.06    0.09 
  -2   9  -4    0.52    0.14 
   2  -9   4    0.44    0.13 
   2  -9   4    0.29    0.12 
  -3   9  -4    7.37    0.34 
   3  -9   4    6.43    0.35 
   3  -9   4    7.84    0.40 
  -4   9  -4    0.01    0.09 
   4  -9   4    0.31    0.14 
   4  -9   4    0.05    0.11 
   7   8  -4   -0.08    0.11 
   7   8  -4    0.01    0.11 
   6   8  -4    0.22    0.12 
   6   8  -4    0.32    0.15 
  -6  -8   4    0.32    0.11 
   5   8  -4   -0.02    0.09 
   5   8  -4   -0.01    0.10 
  -5  -8   4   -0.10    0.08 
   4   8  -4    6.08    0.31 
   4   8  -4    6.37    0.34 
  -4  -8   4    5.91    0.29 
  -4  -8   4    5.71    0.29 
   3   8  -4    2.73    0.22 
   3   8  -4    3.12    0.24 
  -3  -8   4    3.09    0.22 
  -3  -8   4    2.50    0.22 
   2   8  -4    0.16    0.07 
   2   8  -4    0.04    0.08 
  -2  -8   4    0.24    0.09 
  -2  -8   4    0.34    0.10 
   1   8  -4    0.12    0.07 
  -1  -8   4    0.15    0.09 
  -1  -8   4    0.00    0.07 
   0   8  -4    3.08    0.21 
   0  -8   4    2.99    0.22 
   0  -8   4    2.84    0.22 
  -1   8  -4    0.00    0.06 
   1  -8   4    0.06    0.08 
   1  -8   4    0.00    0.08 
  -2   8  -4    0.43    0.12 
   2  -8   4    0.38    0.12 
   2  -8   4    0.28    0.11 
  -3   8  -4    2.45    0.21 
   3  -8   4    2.07    0.21 
   3  -8   4    2.36    0.22 
  -4   8  -4    1.65    0.18 
   4  -8   4    2.13    0.23 
   4  -8   4    1.48    0.20 
  -5   8  -4    0.00    0.11 
   5  -8   4    0.16    0.10 
   5  -8   4   -0.02    0.10 
   7   7  -4    1.46    0.20 
   7   7  -4    1.39    0.20 
   6   7  -4    0.44    0.13 
   6   7  -4    0.28    0.13 
  -6  -7   4    0.75    0.13 
   5   7  -4    0.72    0.14 
   5   7  -4    0.69    0.15 
  -5  -7   4    0.73    0.13 
  -5  -7   4    0.66    0.18 
   4   7  -4    0.14    0.10 
   4   7  -4    0.16    0.09 
  -4  -7   4    0.10    0.08 
  -4  -7   4    0.06    0.07 
   3   7  -4    1.79    0.20 
   3   7  -4    1.75    0.18 
  -3  -7   4    1.27    0.14 
  -3  -7   4    1.51    0.16 
   2   7  -4    0.11    0.07 
   2   7  -4    0.03    0.07 
  -2  -7   4    0.13    0.08 
  -2  -7   4    0.01    0.06 
   1   7  -4    0.84    0.12 
   1   7  -4    1.03    0.13 
  -1  -7   4    1.10    0.14 
  -1  -7   4    1.27    0.14 
   0   7  -4    1.68    0.18 
   0  -7   4    1.82    0.19 
   0  -7   4    1.64    0.17 
  -1   7  -4    1.62    0.16 
   1  -7   4    1.27    0.15 
   1  -7   4    1.71    0.17 
  -2   7  -4    1.30    0.15 
   2  -7   4    1.03    0.14 
   2  -7   4    1.64    0.18 
  -3   7  -4    4.00    0.23 
   3  -7   4    4.23    0.26 
   3  -7   4    4.00    0.24 
  -4   7  -4    3.45    0.22 
   4  -7   4    3.52    0.23 
   4  -7   4    3.50    0.26 
  -5   7  -4    0.26    0.09 
  -5   7  -4    0.03    0.07 
   5  -7   4    0.17    0.11 
   5  -7   4   -0.05    0.08 
  -6   7  -4    0.88    0.21 
   6  -7   4    0.90    0.17 
   6  -7   4    0.69    0.14 
   8   6  -4    0.52    0.17 
   8   6  -4    0.46    0.13 
   7   6  -4   -0.01    0.11 
   7   6  -4   -0.06    0.09 
   6   6  -4   -0.01    0.08 
   6   6  -4   -0.03    0.09 
  -6  -6   4   -0.01    0.07 
   5   6  -4    3.45    0.25 
   5   6  -4    3.70    0.25 
  -5  -6   4    3.82    0.22 
  -5  -6   4    4.32    0.23 
   4   6  -4    2.36    0.19 
   4   6  -4    2.42    0.22 
   4   6  -4    2.56    0.21 
  -4  -6   4    2.16    0.18 
  -4  -6   4    2.25    0.18 
   3   6  -4   29.26    0.65 
   3   6  -4   28.32    0.64 
   3   6  -4   30.53    0.68 
  -3  -6   4   29.39    0.64 
  -3  -6   4   28.90    0.64 
   2   6  -4   13.45    0.40 
   2   6  -4   12.80    0.38 
   2   6  -4   13.02    0.38 
  -2  -6   4   13.16    0.38 
  -2  -6   4   13.07    0.39 
   1   6  -4    7.36    0.28 
   1   6  -4    7.80    0.27 
   1   6  -4    7.70    0.27 
  -1  -6   4    8.13    0.29 
  -1  -6   4    7.92    0.29 
   0   6  -4   16.08    0.43 
   0  -6   4   16.88    0.45 
   0  -6   4   16.20    0.44 
  -1   6  -4   23.37    0.55 
   1  -6   4   23.21    0.56 
   1  -6   4   24.01    0.56 
  -2   6  -4    1.86    0.17 
   2  -6   4    1.92    0.18 
   2  -6   4    2.00    0.17 
  -3   6  -4    0.03    0.08 
  -3   6  -4    0.32    0.09 
   3  -6   4    0.08    0.08 
   3  -6   4    0.27    0.10 
  -4   6  -4    4.92    0.25 
  -4   6  -4    5.18    0.25 
   4  -6   4    5.23    0.28 
   4  -6   4    5.09    0.26 
  -5   6  -4    0.13    0.09 
  -5   6  -4   -0.05    0.07 
   5  -6   4    0.02    0.07 
   5  -6   4   -0.03    0.08 
  -6   6  -4    0.29    0.10 
  -6   6  -4    0.35    0.10 
   6  -6   4    0.45    0.12 
   6  -6   4    0.24    0.10 
   7  -6   4    2.36    0.24 
   7  -6   4    1.86    0.21 
   7  -6   4    2.64    0.25 
   8   5  -4    0.13    0.11 
   8   5  -4    0.03    0.13 
   7   5  -4    0.16    0.12 
   7   5  -4    0.09    0.10 
   6   5  -4    0.58    0.13 
   6   5  -4    0.82    0.15 
   6   5  -4    0.74    0.13 
  -6  -5   4    0.51    0.09 
   5   5  -4    4.07    0.26 
   5   5  -4    4.03    0.21 
   5   5  -4    4.09    0.22 
   5   5  -4    4.21    0.24 
  -5  -5   4    4.20    0.20 
  -5  -5   4    4.37    0.20 
   4   5  -4    0.12    0.10 
   4   5  -4    0.28    0.08 
   4   5  -4    0.36    0.09 
   4   5  -4    0.41    0.09 
  -4  -5   4    0.37    0.08 
  -4  -5   4    0.29    0.08 
   3   5  -4    0.21    0.08 
   3   5  -4    0.28    0.07 
   3   5  -4    0.16    0.07 
   3   5  -4    0.12    0.08 
  -3  -5   4    0.24    0.07 
  -3  -5   4    0.32    0.07 
   2   5  -4   12.51    0.34 
   2   5  -4   13.16    0.37 
   2   5  -4   12.88    0.36 
   2   5  -4   12.95    0.35 
  -2  -5   4   11.90    0.34 
  -2  -5   4   12.13    0.35 
   1   5  -4    0.78    0.10 
   1   5  -4    0.93    0.10 
   1   5  -4    0.98    0.13 
   1   5  -4    1.03    0.11 
  -1  -5   4    0.90    0.11 
  -1  -5   4    0.99    0.11 
   0   5  -4    1.71    0.13 
   0   5  -4    1.96    0.16 
   0   5  -4    2.14    0.14 
   0   5  -4    1.98    0.14 
   0  -5   4    2.22    0.16 
   0  -5   4    2.04    0.16 
  -1   5  -4    0.81    0.12 
  -1   5  -4    0.86    0.10 
   1  -5   4    1.11    0.13 
   1  -5   4    0.75    0.11 
   1  -5   4    0.63    0.10 
  -2   5  -4    3.13    0.18 
  -2   5  -4    3.18    0.18 
   2  -5   4    3.09    0.18 
   2  -5   4    3.08    0.19 
  -3   5  -4    0.31    0.08 
  -3   5  -4    0.20    0.07 
   3  -5   4    0.21    0.07 
   3  -5   4    0.28    0.08 
  -4   5  -4   11.29    0.35 
  -4   5  -4   10.98    0.35 
   4  -5   4   10.63    0.36 
   4  -5   4   10.63    0.37 
  -5   5  -4    7.79    0.30 
  -5   5  -4    7.83    0.30 
   5  -5   4    8.06    0.32 
   5  -5   4    8.00    0.34 
  -6   5  -4    1.76    0.17 
  -6   5  -4    1.53    0.17 
   6  -5   4    1.65    0.18 
  -7   5  -4    0.08    0.09 
  -7   5  -4    0.22    0.10 
   7  -5   4    0.21    0.10 
   7  -5   4    0.29    0.10 
   8  -5   4    0.69    0.15 
   8  -5   4    0.64    0.14 
   8   4  -4   -0.21    0.09 
   8   4  -4   -0.12    0.08 
   7   4  -4    0.91    0.14 
   7   4  -4    1.11    0.17 
   6   4  -4    0.20    0.08 
   6   4  -4    0.15    0.10 
   6   4  -4    0.19    0.10 
  -6  -4   4    0.04    0.05 
  -6  -4   4    0.26    0.07 
   5   4  -4    0.01    0.06 
   5   4  -4    0.06    0.06 
   5   4  -4    0.07    0.06 
   5   4  -4   -0.03    0.08 
  -5  -4   4    0.00    0.05 
  -5  -4   4    0.02    0.05 
   4   4  -4    0.31    0.10 
   4   4  -4    0.55    0.09 
   4   4  -4    0.39    0.08 
   4   4  -4    0.46    0.08 
  -4  -4   4    0.36    0.08 
  -4  -4   4    0.43    0.08 
   3   4  -4    0.94    0.11 
   3   4  -4    0.80    0.11 
   3   4  -4    0.78    0.09 
   3   4  -4    0.71    0.09 
  -3  -4   4    1.02    0.10 
  -3  -4   4    0.80    0.10 
   2   4  -4   10.76    0.29 
   2   4  -4   10.16    0.29 
   2   4  -4   10.61    0.31 
  -2  -4   4   10.64    0.30 
  -2  -4   4   10.77    0.29 
  -2  -4   4   10.96    0.30 
   1   4  -4   51.96    0.87 
   1   4  -4   49.47    0.87 
   1   4  -4   48.50    0.88 
   1   4  -4   51.50    0.87 
  -1  -4   4   51.13    0.85 
  -1  -4   4   50.90    0.88 
  -1  -4   4   51.13    0.88 
   0   4  -4    3.13    0.15 
   0   4  -4    3.00    0.14 
   0   4  -4    3.08    0.15 
   0   4  -4    3.24    0.16 
   0  -4   4    3.10    0.16 
   0  -4   4    3.08    0.15 
   0  -4   4    2.98    0.16 
  -1   4  -4   13.89    0.35 
  -1   4  -4   14.48    0.36 
  -1   4  -4   14.65    0.35 
   1  -4   4   14.05    0.36 
   1  -4   4   14.28    0.35 
   1  -4   4   14.61    0.36 
  -2   4  -4   16.67    0.40 
  -2   4  -4   16.91    0.39 
  -2   4  -4   16.18    0.40 
   2  -4   4   16.34    0.41 
   2  -4   4   16.15    0.38 
   2  -4   4   16.32    0.40 
  -3   4  -4    5.02    0.21 
  -3   4  -4    5.24    0.21 
   3  -4   4    5.30    0.23 
   3  -4   4    5.58    0.23 
   3  -4   4    5.50    0.21 
  -4   4  -4    8.87    0.30 
  -4   4  -4    9.01    0.30 
   4  -4   4    9.19    0.31 
  -5   4  -4    6.18    0.26 
  -5   4  -4    5.92    0.25 
   5  -4   4    6.07    0.26 
  -6   4  -4    0.52    0.10 
  -6   4  -4    0.49    0.11 
   6  -4   4    0.44    0.11 
   6  -4   4    0.53    0.11 
  -7   4  -4    0.10    0.07 
  -7   4  -4    0.36    0.10 
   7  -4   4    0.21    0.10 
   7  -4   4    0.16    0.09 
   8  -4   4    0.10    0.09 
   8  -4   4    0.29    0.12 
   9   3  -4    0.45    0.13 
   9   3  -4    0.61    0.18 
   8   3  -4    0.82    0.15 
   8   3  -4    0.92    0.19 
   7   3  -4    0.10    0.10 
   7   3  -4    0.09    0.08 
   6   3  -4    7.36    0.28 
   6   3  -4    7.61    0.30 
   6   3  -4    7.31    0.27 
   6   3  -4    7.84    0.35 
  -6  -3   4    7.07    0.24 
   5   3  -4   12.19    0.40 
   5   3  -4   11.76    0.34 
   5   3  -4   11.82    0.33 
   5   3  -4   12.13    0.35 
  -5  -3   4   12.18    0.29 
  -5  -3   4   11.74    0.31 
   4   3  -4   22.12    0.54 
   4   3  -4   22.03    0.48 
   4   3  -4   21.87    0.49 
   4   3  -4   21.91    0.47 
  -4  -3   4   21.78    0.45 
  -4  -3   4   22.61    0.44 
   3   3  -4   21.11    0.45 
   3   3  -4   20.50    0.48 
   3   3  -4   20.42    0.45 
   3   3  -4   20.52    0.43 
  -3  -3   4   20.20    0.43 
  -3  -3   4   20.53    0.42 
   2   3  -4    3.35    0.16 
   2   3  -4    3.42    0.15 
   2   3  -4    3.25    0.14 
   2   3  -4    3.34    0.16 
  -2  -3   4    3.25    0.14 
  -2  -3   4    3.43    0.14 
  -2  -3   4    3.36    0.15 
   1   3  -4    1.10    0.09 
   1   3  -4    0.53    0.07 
   1   3  -4    0.80    0.08 
  -1  -3   4    0.77    0.08 
  -1  -3   4    0.60    0.07 
   0   3  -4    2.84    0.14 
   0   3  -4    2.46    0.14 
   0   3  -4    3.14    0.14 
   0   3  -4    2.94    0.14 
   0   3  -4    3.01    0.14 
   0  -3   4    2.63    0.14 
   0  -3   4    3.04    0.14 
   0  -3   4    3.12    0.14 
   0  -3   4    3.08    0.13 
  -1   3  -4    8.81    0.26 
  -1   3  -4    8.84    0.25 
  -1   3  -4    9.06    0.25 
   1  -3   4    9.19    0.29 
   1  -3   4    8.71    0.25 
   1  -3   4    9.01    0.24 
   1  -3   4    9.26    0.26 
  -2   3  -4    0.03    0.04 
  -2   3  -4    0.02    0.04 
  -2   3  -4    0.08    0.05 
   2  -3   4    0.06    0.04 
   2  -3   4    0.04    0.04 
   2  -3   4    0.04    0.04 
  -3   3  -4    3.80    0.18 
  -3   3  -4    3.85    0.16 
  -3   3  -4    4.07    0.18 
   3  -3   4    3.82    0.17 
   3  -3   4    4.03    0.17 
  -4   3  -4    8.99    0.29 
  -4   3  -4    8.57    0.28 
   4  -3   4    8.77    0.27 
   4  -3   4    9.31    0.29 
  -5   3  -4   20.21    0.48 
  -5   3  -4   20.66    0.49 
   5  -3   4   20.42    0.50 
  -6   3  -4    2.62    0.18 
  -6   3  -4    2.49    0.17 
   6  -3   4    2.63    0.20 
   6  -3   4    2.91    0.19 
  -7   3  -4    2.59    0.19 
  -7   3  -4    2.74    0.19 
   7  -3   4    2.92    0.21 
   7  -3   4    2.73    0.22 
  -8   3  -4    0.13    0.08 
  -8   3  -4   -0.02    0.07 
   8  -3   4    0.09    0.08 
   8  -3   4    0.13    0.10 
   9  -3   4    0.09    0.10 
   9  -3   4    0.07    0.08 
   9   2  -4    0.19    0.15 
   9   2  -4    0.12    0.10 
   8   2  -4    1.75    0.20 
   8   2  -4    1.68    0.23 
   7   2  -4    0.02    0.10 
   7   2  -4    0.05    0.07 
   6   2  -4    2.87    0.17 
   6   2  -4    3.23    0.20 
   6   2  -4    3.00    0.17 
   6   2  -4    2.77    0.23 
  -6  -2   4    2.90    0.14 
   5   2  -4    3.28    0.22 
   5   2  -4    3.42    0.16 
   5   2  -4    3.19    0.16 
   5   2  -4    3.67    0.18 
  -5  -2   4    3.46    0.14 
   4   2  -4    3.37    0.15 
   4   2  -4    3.46    0.15 
   4   2  -4    3.24    0.16 
   4   2  -4    3.11    0.19 
  -4  -2   4    3.19    0.13 
  -4  -2   4    3.21    0.12 
   3   2  -4    7.36    0.23 
   3   2  -4    7.82    0.22 
   3   2  -4    7.73    0.22 
   3   2  -4    7.61    0.26 
  -3  -2   4    7.86    0.21 
  -3  -2   4    7.51    0.19 
  -3  -2   4    7.69    0.20 
  -3  -2   4    8.02    0.23 
   2   2  -4   10.90    0.27 
   2   2  -4   11.00    0.26 
   2   2  -4   10.60    0.26 
   2   2  -4   10.82    0.30 
  -2  -2   4   10.70    0.26 
  -2  -2   4   11.09    0.25 
  -2  -2   4   10.76    0.25 
   1   2  -4  251.64    3.60 
   1   2  -4  255.29    3.59 
   1   2  -4  251.73    3.61 
   1   2  -4  251.44    3.58 
  -1  -2   4  254.34    3.57 
  -1  -2   4  256.85    3.59 
  -1  -2   4  255.43    3.59 
  -1  -2   4  260.10    3.64 
  -1  -2   4  259.61    3.59 
   0   2  -4   55.20    0.88 
   0   2  -4   54.64    0.88 
   0   2  -4   55.04    0.88 
   0   2  -4   56.83    0.88 
   0   2  -4   54.53    0.89 
   0  -2   4   55.03    0.89 
   0  -2   4   54.93    0.88 
   0  -2   4   55.62    0.88 
   0  -2   4   55.79    0.90 
   0  -2   4   54.89    0.87 
  -1   2  -4   65.72    1.05 
  -1   2  -4   65.93    1.04 
  -1   2  -4   66.57    1.03 
   1  -2   4   66.66    1.05 
   1  -2   4   67.21    1.05 
   1  -2   4   66.92    1.03 
   1  -2   4   65.68    1.04 
   1  -2   4   65.95    1.05 
  -2   2  -4   29.49    0.55 
  -2   2  -4   29.82    0.56 
  -2   2  -4   30.53    0.54 
   2  -2   4   29.16    0.56 
   2  -2   4   29.29    0.54 
   2  -2   4   29.60    0.53 
   2  -2   4   30.32    0.56 
   2  -2   4   29.69    0.56 
  -3   2  -4   -0.01    0.04 
  -3   2  -4   -0.01    0.04 
  -3   2  -4   -0.02    0.03 
   3  -2   4   -0.03    0.03 
   3  -2   4    0.01    0.03 
   3  -2   4    0.02    0.03 
  -4   2  -4    0.18    0.06 
  -4   2  -4    0.15    0.05 
  -4   2  -4    0.16    0.06 
   4  -2   4    0.23    0.06 
   4  -2   4    0.41    0.07 
  -5   2  -4    0.10    0.06 
  -5   2  -4   -0.02    0.06 
   5  -2   4   -0.02    0.05 
   5  -2   4   -0.03    0.05 
   5  -2   4    0.02    0.06 
  -6   2  -4   13.10    0.38 
  -6   2  -4   12.92    0.37 
   6  -2   4   13.52    0.41 
   6  -2   4   13.36    0.39 
  -7   2  -4    0.33    0.09 
  -7   2  -4    0.18    0.08 
   7  -2   4    0.26    0.10 
   7  -2   4    0.40    0.10 
  -8   2  -4    0.26    0.10 
  -8   2  -4    0.20    0.09 
   8  -2   4    0.19    0.09 
   8  -2   4    0.13    0.09 
   9  -2   4    0.26    0.10 
   9  -2   4    0.27    0.11 
   9   1  -4   -0.20    0.11 
   9   1  -4   -0.01    0.08 
   8   1  -4    1.90    0.19 
   8   1  -4    2.01    0.25 
   7   1  -4    8.00    0.30 
   7   1  -4    7.92    0.38 
   6   1  -4   16.64    0.40 
   6   1  -4   17.52    0.40 
   6   1  -4   17.23    0.42 
   6   1  -4   17.47    0.53 
   5   1  -4    1.31    0.10 
   5   1  -4    0.91    0.14 
   5   1  -4    1.26    0.10 
   5   1  -4    1.34    0.11 
   4   1  -4    1.97    0.11 
   4   1  -4    2.04    0.16 
   4   1  -4    2.13    0.11 
   4   1  -4    2.16    0.12 
  -4  -1   4    2.03    0.08 
  -4  -1   4    1.79    0.09 
   3   1  -4   15.65    0.33 
   3   1  -4   15.69    0.39 
   3   1  -4   16.03    0.33 
   3   1  -4   15.64    0.32 
  -3  -1   4   16.11    0.28 
  -3  -1   4   16.45    0.29 
  -3  -1   4   16.08    0.30 
  -3  -1   4   15.86    0.30 
   2   1  -4    8.49    0.25 
   2   1  -4    8.38    0.21 
   2   1  -4    8.49    0.20 
   2   1  -4    8.65    0.21 
  -2  -1   4    8.11    0.25 
  -2  -1   4    8.50    0.19 
  -2  -1   4    8.54    0.18 
  -2  -1   4    8.44    0.20 
  -2  -1   4    8.46    0.19 
   1   1  -4    2.79    0.11 
   1   1  -4    2.74    0.11 
   1   1  -4    2.68    0.11 
   1   1  -4    2.85    0.11 
   1   1  -4    2.50    0.12 
  -1  -1   4    2.59    0.12 
  -1  -1   4    2.63    0.10 
  -1  -1   4    2.69    0.10 
  -1  -1   4    2.80    0.11 
  -1  -1   4    2.84    0.10 
   0   1  -4  103.71    1.54 
   0   1  -4  104.68    1.53 
   0   1  -4  103.32    1.54 
   0   1  -4  105.74    1.53 
   0   1  -4  104.43    1.53 
   0  -1   4  104.89    1.53 
   0  -1   4  104.74    1.52 
   0  -1   4  106.71    1.54 
   0  -1   4  105.92    1.53 
   0  -1   4  106.14    1.56 
  -1   1  -4    0.12    0.03 
  -1   1  -4    0.11    0.03 
  -1   1  -4    0.10    0.03 
  -1   1  -4    0.16    0.04 
   1  -1   4    0.11    0.03 
   1  -1   4    0.11    0.03 
   1  -1   4    0.13    0.03 
   1  -1   4    0.06    0.03 
   1  -1   4    0.22    0.04 
  -2   1  -4    8.06    0.21 
  -2   1  -4    7.99    0.22 
   2  -1   4    8.10    0.22 
   2  -1   4    8.15    0.21 
   2  -1   4    8.11    0.20 
   2  -1   4    8.06    0.22 
  -3   1  -4    8.73    0.24 
  -3   1  -4    8.62    0.24 
  -3   1  -4    8.56    0.24 
   3  -1   4    8.59    0.24 
   3  -1   4    8.57    0.24 
   3  -1   4    8.97    0.24 
  -4   1  -4   15.70    0.38 
  -4   1  -4   15.74    0.37 
   4  -1   4   15.84    0.39 
   4  -1   4   15.32    0.36 
   4  -1   4   15.74    0.37 
  -5   1  -4    2.50    0.16 
  -5   1  -4    2.64    0.16 
   5  -1   4    2.70    0.15 
   5  -1   4    2.63    0.15 
   5  -1   4    2.65    0.17 
  -6   1  -4    9.13    0.30 
  -6   1  -4    9.26    0.31 
   6  -1   4    9.57    0.34 
   6  -1   4    9.50    0.32 
  -7   1  -4    7.05    0.28 
  -7   1  -4    6.73    0.27 
   7  -1   4    7.13    0.29 
   7  -1   4    7.19    0.31 
  -8   1  -4    0.00    0.06 
  -8   1  -4    0.01    0.06 
   8  -1   4   -0.11    0.07 
   8  -1   4    0.07    0.08 
  -9   1  -4    0.73    0.14 
   9  -1   4    0.68    0.14 
   9  -1   4    0.87    0.14 
   9   0  -4    0.10    0.09 
   9   0  -4    0.02    0.13 
   8   0  -4    0.29    0.09 
   8   0  -4    0.24    0.13 
   7   0  -4    3.60    0.28 
   7   0  -4    3.58    0.20 
   6   0  -4    5.88    0.21 
   6   0  -4    5.92    0.22 
   6   0  -4    6.04    0.21 
   6   0  -4    5.91    0.31 
   6   0  -4    5.78    0.21 
  -6   0   4    6.20    0.16 
   5   0  -4    0.17    0.05 
   5   0  -4    0.12    0.04 
   5   0  -4    0.08    0.04 
   5   0  -4    0.00    0.07 
  -5   0   4    0.19    0.04 
   4   0  -4    0.69    0.06 
   4   0  -4    0.80    0.11 
   4   0  -4    0.68    0.06 
   4   0  -4    0.75    0.07 
  -4   0   4    0.68    0.05 
   3   0  -4    0.61    0.05 
   3   0  -4    0.69    0.09 
   3   0  -4    0.64    0.06 
   3   0  -4    0.57    0.05 
  -3   0   4    0.63    0.04 
  -3   0   4    0.57    0.04 
   2   0  -4   65.41    0.97 
   2   0  -4   64.09    0.96 
   2   0  -4   64.83    1.05 
   2   0  -4   65.66    0.96 
  -2   0   4   65.02    0.93 
  -2   0   4   64.51    0.94 
   1   0  -4    5.02    0.16 
   1   0  -4    5.01    0.13 
   1   0  -4    4.98    0.13 
   1   0  -4    5.01    0.13 
   1   0  -4    4.98    0.13 
  -1   0   4    4.87    0.11 
  -1   0   4    4.90    0.16 
  -1   0   4    4.93    0.11 
  -1   0   4    5.05    0.12 
   0   0  -4   37.29    0.61 
   0   0  -4   37.76    0.60 
   0   0  -4   38.43    0.60 
   0   0  -4   37.70    0.59 
   0   0  -4   37.12    0.60 
   0   0   4   36.98    0.62 
   0   0   4   37.97    0.59 
   0   0   4   39.54    0.60 
   0   0   4   38.44    0.59 
   0   0   4   38.22    0.59 
  -1   0  -4  209.39    2.98 
  -1   0  -4  213.13    2.95 
  -1   0  -4  214.16    2.97 
  -1   0  -4  211.13    2.98 
   1   0   4  215.35    2.97 
   1   0   4  209.80    2.98 
   1   0   4  211.49    2.98 
   1   0   4  213.24    2.99 
   1   0   4  213.85    2.97 
   1   0   4  215.28    2.98 
  -2   0  -4   18.53    0.36 
  -2   0  -4   18.59    0.36 
  -2   0  -4   17.71    0.36 
   2   0   4   18.05    0.35 
   2   0   4   18.48    0.36 
   2   0   4   18.65    0.36 
   2   0   4   18.14    0.32 
   2   0   4   17.72    0.36 
  -3   0  -4    5.92    0.18 
  -3   0  -4    6.09    0.19 
  -3   0  -4    6.05    0.19 
   3   0   4    6.39    0.19 
   3   0   4    6.22    0.19 
   3   0   4    6.23    0.20 
  -4   0  -4   11.17    0.29 
  -4   0  -4   11.34    0.30 
   4   0   4   11.61    0.30 
   4   0   4   10.92    0.29 
   4   0   4   11.14    0.31 
   4   0   4   11.25    0.29 
  -5   0  -4    1.59    0.12 
  -5   0  -4    1.79    0.13 
   5   0   4    1.70    0.12 
   5   0   4    1.93    0.13 
   5   0   4    1.59    0.14 
  -6   0  -4   23.29    0.52 
  -6   0  -4   22.78    0.53 
   6   0   4   22.79    0.52 
   6   0   4   22.86    0.52 
   6   0   4   23.33    0.55 
  -7   0  -4    4.11    0.22 
  -7   0  -4    4.23    0.21 
   7   0   4    3.92    0.22 
   7   0   4    4.24    0.25 
   7   0   4    3.95    0.22 
  -8   0  -4    2.52    0.19 
  -8   0  -4    2.53    0.19 
   8   0   4    2.73    0.23 
   8   0   4    2.24    0.20 
  -9   0  -4    0.30    0.10 
  -9   0  -4    0.09    0.08 
   9   0   4    0.23    0.11 
   9   0   4    0.34    0.10 
   9  -1  -4    0.22    0.09 
   9  -1  -4    0.14    0.08 
   8  -1  -4    0.03    0.07 
   7  -1  -4   12.76    0.36 
   6  -1  -4    7.09    0.22 
   6  -1  -4    6.75    0.21 
   6  -1  -4    6.95    0.22 
   6  -1  -4    7.26    0.23 
  -6   1   4    7.28    0.15 
   5  -1  -4   18.18    0.36 
   5  -1  -4   17.83    0.37 
   5  -1  -4   17.34    0.36 
   5  -1  -4   18.21    0.36 
   4  -1  -4    6.07    0.16 
   4  -1  -4    5.82    0.16 
   4  -1  -4    6.11    0.16 
   3  -1  -4    0.20    0.03 
   3  -1  -4    0.24    0.03 
   3  -1  -4    0.20    0.03 
   2  -1  -4    1.38    0.05 
   1  -1  -4    4.39    0.10 
   1  -1  -4    4.39    0.10 
   1  -1  -4    4.39    0.10 
   1  -1  -4    4.28    0.14 
   1  -1  -4    4.40    0.10 
  -1   1   4    4.33    0.08 
  -1   1   4    4.44    0.08 
   0  -1  -4   18.82    0.34 
   0  -1  -4   19.76    0.32 
   0  -1  -4   19.12    0.32 
   0  -1  -4   19.32    0.32 
   0   1   4   19.28    0.30 
   0   1   4   19.18    0.31 
   0   1   4   19.75    0.31 
   0   1   4   19.46    0.31 
   0   1   4   19.03    0.34 
  -1  -1  -4    0.26    0.04 
  -1  -1  -4    0.30    0.04 
  -1  -1  -4    0.30    0.05 
  -1  -1  -4    0.23    0.03 
  -1  -1  -4    0.27    0.04 
   1   1   4    0.25    0.04 
   1   1   4    0.24    0.04 
   1   1   4    0.27    0.04 
   1   1   4    0.22    0.04 
   1   1   4    0.25    0.03 
   1   1   4    0.23    0.04 
  -2  -1  -4   45.35    0.72 
  -2  -1  -4   45.80    0.74 
  -2  -1  -4   44.48    0.73 
   2   1   4   44.58    0.73 
   2   1   4   45.31    0.72 
   2   1   4   44.48    0.72 
   2   1   4   45.10    0.72 
   2   1   4   44.49    0.66 
  -3  -1  -4   42.58    0.72 
  -3  -1  -4   43.55    0.73 
  -3  -1  -4   42.87    0.72 
   3   1   4   42.93    0.71 
   3   1   4   42.51    0.72 
   3   1   4   42.05    0.73 
   3   1   4   42.36    0.71 
  -4  -1  -4    0.09    0.05 
  -4  -1  -4    0.04    0.04 
   4   1   4    0.08    0.04 
   4   1   4    0.04    0.04 
   4   1   4    0.01    0.04 
   4   1   4   -0.01    0.03 
   4   1   4    0.11    0.05 
  -5  -1  -4    2.01    0.14 
  -5  -1  -4    2.00    0.14 
   5   1   4    1.97    0.13 
   5   1   4    1.90    0.13 
   5   1   4    2.12    0.14 
   5   1   4    2.07    0.15 
  -6  -1  -4    3.52    0.19 
  -6  -1  -4    4.00    0.20 
   6   1   4    3.95    0.19 
   6   1   4    3.52    0.19 
   6   1   4    3.89    0.21 
   6   1   4    4.07    0.20 
  -7  -1  -4   19.66    0.51 
  -7  -1  -4   19.57    0.49 
   7   1   4   19.99    0.50 
   7   1   4   19.21    0.50 
   7   1   4   20.71    0.53 
  -8  -1  -4    1.45    0.18 
  -8  -1  -4    1.23    0.15 
   8   1   4    1.50    0.16 
   8   1   4    1.49    0.18 
  -9  -1  -4    0.14    0.08 
   9   1   4    0.07    0.08 
   9   1   4    0.05    0.09 
  10   1   4    0.12    0.10 
  10   1   4    0.06    0.11 
   8  -2  -4    0.12    0.06 
   8  -2  -4    0.00    0.06 
   7  -2  -4    0.13    0.06 
   6  -2  -4    1.25    0.10 
   6  -2  -4    1.39    0.10 
   6  -2  -4    1.21    0.10 
   6  -2  -4    1.20    0.09 
   5  -2  -4    6.00    0.17 
   5  -2  -4    5.59    0.18 
   5  -2  -4    6.07    0.17 
   5  -2  -4    5.84    0.17 
   4  -2  -4    0.96    0.07 
   4  -2  -4    1.08    0.06 
   4  -2  -4    1.12    0.07 
   3  -2  -4    9.85    0.18 
   1  -2  -4    7.19    0.12 
   1  -2  -4    7.31    0.12 
   0  -2  -4    0.07    0.02 
   0  -2  -4    0.05    0.02 
   0  -2  -4    0.07    0.02 
   0  -2  -4    0.05    0.02 
   0  -2  -4    0.06    0.02 
   0  -2  -4    0.06    0.02 
   0   2   4    0.09    0.02 
   0   2   4    0.08    0.02 
  -1  -2  -4  116.96    1.66 
  -1  -2  -4  117.29    1.66 
  -1  -2  -4  115.21    1.66 
  -1  -2  -4  114.20    1.60 
  -1  -2  -4  119.30    1.66 
   1   2   4  116.63    1.65 
   1   2   4  114.75    1.65 
   1   2   4  116.05    1.65 
   1   2   4  116.77    1.65 
   1   2   4  117.04    1.65 
  -2  -2  -4   40.00    0.64 
  -2  -2  -4   38.93    0.65 
  -2  -2  -4   38.80    0.65 
   2   2   4   39.82    0.64 
   2   2   4   39.21    0.56 
   2   2   4   39.82    0.64 
   2   2   4   39.21    0.65 
   2   2   4   39.87    0.64 
   2   2   4   40.09    0.64 
  -3  -2  -4   15.78    0.34 
  -3  -2  -4   15.32    0.34 
  -3  -2  -4   15.74    0.33 
   3   2   4   15.75    0.33 
   3   2   4   15.89    0.35 
   3   2   4   15.77    0.34 
   3   2   4   16.05    0.33 
   3   2   4   16.08    0.33 
  -4  -2  -4   41.46    0.71 
  -4  -2  -4   40.09    0.72 
  -4  -2  -4   40.15    0.72 
   4   2   4   40.91    0.73 
   4   2   4   41.07    0.71 
   4   2   4   38.56    0.71 
   4   2   4   40.48    0.71 
  -5  -2  -4    6.47    0.23 
  -5  -2  -4    6.45    0.23 
   5   2   4    6.52    0.23 
   5   2   4    6.16    0.24 
  -6  -2  -4    1.05    0.12 
  -6  -2  -4    1.12    0.14 
   6   2   4    0.84    0.12 
   6   2   4    1.15    0.13 
   6   2   4    0.87    0.12 
   6   2   4    0.98    0.12 
  -7  -2  -4    1.50    0.15 
  -7  -2  -4    1.45    0.15 
   7   2   4    1.28    0.16 
   7   2   4    1.55    0.16 
   7   2   4    1.22    0.14 
  -8  -2  -4    5.76    0.26 
   8   2   4    6.02    0.27 
   8   2   4    6.30    0.31 
  -9  -2  -4    0.10    0.08 
   9   2   4    0.08    0.09 
   9   2   4    0.17    0.11 
  10   2   4    0.07    0.09 
  10   2   4    0.06    0.11 
   8  -3  -4    1.02    0.11 
   8  -3  -4    1.22    0.14 
   7  -3  -4    0.78    0.10 
   7  -3  -4    0.70    0.09 
   6  -3  -4    2.41    0.12 
   6  -3  -4    2.43    0.13 
   6  -3  -4    2.33    0.12 
   5  -3  -4   23.05    0.42 
   5  -3  -4   24.06    0.43 
   5  -3  -4   22.98    0.42 
   5  -3  -4   23.37    0.44 
   4  -3  -4    9.19    0.19 
   4  -3  -4    9.57    0.20 
   4  -3  -4    9.67    0.20 
   4  -3  -4    9.37    0.20 
   3  -3  -4    5.30    0.11 
   3  -3  -4    5.55    0.11 
   1  -3  -4   23.41    0.34 
   0  -3  -4   64.74    0.95 
   0  -3  -4   67.49    0.95 
   0  -3  -4   65.20    0.94 
   0  -3  -4   65.99    0.95 
   0   3   4   66.42    0.93 
   0   3   4   65.63    0.93 
  -1  -3  -4   13.11    0.25 
  -1  -3  -4   12.61    0.25 
  -1  -3  -4   13.06    0.25 
  -1  -3  -4   12.63    0.20 
  -1  -3  -4   12.88    0.25 
   1   3   4   12.71    0.24 
   1   3   4   13.18    0.24 
   1   3   4   12.84    0.24 
   1   3   4   13.18    0.24 
  -2  -3  -4   23.21    0.43 
  -2  -3  -4   23.30    0.42 
  -2  -3  -4   23.91    0.42 
  -2  -3  -4   23.25    0.43 
   2   3   4   23.50    0.42 
   2   3   4   22.87    0.43 
   2   3   4   23.54    0.42 
   2   3   4   23.95    0.42 
  -3  -3  -4   13.42    0.30 
  -3  -3  -4   13.10    0.30 
  -3  -3  -4   13.23    0.31 
  -3  -3  -4   12.95    0.31 
   3   3   4   13.73    0.31 
   3   3   4   13.19    0.30 
   3   3   4   13.74    0.30 
  -4  -3  -4    0.59    0.08 
  -4  -3  -4    0.61    0.08 
  -4  -3  -4    0.70    0.09 
   4   3   4    0.65    0.09 
   4   3   4    0.66    0.08 
   4   3   4    0.68    0.08 
  -5  -3  -4    0.12    0.06 
  -5  -3  -4    0.10    0.06 
   5   3   4    0.16    0.06 
   5   3   4    0.11    0.05 
   5   3   4    0.09    0.06 
  -6  -3  -4    4.56    0.22 
  -6  -3  -4    4.94    0.21 
   6   3   4    4.60    0.21 
   6   3   4    4.31    0.22 
  -7  -3  -4    0.22    0.08 
   7   3   4   -0.01    0.07 
  -8  -3  -4    5.63    0.26 
   8   3   4    5.66    0.30 
  -9  -3  -4    6.57    0.30 
   9   3   4    7.70    0.38 
   9   3   4    7.06    0.32 
 -10  -3  -4    0.13    0.09 
  10   3   4   -0.01    0.09 
  10   3   4    0.00    0.11 
   8  -4  -4    0.00    0.05 
   8  -4  -4    0.03    0.06 
   7  -4  -4    0.01    0.05 
   7  -4  -4    0.04    0.05 
   6  -4  -4    2.52    0.12 
   6  -4  -4    2.59    0.14 
   5  -4  -4    0.39    0.05 
   5  -4  -4    0.26    0.05 
   5  -4  -4    0.28    0.05 
   5  -4  -4    0.21    0.05 
   4  -4  -4    6.30    0.16 
   4  -4  -4    6.45    0.16 
   4  -4  -4    6.63    0.16 
   3  -4  -4    0.33    0.03 
   3  -4  -4    0.38    0.04 
   2  -4  -4    0.67    0.04 
   2  -4  -4    0.57    0.04 
   1  -4  -4   37.72    0.56 
   0  -4  -4   86.74    1.24 
   0  -4  -4   86.08    1.24 
   0  -4  -4   85.76    1.24 
   0  -4  -4   86.45    1.24 
   0   4   4   84.74    1.21 
  -1  -4  -4   33.15    0.55 
  -1  -4  -4   33.04    0.55 
  -1  -4  -4   32.73    0.55 
  -1  -4  -4   33.37    0.56 
   1   4   4   34.03    0.53 
   1   4   4   34.03    0.54 
   1   4   4   33.36    0.54 
   1   4   4   33.85    0.53 
  -2  -4  -4   20.98    0.40 
  -2  -4  -4   21.74    0.41 
  -2  -4  -4   21.11    0.40 
  -2  -4  -4   20.84    0.41 
   2   4   4   21.66    0.40 
   2   4   4   20.89    0.40 
   2   4   4   21.18    0.39 
   2   4   4   21.31    0.40 
  -3  -4  -4  151.93    2.18 
  -3  -4  -4  150.14    2.19 
  -3  -4  -4  150.11    2.19 
   3   4   4  148.59    2.18 
   3   4   4  149.18    2.07 
   3   4   4  148.90    2.18 
   3   4   4  150.57    2.20 
   3   4   4  148.13    2.17 
  -4  -4  -4   16.65    0.38 
  -4  -4  -4   16.69    0.40 
  -4  -4  -4   15.79    0.38 
  -4  -4  -4   16.52    0.37 
   4   4   4   16.38    0.31 
   4   4   4   16.90    0.38 
   4   4   4   16.33    0.38 
   4   4   4   16.63    0.40 
  -5  -4  -4    8.33    0.27 
  -5  -4  -4    9.05    0.28 
   5   4   4    8.67    0.23 
   5   4   4    8.46    0.27 
   5   4   4    9.11    0.28 
   5   4   4    8.63    0.29 
  -6  -4  -4    1.25    0.13 
   6   4   4    0.85    0.12 
   6   4   4    1.10    0.13 
   6   4   4    1.12    0.11 
  -7  -4  -4    0.14    0.08 
   7   4   4    0.10    0.08 
   7   4   4    0.15    0.07 
  -8  -4  -4    3.22    0.21 
   8   4   4    3.52    0.22 
   8   4   4    3.55    0.26 
  -9  -4  -4    3.79    0.25 
   9   4   4    3.77    0.25 
   9   4   4    4.04    0.30 
 -10  -4  -4    0.16    0.10 
  10   4   4    0.32    0.14 
  10   4   4    0.28    0.11 
   8  -5  -4   -0.04    0.06 
   8  -5  -4   -0.01    0.06 
   7  -5  -4    0.25    0.06 
   7  -5  -4    0.16    0.07 
   6  -5  -4    0.28    0.06 
   6  -5  -4    0.38    0.07 
   5  -5  -4    0.45    0.06 
   5  -5  -4    0.51    0.06 
   5  -5  -4    0.63    0.07 
   4  -5  -4   13.81    0.28 
   4  -5  -4   13.29    0.28 
   4  -5  -4   13.68    0.28 
   3  -5  -4    4.68    0.13 
   3  -5  -4    4.92    0.13 
   3  -5  -4    4.86    0.13 
   2  -5  -4    1.12    0.06 
   2  -5  -4    1.22    0.06 
   2  -5  -4    1.13    0.06 
   2  -5  -4    1.18    0.06 
   1  -5  -4    9.86    0.21 
   1  -5  -4    9.72    0.21 
   1  -5  -4    9.71    0.21 
  -1   5   4   10.03    0.17 
   0  -5  -4   -0.02    0.03 
   0  -5  -4   -0.03    0.02 
   0  -5  -4    0.04    0.03 
   0   5   4   -0.01    0.02 
  -1  -5  -4    6.99    0.19 
  -1  -5  -4    6.93    0.19 
  -1  -5  -4    6.78    0.19 
   1   5   4    6.90    0.18 
   1   5   4    7.42    0.18 
   1   5   4    7.03    0.17 
   1   5   4    6.98    0.17 
  -2  -5  -4   54.75    0.88 
  -2  -5  -4   53.30    0.88 
  -2  -5  -4   53.45    0.79 
  -2  -5  -4   54.26    0.88 
   2   5   4   53.98    0.87 
   2   5   4   55.43    0.87 
   2   5   4   53.71    0.88 
   2   5   4   55.15    0.86 
  -3  -5  -4   16.91    0.38 
  -3  -5  -4   16.77    0.38 
  -3  -5  -4   16.23    0.37 
   3   5   4   16.89    0.37 
   3   5   4   16.84    0.37 
   3   5   4   16.28    0.27 
   3   5   4   16.59    0.38 
  -4  -5  -4   -0.10    0.04 
  -4  -5  -4   -0.11    0.04 
  -4  -5  -4   -0.09    0.05 
   4   5   4   -0.06    0.04 
   4   5   4    0.05    0.03 
   4   5   4   -0.06    0.05 
   4   5   4    0.00    0.05 
  -5  -5  -4    2.36    0.16 
  -5  -5  -4    2.43    0.15 
   5   5   4    2.23    0.16 
   5   5   4    2.43    0.20 
   5   5   4    2.31    0.11 
  -6  -5  -4    0.16    0.07 
  -6  -5  -4    0.14    0.07 
   6   5   4   -0.02    0.06 
   6   5   4    0.06    0.05 
  -7  -5  -4    2.59    0.18 
   7   5   4    2.58    0.17 
   7   5   4    2.83    0.22 
  -8  -5  -4    0.25    0.09 
   8   5   4    0.08    0.07 
   8   5   4    0.10    0.10 
  -9  -5  -4    0.29    0.10 
   9   5   4    0.24    0.10 
   9   5   4    0.01    0.11 
 -10  -5  -4    0.10    0.10 
  10   5   4    0.24    0.14 
  10   5   4    0.13    0.10 
   7  -6  -4   -0.03    0.05 
   7  -6  -4    0.06    0.06 
   6  -6  -4    0.21    0.06 
   5  -6  -4    1.31    0.10 
   4  -6  -4    9.33    0.23 
   4  -6  -4    9.03    0.24 
   4  -6  -4    8.78    0.22 
   3  -6  -4    9.26    0.22 
   3  -6  -4    9.32    0.23 
   3  -6  -4    9.45    0.22 
   3  -6  -4    9.35    0.23 
   2  -6  -4    0.01    0.03 
   2  -6  -4   -0.02    0.03 
   2  -6  -4    0.02    0.04 
   2  -6  -4    0.06    0.04 
   1  -6  -4    3.58    0.13 
   1  -6  -4    3.76    0.13 
   1  -6  -4    3.85    0.13 
  -1   6   4    3.81    0.10 
   0  -6  -4   11.60    0.26 
   0  -6  -4   11.00    0.26 
   0  -6  -4   11.43    0.27 
   0   6   4   11.63    0.22 
   0   6   4   11.50    0.24 
  -1  -6  -4   11.02    0.27 
  -1  -6  -4   11.14    0.28 
  -1  -6  -4   11.25    0.28 
  -1  -6  -4   11.23    0.23 
   1   6   4   11.30    0.25 
   1   6   4   10.99    0.25 
   1   6   4   11.02    0.26 
   1   6   4   11.87    0.25 
  -2  -6  -4   15.29    0.35 
  -2  -6  -4   15.21    0.35 
  -2  -6  -4   15.11    0.28 
  -2  -6  -4   15.63    0.36 
   2   6   4   15.62    0.35 
   2   6   4   15.48    0.34 
   2   6   4   15.54    0.34 
  -3  -6  -4   35.87    0.66 
  -3  -6  -4   34.32    0.57 
  -3  -6  -4   36.21    0.67 
  -3  -6  -4   35.42    0.67 
   3   6   4   36.26    0.67 
   3   6   4   36.02    0.67 
   3   6   4   35.64    0.66 
  -4  -6  -4    1.65    0.13 
  -4  -6  -4    1.65    0.14 
   4   6   4    1.52    0.14 
   4   6   4    1.69    0.08 
  -5  -6  -4   -0.09    0.05 
  -5  -6  -4   -0.01    0.06 
   5   6   4   -0.13    0.05 
   5   6   4    0.01    0.03 
  -6  -6  -4    0.49    0.10 
  -6  -6  -4    0.60    0.10 
   6   6   4    0.54    0.08 
   6   6   4    0.59    0.12 
  -7  -6  -4    0.68    0.11 
  -7  -6  -4    0.54    0.11 
   7   6   4    0.66    0.13 
   7   6   4    0.74    0.10 
  -8  -6  -4    0.06    0.08 
   8   6   4    0.07    0.06 
   8   6   4    0.17    0.11 
  -9  -6  -4    0.15    0.09 
   9   6   4   -0.03    0.07 
   9   6   4    0.06    0.10 
 -10  -6  -4    0.63    0.13 
  10   6   4    0.73    0.19 
   7  -7  -4    0.99    0.13 
   7  -7  -4    0.88    0.11 
   6  -7  -4    0.41    0.08 
   5  -7  -4    0.56    0.08 
   4  -7  -4    9.66    0.26 
   4  -7  -4    8.97    0.25 
   4  -7  -4    9.71    0.27 
   3  -7  -4   30.84    0.55 
   3  -7  -4   31.78    0.57 
   3  -7  -4   30.88    0.57 
   3  -7  -4   30.56    0.57 
   2  -7  -4   26.60    0.49 
   2  -7  -4   26.71    0.50 
   2  -7  -4   26.42    0.50 
   2  -7  -4   26.30    0.49 
  -2   7   4   26.06    0.43 
   1  -7  -4    0.05    0.05 
   1  -7  -4    0.09    0.05 
   1  -7  -4    0.12    0.05 
  -1   7   4    0.05    0.04 
   0  -7  -4    3.14    0.15 
   0  -7  -4    3.40    0.15 
   0  -7  -4    3.42    0.15 
   0   7   4    3.35    0.13 
   0   7   4    3.31    0.12 
  -1  -7  -4    0.29    0.06 
  -1  -7  -4    0.06    0.03 
  -1  -7  -4    0.00    0.04 
  -1  -7  -4    0.06    0.05 
   1   7   4    0.03    0.04 
   1   7   4    0.00    0.03 
  -2  -7  -4    9.37    0.28 
  -2  -7  -4    9.70    0.23 
  -2  -7  -4    9.08    0.28 
  -2  -7  -4    9.34    0.27 
   2   7   4    9.33    0.27 
   2   7   4    9.62    0.27 
  -3  -7  -4    6.43    0.24 
  -3  -7  -4    6.42    0.24 
  -3  -7  -4    6.20    0.18 
  -3  -7  -4    6.54    0.24 
   3   7   4    6.58    0.24 
  -4  -7  -4    8.89    0.29 
  -4  -7  -4    9.26    0.31 
   4   7   4    9.65    0.31 
   4   7   4    9.13    0.21 
  -5  -7  -4    0.19    0.08 
  -5  -7  -4    0.19    0.08 
   5   7   4    0.31    0.09 
   5   7   4    0.39    0.06 
  -6  -7  -4   -0.01    0.06 
  -6  -7  -4   -0.01    0.07 
   6   7   4    0.08    0.05 
   6   7   4    0.10    0.08 
  -7  -7  -4    0.00    0.07 
  -7  -7  -4   -0.01    0.07 
   7   7   4    0.05    0.08 
   7   7   4   -0.02    0.05 
  -8  -7  -4    0.14    0.09 
   8   7   4    0.06    0.06 
   8   7   4    0.14    0.11 
  -9  -7  -4    0.33    0.11 
   9   7   4    0.33    0.10 
   9   7   4    0.56    0.16 
   6  -8  -4    0.44    0.09 
   6  -8  -4    0.44    0.10 
   5  -8  -4    0.12    0.06 
   5  -8  -4   -0.07    0.05 
   4  -8  -4   -0.04    0.05 
   4  -8  -4   -0.05    0.05 
   3  -8  -4    6.56    0.23 
   3  -8  -4    5.93    0.20 
   3  -8  -4    6.10    0.22 
   2  -8  -4    0.04    0.05 
   2  -8  -4    0.06    0.05 
   2  -8  -4   -0.01    0.05 
   2  -8  -4    0.04    0.05 
  -2   8   4    0.05    0.03 
   1  -8  -4    4.45    0.18 
   1  -8  -4    4.19    0.18 
   1  -8  -4    4.14    0.19 
  -1   8   4    4.39    0.17 
   0  -8  -4   16.33    0.39 
   0  -8  -4   15.89    0.38 
   0  -8  -4   15.62    0.38 
   0   8   4   16.15    0.33 
  -1  -8  -4   11.63    0.33 
  -1  -8  -4   11.79    0.33 
  -1  -8  -4   12.03    0.33 
   1   8   4   11.98    0.30 
  -2  -8  -4   14.87    0.33 
  -2  -8  -4   14.88    0.39 
  -2  -8  -4   15.17    0.39 
  -2  -8  -4   15.42    0.40 
   2   8   4   15.23    0.37 
  -3  -8  -4    0.57    0.10 
  -3  -8  -4    0.65    0.08 
  -3  -8  -4    0.58    0.10 
   3   8   4    0.66    0.10 
  -4  -8  -4    4.44    0.24 
  -4  -8  -4    4.19    0.17 
  -4  -8  -4    4.08    0.21 
   4   8   4    3.94    0.14 
   4   8   4    4.11    0.22 
  -5  -8  -4    0.34    0.10 
  -5  -8  -4    0.24    0.09 
   5   8   4    0.50    0.12 
   5   8   4    0.40    0.06 
  -6  -8  -4    0.68    0.12 
  -6  -8  -4    0.45    0.11 
   6   8   4    0.42    0.11 
   6   8   4    0.41    0.07 
  -7  -8  -4    0.44    0.11 
  -7  -8  -4    0.18    0.08 
   7   8   4    0.21    0.07 
   7   8   4    0.21    0.11 
  -8  -8  -4    0.04    0.09 
  -8  -8  -4   -0.06    0.08 
   8   8   4    0.06    0.06 
   8   8   4    0.01    0.10 
  -9  -8  -4    0.47    0.13 
   9   8   4    0.78    0.13 
   9   8   4    0.78    0.17 
   6  -9  -4    0.12    0.08 
   5  -9  -4    1.58    0.16 
   5  -9  -4    1.80    0.15 
   4  -9  -4   -0.17    0.05 
   4  -9  -4   -0.07    0.05 
   3  -9  -4    1.21    0.14 
   3  -9  -4    1.17    0.13 
   2  -9  -4    1.63    0.13 
   2  -9  -4    1.62    0.15 
   2  -9  -4    1.74    0.15 
   1  -9  -4    0.15    0.06 
   1  -9  -4    0.06    0.06 
   1  -9  -4    0.21    0.07 
   1  -9  -4    0.15    0.07 
  -1   9   4    0.15    0.04 
   0  -9  -4    0.07    0.05 
   0  -9  -4    0.10    0.06 
   0  -9  -4   -0.03    0.05 
   0   9   4    0.00    0.03 
  -1  -9  -4    3.84    0.20 
  -1  -9  -4    3.89    0.20 
  -1  -9  -4    3.83    0.21 
   1   9   4    3.86    0.17 
  -2  -9  -4   15.56    0.43 
  -2  -9  -4   15.45    0.41 
   2   9   4   15.16    0.39 
  -3  -9  -4    2.86    0.20 
  -3  -9  -4    2.88    0.21 
   3   9   4    2.97    0.19 
  -4  -9  -4    3.91    0.25 
  -4  -9  -4    3.86    0.22 
   4   9   4    3.85    0.23 
  -5  -9  -4    0.21    0.09 
  -5  -9  -4    0.38    0.11 
   5   9   4    0.21    0.06 
   5   9   4    0.26    0.09 
  -6  -9  -4    0.29    0.10 
  -6  -9  -4    0.19    0.10 
   6   9   4    0.27    0.07 
   6   9   4    0.26    0.10 
  -7  -9  -4    0.39    0.11 
  -7  -9  -4    0.12    0.10 
   7   9   4    0.20    0.11 
   7   9   4    0.17    0.07 
  -8  -9  -4    0.91    0.15 
  -8  -9  -4    1.01    0.17 
   8   9   4    0.72    0.11 
   8   9   4    0.82    0.18 
  -9  -9  -4    0.00    0.10 
   9   9   4   -0.03    0.11 
   5 -10  -4   -0.05    0.06 
   5 -10  -4    0.05    0.08 
   4 -10  -4    0.11    0.07 
   4 -10  -4    0.08    0.08 
   3 -10  -4    1.25    0.14 
   3 -10  -4    1.13    0.14 
   2 -10  -4    2.18    0.18 
   2 -10  -4    2.26    0.17 
   1 -10  -4   -0.10    0.05 
   1 -10  -4   -0.04    0.06 
   0 -10  -4    0.09    0.07 
   0 -10  -4    0.15    0.07 
   0  10   4    0.25    0.06 
  -1 -10  -4    0.60    0.10 
  -1 -10  -4    0.91    0.14 
   1  10   4    0.72    0.10 
  -2 -10  -4    0.33    0.09 
  -2 -10  -4    0.30    0.09 
   2  10   4    0.29    0.09 
  -3 -10  -4    1.91    0.18 
  -3 -10  -4    2.24    0.18 
   3  10   4    2.14    0.18 
  -4 -10  -4    0.63    0.14 
  -4 -10  -4    0.48    0.11 
   4  10   4    0.70    0.12 
  -5 -10  -4    4.25    0.29 
  -5 -10  -4    4.04    0.25 
   5  10   4    4.88    0.29 
  -6 -10  -4   -0.03    0.09 
  -6 -10  -4    0.14    0.11 
   6  10   4    0.23    0.12 
   6  10   4    0.05    0.06 
  -7 -10  -4    0.09    0.11 
  -7 -10  -4   -0.12    0.07 
   7  10   4   -0.03    0.06 
   7  10   4   -0.10    0.09 
  -8 -10  -4    0.35    0.13 
  -8 -10  -4    0.35    0.13 
   8  10   4    0.41    0.09 
   8  10   4    0.42    0.15 
   4 -11  -4    0.86    0.15 
   4 -11  -4    0.65    0.12 
   3 -11  -4    1.48    0.18 
   3 -11  -4    1.73    0.17 
   2 -11  -4    2.27    0.21 
   2 -11  -4    2.29    0.19 
   1 -11  -4    0.36    0.11 
   1 -11  -4    0.35    0.11 
   0 -11  -4    1.33    0.15 
   0 -11  -4    1.17    0.16 
  -1 -11  -4    0.18    0.10 
  -1 -11  -4    0.22    0.09 
   1  11   4    0.22    0.07 
  -2 -11  -4    0.05    0.07 
  -2 -11  -4    0.01    0.08 
   2  11   4    0.19    0.08 
  -3 -11  -4    0.12    0.10 
  -3 -11  -4   -0.05    0.07 
   3  11   4    0.04    0.08 
  -4 -11  -4   -0.05    0.08 
  -4 -11  -4   -0.08    0.09 
   4  11   4   -0.06    0.07 
  -5 -11  -4    3.09    0.27 
  -5 -11  -4    2.88    0.24 
   5  11   4    2.85    0.24 
  -6 -11  -4    0.54    0.15 
  -6 -11  -4    0.37    0.12 
   6  11   4    0.54    0.14 
  -7 -11  -4    0.10    0.12 
  -7 -11  -4   -0.09    0.09 
   7  11   4    0.04    0.06 
   7  11   4    0.00    0.11 
   2 -12  -4    0.24    0.11 
   2 -12  -4    0.11    0.10 
   1 -12  -4    1.54    0.20 
   1 -12  -4    1.57    0.17 
   0 -12  -4    0.02    0.09 
   0 -12  -4    0.15    0.11 
  -1 -12  -4    0.35    0.11 
  -1 -12  -4    0.28    0.13 
  -2 -12  -4    0.02    0.09 
  -2 -12  -4   -0.05    0.08 
  -3 -12  -4    2.69    0.25 
  -3 -12  -4    2.84    0.24 
   3  12   4    2.72    0.21 
  -4 -12  -4    0.22    0.12 
  -4 -12  -4    0.21    0.11 
   4  12   4    0.10    0.09 
  -5 -12  -4    0.04    0.11 
  -5 -12  -4    0.05    0.10 
   5  12   4    0.21    0.11 
  -6 -12  -4    0.94    0.16 
  -6 -12  -4    1.47    0.22 
   6  12   4    1.32    0.19 
   0 -13  -4    0.71    0.15 
   0 -13  -4    0.76    0.15 
  -1 -13  -4    0.16    0.12 
  -1 -13  -4    0.46    0.13 
  -2 -13  -4    0.82    0.15 
  -2 -13  -4    0.96    0.18 
  -3 -13  -4    0.16    0.12 
  -3 -13  -4    0.34    0.13 
  -4 -13  -4    0.10    0.11 
  -4 -13  -4    0.21    0.12 
  -5 -13  -4    0.21    0.12 
  -5 -13  -4    0.14    0.13 
   5  13   4   -0.04    0.11 
   3  10  -5    2.54    0.26 
   3  10  -5    1.74    0.23 
  -3 -10   5    1.92    0.23 
   2  10  -5    1.28    0.20 
  -2 -10   5    1.10    0.19 
   1  10  -5    0.86    0.16 
  -1 -10   5    0.98    0.19 
  -1 -10   5    1.06    0.19 
   0  10  -5    0.00    0.10 
   0 -10   5   -0.03    0.11 
   0 -10   5   -0.07    0.10 
  -1  10  -5    0.11    0.11 
   1 -10   5    0.19    0.13 
   1 -10   5    0.04    0.12 
  -2  10  -5   -0.02    0.08 
   2 -10   5   -0.05    0.10 
   2 -10   5   -0.02    0.11 
   5   9  -5    0.61    0.16 
   5   9  -5    0.81    0.16 
  -5  -9   5    0.73    0.15 
   4   9  -5    0.02    0.10 
   4   9  -5    0.10    0.12 
  -4  -9   5   -0.02    0.10 
   3   9  -5    0.74    0.16 
   3   9  -5    0.48    0.13 
  -3  -9   5    0.63    0.15 
   2   9  -5   -0.01    0.09 
  -2  -9   5    0.03    0.09 
  -2  -9   5    0.19    0.12 
   1   9  -5    2.36    0.25 
  -1  -9   5    1.91    0.22 
  -1  -9   5    2.31    0.24 
   0   9  -5    0.22    0.13 
   0  -9   5    0.10    0.10 
   0  -9   5    0.14    0.12 
  -1   9  -5    0.02    0.08 
   1  -9   5   -0.05    0.09 
   1  -9   5    0.02    0.09 
  -2   9  -5    0.31    0.12 
   2  -9   5    0.45    0.14 
   2  -9   5    0.20    0.12 
  -3   9  -5    0.01    0.09 
   3  -9   5    0.08    0.11 
   3  -9   5   -0.05    0.10 
  -4   9  -5    0.01    0.09 
   4  -9   5   -0.05    0.10 
   4  -9   5   -0.05    0.10 
   6   8  -5    0.53    0.17 
   6   8  -5    0.69    0.17 
   5   8  -5   -0.05    0.10 
   5   8  -5    0.02    0.11 
  -5  -8   5    0.09    0.10 
   4   8  -5    1.27    0.17 
   4   8  -5    1.11    0.18 
  -4  -8   5    1.02    0.16 
   3   8  -5    0.08    0.09 
   3   8  -5    0.27    0.11 
  -3  -8   5    0.13    0.09 
  -3  -8   5    0.23    0.11 
   2   8  -5    4.78    0.27 
  -2  -8   5    4.42    0.27 
  -2  -8   5    5.04    0.28 
   1   8  -5    5.56    0.30 
  -1  -8   5    5.16    0.29 
  -1  -8   5    4.90    0.28 
   0   8  -5    2.33    0.22 
   0  -8   5    2.33    0.23 
   0  -8   5    2.22    0.22 
  -1   8  -5    0.28    0.11 
   1  -8   5    0.19    0.10 
   1  -8   5    0.18    0.11 
  -2   8  -5    0.81    0.15 
   2  -8   5    0.99    0.16 
   2  -8   5    0.79    0.14 
  -3   8  -5    0.11    0.09 
   3  -8   5   -0.08    0.08 
   3  -8   5    0.04    0.10 
  -4   8  -5    0.01    0.10 
   4  -8   5    0.30    0.14 
   4  -8   5    0.20    0.11 
  -5   8  -5   -0.01    0.08 
   5  -8   5   -0.02    0.09 
   5  -8   5    0.03    0.10 
   7   7  -5    1.45    0.20 
   7   7  -5    1.65    0.23 
   6   7  -5    0.12    0.11 
   6   7  -5    0.32    0.13 
   5   7  -5    1.10    0.19 
   5   7  -5    1.36    0.19 
  -5  -7   5    1.14    0.15 
   4   7  -5    0.20    0.10 
   4   7  -5    0.29    0.12 
  -4  -7   5    0.29    0.11 
  -4  -7   5    0.39    0.11 
   3   7  -5    1.13    0.14 
   3   7  -5    1.54    0.18 
  -3  -7   5    1.29    0.16 
  -3  -7   5    1.33    0.16 
   2   7  -5    0.15    0.08 
   2   7  -5   -0.03    0.08 
  -2  -7   5   -0.08    0.07 
  -2  -7   5   -0.01    0.06 
   1   7  -5    0.00    0.07 
   1   7  -5    0.00    0.08 
  -1  -7   5    0.09    0.08 
  -1  -7   5   -0.06    0.07 
   0   7  -5    2.57    0.20 
   0  -7   5    2.54    0.20 
   0  -7   5    2.71    0.21 
  -1   7  -5    0.14    0.07 
   1  -7   5    0.19    0.09 
   1  -7   5    0.05    0.07 
  -2   7  -5    0.06    0.07 
   2  -7   5    0.16    0.09 
   2  -7   5    0.24    0.09 
  -3   7  -5    0.04    0.08 
   3  -7   5    0.04    0.09 
   3  -7   5    0.09    0.09 
  -4   7  -5   -0.03    0.08 
   4  -7   5   -0.03    0.09 
   4  -7   5   -0.04    0.08 
  -5   7  -5   -0.04    0.07 
  -5   7  -5   -0.03    0.08 
   5  -7   5   -0.07    0.08 
   5  -7   5   -0.18    0.07 
  -6   7  -5    1.06    0.17 
   6  -7   5    1.10    0.17 
   6  -7   5    0.80    0.16 
   7   6  -5    0.46    0.14 
   7   6  -5    0.27    0.14 
   6   6  -5    0.98    0.17 
   6   6  -5    0.89    0.16 
  -6  -6   5    0.86    0.20 
   5   6  -5    3.10    0.24 
   5   6  -5    2.69    0.24 
  -5  -6   5    2.65    0.19 
   4   6  -5    0.72    0.13 
   4   6  -5    0.93    0.16 
   4   6  -5    0.81    0.19 
  -4  -6   5    0.74    0.11 
  -4  -6   5    0.71    0.12 
   3   6  -5    0.49    0.13 
   3   6  -5    0.48    0.10 
   3   6  -5    0.53    0.12 
  -3  -6   5    0.32    0.09 
  -3  -6   5    0.35    0.11 
   2   6  -5    2.95    0.20 
   2   6  -5    2.66    0.21 
   2   6  -5    2.48    0.18 
  -2  -6   5    2.56    0.18 
  -2  -6   5    2.51    0.19 
   1   6  -5   10.39    0.36 
   1   6  -5   10.83    0.34 
   1   6  -5   10.03    0.34 
  -1  -6   5   10.06    0.35 
  -1  -6   5   10.57    0.35 
   0   6  -5   10.66    0.35 
   0  -6   5   10.20    0.35 
   0  -6   5   10.57    0.36 
  -1   6  -5    1.80    0.17 
   1  -6   5    1.69    0.16 
   1  -6   5    1.70    0.17 
  -2   6  -5    3.07    0.21 
   2  -6   5    3.34    0.21 
   2  -6   5    3.61    0.23 
  -3   6  -5    5.09    0.26 
  -3   6  -5    5.97    0.27 
   3  -6   5    5.00    0.26 
   3  -6   5    5.78    0.29 
  -4   6  -5    0.26    0.09 
  -4   6  -5    0.19    0.09 
   4  -6   5    0.25    0.10 
   4  -6   5    0.18    0.09 
  -5   6  -5    0.07    0.08 
  -5   6  -5    0.12    0.09 
   5  -6   5    0.14    0.11 
   5  -6   5    0.08    0.08 
  -6   6  -5    0.01    0.08 
  -6   6  -5    0.03    0.08 
   6  -6   5    0.08    0.09 
   6  -6   5   -0.08    0.09 
   7  -6   5    1.49    0.20 
   7  -6   5    1.41    0.20 
   7  -6   5    1.22    0.19 
   8   5  -5    0.37    0.13 
   8   5  -5    0.21    0.14 
   7   5  -5    2.89    0.25 
   7   5  -5    2.72    0.28 
   6   5  -5    2.82    0.23 
   6   5  -5    2.75    0.25 
  -6  -5   5    2.42    0.17 
   5   5  -5   -0.04    0.08 
   5   5  -5   -0.02    0.06 
   5   5  -5    0.02    0.07 
  -5  -5   5    0.01    0.06 
  -5  -5   5   -0.01    0.04 
   4   5  -5    5.53    0.28 
   4   5  -5    6.09    0.28 
   4   5  -5    5.84    0.25 
   4   5  -5    5.51    0.25 
  -4  -5   5    5.74    0.24 
  -4  -5   5    5.69    0.23 
   3   5  -5    3.38    0.22 
   3   5  -5    3.08    0.18 
   3   5  -5    3.20    0.19 
   3   5  -5    3.33    0.21 
  -3  -5   5    3.20    0.18 
  -3  -5   5    3.21    0.19 
   2   5  -5    0.48    0.09 
   2   5  -5    0.26    0.07 
   2   5  -5    0.19    0.07 
   2   5  -5    0.41    0.10 
  -2  -5   5    0.26    0.08 
  -2  -5   5    0.27    0.08 
   1   5  -5    5.46    0.24 
   1   5  -5    5.81    0.23 
   1   5  -5    5.54    0.23 
   1   5  -5    5.58    0.23 
  -1  -5   5    5.60    0.24 
  -1  -5   5    5.68    0.24 
   0   5  -5   14.41    0.38 
   0   5  -5   12.98    0.38 
   0   5  -5   13.70    0.39 
   0  -5   5   14.95    0.41 
   0  -5   5   14.31    0.39 
  -1   5  -5    0.70    0.12 
   1  -5   5    0.63    0.11 
   1  -5   5    0.63    0.10 
  -2   5  -5    0.38    0.09 
  -2   5  -5    0.63    0.11 
   2  -5   5    0.48    0.10 
   2  -5   5    0.51    0.11 
  -3   5  -5    0.49    0.09 
  -3   5  -5    0.55    0.11 
   3  -5   5    0.53    0.12 
   3  -5   5    0.71    0.11 
  -4   5  -5    2.34    0.19 
  -4   5  -5    2.55    0.19 
   4  -5   5    1.78    0.17 
   4  -5   5    2.20    0.19 
  -5   5  -5    0.29    0.10 
  -5   5  -5    0.40    0.10 
   5  -5   5    0.43    0.12 
   5  -5   5    0.56    0.11 
  -6   5  -5    0.26    0.09 
  -6   5  -5    0.22    0.10 
   6  -5   5    0.35    0.12 
   6  -5   5    0.29    0.10 
  -7   5  -5    3.83    0.25 
  -7   5  -5    4.69    0.27 
   7  -5   5    4.80    0.30 
   7  -5   5    5.03    0.29 
   8   4  -5    0.11    0.10 
   8   4  -5    0.25    0.14 
   7   4  -5    0.42    0.12 
   7   4  -5    0.34    0.14 
   6   4  -5    1.75    0.21 
   6   4  -5    1.80    0.19 
  -6  -4   5    1.76    0.14 
   5   4  -5    0.52    0.09 
   5   4  -5    0.56    0.10 
   5   4  -5    0.60    0.11 
   5   4  -5    0.58    0.13 
  -5  -4   5    0.71    0.10 
  -5  -4   5    0.71    0.09 
   4   4  -5    1.64    0.15 
   4   4  -5    1.47    0.13 
   4   4  -5    1.34    0.16 
   4   4  -5    1.58    0.13 
  -4  -4   5    1.36    0.13 
  -4  -4   5    1.11    0.11 
   3   4  -5   10.30    0.31 
   3   4  -5   10.70    0.33 
   3   4  -5   10.47    0.30 
   3   4  -5   10.00    0.34 
  -3  -4   5   10.20    0.29 
  -3  -4   5   10.22    0.30 
   2   4  -5    0.01    0.05 
   2   4  -5    0.05    0.05 
   2   4  -5    0.14    0.05 
   2   4  -5    0.11    0.06 
  -2  -4   5    0.31    0.07 
  -2  -4   5    0.04    0.04 
   1   4  -5    0.03    0.06 
   1   4  -5    0.08    0.06 
   1   4  -5   -0.06    0.04 
   1   4  -5   -0.02    0.04 
  -1  -4   5    0.03    0.05 
  -1  -4   5   -0.01    0.05 
   0   4  -5    5.91    0.21 
   0   4  -5    4.50    0.19 
   0   4  -5    4.58    0.21 
   0   4  -5    4.65    0.19 
   0  -4   5    4.56    0.21 
   0  -4   5    4.53    0.21 
  -1   4  -5  115.22    1.79 
  -1   4  -5  113.99    1.76 
  -1   4  -5  113.85    1.79 
   1  -4   5  117.51    1.81 
   1  -4   5  114.49    1.79 
  -2   4  -5    2.23    0.17 
  -2   4  -5    2.26    0.16 
   2  -4   5    2.22    0.16 
   2  -4   5    2.11    0.16 
  -3   4  -5    2.18    0.16 
  -3   4  -5    2.27    0.16 
   3  -4   5    2.20    0.17 
   3  -4   5    2.10    0.16 
  -4   4  -5    2.20    0.17 
  -4   4  -5    1.95    0.17 
   4  -4   5    2.04    0.19 
   4  -4   5    1.96    0.17 
  -5   4  -5   -0.02    0.06 
  -5   4  -5   -0.02    0.06 
   5  -4   5   -0.02    0.06 
  -6   4  -5    0.53    0.12 
  -6   4  -5    0.41    0.10 
   6  -4   5    0.45    0.12 
   6  -4   5    0.36    0.10 
  -7   4  -5    1.25    0.16 
  -7   4  -5    1.06    0.15 
   7  -4   5    0.97    0.15 
   7  -4   5    1.31    0.17 
   8  -4   5    1.68    0.20 
   8  -4   5    1.49    0.20 
   8   3  -5    0.68    0.18 
   8   3  -5    0.56    0.13 
   7   3  -5    0.28    0.13 
   7   3  -5    0.60    0.12 
   6   3  -5    2.29    0.18 
   6   3  -5    2.34    0.22 
  -6  -3   5    2.20    0.14 
   5   3  -5    2.53    0.20 
   5   3  -5    2.27    0.17 
   5   3  -5    2.11    0.15 
   5   3  -5    2.37    0.15 
  -5  -3   5    2.37    0.12 
  -5  -3   5    2.29    0.13 
   4   3  -5   -0.01    0.05 
   4   3  -5    0.02    0.07 
   4   3  -5   -0.03    0.05 
   4   3  -5    0.07    0.05 
  -4  -3   5    0.00    0.04 
  -4  -3   5    0.01    0.04 
   3   3  -5    5.92    0.25 
   3   3  -5    5.72    0.21 
   3   3  -5    5.96    0.23 
   3   3  -5    6.07    0.21 
  -3  -3   5    6.19    0.20 
  -3  -3   5    5.88    0.21 
   2   3  -5    5.12    0.19 
   2   3  -5    4.80    0.21 
   2   3  -5    4.92    0.20 
   2   3  -5    5.05    0.19 
  -2  -3   5    4.91    0.18 
  -2  -3   5    5.17    0.18 
  -2  -3   5    4.67    0.18 
   1   3  -5    8.27    0.26 
   1   3  -5    8.62    0.25 
   1   3  -5    8.52    0.25 
  -1  -3   5    8.45    0.25 
  -1  -3   5    8.76    0.25 
  -1  -3   5    8.77    0.24 
   0   3  -5    1.48    0.11 
   0   3  -5    1.26    0.11 
   0   3  -5    1.21    0.10 
   0   3  -5    1.21    0.10 
   0   3  -5    1.47    0.11 
   0  -3   5    1.25    0.11 
   0  -3   5    1.11    0.10 
   0  -3   5    1.25    0.11 
  -1   3  -5   16.25    0.36 
  -1   3  -5   15.78    0.38 
  -1   3  -5   15.17    0.37 
   1  -3   5   15.34    0.37 
   1  -3   5   16.10    0.36 
   1  -3   5   15.48    0.38 
  -2   3  -5   10.23    0.28 
  -2   3  -5   10.11    0.30 
  -2   3  -5    9.98    0.29 
   2  -3   5   10.23    0.30 
   2  -3   5   10.07    0.30 
   2  -3   5   10.24    0.28 
  -3   3  -5    0.03    0.05 
  -3   3  -5    0.12    0.06 
   3  -3   5    0.12    0.06 
   3  -3   5    0.04    0.06 
   3  -3   5    0.13    0.06 
  -4   3  -5    0.27    0.08 
  -4   3  -5    0.06    0.06 
   4  -3   5    0.27    0.08 
  -5   3  -5    1.00    0.13 
  -5   3  -5    1.12    0.15 
   5  -3   5    0.75    0.11 
  -6   3  -5    2.38    0.18 
  -6   3  -5    2.49    0.19 
   6  -3   5    2.34    0.18 
   6  -3   5    2.71    0.21 
  -7   3  -5    0.47    0.11 
  -7   3  -5    0.42    0.10 
   7  -3   5    0.34    0.12 
   7  -3   5    0.54    0.12 
  -8   3  -5    1.33    0.18 
  -8   3  -5    0.89    0.14 
   8  -3   5    0.78    0.15 
   8  -3   5    0.87    0.16 
   8   2  -5    0.16    0.12 
   8   2  -5   -0.12    0.07 
   7   2  -5    0.62    0.12 
   7   2  -5    0.97    0.18 
   6   2  -5    0.81    0.15 
   6   2  -5    0.67    0.11 
   6   2  -5    0.93    0.16 
  -6  -2   5    0.72    0.08 
   5   2  -5   13.10    0.36 
   5   2  -5   12.72    0.43 
   5   2  -5   13.13    0.34 
   5   2  -5   12.85    0.35 
  -5  -2   5   12.80    0.30 
   4   2  -5   12.85    0.32 
   4   2  -5   12.31    0.32 
   4   2  -5   13.09    0.34 
   4   2  -5   12.27    0.39 
  -4  -2   5   12.82    0.27 
  -4  -2   5   12.53    0.29 
   3   2  -5    1.30    0.13 
   3   2  -5    1.43    0.10 
   3   2  -5    1.56    0.12 
   3   2  -5    1.28    0.10 
  -3  -2   5    1.40    0.09 
  -3  -2   5    1.45    0.09 
  -3  -2   5    1.44    0.10 
   2   2  -5    5.74    0.19 
   2   2  -5    5.40    0.18 
   2   2  -5    5.61    0.19 
  -2  -2   5    5.79    0.17 
  -2  -2   5    5.75    0.18 
  -2  -2   5    6.07    0.18 
   1   2  -5    0.34    0.06 
   1   2  -5    0.52    0.06 
   1   2  -5    0.45    0.06 
   1   2  -5    0.40    0.06 
  -1  -2   5    0.57    0.06 
  -1  -2   5    0.27    0.05 
  -1  -2   5    0.48    0.06 
   0   2  -5    2.30    0.12 
   0   2  -5    2.32    0.11 
   0   2  -5    2.27    0.12 
   0   2  -5    2.36    0.12 
   0   2  -5    2.23    0.12 
   0  -2   5    2.23    0.12 
   0  -2   5    2.19    0.11 
   0  -2   5    2.34    0.12 
  -1   2  -5   98.38    1.49 
  -1   2  -5   97.14    1.48 
  -1   2  -5   96.53    1.50 
  -1   2  -5   97.82    1.47 
   1  -2   5   97.66    1.49 
   1  -2   5   97.26    1.47 
   1  -2   5   97.72    1.49 
  -2   2  -5   36.37    0.67 
  -2   2  -5   36.90    0.67 
  -2   2  -5   36.06    0.65 
   2  -2   5   37.05    0.67 
   2  -2   5   36.35    0.67 
   2  -2   5   35.90    0.65 
  -3   2  -5    9.11    0.28 
  -3   2  -5    9.34    0.28 
  -3   2  -5    9.04    0.26 
   3  -2   5    8.60    0.26 
   3  -2   5    8.98    0.28 
  -4   2  -5    1.45    0.13 
  -4   2  -5    1.28    0.13 
   4  -2   5    1.35    0.13 
   4  -2   5    1.56    0.13 
  -5   2  -5    1.36    0.14 
  -5   2  -5    1.15    0.13 
   5  -2   5    1.59    0.16 
   5  -2   5    1.22    0.13 
  -6   2  -5    0.08    0.07 
  -6   2  -5    0.04    0.06 
   6  -2   5    0.07    0.07 
   6  -2   5   -0.06    0.06 
  -7   2  -5    1.02    0.14 
  -7   2  -5    0.81    0.13 
   7  -2   5    0.77    0.14 
   7  -2   5    0.99    0.14 
  -8   2  -5    3.02    0.22 
  -8   2  -5    2.73    0.21 
   8  -2   5    2.79    0.22 
   8  -2   5    3.07    0.25 
   9  -2   5    1.11    0.17 
   9  -2   5    0.84    0.16 
   8   1  -5    0.09    0.09 
   8   1  -5   -0.06    0.11 
   7   1  -5    0.01    0.07 
   7   1  -5   -0.04    0.10 
   6   1  -5    3.05    0.18 
   6   1  -5    2.90    0.16 
   6   1  -5    2.97    0.25 
   6   1  -5    3.07    0.17 
  -6  -1   5    2.95    0.12 
   5   1  -5   55.81    0.95 
   5   1  -5   56.75    0.95 
   5   1  -5   57.22    0.97 
   5   1  -5   57.86    1.11 
  -5  -1   5   55.15    0.88 
  -5  -1   5   58.88    0.90 
   4   1  -5   21.87    0.44 
   4   1  -5   21.70    0.44 
   4   1  -5   22.39    0.46 
   4   1  -5   22.52    0.55 
  -4  -1   5   22.12    0.40 
   3   1  -5    0.68    0.07 
   3   1  -5    1.04    0.12 
   3   1  -5    0.95    0.08 
   3   1  -5    1.07    0.08 
  -3  -1   5    0.74    0.06 
  -3  -1   5    0.85    0.06 
  -3  -1   5    0.95    0.06 
  -3  -1   5    0.88    0.05 
   2   1  -5    1.00    0.07 
   2   1  -5    1.01    0.08 
   2   1  -5    0.84    0.09 
   2   1  -5    0.87    0.08 
  -2  -1   5    1.00    0.06 
  -2  -1   5    1.01    0.07 
  -2  -1   5    1.01    0.06 
  -2  -1   5    0.96    0.06 
   1   1  -5   31.43    0.55 
   1   1  -5   31.30    0.55 
   1   1  -5   31.04    0.55 
   1   1  -5   31.59    0.58 
   1   1  -5   31.92    0.54 
  -1  -1   5   32.03    0.54 
  -1  -1   5   31.55    0.60 
  -1  -1   5   31.20    0.52 
  -1  -1   5   31.06    0.54 
  -1  -1   5   31.54    0.53 
   0   1  -5    0.10    0.04 
   0   1  -5    0.08    0.04 
   0   1  -5    0.07    0.04 
   0   1  -5    0.11    0.04 
   0   1  -5    0.00    0.04 
   0  -1   5    0.12    0.04 
   0  -1   5    0.16    0.05 
   0  -1   5    0.04    0.03 
   0  -1   5    0.09    0.05 
   0  -1   5    0.08    0.04 
  -1   1  -5   14.76    0.32 
  -1   1  -5   15.52    0.33 
  -1   1  -5   15.17    0.31 
  -1   1  -5   14.56    0.33 
   1  -1   5   15.28    0.33 
   1  -1   5   15.54    0.33 
   1  -1   5   15.56    0.33 
   1  -1   5   15.09    0.33 
   1  -1   5   14.96    0.32 
  -2   1  -5   57.66    0.94 
  -2   1  -5   57.87    0.93 
  -2   1  -5   55.27    0.94 
   2  -1   5   57.65    0.94 
   2  -1   5   55.38    0.90 
   2  -1   5   58.13    0.93 
   2  -1   5   59.95    1.00 
   2  -1   5   57.43    0.95 
  -3   1  -5    0.04    0.04 
  -3   1  -5    0.06    0.05 
  -3   1  -5    0.08    0.05 
   3  -1   5    0.01    0.04 
   3  -1   5    0.06    0.04 
   3  -1   5    0.06    0.04 
   3  -1   5    0.04    0.04 
  -4   1  -5    4.21    0.19 
  -4   1  -5    4.24    0.19 
  -4   1  -5    4.66    0.19 
   4  -1   5    4.20    0.18 
   4  -1   5    4.24    0.19 
   4  -1   5    4.47    0.20 
  -5   1  -5    1.27    0.14 
  -5   1  -5    1.23    0.13 
   5  -1   5    1.09    0.12 
   5  -1   5    1.34    0.14 
  -6   1  -5    0.04    0.06 
  -6   1  -5    0.07    0.07 
   6  -1   5    0.08    0.06 
   6  -1   5    0.04    0.07 
  -7   1  -5   -0.11    0.05 
  -7   1  -5   -0.05    0.05 
   7  -1   5    0.00    0.07 
   7  -1   5   -0.04    0.07 
  -8   1  -5    0.31    0.10 
  -8   1  -5    0.18    0.09 
   8  -1   5    0.40    0.12 
   8  -1   5    0.45    0.11 
  -9   1  -5    1.21    0.16 
  -9   1  -5    1.38    0.19 
   9  -1   5    0.99    0.15 
   9  -1   5    1.16    0.19 
   8   0  -5    0.58    0.16 
   8   0  -5    0.71    0.13 
   7   0  -5    0.37    0.10 
   7   0  -5    0.19    0.11 
   6   0  -5    2.85    0.15 
   6   0  -5    3.14    0.17 
   6   0  -5    3.03    0.24 
   6   0  -5    3.32    0.16 
  -6   0   5    3.28    0.10 
  -6   0   5    3.13    0.10 
   5   0  -5    0.26    0.11 
   5   0  -5    0.32    0.07 
   5   0  -5    0.34    0.06 
   5   0  -5    0.36    0.06 
  -5   0   5    0.29    0.04 
  -5   0   5    0.33    0.04 
   4   0  -5    4.99    0.25 
   4   0  -5    5.20    0.17 
   4   0  -5    5.07    0.17 
   4   0  -5    5.44    0.17 
  -4   0   5    5.26    0.12 
  -4   0   5    5.29    0.12 
   3   0  -5    2.39    0.15 
   3   0  -5    2.25    0.10 
   3   0  -5    2.46    0.10 
   3   0  -5    2.43    0.10 
  -3   0   5    2.30    0.08 
  -3   0   5    2.25    0.08 
   2   0  -5    6.15    0.16 
   2   0  -5    6.36    0.22 
   2   0  -5    6.15    0.16 
   2   0  -5    6.01    0.16 
  -2   0   5    6.06    0.14 
  -2   0   5    6.31    0.14 
   1   0  -5   15.57    0.29 
   1   0  -5   15.59    0.30 
   1   0  -5   15.74    0.30 
   1   0  -5   15.33    0.34 
   1   0  -5   15.69    0.30 
  -1   0   5   15.47    0.35 
  -1   0   5   15.37    0.27 
  -1   0   5   15.72    0.28 
  -1   0   5   15.59    0.28 
   0   0  -5   64.88    0.97 
   0   0  -5   64.84    0.98 
   0   0  -5   63.85    0.98 
   0   0  -5   64.67    0.98 
   0   0  -5   63.29    0.99 
   0   0   5   65.17    0.97 
   0   0   5   64.18    0.96 
   0   0   5   64.35    0.97 
   0   0   5   65.20    0.97 
   0   0   5   64.49    1.01 
   0   0   5   63.84    0.97 
  -1   0  -5   35.75    0.58 
  -1   0  -5   35.86    0.60 
  -1   0  -5   36.10    0.61 
  -1   0  -5   36.15    0.61 
   1   0   5   35.64    0.60 
   1   0   5   35.59    0.60 
   1   0   5   36.33    0.60 
   1   0   5   35.91    0.61 
   1   0   5   35.96    0.60 
   1   0   5   36.07    0.60 
  -2   0  -5   42.23    0.73 
  -2   0  -5   42.77    0.73 
  -2   0  -5   42.75    0.71 
   2   0   5   43.41    0.73 
   2   0   5   43.38    0.71 
   2   0   5   42.14    0.68 
   2   0   5   43.33    0.72 
   2   0   5   42.95    0.72 
  -3   0  -5   66.26    1.07 
  -3   0  -5   67.22    1.07 
  -3   0  -5   65.32    1.05 
   3   0   5   64.98    1.00 
   3   0   5   65.24    1.05 
   3   0   5   67.09    1.06 
   3   0   5   65.44    1.07 
  -4   0  -5    0.51    0.08 
  -4   0  -5    0.57    0.08 
   4   0   5    0.51    0.07 
   4   0   5    0.64    0.09 
   4   0   5    0.54    0.08 
  -5   0  -5   10.51    0.31 
  -5   0  -5    9.24    0.30 
   5   0   5   10.09    0.32 
   5   0   5    9.64    0.30 
   5   0   5   10.12    0.32 
  -6   0  -5    0.97    0.12 
  -6   0  -5    0.82    0.10 
   6   0   5    1.33    0.15 
   6   0   5    1.18    0.13 
  -7   0  -5    0.09    0.07 
  -7   0  -5    0.08    0.07 
   7   0   5    0.19    0.08 
   7   0   5    0.12    0.09 
  -8   0  -5    0.07    0.07 
  -8   0  -5    0.10    0.08 
   8   0   5    0.07    0.09 
   8   0   5    0.01    0.07 
  -9   0  -5    0.21    0.10 
  -9   0  -5    0.18    0.09 
   9   0   5    0.13    0.09 
   9   0   5    0.21    0.11 
   8  -1  -5   -0.02    0.12 
   8  -1  -5    0.03    0.06 
   7  -1  -5    0.12    0.10 
   7  -1  -5    0.05    0.06 
   6  -1  -5    4.40    0.17 
   6  -1  -5    4.59    0.19 
   6  -1  -5    4.29    0.17 
   5  -1  -5    1.27    0.09 
   5  -1  -5    1.39    0.11 
   5  -1  -5    1.43    0.09 
   4  -1  -5   40.03    0.64 
   4  -1  -5   39.34    0.64 
   4  -1  -5   39.63    0.65 
   4  -1  -5   40.63    0.81 
   3  -1  -5   38.25    0.74 
   3  -1  -5   38.97    0.61 
   3  -1  -5   38.40    0.60 
   3  -1  -5   38.44    0.60 
   2  -1  -5    6.22    0.21 
   2  -1  -5    6.39    0.15 
   2  -1  -5    6.43    0.14 
   2  -1  -5    6.49    0.14 
   1  -1  -5    0.35    0.05 
   1  -1  -5    0.52    0.04 
   1  -1  -5    0.51    0.04 
   1  -1  -5    0.48    0.04 
   1  -1  -5    0.45    0.04 
  -1   1   5    0.55    0.04 
  -1   1   5    0.49    0.03 
   0  -1  -5    0.77    0.06 
   0  -1  -5    0.80    0.06 
   0  -1  -5    0.80    0.05 
   0  -1  -5    0.87    0.06 
   0   1   5    0.62    0.05 
   0   1   5    0.82    0.05 
   0   1   5    0.83    0.05 
   0   1   5    0.86    0.05 
   0   1   5    0.64    0.06 
   0   1   5    0.80    0.05 
   0   1   5    0.74    0.05 
  -1  -1  -5    2.69    0.11 
  -1  -1  -5    2.75    0.09 
  -1  -1  -5    2.81    0.11 
  -1  -1  -5    2.94    0.11 
   1   1   5    2.68    0.10 
   1   1   5    2.81    0.10 
   1   1   5    2.74    0.10 
   1   1   5    2.56    0.10 
   1   1   5    2.72    0.10 
  -2  -1  -5    0.16    0.04 
  -2  -1  -5    0.09    0.04 
  -2  -1  -5    0.10    0.04 
   2   1   5    0.05    0.03 
   2   1   5    0.08    0.03 
   2   1   5    0.04    0.03 
   2   1   5    0.05    0.03 
   2   1   5    0.10    0.02 
  -3  -1  -5   11.82    0.30 
  -3  -1  -5   12.34    0.30 
   3   1   5   12.23    0.31 
   3   1   5   12.83    0.30 
   3   1   5   12.72    0.30 
   3   1   5   12.08    0.29 
  -4  -1  -5    3.59    0.17 
  -4  -1  -5    3.40    0.16 
   4   1   5    3.38    0.15 
   4   1   5    3.22    0.16 
   4   1   5    3.58    0.16 
  -5  -1  -5    1.71    0.13 
   5   1   5    1.73    0.12 
   5   1   5    1.76    0.13 
   5   1   5    1.70    0.13 
   5   1   5    1.83    0.15 
  -6  -1  -5    2.35    0.17 
  -6  -1  -5    2.22    0.16 
   6   1   5    1.99    0.15 
   6   1   5    2.40    0.17 
   6   1   5    2.15    0.18 
  -7  -1  -5    1.25    0.14 
  -7  -1  -5    1.11    0.13 
   7   1   5    1.81    0.16 
   7   1   5    1.46    0.16 
  -8  -1  -5    2.32    0.18 
  -8  -1  -5    2.37    0.20 
   8   1   5    2.84    0.23 
   8   1   5    2.49    0.19 
  -9  -1  -5    1.41    0.16 
  -9  -1  -5    1.66    0.18 
   9   1   5    1.48    0.17 
   9   1   5    2.62    0.25 
  10   1   5    1.67    0.20 
   8  -2  -5    0.30    0.09 
   8  -2  -5    0.39    0.08 
   7  -2  -5    2.93    0.17 
   6  -2  -5    0.45    0.07 
   6  -2  -5    0.47    0.07 
   6  -2  -5    0.58    0.08 
   5  -2  -5    8.45    0.21 
   5  -2  -5    8.20    0.22 
   5  -2  -5    8.27    0.21 
   5  -2  -5    8.43    0.21 
   4  -2  -5    5.12    0.13 
   4  -2  -5    5.02    0.14 
   4  -2  -5    5.04    0.13 
   3  -2  -5    2.44    0.07 
   2  -2  -5    0.03    0.02 
   1  -2  -5    0.63    0.04 
   1  -2  -5    0.70    0.04 
   1  -2  -5    0.53    0.06 
   0  -2  -5   12.19    0.23 
   0  -2  -5   12.31    0.23 
   0  -2  -5   12.04    0.23 
   0  -2  -5   12.39    0.23 
   0  -2  -5   12.11    0.25 
   0   2   5   12.67    0.22 
   0   2   5   12.46    0.22 
  -1  -2  -5   11.67    0.24 
  -1  -2  -5   11.30    0.24 
  -1  -2  -5   11.54    0.21 
  -1  -2  -5   11.70    0.25 
   1   2   5   11.68    0.23 
   1   2   5   11.80    0.23 
   1   2   5   11.69    0.24 
   1   2   5   11.93    0.24 
   1   2   5   11.54    0.23 
  -2  -2  -5   17.24    0.34 
  -2  -2  -5   16.35    0.34 
  -2  -2  -5   16.52    0.35 
   2   2   5   16.95    0.34 
   2   2   5   16.96    0.28 
   2   2   5   16.76    0.33 
   2   2   5   17.30    0.34 
   2   2   5   16.89    0.34 
   2   2   5   17.05    0.34 
  -3  -2  -5    9.29    0.25 
  -3  -2  -5    9.10    0.24 
  -3  -2  -5    8.85    0.25 
   3   2   5    9.26    0.24 
   3   2   5    9.13    0.24 
   3   2   5    8.82    0.25 
   3   2   5    8.84    0.24 
   3   2   5    9.04    0.24 
  -4  -2  -5   14.28    0.36 
  -4  -2  -5   14.29    0.36 
  -4  -2  -5   13.97    0.34 
   4   2   5   14.01    0.36 
   4   2   5   14.67    0.34 
   4   2   5   14.44    0.34 
   4   2   5   14.04    0.34 
  -5  -2  -5    6.39    0.23 
  -5  -2  -5    6.28    0.24 
   5   2   5    6.21    0.23 
   5   2   5    6.15    0.22 
   5   2   5    5.97    0.22 
   5   2   5    6.36    0.25 
  -6  -2  -5    0.03    0.05 
  -6  -2  -5    0.07    0.06 
   6   2   5    0.00    0.06 
   6   2   5   -0.01    0.06 
  -7  -2  -5    0.37    0.10 
  -7  -2  -5    0.57    0.10 
   7   2   5    0.49    0.11 
   7   2   5    0.34    0.09 
  -8  -2  -5    0.82    0.13 
  -8  -2  -5    1.01    0.14 
   8   2   5    0.91    0.13 
   8   2   5    1.25    0.18 
  -9  -2  -5   -0.05    0.07 
   9   2   5    0.05    0.10 
   9   2   5   -0.18    0.07 
 -10  -2  -5    1.35    0.19 
  10   2   5    1.27    0.18 
  10   2   5    1.56    0.21 
   8  -3  -5    0.75    0.09 
   8  -3  -5    0.57    0.10 
   7  -3  -5    1.99    0.14 
   7  -3  -5    1.81    0.12 
   6  -3  -5    1.58    0.10 
   6  -3  -5    1.49    0.09 
   6  -3  -5    1.58    0.11 
   5  -3  -5   17.27    0.33 
   5  -3  -5   17.06    0.32 
   5  -3  -5   17.13    0.34 
   5  -3  -5   16.67    0.33 
   5  -3  -5   16.89    0.32 
   4  -3  -5    0.73    0.05 
   1  -3  -5   17.11    0.27 
   0  -3  -5   25.70    0.41 
   0  -3  -5   25.59    0.41 
   0  -3  -5   25.92    0.41 
   0  -3  -5   25.13    0.41 
   0   3   5   25.43    0.39 
   0   3   5   25.54    0.38 
  -1  -3  -5   15.28    0.29 
  -1  -3  -5   14.93    0.29 
  -1  -3  -5   14.84    0.24 
  -1  -3  -5   14.61    0.29 
  -1  -3  -5   14.23    0.29 
   1   3   5   14.34    0.27 
   1   3   5   14.87    0.28 
   1   3   5   14.80    0.27 
   1   3   5   15.09    0.27 
   1   3   5   14.81    0.27 
  -2  -3  -5    0.55    0.06 
  -2  -3  -5    0.47    0.05 
  -2  -3  -5    0.38    0.06 
  -2  -3  -5    0.64    0.06 
   2   3   5    0.56    0.06 
   2   3   5    0.54    0.06 
   2   3   5    0.47    0.06 
   2   3   5    0.53    0.05 
   2   3   5    0.53    0.05 
  -3  -3  -5    6.61    0.21 
  -3  -3  -5    7.15    0.21 
  -3  -3  -5    6.83    0.21 
   3   3   5    7.23    0.20 
   3   3   5    7.17    0.21 
   3   3   5    7.29    0.21 
   3   3   5    7.15    0.22 
   3   3   5    7.11    0.12 
   3   3   5    7.11    0.21 
  -4  -3  -5   13.24    0.34 
  -4  -3  -5   13.74    0.34 
  -4  -3  -5   13.79    0.35 
   4   3   5   13.66    0.34 
   4   3   5   13.77    0.34 
   4   3   5   14.34    0.36 
  -5  -3  -5    9.70    0.31 
  -5  -3  -5    9.36    0.29 
   5   3   5    9.57    0.29 
   5   3   5    9.46    0.32 
   5   3   5    9.39    0.30 
  -6  -3  -5    0.90    0.11 
  -6  -3  -5    0.76    0.10 
   6   3   5    0.79    0.12 
  -7  -3  -5    0.63    0.12 
  -7  -3  -5    0.62    0.11 
   7   3   5    0.87    0.12 
   7   3   5    0.37    0.10 
  -8  -3  -5    0.18    0.09 
   8   3   5    0.12    0.08 
   8   3   5    0.10    0.09 
  -9  -3  -5    1.54    0.18 
   9   3   5    1.44    0.20 
   9   3   5    1.45    0.18 
 -10  -3  -5    0.35    0.11 
  10   3   5    0.22    0.11 
  10   3   5    0.41    0.14 
   8  -4  -5    1.34    0.12 
   8  -4  -5    1.21    0.13 
   7  -4  -5    0.56    0.09 
   7  -4  -5    0.52    0.07 
   6  -4  -5    0.08    0.04 
   6  -4  -5    0.09    0.04 
   5  -4  -5    0.69    0.07 
   5  -4  -5    0.67    0.06 
   5  -4  -5    0.68    0.06 
   5  -4  -5    0.60    0.06 
   4  -4  -5    5.56    0.13 
   4  -4  -5    5.64    0.13 
   1  -4  -5   15.86    0.26 
   0  -4  -5    6.09    0.15 
   0  -4  -5    5.91    0.15 
   0  -4  -5    6.07    0.15 
   0  -4  -5    6.08    0.14 
   0   4   5    6.27    0.12 
   0   4   5    6.14    0.12 
  -1  -4  -5   92.49    1.37 
  -1  -4  -5   93.38    1.37 
  -1  -4  -5   93.03    1.37 
  -1  -4  -5   91.88    1.36 
   1   4   5   93.51    1.35 
   1   4   5   93.48    1.35 
   1   4   5   93.66    1.33 
   1   4   5   93.43    1.34 
  -2  -4  -5    7.38    0.20 
  -2  -4  -5    7.59    0.21 
  -2  -4  -5    7.19    0.21 
  -2  -4  -5    7.44    0.20 
   2   4   5    7.32    0.20 
   2   4   5    7.75    0.20 
   2   4   5    7.42    0.20 
   2   4   5    7.63    0.19 
  -3  -4  -5    6.81    0.22 
  -3  -4  -5    6.60    0.21 
  -3  -4  -5    6.98    0.21 
  -3  -4  -5    6.88    0.21 
   3   4   5    7.06    0.22 
   3   4   5    6.80    0.21 
   3   4   5    7.04    0.21 
  -4  -4  -5   59.69    1.01 
  -4  -4  -5   61.59    1.03 
  -4  -4  -5   60.78    1.01 
  -4  -4  -5   60.28    1.00 
   4   4   5   59.09    0.88 
   4   4   5   61.17    1.01 
   4   4   5   59.75    1.01 
   4   4   5   60.18    1.03 
  -5  -4  -5   38.35    0.72 
   5   4   5   38.45    0.75 
   5   4   5   37.41    0.64 
  -6  -4  -5    4.52    0.23 
  -6  -4  -5    4.47    0.22 
   6   4   5    4.72    0.24 
  -7  -4  -5    4.20    0.23 
   7   4   5    4.76    0.26 
  -8  -4  -5    0.12    0.08 
   8   4   5    0.18    0.10 
  -9  -4  -5    0.30    0.10 
   9   4   5    0.22    0.11 
   9   4   5    0.36    0.13 
 -10  -4  -5   -0.03    0.08 
  10   4   5    0.16    0.10 
  10   4   5   -0.07    0.09 
  10   4   5   -0.08    0.08 
   7  -5  -5    0.34    0.06 
   7  -5  -5    0.32    0.07 
   6  -5  -5    0.69    0.08 
   6  -5  -5    0.78    0.08 
   5  -5  -5    3.30    0.12 
   5  -5  -5    3.13    0.12 
   4  -5  -5    6.89    0.16 
   4  -5  -5    7.15    0.16 
   4  -5  -5    6.85    0.17 
   3  -5  -5    0.86    0.05 
   3  -5  -5    0.80    0.05 
   2  -5  -5   37.97    0.57 
   2  -5  -5   38.37    0.58 
   1  -5  -5   14.52    0.27 
   1  -5  -5   15.13    0.27 
   1  -5  -5   14.95    0.27 
   0  -5  -5   26.51    0.46 
   0  -5  -5   27.15    0.46 
   0  -5  -5   27.10    0.45 
   0   5   5   27.09    0.42 
  -1  -5  -5   15.30    0.32 
  -1  -5  -5   15.26    0.32 
  -1  -5  -5   15.25    0.32 
  -1  -5  -5   15.37    0.31 
   1   5   5   15.27    0.29 
   1   5   5   15.56    0.28 
   1   5   5   15.75    0.29 
   1   5   5   15.12    0.30 
  -2  -5  -5    8.27    0.23 
  -2  -5  -5    8.40    0.23 
  -2  -5  -5    8.07    0.23 
  -2  -5  -5    8.66    0.24 
   2   5   5    8.55    0.22 
   2   5   5    8.44    0.22 
   2   5   5    8.26    0.21 
   2   5   5    8.33    0.22 
  -3  -5  -5    1.76    0.12 
  -3  -5  -5    1.55    0.12 
  -3  -5  -5    1.50    0.12 
  -3  -5  -5    1.78    0.13 
   3   5   5    1.41    0.11 
   3   5   5    1.51    0.11 
   3   5   5    1.49    0.11 
  -4  -5  -5    7.45    0.26 
  -4  -5  -5    8.11    0.25 
  -4  -5  -5    7.49    0.26 
  -4  -5  -5    7.99    0.26 
   4   5   5    7.89    0.26 
   4   5   5    8.01    0.16 
   4   5   5    8.05    0.26 
  -5  -5  -5    4.42    0.21 
  -5  -5  -5    4.91    0.22 
   5   5   5    4.43    0.14 
   5   5   5    4.38    0.22 
  -6  -5  -5    1.83    0.16 
   6   5   5    2.02    0.12 
   6   5   5    1.86    0.18 
  -7  -5  -5    0.18    0.08 
   7   5   5    0.25    0.07 
   7   5   5    0.10    0.09 
  -8  -5  -5    0.03    0.07 
   8   5   5   -0.02    0.06 
   8   5   5    0.04    0.09 
  -9  -5  -5    0.15    0.09 
   9   5   5    0.18    0.09 
   9   5   5    0.09    0.11 
 -10  -5  -5    0.18    0.11 
  10   5   5    0.16    0.13 
  10   5   5    0.15    0.10 
   7  -6  -5    0.07    0.06 
   7  -6  -5    0.09    0.06 
   6  -6  -5    0.13    0.05 
   6  -6  -5    0.04    0.04 
   5  -6  -5    1.38    0.09 
   4  -6  -5    7.42    0.18 
   4  -6  -5    7.14    0.19 
   4  -6  -5    6.89    0.18 
   3  -6  -5    0.15    0.04 
   3  -6  -5    0.25    0.04 
   3  -6  -5    0.21    0.04 
   3  -6  -5    0.16    0.04 
   2  -6  -5    0.41    0.05 
   2  -6  -5    0.40    0.05 
   2  -6  -5    0.52    0.06 
   2  -6  -5    0.42    0.05 
   1  -6  -5   36.29    0.60 
   1  -6  -5   37.22    0.61 
   1  -6  -5   37.25    0.60 
   0  -6  -5    7.53    0.20 
   0  -6  -5    7.72    0.20 
   0  -6  -5    7.75    0.20 
   0   6   5    7.57    0.17 
  -1  -6  -5    1.04    0.08 
  -1  -6  -5    1.03    0.09 
  -1  -6  -5    0.88    0.08 
   1   6   5    1.00    0.06 
   1   6   5    0.93    0.07 
   1   6   5    1.09    0.07 
   1   6   5    1.08    0.07 
  -2  -6  -5   -0.06    0.04 
  -2  -6  -5    0.07    0.02 
  -2  -6  -5    0.05    0.05 
  -2  -6  -5    0.03    0.04 
   2   6   5   -0.03    0.04 
   2   6   5   -0.04    0.04 
   2   6   5   -0.05    0.04 
  -3  -6  -5   36.67    0.68 
  -3  -6  -5   36.56    0.67 
  -3  -6  -5   36.42    0.68 
   3   6   5   36.45    0.67 
   3   6   5   37.12    0.69 
  -4  -6  -5    0.05    0.06 
  -4  -6  -5    0.06    0.06 
   4   6   5    0.08    0.02 
   4   6   5    0.04    0.05 
  -5  -6  -5    3.63    0.21 
  -5  -6  -5    3.12    0.19 
   5   6   5    3.19    0.20 
   5   6   5    3.56    0.12 
  -6  -6  -5    1.93    0.18 
  -6  -6  -5    1.90    0.17 
   6   6   5    1.91    0.11 
   6   6   5    2.11    0.19 
  -7  -6  -5    0.84    0.13 
   7   6   5    0.82    0.10 
   7   6   5    0.82    0.15 
  -8  -6  -5    0.33    0.10 
   8   6   5    0.28    0.12 
   8   6   5    0.25    0.07 
  -9  -6  -5   -0.10    0.08 
   9   6   5    0.19    0.12 
   9   6   5    0.02    0.07 
   7  -7  -5    1.79    0.14 
   6  -7  -5    0.67    0.09 
   5  -7  -5    0.93    0.09 
   4  -7  -5    0.05    0.04 
   4  -7  -5    0.05    0.04 
   3  -7  -5    7.21    0.20 
   3  -7  -5    7.11    0.19 
   3  -7  -5    7.08    0.20 
   3  -7  -5    6.99    0.20 
   2  -7  -5   24.61    0.45 
   2  -7  -5   24.96    0.45 
   2  -7  -5   24.41    0.46 
   2  -7  -5   24.32    0.46 
   1  -7  -5   28.15    0.51 
   1  -7  -5   27.67    0.52 
   1  -7  -5   29.81    0.53 
  -1   7   5   27.94    0.44 
   0  -7  -5   27.91    0.53 
   0  -7  -5   28.75    0.53 
   0  -7  -5   29.24    0.54 
   0   7   5   29.37    0.49 
  -1  -7  -5    5.88    0.20 
  -1  -7  -5    6.23    0.21 
  -1  -7  -5    6.27    0.21 
  -1  -7  -5    6.14    0.16 
   1   7   5    6.13    0.18 
   1   7   5    5.99    0.17 
  -2  -7  -5   11.15    0.30 
  -2  -7  -5   11.34    0.31 
  -2  -7  -5   10.95    0.23 
  -2  -7  -5   10.98    0.30 
   2   7   5   11.10    0.29 
   2   7   5   11.33    0.29 
  -3  -7  -5    5.40    0.22 
  -3  -7  -5    5.21    0.21 
  -3  -7  -5    5.11    0.22 
  -3  -7  -5    5.13    0.14 
   3   7   5    5.39    0.21 
  -4  -7  -5    3.62    0.19 
  -4  -7  -5    3.50    0.20 
   4   7   5    3.67    0.20 
  -5  -7  -5    7.60    0.28 
  -5  -7  -5    7.52    0.30 
   5   7   5    6.96    0.29 
   5   7   5    7.48    0.19 
  -6  -7  -5    0.39    0.10 
  -6  -7  -5    0.46    0.11 
   6   7   5    0.50    0.12 
   6   7   5    0.43    0.06 
  -7  -7  -5    0.54    0.12 
  -7  -7  -5    0.11    0.08 
   7   7   5    0.41    0.07 
   7   7   5    0.36    0.12 
  -8  -7  -5    0.85    0.14 
   8   7   5    0.93    0.11 
   8   7   5    0.86    0.15 
  -9  -7  -5   -0.09    0.08 
   9   7   5    0.10    0.07 
   9   7   5   -0.01    0.09 
   6  -8  -5    1.63    0.14 
   6  -8  -5    1.62    0.15 
   5  -8  -5    0.32    0.07 
   5  -8  -5    0.25    0.06 
   4  -8  -5    0.68    0.08 
   4  -8  -5    0.77    0.10 
   3  -8  -5    0.35    0.07 
   3  -8  -5    0.48    0.08 
   3  -8  -5    0.45    0.10 
   2  -8  -5    2.75    0.14 
   2  -8  -5    2.74    0.14 
   2  -8  -5    2.74    0.13 
   2  -8  -5    2.76    0.15 
   1  -8  -5    5.25    0.20 
   1  -8  -5    5.09    0.20 
   1  -8  -5    5.68    0.21 
  -1   8   5    5.01    0.14 
   0  -8  -5    0.67    0.09 
   0  -8  -5    0.74    0.09 
   0  -8  -5    0.78    0.09 
   0   8   5    0.58    0.07 
   0   8   5    0.67    0.06 
  -1  -8  -5    3.75    0.18 
  -1  -8  -5    3.91    0.17 
  -1  -8  -5    3.92    0.18 
  -1  -8  -5    3.89    0.14 
   1   8   5    3.88    0.15 
  -2  -8  -5    4.79    0.15 
  -2  -8  -5    4.55    0.20 
  -2  -8  -5    4.78    0.21 
  -2  -8  -5    4.76    0.21 
   2   8   5    4.80    0.19 
  -3  -8  -5   11.06    0.33 
  -3  -8  -5   12.26    0.36 
  -3  -8  -5   11.86    0.41 
  -3  -8  -5   11.34    0.26 
   3   8   5   11.79    0.34 
  -4  -8  -5   12.43    0.37 
  -4  -8  -5   13.23    0.39 
   4   8   5   13.32    0.39 
  -5  -8  -5    0.37    0.10 
  -5  -8  -5    0.48    0.11 
   5   8   5    0.54    0.06 
   5   8   5    0.45    0.11 
  -6  -8  -5    0.57    0.12 
  -6  -8  -5    0.53    0.12 
   6   8   5    0.66    0.08 
   6   8   5    0.45    0.12 
  -7  -8  -5    0.51    0.12 
  -7  -8  -5    0.94    0.15 
   7   8   5    0.74    0.15 
   7   8   5    0.52    0.08 
  -8  -8  -5   -0.07    0.08 
  -8  -8  -5   -0.05    0.08 
   8   8   5    0.09    0.06 
   8   8   5    0.17    0.11 
  -9  -8  -5    0.00    0.09 
   9   8   5   -0.17    0.09 
   9   8   5   -0.04    0.10 
   5  -9  -5   -0.01    0.05 
   5  -9  -5   -0.07    0.06 
   4  -9  -5    0.08    0.06 
   4  -9  -5    0.13    0.07 
   3  -9  -5   12.47    0.33 
   3  -9  -5   12.38    0.34 
   2  -9  -5    6.29    0.25 
   2  -9  -5    6.21    0.23 
   1  -9  -5    3.14    0.17 
   1  -9  -5    3.72    0.19 
   0  -9  -5    5.82    0.22 
   0  -9  -5    5.42    0.22 
   0  -9  -5    6.01    0.24 
  -1  -9  -5   -0.08    0.05 
  -1  -9  -5    0.01    0.06 
  -1  -9  -5   -0.01    0.05 
   1   9   5    0.05    0.04 
  -2  -9  -5    3.49    0.21 
  -2  -9  -5    4.21    0.16 
  -2  -9  -5    3.90    0.20 
  -2  -9  -5    3.94    0.20 
   2   9   5    4.07    0.19 
  -3  -9  -5    1.38    0.14 
  -3  -9  -5    1.35    0.15 
  -3  -9  -5    1.45    0.11 
   3   9   5    1.62    0.15 
  -4  -9  -5   16.06    0.46 
  -4  -9  -5   14.75    0.43 
   4   9   5   16.23    0.45 
  -5  -9  -5   -0.04    0.07 
  -5  -9  -5   -0.01    0.09 
   5   9   5    0.17    0.09 
  -6  -9  -5    1.35    0.18 
  -6  -9  -5    1.46    0.17 
   6   9   5    1.53    0.11 
   6   9   5    1.35    0.18 
  -7  -9  -5    1.26    0.17 
  -7  -9  -5    1.28    0.17 
   7   9   5    1.33    0.12 
   7   9   5    1.39    0.20 
  -8  -9  -5    0.34    0.13 
  -8  -9  -5    0.23    0.11 
   8   9   5    0.14    0.07 
   8   9   5    0.25    0.13 
   9   9   5    0.40    0.15 
   4 -10  -5    0.33    0.09 
   4 -10  -5    0.36    0.10 
   3 -10  -5    0.45    0.09 
   3 -10  -5    0.33    0.09 
   2 -10  -5    9.35    0.31 
   2 -10  -5    9.80    0.33 
   1 -10  -5    1.67    0.15 
   1 -10  -5    1.69    0.16 
   0 -10  -5    3.23    0.20 
   0 -10  -5    3.28    0.19 
  -1 -10  -5    0.00    0.07 
  -1 -10  -5   -0.02    0.05 
   1  10   5    0.00    0.04 
  -2 -10  -5   -0.12    0.06 
  -2 -10  -5    0.15    0.07 
   2  10   5   -0.04    0.05 
  -3 -10  -5    0.96    0.13 
  -3 -10  -5    0.88    0.14 
   3  10   5    0.57    0.10 
  -4 -10  -5    2.55    0.20 
  -4 -10  -5    2.76    0.24 
   4  10   5    2.51    0.20 
  -5 -10  -5    6.55    0.33 
  -5 -10  -5    6.07    0.29 
   5  10   5    6.85    0.32 
  -6 -10  -5    2.29    0.22 
  -6 -10  -5    2.66    0.23 
   6  10   5    2.38    0.13 
   6  10   5    2.74    0.25 
  -7 -10  -5    0.55    0.14 
  -7 -10  -5    0.56    0.15 
   7  10   5    0.36    0.14 
   7  10   5    0.58    0.08 
  -8 -10  -5   -0.14    0.08 
  -8 -10  -5   -0.03    0.11 
   8  10   5    0.03    0.11 
   3 -11  -5    1.37    0.15 
   3 -11  -5    1.51    0.17 
   2 -11  -5    0.58    0.11 
   2 -11  -5    0.84    0.12 
   1 -11  -5    4.53    0.25 
   1 -11  -5    4.25    0.23 
   0 -11  -5    5.35    0.27 
   0 -11  -5    5.08    0.25 
  -1 -11  -5    0.37    0.10 
  -1 -11  -5    0.35    0.11 
  -2 -11  -5    0.37    0.10 
  -2 -11  -5    0.15    0.08 
   2  11   5    0.24    0.07 
  -3 -11  -5    0.44    0.13 
  -3 -11  -5    0.71    0.12 
   3  11   5    0.57    0.11 
  -4 -11  -5    0.71    0.13 
  -4 -11  -5    0.43    0.13 
   4  11   5    0.45    0.11 
  -5 -11  -5    0.51    0.12 
  -5 -11  -5    0.17    0.12 
   5  11   5    0.35    0.11 
  -6 -11  -5   -0.06    0.11 
  -6 -11  -5    0.20    0.10 
   6  11   5    0.02    0.11 
  -7 -11  -5    0.36    0.15 
  -7 -11  -5    0.27    0.12 
   7  11   5    0.42    0.16 
   2 -12  -5    1.43    0.18 
   2 -12  -5    1.03    0.15 
   1 -12  -5    0.22    0.11 
   1 -12  -5    0.41    0.11 
   0 -12  -5    0.07    0.09 
   0 -12  -5    0.09    0.09 
  -1 -12  -5    4.62    0.29 
  -1 -12  -5    4.16    0.25 
  -2 -12  -5    0.07    0.10 
  -2 -12  -5    0.06    0.09 
  -3 -12  -5    0.08    0.10 
  -3 -12  -5    0.06    0.09 
  -4 -12  -5   -0.02    0.09 
  -4 -12  -5    0.04    0.10 
   4  12   5   -0.03    0.08 
  -5 -12  -5    0.87    0.17 
  -5 -12  -5    0.57    0.13 
   5  12   5    0.60    0.14 
  -6 -12  -5    0.10    0.13 
  -6 -12  -5    0.16    0.11 
   6  12   5    0.26    0.12 
   0 -13  -5   -0.03    0.09 
   0 -13  -5   -0.05    0.10 
  -1 -13  -5    0.93    0.17 
  -1 -13  -5    1.26    0.17 
  -2 -13  -5    0.61    0.17 
  -2 -13  -5    0.51    0.12 
  -3 -13  -5    0.20    0.11 
  -3 -13  -5    0.24    0.12 
  -4 -13  -5    0.68    0.15 
  -4 -13  -5    0.86    0.17 
  -5 -13  -5   -0.03    0.12 
  -5 -13  -5    0.25    0.11 
   4   9  -6   -0.16    0.08 
   4   9  -6   -0.20    0.10 
  -4  -9   6   -0.13    0.09 
   3   9  -6    0.42    0.14 
   3   9  -6    0.42    0.16 
  -3  -9   6    0.44    0.14 
   2   9  -6    0.24    0.13 
  -2  -9   6   -0.02    0.11 
   1   9  -6    3.61    0.29 
  -1  -9   6    2.83    0.27 
   0   9  -6    0.39    0.12 
   0  -9   6    0.30    0.13 
   0  -9   6    0.22    0.13 
  -1   9  -6    0.02    0.09 
   1  -9   6   -0.07    0.09 
   1  -9   6    0.35    0.13 
  -2   9  -6    1.39    0.19 
   2  -9   6    1.48    0.21 
   2  -9   6    1.49    0.20 
  -3   9  -6    0.22    0.12 
   3  -9   6    0.57    0.16 
   3  -9   6    0.42    0.14 
   5   8  -6    1.16    0.19 
   5   8  -6    1.31    0.21 
   4   8  -6    1.21    0.18 
   4   8  -6    0.88    0.15 
  -4  -8   6    1.50    0.18 
   3   8  -6    1.48    0.18 
   3   8  -6    1.61    0.20 
  -3  -8   6    1.55    0.19 
   2   8  -6    0.09    0.09 
   2   8  -6    0.01    0.08 
  -2  -8   6    0.14    0.10 
  -2  -8   6   -0.07    0.12 
   1   8  -6    0.19    0.10 
  -1  -8   6    0.01    0.09 
  -1  -8   6    0.22    0.11 
   0   8  -6    1.53    0.20 
   0  -8   6    1.37    0.19 
   0  -8   6    1.35    0.18 
  -1   8  -6    2.20    0.22 
   1  -8   6    1.92    0.22 
   1  -8   6    2.10    0.23 
  -2   8  -6    2.44    0.23 
   2  -8   6    2.20    0.23 
   2  -8   6    2.11    0.23 
  -3   8  -6    0.15    0.12 
   3  -8   6    0.19    0.11 
   3  -8   6   -0.08    0.09 
  -4   8  -6    0.32    0.12 
   4  -8   6    0.21    0.13 
   4  -8   6    0.20    0.12 
   6   7  -6    0.92    0.18 
   6   7  -6    0.95    0.18 
   5   7  -6    2.05    0.22 
   5   7  -6    1.92    0.22 
   4   7  -6    0.28    0.11 
   4   7  -6   -0.03    0.08 
  -4  -7   6    0.16    0.09 
   3   7  -6    0.01    0.09 
   3   7  -6    0.05    0.08 
  -3  -7   6    0.04    0.09 
   2   7  -6    0.75    0.13 
   2   7  -6    0.53    0.11 
  -2  -7   6    0.65    0.12 
  -2  -7   6    1.13    0.16 
   1   7  -6    0.59    0.12 
   1   7  -6    1.04    0.14 
  -1  -7   6    0.57    0.13 
  -1  -7   6    0.76    0.12 
   0   7  -6    0.98    0.16 
   0  -7   6    0.70    0.14 
   0  -7   6    0.86    0.15 
  -1   7  -6    0.03    0.08 
   1  -7   6    0.09    0.09 
   1  -7   6    0.07    0.09 
  -2   7  -6    0.29    0.10 
   2  -7   6    0.32    0.11 
  -3   7  -6    1.05    0.16 
   3  -7   6    1.03    0.17 
   3  -7   6    0.82    0.14 
  -4   7  -6    2.49    0.23 
   4  -7   6    2.22    0.22 
   4  -7   6    2.01    0.22 
  -5   7  -6    0.21    0.12 
  -5   7  -6    0.21    0.10 
   5  -7   6    0.04    0.10 
   5  -7   6    0.09    0.10 
   7   6  -6    1.61    0.22 
   6   6  -6    0.25    0.15 
   6   6  -6    0.28    0.12 
   5   6  -6    0.05    0.09 
   5   6  -6    0.01    0.09 
  -5  -6   6    0.04    0.07 
   4   6  -6    0.67    0.15 
   4   6  -6    0.52    0.12 
  -4  -6   6    0.92    0.13 
   3   6  -6    6.11    0.30 
   3   6  -6    5.96    0.30 
  -3  -6   6    5.76    0.27 
  -3  -6   6    5.98    0.26 
   2   6  -6    0.00    0.07 
   2   6  -6    0.01    0.06 
   2   6  -6    0.01    0.08 
  -2  -6   6   -0.02    0.06 
  -2  -6   6   -0.01    0.07 
   1   6  -6   -0.02    0.06 
   1   6  -6    0.13    0.08 
  -1  -6   6   -0.13    0.06 
  -1  -6   6   -0.01    0.06 
   0   6  -6   12.85    0.41 
   0  -6   6   12.83    0.41 
   0  -6   6   13.08    0.42 
  -1   6  -6    2.49    0.20 
   1  -6   6    2.43    0.20 
   1  -6   6    2.41    0.20 
  -2   6  -6    0.05    0.07 
   2  -6   6    0.00    0.07 
   2  -6   6    0.14    0.08 
  -3   6  -6    2.57    0.21 
  -3   6  -6    3.15    0.22 
   3  -6   6    2.91    0.21 
   3  -6   6    2.95    0.23 
  -4   6  -6    1.01    0.15 
  -4   6  -6    0.89    0.14 
   4  -6   6    0.73    0.14 
   4  -6   6    0.91    0.15 
  -5   6  -6    0.62    0.13 
  -5   6  -6    0.67    0.15 
   5  -6   6    0.48    0.13 
   5  -6   6    0.38    0.12 
  -6   6  -6    0.08    0.09 
  -6   6  -6    0.10    0.09 
   6  -6   6   -0.03    0.08 
   6  -6   6    0.03    0.10 
   7   5  -6    0.32    0.12 
   7   5  -6    0.27    0.15 
   6   5  -6    0.10    0.11 
   6   5  -6    0.11    0.10 
   5   5  -6    2.33    0.21 
   5   5  -6    2.13    0.21 
  -5  -5   6    1.96    0.16 
   4   5  -6    1.30    0.16 
   4   5  -6    1.38    0.15 
   4   5  -6    1.12    0.16 
  -4  -5   6    1.26    0.14 
   3   5  -6   -0.07    0.05 
   3   5  -6   -0.08    0.06 
   3   5  -6   -0.04    0.06 
   3   5  -6   -0.09    0.05 
  -3  -5   6   -0.03    0.06 
  -3  -5   6   -0.02    0.06 
   2   5  -6    0.12    0.09 
   2   5  -6   -0.10    0.05 
   2   5  -6   -0.02    0.07 
   2   5  -6   -0.07    0.05 
  -2  -5   6   -0.06    0.06 
  -2  -5   6   -0.03    0.05 
   1   5  -6    6.78    0.28 
   1   5  -6    6.37    0.33 
   1   5  -6    6.69    0.26 
   1   5  -6    7.34    0.28 
  -1  -5   6    6.65    0.28 
  -1  -5   6    6.98    0.28 
   0   5  -6    4.25    0.23 
   0   5  -6    4.07    0.21 
   0   5  -6    4.72    0.22 
   0  -5   6    4.25    0.23 
   0  -5   6    4.30    0.23 
  -1   5  -6    5.42    0.26 
   1  -5   6    5.26    0.25 
   1  -5   6    5.22    0.25 
  -2   5  -6    7.35    0.30 
  -2   5  -6    7.42    0.30 
   2  -5   6    7.39    0.30 
   2  -5   6    7.49    0.31 
  -3   5  -6    6.46    0.28 
  -3   5  -6    6.14    0.28 
   3  -5   6    6.57    0.29 
   3  -5   6    6.59    0.30 
  -4   5  -6    0.59    0.12 
  -4   5  -6    0.72    0.12 
   4  -5   6    0.75    0.12 
   4  -5   6    0.59    0.11 
  -5   5  -6    0.87    0.15 
  -5   5  -6    0.54    0.12 
   5  -5   6    0.48    0.12 
   5  -5   6    0.57    0.12 
  -6   5  -6    0.36    0.11 
  -6   5  -6    0.28    0.10 
   6  -5   6    0.34    0.13 
   6  -5   6    0.37    0.11 
  -7   5  -6   -0.07    0.07 
  -7   5  -6   -0.12    0.07 
   7  -5   6    0.07    0.10 
   7  -5   6    0.05    0.09 
   7  -5   6    0.10    0.11 
   7   4  -6    0.10    0.09 
   7   4  -6    0.11    0.13 
   6   4  -6    5.58    0.29 
   6   4  -6    5.54    0.32 
   5   4  -6    0.17    0.10 
   5   4  -6    0.40    0.10 
  -5  -4   6    0.07    0.06 
   4   4  -6    2.01    0.17 
   4   4  -6    1.92    0.18 
   4   4  -6    1.86    0.15 
   4   4  -6    1.57    0.14 
  -4  -4   6    2.06    0.14 
  -4  -4   6    2.07    0.13 
   3   4  -6    2.64    0.17 
   3   4  -6    2.29    0.15 
   3   4  -6    2.56    0.19 
   3   4  -6    2.35    0.18 
  -3  -4   6    2.57    0.16 
   2   4  -6   13.66    0.38 
   2   4  -6   14.58    0.41 
   2   4  -6   14.51    0.40 
   2   4  -6   13.95    0.37 
  -2  -4   6   14.37    0.38 
  -2  -4   6   14.10    0.37 
   1   4  -6   12.64    0.36 
   1   4  -6   12.84    0.35 
   1   4  -6   12.64    0.35 
   1   4  -6   12.71    0.37 
  -1  -4   6   12.51    0.36 
  -1  -4   6   12.36    0.35 
   0   4  -6    2.82    0.16 
   0   4  -6    2.86    0.18 
   0   4  -6    3.22    0.18 
   0   4  -6    2.85    0.17 
   0  -4   6    3.04    0.18 
   0  -4   6    3.08    0.18 
  -1   4  -6    1.19    0.13 
  -1   4  -6    1.56    0.16 
  -1   4  -6    1.02    0.12 
   1  -4   6    1.41    0.14 
   1  -4   6    0.98    0.11 
  -2   4  -6   10.43    0.34 
  -2   4  -6   10.89    0.34 
   2  -4   6    9.57    0.33 
   2  -4   6   10.32    0.34 
  -3   4  -6   32.90    0.70 
  -3   4  -6   33.55    0.71 
   3  -4   6   32.93    0.72 
   3  -4   6   33.17    0.71 
  -4   4  -6    1.61    0.17 
  -4   4  -6    1.96    0.19 
   4  -4   6    1.68    0.17 
   4  -4   6    1.78    0.19 
  -5   4  -6    5.66    0.28 
  -5   4  -6    5.08    0.27 
   5  -4   6    5.19    0.27 
   5  -4   6    5.79    0.29 
  -6   4  -6    0.93    0.16 
  -6   4  -6    0.67    0.13 
   6  -4   6    0.74    0.13 
   6  -4   6    0.51    0.11 
  -7   4  -6    0.06    0.08 
  -7   4  -6    0.17    0.09 
   7  -4   6    0.22    0.12 
   7  -4   6    0.01    0.08 
   8   3  -6   -0.05    0.12 
   8   3  -6    0.04    0.09 
   7   3  -6    0.36    0.11 
   7   3  -6    0.00    0.12 
   6   3  -6    6.31    0.28 
   6   3  -6    6.50    0.34 
   5   3  -6   -0.05    0.07 
   5   3  -6    0.05    0.06 
   5   3  -6    0.14    0.08 
  -5  -3   6    0.00    0.05 
  -5  -3   6   -0.02    0.04 
   4   3  -6    5.79    0.25 
   4   3  -6    5.41    0.22 
   4   3  -6    5.77    0.22 
   4   3  -6    6.02    0.28 
  -4  -3   6    5.81    0.21 
  -4  -3   6    5.53    0.18 
   3   3  -6    8.11    0.31 
   3   3  -6    8.53    0.27 
   3   3  -6    8.56    0.29 
   3   3  -6    8.70    0.28 
  -3  -3   6    8.48    0.26 
  -3  -3   6    8.06    0.24 
   2   3  -6    0.89    0.10 
   2   3  -6    0.80    0.10 
   2   3  -6    0.67    0.10 
   2   3  -6    0.92    0.10 
  -2  -3   6    0.88    0.10 
   1   3  -6    0.05    0.04 
   1   3  -6    0.04    0.05 
   1   3  -6    0.08    0.05 
   1   3  -6    0.09    0.05 
  -1  -3   6    0.07    0.05 
  -1  -3   6    0.07    0.04 
   0   3  -6    6.17    0.23 
   0   3  -6    6.45    0.23 
   0   3  -6    6.01    0.22 
   0   3  -6    6.88    0.23 
   0   3  -6    6.28    0.22 
   0  -3   6    7.23    0.24 
   0  -3   6    6.55    0.23 
  -1   3  -6    3.84    0.19 
  -1   3  -6    4.05    0.20 
  -1   3  -6    4.27    0.18 
   1  -3   6    4.02    0.19 
   1  -3   6    4.07    0.19 
  -2   3  -6    8.42    0.29 
  -2   3  -6    8.57    0.27 
  -2   3  -6    8.54    0.29 
   2  -3   6    8.87    0.29 
   2  -3   6    8.59    0.29 
  -3   3  -6   -0.02    0.06 
  -3   3  -6   -0.05    0.06 
   3  -3   6   -0.07    0.06 
   3  -3   6    0.02    0.07 
  -4   3  -6   15.47    0.43 
  -4   3  -6   14.60    0.42 
   4  -3   6   14.88    0.44 
   4  -3   6   15.01    0.43 
  -5   3  -6    2.58    0.19 
  -5   3  -6    3.18    0.21 
   5  -3   6    2.91    0.20 
   5  -3   6    2.59    0.21 
  -6   3  -6    0.01    0.07 
  -6   3  -6    0.13    0.10 
   6  -3   6    0.18    0.10 
   6  -3   6    0.12    0.08 
  -7   3  -6   -0.18    0.06 
  -7   3  -6    0.10    0.07 
   7  -3   6   -0.13    0.07 
   7  -3   6   -0.03    0.08 
  -8   3  -6    1.02    0.16 
  -8   3  -6    1.09    0.17 
   8  -3   6    1.13    0.20 
   8  -3   6    0.76    0.14 
   8   2  -6    0.42    0.15 
   8   2  -6    0.15    0.10 
   7   2  -6    0.96    0.18 
   7   2  -6    0.93    0.14 
   6   2  -6    0.13    0.10 
   6   2  -6   -0.03    0.06 
   5   2  -6    4.77    0.27 
   5   2  -6    4.46    0.20 
   5   2  -6    4.23    0.21 
   5   2  -6    4.73    0.20 
  -5  -2   6    4.17    0.16 
   4   2  -6   -0.08    0.04 
   4   2  -6   -0.06    0.06 
   4   2  -6   -0.05    0.06 
   4   2  -6   -0.07    0.04 
  -4  -2   6   -0.05    0.04 
  -4  -2   6   -0.01    0.03 
   3   2  -6    6.77    0.23 
   3   2  -6    6.39    0.21 
   3   2  -6    6.79    0.27 
   3   2  -6    6.21    0.22 
  -3  -2   6    6.29    0.18 
  -3  -2   6    6.02    0.20 
   2   2  -6    4.09    0.16 
   2   2  -6    4.00    0.18 
   2   2  -6    4.02    0.17 
  -2  -2   6    4.18    0.15 
  -2  -2   6    4.26    0.15 
  -2  -2   6    4.21    0.16 
   1   2  -6    9.77    0.29 
   1   2  -6   10.19    0.27 
   1   2  -6    9.85    0.26 
   1   2  -6   10.19    0.28 
  -1  -2   6   10.27    0.25 
  -1  -2   6   10.27    0.27 
   0   2  -6    1.78    0.12 
   0   2  -6    1.95    0.12 
   0   2  -6    1.73    0.11 
   0   2  -6    1.80    0.12 
   0   2  -6    1.81    0.11 
   0  -2   6    1.88    0.12 
   0  -2   6    1.84    0.12 
   0  -2   6    1.84    0.11 
  -1   2  -6    5.80    0.21 
  -1   2  -6    5.65    0.19 
  -1   2  -6    5.38    0.19 
  -1   2  -6    5.60    0.21 
   1  -2   6    5.51    0.19 
   1  -2   6    6.13    0.21 
   1  -2   6    5.52    0.20 
  -2   2  -6    4.32    0.18 
  -2   2  -6    4.54    0.19 
  -2   2  -6    4.34    0.19 
   2  -2   6    4.19    0.19 
   2  -2   6    4.23    0.19 
  -3   2  -6    2.22    0.16 
  -3   2  -6    1.82    0.14 
  -3   2  -6    2.04    0.14 
   3  -2   6    2.11    0.15 
   3  -2   6    1.98    0.15 
  -4   2  -6   30.67    0.65 
  -4   2  -6   31.08    0.65 
   4  -2   6   30.40    0.65 
   4  -2   6   30.94    0.66 
  -5   2  -6    0.91    0.11 
  -5   2  -6    1.22    0.14 
   5  -2   6    1.33    0.14 
   5  -2   6    1.19    0.15 
  -6   2  -6    1.11    0.14 
  -6   2  -6    0.93    0.14 
   6  -2   6    0.93    0.14 
   6  -2   6    0.89    0.14 
  -7   2  -6    0.81    0.14 
  -7   2  -6    0.40    0.11 
   7  -2   6    0.70    0.14 
   7  -2   6    0.72    0.13 
  -8   2  -6    0.31    0.11 
  -8   2  -6    0.49    0.12 
   8  -2   6    0.58    0.13 
   8  -2   6    0.55    0.13 
   8   1  -6    4.39    0.34 
   8   1  -6    4.10    0.25 
   7   1  -6   -0.04    0.07 
   7   1  -6   -0.06    0.10 
   6   1  -6    0.31    0.12 
   6   1  -6    0.43    0.10 
   5   1  -6    0.81    0.10 
   5   1  -6    1.07    0.16 
   5   1  -6    1.03    0.10 
   5   1  -6    0.91    0.11 
  -5  -1   6    0.82    0.07 
   4   1  -6    7.80    0.23 
   4   1  -6    7.46    0.24 
   4   1  -6    7.52    0.31 
   4   1  -6    7.80    0.25 
  -4  -1   6    7.43    0.19 
  -4  -1   6    7.79    0.19 
   3   1  -6   46.24    0.79 
   3   1  -6   47.76    0.78 
   3   1  -6   46.90    0.80 
   3   1  -6   46.90    0.89 
  -3  -1   6   46.95    0.74 
  -3  -1   6   46.85    0.71 
   2   1  -6   18.52    0.44 
   2   1  -6   18.53    0.37 
   2   1  -6   18.05    0.38 
   2   1  -6   18.32    0.39 
  -2  -1   6   18.24    0.33 
  -2  -1   6   19.17    0.35 
  -2  -1   6   18.65    0.37 
  -2  -1   6   18.32    0.35 
   1   1  -6    0.44    0.06 
   1   1  -6    0.54    0.06 
   1   1  -6    0.65    0.07 
   1   1  -6    0.44    0.06 
   1   1  -6    0.59    0.08 
  -1  -1   6    0.58    0.06 
  -1  -1   6    0.52    0.06 
  -1  -1   6    0.55    0.06 
   0   1  -6    1.33    0.09 
   0   1  -6    1.26    0.09 
   0   1  -6    1.20    0.10 
   0   1  -6    1.35    0.09 
   0   1  -6    1.39    0.09 
   0  -1   6    1.32    0.09 
   0  -1   6    1.35    0.09 
  -1   1  -6   42.57    0.74 
  -1   1  -6   42.94    0.72 
  -1   1  -6   42.20    0.71 
  -1   1  -6   41.72    0.74 
   1  -1   6   42.04    0.72 
   1  -1   6   41.61    0.73 
   1  -1   6   41.97    0.73 
   1  -1   6   42.75    0.74 
  -2   1  -6   13.90    0.33 
  -2   1  -6   14.39    0.35 
  -2   1  -6   13.52    0.34 
   2  -1   6   13.91    0.33 
   2  -1   6   14.96    0.37 
   2  -1   6   13.61    0.34 
   2  -1   6   14.19    0.35 
  -3   1  -6    1.47    0.12 
  -3   1  -6    1.76    0.12 
  -3   1  -6    1.72    0.13 
   3  -1   6    1.72    0.13 
   3  -1   6    1.64    0.12 
   3  -1   6    1.45    0.13 
  -4   1  -6    1.46    0.14 
  -4   1  -6    1.49    0.13 
   4  -1   6    1.62    0.14 
   4  -1   6    1.69    0.14 
  -5   1  -6   -0.08    0.05 
  -5   1  -6   -0.07    0.06 
   5  -1   6   -0.05    0.06 
   5  -1   6    0.05    0.06 
  -6   1  -6    6.30    0.28 
  -6   1  -6    5.67    0.26 
   6  -1   6    6.21    0.29 
   6  -1   6    5.85    0.27 
  -7   1  -6    0.15    0.08 
  -7   1  -6    0.36    0.11 
   7  -1   6    0.18    0.08 
   7  -1   6    0.13    0.09 
  -8   1  -6    0.01    0.07 
  -8   1  -6    0.11    0.08 
   8  -1   6    0.13    0.10 
   8  -1   6    0.13    0.09 
  -9   1  -6    1.17    0.19 
  -9   1  -6    1.20    0.17 
   9  -1   6    1.70    0.23 
   9  -1   6    1.06    0.16 
   8   0  -6    3.63    0.32 
   8   0  -6    3.56    0.22 
   7   0  -6    0.04    0.07 
   7   0  -6    0.01    0.11 
   6   0  -6    1.93    0.15 
   6   0  -6    1.97    0.22 
   5   0  -6    4.61    0.18 
   5   0  -6    4.97    0.18 
   5   0  -6    5.11    0.28 
   5   0  -6    5.02    0.20 
   4   0  -6   16.54    0.34 
   4   0  -6   16.16    0.35 
   4   0  -6   16.54    0.47 
   4   0  -6   16.07    0.36 
  -4   0   6   16.67    0.27 
  -4   0   6   16.29    0.27 
   3   0  -6    4.08    0.15 
   3   0  -6    3.82    0.14 
   3   0  -6    3.94    0.14 
   3   0  -6    3.78    0.21 
  -3   0   6    3.92    0.11 
  -3   0   6    4.06    0.11 
   2   0  -6    0.49    0.06 
   2   0  -6    0.56    0.08 
   2   0  -6    0.53    0.06 
   2   0  -6    0.68    0.07 
  -2   0   6    0.58    0.05 
  -2   0   6    0.57    0.05 
   1   0  -6    1.23    0.08 
   1   0  -6    1.22    0.08 
   1   0  -6    1.16    0.08 
   1   0  -6    1.18    0.07 
   1   0  -6    1.07    0.10 
  -1   0   6    1.15    0.06 
  -1   0   6    1.25    0.06 
  -1   0   6    1.27    0.07 
  -1   0   6    1.06    0.07 
   0   0  -6   39.56    0.66 
   0   0  -6   38.75    0.67 
   0   0  -6   39.78    0.65 
   0   0  -6   39.33    0.67 
   0   0   6   40.03    0.65 
   0   0   6   38.89    0.65 
   0   0   6   38.99    0.64 
   0   0   6   39.99    0.70 
   0   0   6   39.75    0.65 
   0   0   6   40.21    0.64 
  -1   0  -6   17.78    0.36 
  -1   0  -6   17.97    0.35 
  -1   0  -6   17.67    0.38 
  -1   0  -6   17.84    0.38 
   1   0   6   18.22    0.37 
   1   0   6   17.78    0.36 
   1   0   6   17.20    0.36 
   1   0   6   19.38    0.41 
   1   0   6   17.76    0.37 
   1   0   6   18.50    0.37 
  -2   0  -6   21.14    0.45 
  -2   0  -6   21.23    0.44 
  -2   0  -6   21.67    0.43 
   2   0   6   21.83    0.44 
   2   0   6   21.65    0.44 
   2   0   6   22.14    0.43 
   2   0   6   21.54    0.44 
   2   0   6   21.66    0.41 
  -3   0  -6   51.10    0.86 
  -3   0  -6   50.38    0.88 
  -3   0  -6   51.14    0.88 
   3   0   6   50.65    0.86 
   3   0   6   51.14    0.87 
   3   0   6   49.99    0.88 
   3   0   6   49.70    0.81 
  -4   0  -6    0.07    0.06 
  -4   0  -6    0.06    0.05 
   4   0   6    0.10    0.06 
   4   0   6    0.03    0.05 
  -5   0  -6   16.16    0.42 
  -5   0  -6   15.73    0.42 
   5   0   6   15.45    0.43 
   5   0   6   16.18    0.42 
  -6   0  -6    5.80    0.26 
  -6   0  -6    5.39    0.25 
   6   0   6    5.62    0.27 
   6   0   6    5.65    0.25 
  -7   0  -6    0.11    0.08 
  -7   0  -6    0.08    0.08 
   7   0   6    0.05    0.08 
   7   0   6    0.06    0.07 
  -8   0  -6    0.69    0.14 
  -8   0  -6    0.65    0.12 
   8   0   6    0.58    0.12 
   8   0   6    0.72    0.15 
  -9   0  -6    0.14    0.09 
  -9   0  -6    0.18    0.09 
   9   0   6    0.36    0.13 
   9   0   6    0.13    0.09 
   8  -1  -6   -0.02    0.13 
   8  -1  -6    0.10    0.07 
   7  -1  -6    4.20    0.31 
   7  -1  -6    3.69    0.19 
   6  -1  -6    0.08    0.05 
   6  -1  -6    0.02    0.05 
   6  -1  -6   -0.01    0.09 
   5  -1  -6    4.26    0.17 
   5  -1  -6    4.19    0.16 
   5  -1  -6    4.26    0.15 
   5  -1  -6    4.66    0.28 
   4  -1  -6   29.46    0.52 
   4  -1  -6   29.75    0.52 
   4  -1  -6   30.42    0.69 
   4  -1  -6   30.08    0.51 
   3  -1  -6    4.60    0.14 
   3  -1  -6    4.69    0.14 
   3  -1  -6    4.60    0.13 
   3  -1  -6    4.06    0.21 
   2  -1  -6   42.11    0.67 
   2  -1  -6   41.86    0.65 
   2  -1  -6   43.51    0.78 
   2  -1  -6   41.94    0.66 
   1  -1  -6   10.60    0.22 
   1  -1  -6   10.41    0.27 
   1  -1  -6   10.44    0.23 
   1  -1  -6   10.73    0.22 
   1  -1  -6   10.46    0.22 
  -1   1   6   10.75    0.20 
  -1   1   6   10.41    0.20 
   0  -1  -6   10.58    0.25 
   0  -1  -6   10.61    0.24 
   0  -1  -6   10.69    0.24 
   0  -1  -6   10.72    0.23 
   0   1   6   10.60    0.22 
   0   1   6   10.90    0.21 
   0   1   6   10.24    0.21 
   0   1   6   10.70    0.26 
   0   1   6   10.94    0.22 
   0   1   6   10.91    0.21 
   0   1   6   10.39    0.21 
  -1  -1  -6    1.05    0.08 
  -1  -1  -6    0.88    0.07 
  -1  -1  -6    0.91    0.08 
  -1  -1  -6    0.89    0.06 
   1   1   6    0.95    0.07 
   1   1   6    0.91    0.07 
   1   1   6    0.82    0.07 
   1   1   6    1.01    0.07 
   1   1   6    0.98    0.07 
   1   1   6    1.19    0.08 
  -2  -1  -6    0.95    0.09 
  -2  -1  -6    1.02    0.08 
  -2  -1  -6    1.04    0.09 
   2   1   6    1.03    0.08 
   2   1   6    1.00    0.09 
   2   1   6    1.08    0.09 
   2   1   6    1.21    0.07 
  -3  -1  -6    2.41    0.14 
  -3  -1  -6    2.51    0.14 
   3   1   6    2.24    0.12 
   3   1   6    2.41    0.09 
   3   1   6    2.27    0.13 
   3   1   6    2.20    0.13 
  -4  -1  -6   10.79    0.32 
  -4  -1  -6   11.54    0.32 
   4   1   6   11.76    0.33 
   4   1   6   11.41    0.31 
   4   1   6   11.29    0.31 
  -5  -1  -6   22.11    0.52 
  -5  -1  -6   23.53    0.52 
   5   1   6   22.21    0.51 
   5   1   6   22.89    0.53 
  -6  -1  -6    0.71    0.12 
  -6  -1  -6    0.54    0.10 
   6   1   6    0.51    0.10 
   6   1   6    0.44    0.10 
  -7  -1  -6    3.73    0.22 
  -7  -1  -6    3.66    0.23 
   7   1   6    3.75    0.25 
   7   1   6    3.53    0.22 
  -8  -1  -6    0.53    0.11 
  -8  -1  -6    0.63    0.12 
   8   1   6    0.35    0.11 
   8   1   6    0.63    0.12 
  -9  -1  -6    0.26    0.09 
  -9  -1  -6    0.35    0.11 
   9   1   6    0.37    0.11 
   9   1   6    0.27    0.11 
   8  -2  -6    0.45    0.08 
   8  -2  -6    0.37    0.16 
   8  -2  -6    0.56    0.10 
   7  -2  -6    3.41    0.18 
   6  -2  -6    1.16    0.10 
   6  -2  -6    0.77    0.08 
   5  -2  -6   10.13    0.23 
   5  -2  -6    9.84    0.23 
   5  -2  -6   10.24    0.25 
   4  -2  -6   14.93    0.28 
   4  -2  -6   14.81    0.28 
   4  -2  -6   14.56    0.29 
   3  -2  -6   13.14    0.38 
   3  -2  -6   13.10    0.23 
   2  -2  -6    0.27    0.03 
   2  -2  -6    0.24    0.07 
   1  -2  -6    5.71    0.13 
   1  -2  -6    5.60    0.19 
   1  -2  -6    5.60    0.13 
   1  -2  -6    5.56    0.13 
   1  -2  -6    5.56    0.13 
   0  -2  -6    2.36    0.09 
   0  -2  -6    2.29    0.09 
   0  -2  -6    2.36    0.09 
   0  -2  -6    2.29    0.10 
   0   2   6    2.39    0.08 
   0   2   6    2.42    0.08 
  -1  -2  -6   29.77    0.52 
  -1  -2  -6   30.00    0.52 
  -1  -2  -6   30.28    0.53 
  -1  -2  -6   30.26    0.48 
  -1  -2  -6   29.93    0.51 
   1   2   6   30.40    0.50 
   1   2   6   30.47    0.50 
   1   2   6   29.69    0.50 
   1   2   6   29.69    0.50 
   1   2   6   29.89    0.50 
   1   2   6   29.52    0.50 
   1   2   6   29.37    0.50 
  -2  -2  -6    4.08    0.15 
  -2  -2  -6    4.19    0.15 
  -2  -2  -6    4.08    0.15 
   2   2   6    3.99    0.14 
   2   2   6    4.04    0.15 
   2   2   6    4.22    0.14 
   2   2   6    4.07    0.14 
   2   2   6    4.15    0.11 
   2   2   6    3.99    0.14 
  -3  -2  -6   26.23    0.51 
  -3  -2  -6   26.88    0.53 
  -3  -2  -6   27.16    0.53 
   3   2   6   26.42    0.51 
   3   2   6   25.60    0.51 
   3   2   6   26.42    0.51 
   3   2   6   26.47    0.43 
   3   2   6   26.04    0.50 
  -4  -2  -6    0.25    0.06 
  -4  -2  -6    0.21    0.06 
   4   2   6    0.25    0.07 
   4   2   6    0.30    0.06 
   4   2   6    0.21    0.06 
   4   2   6    0.23    0.06 
  -5  -2  -6    0.45    0.09 
  -5  -2  -6    0.23    0.07 
   5   2   6    0.44    0.08 
   5   2   6    0.35    0.09 
  -6  -2  -6    4.27    0.21 
  -6  -2  -6    4.14    0.22 
   6   2   6    4.39    0.23 
   6   2   6    4.06    0.21 
  -7  -2  -6   11.21    0.37 
  -7  -2  -6   11.32    0.39 
   7   2   6   10.94    0.37 
   7   2   6   11.85    0.41 
  -8  -2  -6    0.11    0.08 
  -8  -2  -6    0.22    0.09 
   8   2   6    0.19    0.09 
   8   2   6    0.24    0.10 
  -9  -2  -6    0.15    0.09 
  -9  -2  -6    0.02    0.09 
   9   2   6    0.22    0.10 
   9   2   6    0.15    0.11 
   8  -3  -6    0.38    0.07 
   8  -3  -6    0.49    0.09 
   7  -3  -6    2.16    0.14 
   7  -3  -6    1.95    0.11 
   6  -3  -6    3.33    0.12 
   6  -3  -6    3.49    0.15 
   6  -3  -6    3.37    0.14 
   5  -3  -6    5.51    0.15 
   5  -3  -6    5.45    0.15 
   5  -3  -6    5.34    0.16 
   5  -3  -6    5.17    0.15 
   4  -3  -6    1.08    0.06 
   1  -3  -6    5.53    0.19 
   1  -3  -6    5.62    0.12 
   1  -3  -6    5.54    0.12 
   0  -3  -6   35.10    0.55 
   0  -3  -6   34.79    0.56 
   0  -3  -6   34.19    0.55 
   0  -3  -6   34.75    0.58 
   0   3   6   35.27    0.52 
   0   3   6   34.86    0.52 
  -1  -3  -6    0.06    0.03 
  -1  -3  -6    0.05    0.03 
  -1  -3  -6    0.03    0.02 
  -1  -3  -6    0.02    0.03 
   1   3   6    0.06    0.02 
   1   3   6    0.09    0.03 
   1   3   6    0.03    0.03 
   1   3   6    0.04    0.02 
   1   3   6    0.06    0.03 
  -2  -3  -6    5.40    0.17 
  -2  -3  -6    5.12    0.17 
  -2  -3  -6    5.29    0.17 
   2   3   6    5.34    0.16 
   2   3   6    5.33    0.16 
   2   3   6    5.48    0.17 
   2   3   6    5.02    0.16 
   2   3   6    5.57    0.17 
  -3  -3  -6    0.59    0.08 
  -3  -3  -6    0.52    0.07 
  -3  -3  -6    0.58    0.08 
   3   3   6    0.64    0.07 
   3   3   6    0.65    0.07 
   3   3   6    0.51    0.07 
   3   3   6    0.68    0.07 
  -4  -3  -6    6.74    0.23 
  -4  -3  -6    6.69    0.27 
  -4  -3  -6    6.61    0.24 
   4   3   6    6.82    0.23 
   4   3   6    7.03    0.23 
   4   3   6    6.77    0.24 
  -5  -3  -6    2.03    0.14 
  -5  -3  -6    2.07    0.15 
   5   3   6    1.91    0.14 
   5   3   6    1.77    0.15 
  -6  -3  -6    2.97    0.19 
  -6  -3  -6    2.72    0.19 
   6   3   6    3.08    0.18 
   6   3   6    3.11    0.20 
  -7  -3  -6    9.60    0.34 
  -7  -3  -6    9.41    0.36 
   7   3   6    9.43    0.33 
   7   3   6    9.51    0.37 
  -8  -3  -6    0.66    0.13 
  -8  -3  -6    0.68    0.12 
   8   3   6    0.62    0.14 
   8   3   6    0.67    0.12 
  -9  -3  -6    0.13    0.09 
   9   3   6    0.04    0.09 
   9   3   6    0.16    0.11 
  10   3   6   -0.05    0.09 
  10   3   6    0.08    0.12 
   7  -4  -6    1.00    0.09 
   7  -4  -6    1.10    0.11 
   6  -4  -6    3.72    0.13 
   6  -4  -6    4.03    0.15 
   5  -4  -6    0.05    0.03 
   5  -4  -6    0.01    0.02 
   1  -4  -6   20.40    0.32 
   0  -4  -6    2.51    0.09 
   0  -4  -6    2.31    0.09 
   0  -4  -6    2.51    0.09 
   0  -4  -6    2.62    0.09 
   0   4   6    2.42    0.06 
   0   4   6    2.58    0.06 
  -1  -4  -6   63.90    0.98 
  -1  -4  -6   64.08    0.97 
  -1  -4  -6   62.56    0.97 
  -1  -4  -6   62.11    0.91 
  -1  -4  -6   62.41    0.98 
   1   4   6   64.31    0.93 
   1   4   6   63.00    0.95 
   1   4   6   65.52    0.93 
  -2  -4  -6    5.54    0.18 
  -2  -4  -6    5.50    0.18 
  -2  -4  -6    5.34    0.17 
  -2  -4  -6    5.23    0.18 
   2   4   6    5.43    0.17 
   2   4   6    5.62    0.16 
   2   4   6    5.76    0.17 
   2   4   6    5.97    0.17 
   2   4   6    5.45    0.17 
  -3  -4  -6   17.41    0.40 
  -3  -4  -6   18.11    0.39 
  -3  -4  -6   17.91    0.40 
  -3  -4  -6   18.40    0.40 
   3   4   6   18.78    0.40 
   3   4   6   18.20    0.39 
   3   4   6   18.30    0.38 
   3   4   6   18.24    0.40 
  -4  -4  -6    2.94    0.16 
  -4  -4  -6    2.63    0.15 
   4   4   6    2.80    0.16 
  -5  -4  -6    0.16    0.07 
  -5  -4  -6    0.13    0.07 
   5   4   6    0.18    0.07 
  -6  -4  -6   20.67    0.51 
  -6  -4  -6   21.68    0.55 
   6   4   6   21.75    0.54 
  -7  -4  -6    2.23    0.21 
  -7  -4  -6    2.08    0.19 
   7   4   6    2.49    0.21 
   7   4   6    1.78    0.17 
  -8  -4  -6    3.40    0.22 
   8   4   6    3.61    0.26 
   8   4   6    2.95    0.21 
  -9  -4  -6    0.01    0.08 
   9   4   6    0.02    0.08 
   9   4   6   -0.03    0.10 
 -10  -4  -6    0.09    0.10 
  10   4   6    0.15    0.10 
  10   4   6    0.04    0.12 
   7  -5  -6    0.03    0.05 
   7  -5  -6   -0.03    0.04 
   6  -5  -6    0.59    0.07 
   6  -5  -6    0.51    0.06 
   5  -5  -6    1.44    0.07 
   5  -5  -6    1.17    0.07 
   1  -5  -6    0.07    0.02 
   0  -5  -6   45.57    0.71 
   0  -5  -6   45.54    0.72 
   0  -5  -6   45.37    0.72 
   0  -5  -6   45.18    0.71 
   0   5   6   45.87    0.65 
   0   5   6   45.52    0.66 
  -1  -5  -6    9.93    0.24 
  -1  -5  -6    9.87    0.24 
  -1  -5  -6   10.31    0.25 
  -1  -5  -6   10.31    0.24 
   1   5   6   10.14    0.20 
   1   5   6   10.41    0.23 
   1   5   6   10.29    0.20 
  -2  -5  -6   77.53    1.20 
  -2  -5  -6   75.15    1.20 
  -2  -5  -6   77.17    1.21 
  -2  -5  -6   76.06    1.19 
   2   5   6   77.68    1.19 
   2   5   6   77.78    1.18 
   2   5   6   78.29    1.18 
  -3  -5  -6   44.18    0.79 
  -3  -5  -6   45.85    0.81 
  -3  -5  -6   44.67    0.78 
  -3  -5  -6   45.02    0.79 
   3   5   6   44.57    0.78 
   3   5   6   46.08    0.79 
  -4  -5  -6   17.31    0.47 
  -4  -5  -6   16.78    0.42 
  -4  -5  -6   16.83    0.40 
  -4  -5  -6   17.28    0.41 
   4   5   6   16.40    0.41 
  -5  -5  -6    1.82    0.15 
   5   5   6    1.37    0.07 
   5   5   6    1.55    0.15 
  -6  -5  -6    0.88    0.14 
  -6  -5  -6    0.76    0.12 
   6   5   6    0.84    0.09 
   6   5   6    0.81    0.13 
  -7  -5  -6    0.43    0.10 
   7   5   6    0.42    0.07 
   7   5   6    0.40    0.11 
  -8  -5  -6    1.82    0.18 
   8   5   6    1.99    0.22 
   8   5   6    1.63    0.14 
  -9  -5  -6    0.31    0.11 
   9   5   6    0.22    0.13 
   9   5   6    0.20    0.11 
   9   5   6    0.26    0.09 
   7  -6  -6    0.16    0.06 
   7  -6  -6    0.13    0.06 
   6  -6  -6    2.55    0.14 
   6  -6  -6    2.67    0.12 
   5  -6  -6    0.40    0.05 
   4  -6  -6    0.44    0.04 
   4  -6  -6    0.46    0.04 
   3  -6  -6    7.11    0.15 
   3  -6  -6    7.33    0.16 
   2  -6  -6   24.66    0.41 
   1  -6  -6    0.48    0.05 
   1  -6  -6    0.47    0.05 
   1  -6  -6    0.45    0.05 
   0  -6  -6    1.80    0.09 
   0  -6  -6    1.66    0.09 
   0  -6  -6    1.76    0.10 
   0   6   6    1.87    0.07 
   0   6   6    1.76    0.06 
  -1  -6  -6    1.06    0.09 
  -1  -6  -6    1.17    0.09 
  -1  -6  -6    1.16    0.09 
   1   6   6    1.22    0.08 
   1   6   6    1.20    0.06 
   1   6   6    1.18    0.06 
  -2  -6  -6   -0.04    0.04 
  -2  -6  -6   -0.04    0.04 
  -2  -6  -6   -0.02    0.04 
   2   6   6    0.00    0.04 
   2   6   6   -0.02    0.04 
  -3  -6  -6    0.55    0.08 
  -3  -6  -6    0.44    0.07 
  -3  -6  -6    0.39    0.08 
   3   6   6    0.52    0.08 
  -4  -6  -6    0.06    0.06 
  -4  -6  -6    0.11    0.06 
   4   6   6    0.08    0.06 
  -5  -6  -6   29.79    0.63 
  -5  -6  -6   30.47    0.64 
   5   6   6   29.67    0.65 
   5   6   6   28.82    0.46 
  -6  -6  -6   13.87    0.40 
  -6  -6  -6   14.45    0.42 
   6   6   6   14.09    0.43 
   6   6   6   13.13    0.29 
  -7  -6  -6    0.19    0.09 
   7   6   6    0.17    0.10 
   7   6   6    0.23    0.06 
  -8  -6  -6    0.59    0.13 
   8   6   6    0.81    0.16 
   8   6   6    0.89    0.10 
  -9  -6  -6    0.32    0.11 
   9   6   6    0.46    0.09 
   9   6   6    0.76    0.17 
   6  -7  -6    0.08    0.05 
   6  -7  -6    0.11    0.06 
   5  -7  -6    3.10    0.12 
   4  -7  -6    0.10    0.04 
   4  -7  -6    0.14    0.04 
   3  -7  -6    0.24    0.04 
   3  -7  -6    0.29    0.05 
   3  -7  -6    0.31    0.05 
   3  -7  -6    0.35    0.05 
   2  -7  -6    0.18    0.04 
   2  -7  -6    0.12    0.04 
   2  -7  -6    0.07    0.04 
   2  -7  -6    0.17    0.04 
   1  -7  -6   26.16    0.48 
   1  -7  -6   25.67    0.48 
   1  -7  -6   26.19    0.47 
   0  -7  -6   10.55    0.26 
   0  -7  -6   10.52    0.27 
   0  -7  -6   10.45    0.27 
   0   7   6   10.62    0.21 
  -1  -7  -6    0.55    0.07 
  -1  -7  -6    0.40    0.07 
  -1  -7  -6    0.56    0.07 
   1   7   6    0.49    0.06 
  -2  -7  -6   19.27    0.44 
  -2  -7  -6   20.06    0.44 
  -2  -7  -6   19.44    0.43 
  -2  -7  -6   19.70    0.33 
   2   7   6   19.99    0.41 
  -3  -7  -6    0.73    0.09 
  -3  -7  -6    0.74    0.10 
  -3  -7  -6    0.66    0.10 
   3   7   6    0.74    0.09 
  -4  -7  -6    2.08    0.15 
  -4  -7  -6    2.02    0.17 
   4   7   6    1.95    0.15 
  -5  -7  -6    0.79    0.12 
  -5  -7  -6    0.71    0.11 
   5   7   6    0.72    0.05 
   5   7   6    0.74    0.12 
  -6  -7  -6    7.55    0.32 
  -6  -7  -6    7.10    0.29 
   6   7   6    7.06    0.31 
   6   7   6    6.83    0.18 
  -7  -7  -6    2.37    0.20 
   7   7   6    2.49    0.24 
   7   7   6    2.38    0.13 
  -8  -7  -6   -0.11    0.08 
   8   7   6   -0.05    0.09 
   8   7   6    0.04    0.05 
  -9  -7  -6   -0.13    0.08 
   9   7   6    0.32    0.13 
   6  -8  -6    0.33    0.07 
   6  -8  -6    0.50    0.10 
   5  -8  -6    2.00    0.14 
   5  -8  -6    1.85    0.12 
   4  -8  -6    4.54    0.18 
   4  -8  -6    4.36    0.16 
   3  -8  -6    3.86    0.15 
   3  -8  -6    3.90    0.16 
   2  -8  -6    3.61    0.14 
   2  -8  -6    3.39    0.17 
   2  -8  -6    3.81    0.16 
   2  -8  -6    3.80    0.15 
   1  -8  -6    3.46    0.15 
   1  -8  -6    3.47    0.15 
   1  -8  -6    3.72    0.16 
   0  -8  -6    6.67    0.22 
   0  -8  -6    6.55    0.21 
   0  -8  -6    6.74    0.23 
   0   8   6    6.69    0.17 
  -1  -8  -6    0.23    0.07 
  -1  -8  -6    0.25    0.07 
  -1  -8  -6    0.10    0.04 
  -1  -8  -6    0.22    0.06 
  -2  -8  -6    0.05    0.03 
  -2  -8  -6    0.05    0.06 
  -2  -8  -6    0.05    0.06 
  -2  -8  -6    0.10    0.06 
   2   8   6    0.10    0.05 
  -3  -8  -6   15.28    0.39 
  -3  -8  -6   14.94    0.40 
  -3  -8  -6   14.38    0.28 
  -3  -8  -6   15.93    0.41 
   3   8   6   15.37    0.39 
  -4  -8  -6    3.85    0.21 
  -4  -8  -6    3.90    0.22 
   4   8   6    4.10    0.21 
  -5  -8  -6    8.71    0.32 
  -5  -8  -6    8.84    0.34 
   5   8   6    8.48    0.33 
  -6  -8  -6   -0.02    0.08 
  -6  -8  -6   -0.11    0.07 
   6   8   6   -0.04    0.03 
   6   8   6   -0.01    0.08 
  -7  -8  -6    1.28    0.17 
  -7  -8  -6    1.20    0.17 
   7   8   6    1.05    0.10 
   7   8   6    1.09    0.19 
  -8  -8  -6   -0.05    0.09 
   8   8   6   -0.05    0.10 
  -9  -8  -6    0.02    0.10 
   9   8   6    0.13    0.13 
   5  -9  -6    0.34    0.08 
   5  -9  -6    0.34    0.10 
   4  -9  -6   -0.04    0.05 
   4  -9  -6   -0.14    0.05 
   3  -9  -6    1.11    0.11 
   3  -9  -6    0.87    0.10 
   2  -9  -6    0.22    0.07 
   2  -9  -6    0.10    0.06 
   1  -9  -6   36.18    0.67 
   1  -9  -6   36.22    0.68 
  -1   9   6   34.64    0.55 
   0  -9  -6    8.11    0.26 
   0  -9  -6    8.22    0.38 
   0  -9  -6    8.19    0.28 
  -1  -9  -6    3.03    0.17 
  -1  -9  -6    3.26    0.17 
  -1  -9  -6    3.32    0.19 
   1   9   6    2.26    0.11 
  -2  -9  -6    0.12    0.07 
  -2  -9  -6    0.16    0.09 
  -2  -9  -6    0.18    0.08 
  -2  -9  -6    0.14    0.04 
   2   9   6    0.16    0.07 
  -3  -9  -6    8.28    0.30 
  -3  -9  -6    8.46    0.31 
   3   9   6    7.66    0.27 
  -4  -9  -6    0.25    0.09 
  -4  -9  -6    0.16    0.09 
   4   9   6    0.09    0.08 
  -5  -9  -6    0.02    0.09 
  -5  -9  -6    0.13    0.09 
   5   9   6    0.10    0.09 
  -6  -9  -6    1.24    0.16 
  -6  -9  -6    1.61    0.19 
   6   9   6    1.47    0.18 
  -7  -9  -6    2.24    0.22 
  -7  -9  -6    2.42    0.23 
   7   9   6    2.34    0.24 
  -8  -9  -6    0.01    0.11 
  -8  -9  -6    0.06    0.09 
   8   9   6    0.26    0.14 
   4 -10  -6    2.40    0.19 
   4 -10  -6    2.23    0.16 
   3 -10  -6    0.17    0.07 
   3 -10  -6    0.19    0.08 
   2 -10  -6    0.21    0.07 
   2 -10  -6    0.32    0.09 
   1 -10  -6    0.15    0.07 
   1 -10  -6    0.06    0.07 
   0 -10  -6    6.67    0.25 
   0 -10  -6    6.31    0.27 
  -1 -10  -6    1.68    0.15 
  -1 -10  -6    1.80    0.16 
  -2 -10  -6    0.08    0.07 
  -2 -10  -6    0.16    0.09 
   2  10   6    0.18    0.07 
  -3 -10  -6   -0.10    0.07 
  -3 -10  -6   -0.05    0.06 
   3  10   6   -0.04    0.06 
  -4 -10  -6    0.03    0.10 
  -4 -10  -6    0.11    0.09 
   4  10   6    0.05    0.08 
  -5 -10  -6    0.33    0.12 
  -5 -10  -6    0.38    0.11 
   5  10   6    0.46    0.13 
  -6 -10  -6    0.21    0.10 
  -6 -10  -6    0.29    0.13 
   6  10   6    0.20    0.11 
  -7 -10  -6    4.19    0.32 
  -7 -10  -6    2.92    0.24 
   7  10   6    3.30    0.29 
  -8 -10  -6    0.84    0.16 
  -8 -10  -6    1.57    0.22 
   8  10   6    1.29    0.20 
   3 -11  -6    2.85    0.19 
   3 -11  -6    2.93    0.22 
   2 -11  -6    2.36    0.18 
   2 -11  -6    2.41    0.20 
   1 -11  -6    0.15    0.09 
   1 -11  -6    0.11    0.08 
   0 -11  -6    0.60    0.11 
   0 -11  -6    0.47    0.11 
  -1 -11  -6    1.72    0.18 
  -1 -11  -6    2.13    0.18 
  -2 -11  -6    0.99    0.14 
  -2 -11  -6    1.00    0.13 
  -3 -11  -6    0.06    0.09 
  -3 -11  -6   -0.11    0.07 
   3  11   6    0.02    0.07 
  -4 -11  -6    0.45    0.12 
  -4 -11  -6    0.44    0.13 
   4  11   6    0.72    0.13 
  -5 -11  -6    0.15    0.09 
  -5 -11  -6    0.02    0.10 
   5  11   6    0.08    0.09 
  -6 -11  -6   -0.13    0.10 
  -6 -11  -6   -0.20    0.07 
   6  11   6    0.01    0.10 
  -7 -11  -6    0.14    0.11 
  -7 -11  -6    0.27    0.14 
   7  11   6    0.37    0.15 
   2 -12  -6    0.10    0.09 
   2 -12  -6    0.16    0.10 
   1 -12  -6    0.94    0.15 
   1 -12  -6    1.06    0.14 
   0 -12  -6    1.84    0.18 
   0 -12  -6    1.88    0.20 
  -1 -12  -6    0.09    0.09 
  -1 -12  -6    0.20    0.10 
  -2 -12  -6    0.08    0.09 
  -2 -12  -6   -0.02    0.08 
  -3 -12  -6    0.68    0.14 
  -3 -12  -6    0.51    0.12 
  -4 -12  -6    0.16    0.10 
  -4 -12  -6   -0.03    0.10 
  -5 -12  -6   -0.07    0.09 
  -5 -12  -6   -0.01    0.10 
  -6 -12  -6    0.01    0.11 
  -6 -12  -6    0.06    0.10 
   6  12   6    0.01    0.10 
   0 -13  -6   -0.06    0.10 
   0 -13  -6    0.02    0.10 
  -1 -13  -6    1.45    0.18 
  -1 -13  -6    1.29    0.19 
  -2 -13  -6   -0.03    0.09 
  -2 -13  -6    0.00    0.09 
  -3 -13  -6   -0.12    0.08 
  -3 -13  -6    0.11    0.11 
  -4 -13  -6    0.05    0.12 
  -4 -13  -6    0.28    0.11 
   2   9  -7    0.37    0.15 
   1   9  -7    0.48    0.15 
  -1  -9   7    0.80    0.18 
   0   9  -7    0.02    0.11 
   0  -9   7    0.07    0.13 
  -1   9  -7    0.86    0.17 
   1  -9   7    1.18    0.22 
   4   8  -7   -0.04    0.11 
   4   8  -7    0.02    0.11 
   3   8  -7    0.16    0.13 
   3   8  -7    0.64    0.17 
  -3  -8   7    0.36    0.13 
   2   8  -7    6.28    0.35 
   2   8  -7    5.78    0.32 
  -2  -8   7    5.53    0.33 
   1   8  -7    0.95    0.15 
  -1  -8   7    0.88    0.17 
   0   8  -7    0.14    0.10 
   0  -8   7    0.12    0.12 
  -1   8  -7    0.12    0.12 
   1  -8   7    0.03    0.10 
   1  -8   7    0.07    0.11 
  -2   8  -7    1.46    0.21 
   2  -8   7    0.95    0.17 
   2  -8   7    1.22    0.18 
  -3   8  -7    0.75    0.17 
   3  -8   7    0.48    0.15 
   3  -8   7    0.33    0.13 
   5   7  -7    0.29    0.13 
   5   7  -7    0.31    0.14 
   4   7  -7    0.17    0.10 
   4   7  -7   -0.06    0.11 
   3   7  -7    0.17    0.11 
   3   7  -7    0.13    0.12 
  -3  -7   7    0.17    0.11 
   2   7  -7    1.70    0.22 
   2   7  -7    1.60    0.19 
  -2  -7   7    1.62    0.19 
   1   7  -7   -0.02    0.09 
   1   7  -7    0.02    0.10 
  -1  -7   7    0.03    0.08 
  -1  -7   7    0.13    0.09 
   0   7  -7    0.11    0.09 
   0  -7   7    0.42    0.12 
   0  -7   7    0.12    0.09 
  -1   7  -7    0.43    0.14 
   1  -7   7    0.49    0.13 
   1  -7   7    0.44    0.12 
  -2   7  -7    3.17    0.26 
   2  -7   7    2.76    0.26 
   2  -7   7    2.81    0.26 
  -3   7  -7    0.21    0.11 
   3  -7   7    0.20    0.11 
   3  -7   7    0.07    0.10 
  -4   7  -7    0.07    0.10 
   4  -7   7   -0.02    0.09 
   4  -7   7   -0.09    0.08 
   6   6  -7    1.37    0.20 
   6   6  -7    1.34    0.19 
   5   6  -7    0.67    0.16 
   5   6  -7    1.14    0.18 
   4   6  -7    2.96    0.25 
   4   6  -7    2.68    0.24 
  -4  -6   7    2.96    0.22 
   3   6  -7    1.22    0.17 
   3   6  -7    0.91    0.14 
  -3  -6   7    1.18    0.15 
   2   6  -7    1.06    0.16 
   2   6  -7    1.07    0.15 
  -2  -6   7    0.90    0.14 
  -2  -6   7    1.19    0.16 
   1   6  -7   12.21    0.41 
   1   6  -7   12.71    0.43 
  -1  -6   7   12.16    0.41 
  -1  -6   7   12.77    0.42 
   0   6  -7    0.15    0.09 
   0  -6   7    0.04    0.08 
   0  -6   7    0.00    0.08 
  -1   6  -7    0.94    0.14 
   1  -6   7    1.15    0.16 
   1  -6   7    1.20    0.16 
  -2   6  -7    3.38    0.25 
   2  -6   7    2.98    0.23 
   2  -6   7    3.01    0.23 
  -3   6  -7    0.05    0.08 
  -3   6  -7    0.06    0.09 
   3  -6   7    0.00    0.08 
   3  -6   7    0.04    0.09 
  -4   6  -7    0.22    0.12 
  -4   6  -7    0.15    0.10 
   4  -6   7    0.09    0.10 
   4  -6   7    0.21    0.10 
  -5   6  -7    3.75    0.27 
  -5   6  -7    3.16    0.25 
   5  -6   7    3.04    0.27 
   5  -6   7    3.09    0.26 
  -6   6  -7    0.91    0.16 
   6  -6   7    1.20    0.21 
   6  -6   7    0.74    0.16 
   6   5  -7    1.45    0.19 
   6   5  -7    1.32    0.21 
   5   5  -7    1.02    0.18 
   5   5  -7    0.94    0.15 
   4   5  -7    0.17    0.10 
   4   5  -7    0.22    0.10 
  -4  -5   7    0.07    0.07 
   3   5  -7    0.47    0.11 
   3   5  -7    0.41    0.12 
  -3  -5   7    0.55    0.11 
   2   5  -7    0.13    0.08 
   2   5  -7    0.21    0.10 
   2   5  -7    0.32    0.11 
  -2  -5   7    0.25    0.08 
  -2  -5   7    0.35    0.10 
   1   5  -7    4.50    0.25 
   1   5  -7    4.21    0.23 
   1   5  -7    3.92    0.21 
  -1  -5   7    3.94    0.22 
  -1  -5   7    3.85    0.22 
   0   5  -7    0.03    0.06 
   0   5  -7    0.07    0.07 
   0  -5   7    0.06    0.06 
   0  -5   7   -0.06    0.06 
  -1   5  -7    4.67    0.26 
   1  -5   7    4.57    0.25 
   1  -5   7    5.06    0.26 
  -2   5  -7    1.51    0.17 
  -2   5  -7    1.59    0.18 
   2  -5   7    1.22    0.15 
   2  -5   7    1.24    0.15 
  -3   5  -7   10.91    0.39 
  -3   5  -7   10.33    0.38 
   3  -5   7   10.66    0.39 
   3  -5   7   10.76    0.40 
  -4   5  -7    1.45    0.18 
  -4   5  -7    1.34    0.17 
   4  -5   7    1.13    0.16 
   4  -5   7    1.20    0.17 
  -5   5  -7    1.59    0.19 
  -5   5  -7    1.21    0.16 
   5  -5   7    0.99    0.15 
   5  -5   7    1.33    0.17 
  -6   5  -7    2.08    0.21 
  -6   5  -7    2.53    0.23 
   6  -5   7    2.06    0.21 
   6  -5   7    1.52    0.19 
   6  -5   7    2.17    0.23 
   7   4  -7    0.12    0.09 
   7   4  -7    0.12    0.13 
   6   4  -7    1.73    0.19 
   6   4  -7    1.56    0.21 
   5   4  -7    1.56    0.18 
   5   4  -7    1.90    0.22 
   4   4  -7    2.75    0.21 
   4   4  -7    3.03    0.24 
  -4  -4   7    2.44    0.16 
   3   4  -7    2.24    0.21 
   3   4  -7    2.17    0.19 
   3   4  -7    2.22    0.18 
   3   4  -7    2.12    0.15 
  -3  -4   7    2.17    0.14 
  -3  -4   7    1.98    0.15 
   2   4  -7    1.20    0.12 
   2   4  -7    1.02    0.13 
   2   4  -7    1.06    0.13 
   2   4  -7    1.19    0.12 
  -2  -4   7    1.43    0.14 
  -2  -4   7    1.38    0.12 
   1   4  -7    5.98    0.26 
   1   4  -7    5.82    0.25 
   1   4  -7    5.70    0.24 
   1   4  -7    5.62    0.23 
  -1  -4   7    5.77    0.25 
  -1  -4   7    5.74    0.24 
   0   4  -7   14.15    0.39 
   0   4  -7   14.74    0.42 
   0   4  -7   14.16    0.39 
   0  -4   7   14.73    0.41 
   0  -4   7   14.21    0.40 
  -1   4  -7    1.82    0.17 
  -1   4  -7    1.43    0.14 
   1  -4   7    1.84    0.16 
   1  -4   7    1.69    0.16 
  -2   4  -7    4.70    0.24 
  -2   4  -7    4.96    0.25 
   2  -4   7    4.44    0.24 
   2  -4   7    4.65    0.23 
  -3   4  -7    5.48    0.27 
  -3   4  -7    5.22    0.27 
   3  -4   7    5.90    0.28 
   3  -4   7    5.38    0.26 
  -4   4  -7    4.25    0.25 
  -4   4  -7    4.55    0.27 
   4  -4   7    4.00    0.24 
   4  -4   7    4.42    0.26 
  -5   4  -7    2.75    0.22 
  -5   4  -7    2.75    0.23 
   5  -4   7    2.83    0.24 
   5  -4   7    2.63    0.22 
  -6   4  -7    2.44    0.22 
  -6   4  -7    2.14    0.21 
   6  -4   7    2.40    0.23 
   6  -4   7    2.01    0.22 
   6  -4   7    2.58    0.23 
  -7   4  -7    0.31    0.11 
  -7   4  -7    0.10    0.10 
   7  -4   7    0.43    0.14 
   7  -4   7    0.23    0.11 
   7   3  -7    2.03    0.25 
   7   3  -7    1.92    0.20 
   6   3  -7    0.15    0.09 
   6   3  -7    0.25    0.12 
   5   3  -7    3.71    0.27 
   5   3  -7    3.34    0.22 
   4   3  -7    3.41    0.21 
   4   3  -7    3.23    0.23 
   4   3  -7    3.37    0.19 
  -4  -3   7    3.39    0.15 
  -4  -3   7    3.63    0.17 
   3   3  -7    0.05    0.07 
   3   3  -7   -0.04    0.05 
   3   3  -7   -0.02    0.06 
   3   3  -7   -0.01    0.04 
  -3  -3   7    0.17    0.06 
  -3  -3   7    0.03    0.04 
   2   3  -7    2.76    0.16 
   2   3  -7    2.72    0.19 
   2   3  -7    2.90    0.16 
   2   3  -7    2.73    0.17 
  -2  -3   7    2.80    0.16 
  -2  -3   7    2.97    0.15 
   1   3  -7    3.97    0.19 
   1   3  -7    4.12    0.19 
   1   3  -7    4.60    0.21 
   1   3  -7    4.17    0.21 
  -1  -3   7    4.15    0.20 
  -1  -3   7    4.05    0.19 
   0   3  -7   10.81    0.33 
   0   3  -7   10.48    0.31 
   0   3  -7   10.87    0.32 
   0   3  -7   10.69    0.31 
   0  -3   7   10.65    0.32 
   0  -3   7   10.07    0.31 
  -1   3  -7    0.50    0.09 
  -1   3  -7    0.65    0.11 
  -1   3  -7    0.58    0.09 
   1  -3   7    0.34    0.08 
   1  -3   7    0.64    0.11 
  -2   3  -7    0.35    0.09 
  -2   3  -7    0.39    0.09 
   2  -3   7    0.42    0.09 
   2  -3   7    0.42    0.09 
  -3   3  -7    0.30    0.09 
  -3   3  -7    0.42    0.10 
   3  -3   7    0.36    0.10 
   3  -3   7    0.33    0.09 
  -4   3  -7   17.67    0.49 
  -4   3  -7   19.12    0.51 
   4  -3   7   18.42    0.51 
   4  -3   7   18.41    0.50 
  -5   3  -7    1.46    0.17 
  -5   3  -7    1.36    0.16 
   5  -3   7    1.63    0.19 
   5  -3   7    1.30    0.15 
   5  -3   7    1.83    0.18 
  -6   3  -7    4.15    0.27 
  -6   3  -7    3.97    0.25 
   6  -3   7    4.23    0.28 
   6  -3   7    3.97    0.26 
  -7   3  -7    1.73    0.21 
  -7   3  -7    1.71    0.20 
   7  -3   7    1.58    0.20 
   7  -3   7    1.59    0.18 
  -8   3  -7    0.63    0.13 
  -8   3  -7    0.41    0.13 
   8  -3   7    0.61    0.15 
   8  -3   7    0.45    0.13 
   7   2  -7    0.43    0.11 
   7   2  -7    0.53    0.16 
   6   2  -7    0.18    0.11 
   6   2  -7    0.14    0.08 
   5   2  -7    2.95    0.19 
   5   2  -7    2.62    0.23 
   4   2  -7    1.04    0.13 
   4   2  -7    1.06    0.14 
   4   2  -7    1.01    0.11 
   4   2  -7    1.17    0.11 
  -4  -2   7    0.97    0.09 
   3   2  -7    3.74    0.19 
   3   2  -7    3.73    0.18 
   3   2  -7    3.87    0.17 
   3   2  -7    3.66    0.22 
  -3  -2   7    3.75    0.13 
  -3  -2   7    3.67    0.16 
   2   2  -7    4.71    0.18 
   2   2  -7    5.08    0.24 
   2   2  -7    4.72    0.20 
   2   2  -7    4.92    0.19 
  -2  -2   7    4.84    0.18 
  -2  -2   7    4.84    0.17 
   1   2  -7    6.41    0.22 
   1   2  -7    6.50    0.23 
   1   2  -7    6.36    0.24 
   1   2  -7    6.12    0.21 
  -1  -2   7    6.21    0.22 
  -1  -2   7    6.18    0.21 
   0   2  -7    8.23    0.26 
   0   2  -7    7.86    0.26 
   0   2  -7    8.23    0.26 
   0   2  -7    8.16    0.25 
   0  -2   7    8.18    0.25 
   0  -2   7    8.29    0.26 
  -1   2  -7    4.59    0.18 
  -1   2  -7    4.31    0.18 
  -1   2  -7    4.36    0.20 
  -1   2  -7    4.34    0.20 
   1  -2   7    4.12    0.18 
   1  -2   7    4.54    0.19 
  -2   2  -7    2.43    0.14 
  -2   2  -7    2.33    0.16 
  -2   2  -7    2.34    0.16 
   2  -2   7    2.30    0.15 
   2  -2   7    2.48    0.15 
  -3   2  -7    2.67    0.18 
  -3   2  -7    3.09    0.18 
   3  -2   7    2.72    0.17 
   3  -2   7    2.51    0.18 
  -4   2  -7   22.31    0.55 
  -4   2  -7   22.31    0.55 
   4  -2   7   22.86    0.55 
   4  -2   7   22.46    0.55 
   4  -2   7   22.62    0.56 
  -5   2  -7    4.29    0.25 
  -5   2  -7    3.86    0.23 
   5  -2   7    4.61    0.25 
   5  -2   7    4.37    0.24 
  -6   2  -7    5.35    0.28 
  -6   2  -7    5.52    0.30 
   6  -2   7    5.26    0.28 
   6  -2   7    5.43    0.30 
  -7   2  -7    3.95    0.26 
  -7   2  -7    3.75    0.25 
   7  -2   7    3.01    0.23 
   7  -2   7    3.58    0.28 
  -8   2  -7    0.54    0.13 
  -8   2  -7    0.53    0.13 
   8  -2   7    0.52    0.13 
   8  -2   7    0.70    0.15 
   7   1  -7    0.49    0.14 
   7   1  -7    0.75    0.13 
   6   1  -7    3.17    0.27 
   6   1  -7    2.81    0.19 
   5   1  -7    0.84    0.11 
   5   1  -7    0.84    0.15 
   4   1  -7    0.01    0.04 
   4   1  -7   -0.05    0.06 
   4   1  -7    0.01    0.04 
   4   1  -7   -0.04    0.05 
  -4  -1   7   -0.04    0.03 
   3   1  -7    0.72    0.12 
   3   1  -7    0.75    0.08 
   3   1  -7    0.73    0.10 
   3   1  -7    0.50    0.07 
  -3  -1   7    0.65    0.07 
   2   1  -7    0.85    0.09 
   2   1  -7    0.94    0.09 
   2   1  -7    0.98    0.12 
   2   1  -7    0.99    0.09 
  -2  -1   7    1.07    0.08 
  -2  -1   7    1.07    0.09 
  -2  -1   7    0.98    0.07 
   1   1  -7    0.76    0.08 
   1   1  -7    0.77    0.10 
   1   1  -7    0.81    0.08 
   1   1  -7    0.80    0.08 
   1   1  -7    0.48    0.08 
  -1  -1   7    0.73    0.07 
  -1  -1   7    1.09    0.08 
  -1  -1   7    0.82    0.08 
   0   1  -7   12.13    0.32 
   0   1  -7   11.78    0.30 
   0   1  -7   12.71    0.32 
   0   1  -7   12.33    0.32 
   0  -1   7   12.91    0.31 
   0  -1   7   12.67    0.30 
  -1   1  -7    3.87    0.17 
  -1   1  -7    3.86    0.16 
  -1   1  -7    3.91    0.16 
  -1   1  -7    3.74    0.17 
   1  -1   7    3.90    0.17 
   1  -1   7    3.83    0.16 
  -2   1  -7    0.89    0.09 
  -2   1  -7    1.28    0.12 
  -2   1  -7    1.23    0.13 
   2  -1   7    0.85    0.10 
   2  -1   7    1.17    0.10 
   2  -1   7    1.00    0.11 
  -3   1  -7    3.54    0.17 
  -3   1  -7    3.63    0.19 
  -3   1  -7    3.31    0.19 
   3  -1   7    3.74    0.19 
   3  -1   7    3.72    0.19 
   3  -1   7    3.96    0.19 
  -4   1  -7   14.19    0.40 
  -4   1  -7   14.09    0.40 
   4  -1   7   13.96    0.40 
   4  -1   7   13.66    0.39 
  -5   1  -7    0.52    0.12 
  -5   1  -7    0.51    0.10 
   5  -1   7    0.90    0.13 
   5  -1   7    0.76    0.13 
  -6   1  -7    1.64    0.17 
  -6   1  -7    1.90    0.21 
   6  -1   7    1.57    0.17 
   6  -1   7    1.41    0.17 
  -7   1  -7    2.92    0.23 
  -7   1  -7    3.02    0.22 
   7  -1   7    3.17    0.23 
   7  -1   7    2.77    0.24 
  -8   1  -7    0.15    0.10 
  -8   1  -7    0.23    0.10 
   8  -1   7    0.17    0.11 
   8  -1   7    0.34    0.10 
   7   0  -7    0.82    0.13 
   7   0  -7    0.53    0.16 
   6   0  -7    3.87    0.20 
   6   0  -7    4.33    0.30 
   5   0  -7    1.51    0.13 
   5   0  -7    1.44    0.18 
   5   0  -7    1.61    0.12 
   4   0  -7    0.08    0.05 
   4   0  -7   -0.01    0.04 
   4   0  -7    0.00    0.05 
   4   0  -7    0.15    0.08 
   3   0  -7    6.94    0.20 
   3   0  -7    7.20    0.21 
   3   0  -7    7.59    0.30 
   3   0  -7    7.42    0.23 
  -3   0   7    7.44    0.16 
  -3   0   7    7.41    0.16 
   2   0  -7   33.67    0.60 
   2   0  -7   35.16    0.69 
   2   0  -7   33.29    0.59 
   2   0  -7   33.36    0.58 
  -2   0   7   33.90    0.54 
  -2   0   7   33.37    0.55 
   1   0  -7   14.95    0.37 
   1   0  -7   14.99    0.33 
   1   0  -7   14.52    0.32 
   1   0  -7   15.02    0.33 
   1   0  -7   15.34    0.32 
  -1   0   7   14.86    0.30 
  -1   0   7   15.18    0.29 
  -1   0   7   15.31    0.31 
  -1   0   7   15.17    0.28 
   0   0  -7    2.96    0.13 
   0   0  -7    3.13    0.14 
   0   0  -7    3.08    0.14 
   0   0  -7    3.21    0.14 
   0   0   7    2.95    0.12 
   0   0   7    3.33    0.13 
   0   0   7    3.06    0.12 
   0   0   7    3.18    0.13 
  -1   0  -7   43.74    0.75 
  -1   0  -7   44.62    0.77 
  -1   0  -7   43.92    0.73 
  -1   0  -7   44.83    0.77 
   1   0   7   44.76    0.76 
   1   0   7   44.12    0.75 
   1   0   7   44.54    0.75 
   1   0   7   44.27    0.77 
  -2   0  -7   10.81    0.29 
  -2   0  -7   11.20    0.30 
  -2   0  -7   10.81    0.30 
   2   0   7   10.85    0.27 
   2   0   7   10.79    0.29 
   2   0   7   11.22    0.29 
   2   0   7   11.00    0.31 
   2   0   7   11.20    0.30 
  -3   0  -7   17.82    0.43 
  -3   0  -7   17.46    0.42 
  -3   0  -7   17.69    0.41 
   3   0   7   17.12    0.41 
   3   0   7   17.99    0.38 
   3   0   7   17.45    0.42 
  -4   0  -7    1.33    0.14 
   4   0   7    1.03    0.12 
   4   0   7    1.07    0.11 
  -5   0  -7   25.60    0.59 
  -5   0  -7   24.64    0.59 
   5   0   7   25.58    0.58 
   5   0   7   25.88    0.60 
  -6   0  -7    4.97    0.25 
  -6   0  -7    5.35    0.27 
   6   0   7    4.99    0.27 
   6   0   7    4.66    0.24 
  -7   0  -7    1.08    0.15 
  -7   0  -7    1.20    0.17 
   7   0   7    1.08    0.16 
   7   0   7    0.92    0.16 
  -8   0  -7    1.56    0.19 
  -8   0  -7    1.46    0.17 
   8   0   7    1.50    0.17 
   8   0   7    1.39    0.18 
  -9   0  -7    0.10    0.09 
  -9   0  -7    0.16    0.10 
   9   0   7    0.22    0.13 
   9   0   7    0.05    0.10 
   7  -1  -7    2.36    0.27 
   7  -1  -7    2.16    0.17 
   6  -1  -7   -0.06    0.09 
   6  -1  -7   -0.06    0.05 
   5  -1  -7   14.46    0.49 
   5  -1  -7   14.31    0.33 
   5  -1  -7   14.63    0.34 
   5  -1  -7   14.32    0.36 
   4  -1  -7    1.38    0.09 
   4  -1  -7    1.28    0.16 
   4  -1  -7    1.23    0.09 
   4  -1  -7    1.18    0.10 
   3  -1  -7   41.48    0.69 
   3  -1  -7   41.78    0.67 
   3  -1  -7   42.92    0.84 
   3  -1  -7   42.70    0.69 
   2  -1  -7   18.82    0.35 
   2  -1  -7   18.65    0.36 
   2  -1  -7   18.69    0.45 
   2  -1  -7   18.49    0.36 
   1  -1  -7    7.65    0.19 
   1  -1  -7    7.53    0.19 
   1  -1  -7    7.43    0.24 
   1  -1  -7    7.44    0.20 
   1  -1  -7    7.47    0.19 
  -1   1   7    7.30    0.16 
  -1   1   7    7.51    0.17 
   0  -1  -7    1.43    0.09 
   0  -1  -7    1.43    0.09 
   0  -1  -7    1.23    0.10 
   0  -1  -7    1.40    0.08 
   0   1   7    1.38    0.07 
   0   1   7    1.36    0.08 
   0   1   7    1.14    0.07 
   0   1   7    1.42    0.07 
   0   1   7    1.37    0.10 
   0   1   7    1.44    0.08 
   0   1   7    1.56    0.07 
  -1  -1  -7   27.30    0.53 
  -1  -1  -7   27.79    0.49 
  -1  -1  -7   28.77    0.53 
  -1  -1  -7   28.42    0.52 
   1   1   7   28.08    0.50 
   1   1   7   28.49    0.50 
   1   1   7   28.01    0.51 
   1   1   7   28.16    0.50 
   1   1   7   28.93    0.53 
   1   1   7   28.46    0.51 
  -2  -1  -7    4.57    0.18 
  -2  -1  -7    5.08    0.19 
  -2  -1  -7    4.95    0.18 
   2   1   7    5.17    0.18 
   2   1   7    4.81    0.16 
   2   1   7    5.02    0.18 
   2   1   7    4.96    0.18 
   2   1   7    4.69    0.17 
  -3  -1  -7    0.22    0.06 
  -3  -1  -7    0.33    0.07 
  -3  -1  -7    0.36    0.07 
   3   1   7    0.35    0.05 
   3   1   7    0.31    0.07 
   3   1   7    0.23    0.06 
  -4  -1  -7    3.13    0.18 
  -4  -1  -7    2.86    0.17 
   4   1   7    2.96    0.16 
   4   1   7    2.95    0.17 
   4   1   7    2.93    0.12 
  -5  -1  -7   10.04    0.33 
   5   1   7   10.22    0.32 
   5   1   7   10.16    0.34 
  -6  -1  -7   13.56    0.41 
  -6  -1  -7   14.15    0.43 
   6   1   7   13.32    0.40 
   6   1   7   13.97    0.43 
  -7  -1  -7    2.05    0.21 
  -7  -1  -7    2.12    0.18 
   7   1   7    2.30    0.19 
   7   1   7    2.19    0.22 
  -8  -1  -7    3.04    0.24 
  -8  -1  -7    3.12    0.22 
   8   1   7    2.69    0.25 
   8   1   7    2.81    0.23 
  -9  -1  -7    2.17    0.22 
  -9  -1  -7    2.02    0.25 
   9   1   7    1.49    0.18 
   9   1   7    1.68    0.22 
   7  -2  -7    1.21    0.21 
   7  -2  -7    0.99    0.12 
   6  -2  -7   -0.02    0.09 
   6  -2  -7    0.03    0.05 
   5  -2  -7    7.84    0.35 
   5  -2  -7    7.09    0.19 
   5  -2  -7    7.01    0.21 
   5  -2  -7    6.84    0.20 
   4  -2  -7   -0.08    0.07 
   4  -2  -7    0.02    0.03 
   4  -2  -7    0.04    0.03 
   3  -2  -7   10.24    0.35 
   3  -2  -7   10.07    0.20 
   2  -2  -7    6.31    0.16 
   2  -2  -7    6.47    0.25 
   2  -2  -7    6.55    0.16 
   2  -2  -7    6.49    0.15 
   1  -2  -7    2.24    0.13 
   1  -2  -7    2.48    0.10 
   1  -2  -7    2.40    0.10 
   1  -2  -7    2.30    0.09 
   0  -2  -7   68.14    1.02 
   0  -2  -7   68.72    1.05 
   0  -2  -7   69.31    1.03 
   0  -2  -7   68.29    1.03 
   0   2   7   69.04    0.99 
   0   2   7   60.57    0.99 
  -1  -2  -7    1.65    0.10 
  -1  -2  -7    1.58    0.09 
  -1  -2  -7    1.66    0.08 
  -1  -2  -7    1.68    0.10 
   1   2   7    1.69    0.09 
   1   2   7    1.65    0.09 
   1   2   7    1.78    0.09 
   1   2   7    1.68    0.08 
   1   2   7    1.84    0.09 
   1   2   7    1.79    0.09 
   1   2   7    1.68    0.09 
  -2  -2  -7    1.75    0.11 
  -2  -2  -7    1.73    0.11 
   2   2   7    1.73    0.11 
   2   2   7    1.58    0.10 
   2   2   7    1.59    0.10 
   2   2   7    1.65    0.08 
  -3  -2  -7    4.52    0.19 
  -3  -2  -7    4.70    0.19 
   3   2   7    4.77    0.18 
   3   2   7    4.76    0.20 
   3   2   7    4.80    0.13 
   3   2   7    4.38    0.18 
  -4  -2  -7   -0.03    0.04 
  -4  -2  -7    0.00    0.04 
   4   2   7    0.01    0.02 
   4   2   7    0.05    0.05 
   4   2   7   -0.09    0.03 
  -5  -2  -7    5.87    0.24 
  -5  -2  -7    5.57    0.25 
   5   2   7    5.31    0.23 
   5   2   7    6.18    0.25 
  -6  -2  -7    0.00    0.07 
  -6  -2  -7    0.03    0.07 
   6   2   7    0.11    0.07 
   6   2   7    0.16    0.08 
  -7  -2  -7    1.20    0.15 
  -7  -2  -7    1.33    0.17 
   7   2   7    1.39    0.17 
   7   2   7    1.40    0.15 
  -8  -2  -7    3.64    0.25 
  -8  -2  -7    3.87    0.24 
   8   2   7    3.74    0.24 
   8   2   7    3.77    0.28 
  -9  -2  -7    0.94    0.17 
  -9  -2  -7    0.96    0.15 
   9   2   7    1.17    0.16 
   9   2   7    0.75    0.17 
   7  -3  -7    2.50    0.15 
   7  -3  -7    2.52    0.28 
   7  -3  -7    1.98    0.11 
   6  -3  -7   -0.03    0.04 
   5  -3  -7    2.26    0.09 
   3  -3  -7    6.23    0.27 
   2  -3  -7    0.25    0.03 
   2  -3  -7    0.24    0.03 
   2  -3  -7    0.24    0.08 
   1  -3  -7   53.03    0.79 
   1  -3  -7   52.10    0.78 
   1  -3  -7   51.79    0.78 
   1  -3  -7   52.44    0.89 
   0  -3  -7    2.90    0.13 
   0  -3  -7    3.02    0.11 
   0  -3  -7    3.00    0.11 
   0  -3  -7    3.00    0.11 
   0   3   7    3.07    0.09 
   0   3   7    3.00    0.09 
  -1  -3  -7    4.43    0.15 
  -1  -3  -7    4.25    0.15 
  -1  -3  -7    4.55    0.12 
  -1  -3  -7    4.58    0.15 
   1   3   7    4.46    0.12 
   1   3   7    4.40    0.13 
   1   3   7    4.47    0.14 
   1   3   7    4.48    0.14 
   1   3   7    4.55    0.13 
  -2  -3  -7   61.55    1.01 
  -2  -3  -7   61.55    1.01 
  -2  -3  -7   62.69    1.00 
   2   3   7   63.11    0.99 
   2   3   7   63.23    0.98 
   2   3   7   62.17    0.99 
  -3  -3  -7    0.73    0.08 
  -3  -3  -7    1.05    0.10 
  -3  -3  -7    0.85    0.09 
   3   3   7    0.85    0.09 
   3   3   7    1.04    0.10 
   3   3   7    0.96    0.09 
   3   3   7    0.99    0.05 
  -4  -3  -7    3.22    0.17 
  -4  -3  -7    3.15    0.17 
   4   3   7    3.40    0.16 
   4   3   7    3.43    0.17 
   4   3   7    3.42    0.10 
  -5  -3  -7    9.11    0.32 
  -5  -3  -7    9.08    0.30 
   5   3   7    9.86    0.32 
   5   3   7    9.74    0.30 
  -6  -3  -7    2.94    0.19 
  -6  -3  -7    3.16    0.21 
   6   3   7    3.16    0.19 
   6   3   7    2.82    0.20 
  -7  -3  -7    6.00    0.28 
  -7  -3  -7    6.00    0.30 
   7   3   7    5.73    0.30 
   7   3   7    5.74    0.27 
  -8  -3  -7    0.15    0.10 
  -8  -3  -7    0.06    0.08 
   8   3   7   -0.02    0.07 
   8   3   7    0.11    0.11 
  -9  -3  -7    0.91    0.17 
  -9  -3  -7    0.88    0.15 
   9   3   7    0.81    0.14 
   9   3   7    0.92    0.17 
   7  -4  -7    2.58    0.14 
   6  -4  -7    0.02    0.03 
   1  -4  -7    4.27    0.18 
   1  -4  -7    4.24    0.11 
   0  -4  -7   16.39    0.34 
   0  -4  -7   16.24    0.31 
   0  -4  -7   15.93    0.31 
   0  -4  -7   16.05    0.31 
   0  -4  -7   16.06    0.31 
  -1  -4  -7    2.59    0.11 
  -1  -4  -7    2.59    0.12 
  -1  -4  -7    2.32    0.11 
  -1  -4  -7    2.58    0.11 
  -1  -4  -7    2.53    0.09 
   1   4   7    2.58    0.09 
   1   4   7    2.57    0.10 
   1   4   7    2.63    0.09 
  -2  -4  -7    0.78    0.09 
  -2  -4  -7    0.96    0.10 
  -2  -4  -7    0.87    0.09 
   2   4   7    0.97    0.08 
   2   4   7    0.94    0.08 
   2   4   7    0.87    0.08 
  -3  -4  -7    8.53    0.25 
  -3  -4  -7    8.59    0.26 
  -3  -4  -7    8.63    0.26 
   3   4   7    8.67    0.24 
   3   4   7    9.00    0.28 
   3   4   7    8.91    0.26 
  -4  -4  -7    2.11    0.14 
  -4  -4  -7    2.35    0.15 
   4   4   7    2.30    0.14 
   4   4   7    2.39    0.15 
  -5  -4  -7    2.27    0.16 
  -5  -4  -7    1.91    0.16 
   5   4   7    2.58    0.16 
   5   4   7    2.48    0.17 
  -6  -4  -7    5.98    0.28 
  -6  -4  -7    5.61    0.26 
   6   4   7    5.34    0.26 
   6   4   7    5.41    0.24 
  -7  -4  -7    2.91    0.23 
  -7  -4  -7    2.77    0.20 
   7   4   7    2.81    0.20 
   7   4   7    3.24    0.23 
  -8  -4  -7   -0.01    0.07 
  -8  -4  -7   -0.05    0.07 
   8   4   7    0.16    0.11 
   8   4   7   -0.08    0.07 
  -9  -4  -7    0.10    0.10 
   9   4   7    0.37    0.14 
   9   4   7    0.23    0.10 
   1  -5  -7    2.47    0.08 
   0  -5  -7    0.24    0.04 
   0  -5  -7    0.33    0.05 
   0  -5  -7    0.27    0.05 
   0  -5  -7    0.38    0.05 
  -1  -5  -7   21.69    0.43 
  -1  -5  -7   22.17    0.42 
  -1  -5  -7   21.94    0.41 
  -1  -5  -7   22.04    0.37 
  -1  -5  -7   21.67    0.42 
   1   5   7   21.72    0.39 
  -2  -5  -7    6.48    0.21 
  -2  -5  -7    6.50    0.21 
  -2  -5  -7    6.36    0.20 
  -2  -5  -7    6.25    0.21 
   2   5   7    6.44    0.19 
   2   5   7    6.38    0.19 
   2   5   7    6.28    0.19 
  -3  -5  -7    4.06    0.18 
  -3  -5  -7    4.04    0.17 
  -3  -5  -7    3.71    0.18 
  -3  -5  -7    4.21    0.18 
   3   5   7    4.14    0.16 
   3   5   7    4.15    0.17 
  -4  -5  -7   11.90    0.35 
  -4  -5  -7   12.17    0.34 
   4   5   7   12.75    0.33 
   4   5   7   12.49    0.35 
  -5  -5  -7    6.57    0.27 
  -5  -5  -7    6.15    0.25 
   5   5   7    6.38    0.26 
   5   5   7    6.36    0.24 
  -6  -5  -7    8.28    0.33 
  -6  -5  -7    8.18    0.30 
   6   5   7    7.69    0.29 
   6   5   7    7.14    0.19 
   6   5   7    7.76    0.32 
  -7  -5  -7    0.11    0.09 
  -7  -5  -7    0.09    0.08 
   7   5   7    0.14    0.09 
   7   5   7    0.12    0.06 
   7   5   7    0.04    0.07 
  -8  -5  -7    1.80    0.19 
   8   5   7    1.65    0.14 
   8   5   7    2.24    0.23 
   8   5   7    2.21    0.19 
  -9  -5  -7   -0.03    0.09 
   9   5   7    0.02    0.09 
   9   5   7    0.01    0.10 
   2  -6  -7    0.32    0.03 
   1  -6  -7    3.16    0.11 
   1  -6  -7    3.46    0.12 
   1  -6  -7    3.35    0.11 
   0  -6  -7    8.28    0.21 
   0  -6  -7    8.54    0.22 
   0  -6  -7    8.97    0.22 
   0  -6  -7    8.78    0.21 
  -1  -6  -7    9.13    0.25 
  -1  -6  -7    9.02    0.24 
  -1  -6  -7    9.06    0.24 
  -1  -6  -7    9.08    0.23 
   1   6   7    8.72    0.21 
  -2  -6  -7   17.33    0.40 
  -2  -6  -7   16.79    0.38 
  -2  -6  -7   17.00    0.39 
  -2  -6  -7   17.31    0.38 
   2   6   7   17.40    0.35 
   2   6   7   16.90    0.36 
   2   6   7   16.82    0.35 
  -3  -6  -7    0.22    0.06 
  -3  -6  -7    0.35    0.07 
  -3  -6  -7    0.46    0.09 
  -3  -6  -7    0.34    0.07 
   3   6   7    0.39    0.07 
  -4  -6  -7    1.83    0.15 
  -4  -6  -7    1.91    0.14 
  -4  -6  -7    1.84    0.16 
   4   6   7    1.74    0.14 
  -5  -6  -7    5.85    0.25 
  -5  -6  -7    5.98    0.26 
  -5  -6  -7    6.01    0.28 
   5   6   7    5.77    0.26 
  -6  -6  -7    1.03    0.14 
   6   6   7    1.16    0.06 
   6   6   7    1.44    0.17 
  -7  -6  -7   12.47    0.41 
   7   6   7   12.12    0.28 
   7   6   7   13.47    0.45 
  -8  -6  -7    4.47    0.26 
   8   6   7    5.32    0.32 
  -9  -6  -7    0.77    0.15 
   9   6   7    0.67    0.14 
   9   6   7    1.20    0.20 
   3  -7  -7    0.40    0.04 
   3  -7  -7    0.39    0.04 
   2  -7  -7    0.67    0.06 
   2  -7  -7    0.83    0.07 
   1  -7  -7    1.89    0.10 
   1  -7  -7    1.92    0.10 
   1  -7  -7    1.91    0.11 
   0  -7  -7    0.19    0.05 
   0  -7  -7    0.25    0.05 
   0  -7  -7    0.19    0.05 
  -1  -7  -7   16.85    0.37 
  -1  -7  -7   16.20    0.36 
  -1  -7  -7   15.55    0.36 
   1   7   7   15.98    0.32 
  -2  -7  -7    7.03    0.24 
  -2  -7  -7    6.99    0.23 
  -2  -7  -7    6.71    0.24 
   2   7   7    6.95    0.20 
  -3  -7  -7   -0.08    0.06 
  -3  -7  -7   -0.05    0.04 
  -3  -7  -7   -0.07    0.05 
   3   7   7   -0.04    0.05 
  -4  -7  -7    1.49    0.14 
  -4  -7  -7    1.67    0.16 
   4   7   7    1.92    0.15 
  -5  -7  -7    2.96    0.22 
  -5  -7  -7    3.12    0.20 
   5   7   7    3.34    0.21 
  -6  -7  -7    4.58    0.26 
  -6  -7  -7    4.22    0.23 
   6   7   7    3.94    0.25 
  -7  -7  -7    3.78    0.25 
   7   7   7    3.93    0.26 
  -8  -7  -7    2.09    0.21 
   8   7   7    2.90    0.25 
  -9  -7  -7    0.06    0.10 
   9   7   7    0.12    0.11 
   4  -8  -7    0.03    0.04 
   4  -8  -7    0.06    0.05 
   3  -8  -7    4.38    0.14 
   3  -8  -7    4.68    0.16 
   2  -8  -7   -0.04    0.04 
   2  -8  -7   -0.03    0.03 
   2  -8  -7    0.03    0.04 
   1  -8  -7    1.99    0.12 
   1  -8  -7    1.95    0.12 
   1  -8  -7    2.02    0.11 
   0  -8  -7    0.58    0.08 
   0  -8  -7    0.55    0.08 
   0  -8  -7    0.59    0.09 
   0   8   7    0.58    0.05 
   0   8   7    0.56    0.05 
  -1  -8  -7    0.98    0.10 
  -1  -8  -7    0.85    0.07 
  -1  -8  -7    1.16    0.11 
  -1  -8  -7    1.08    0.11 
  -2  -8  -7   10.01    0.31 
  -2  -8  -7    9.92    0.30 
  -2  -8  -7    9.69    0.29 
  -2  -8  -7    9.53    0.20 
   2   8   7    9.60    0.25 
  -3  -8  -7    1.00    0.12 
  -3  -8  -7    0.93    0.13 
  -3  -8  -7    0.91    0.12 
   3   8   7    1.08    0.12 
  -4  -8  -7    0.17    0.09 
  -4  -8  -7   -0.08    0.07 
   4   8   7    0.08    0.07 
  -5  -8  -7    2.97    0.22 
  -5  -8  -7    2.78    0.19 
   5   8   7    3.07    0.21 
  -6  -8  -7    0.87    0.14 
  -6  -8  -7    0.73    0.12 
   6   8   7    0.89    0.14 
  -7  -8  -7    0.66    0.13 
  -7  -8  -7    0.69    0.15 
   7   8   7    0.96    0.17 
  -8  -8  -7    0.02    0.09 
   8   8   7    0.00    0.10 
  -9  -8  -7    0.30    0.12 
   9   8   7    0.29    0.14 
   5  -9  -7    4.64    0.20 
   4  -9  -7    4.37    0.17 
   4  -9  -7    4.55    0.20 
   3  -9  -7    0.72    0.08 
   3  -9  -7    0.67    0.09 
   2  -9  -7   -0.06    0.04 
   2  -9  -7   -0.04    0.04 
   1  -9  -7    1.31    0.11 
   1  -9  -7    1.43    0.13 
   0  -9  -7    2.80    0.17 
   0  -9  -7    2.93    0.16 
  -1  -9  -7    9.31    0.30 
  -1  -9  -7    9.26    0.29 
  -2  -9  -7    9.91    0.31 
  -2  -9  -7    9.50    0.32 
   2   9   7    9.34    0.26 
  -3  -9  -7    3.20    0.21 
  -3  -9  -7    3.22    0.19 
   3   9   7    2.74    0.17 
  -4  -9  -7   -0.03    0.07 
  -4  -9  -7    0.01    0.08 
   4   9   7    0.05    0.07 
  -5  -9  -7    5.15    0.29 
  -5  -9  -7    4.65    0.26 
   5   9   7    5.11    0.27 
  -6  -9  -7    0.64    0.13 
  -6  -9  -7    0.52    0.13 
   6   9   7    0.75    0.14 
  -7  -9  -7    2.34    0.23 
  -7  -9  -7    2.20    0.21 
   7   9   7    2.83    0.27 
  -8  -9  -7    0.15    0.11 
   8   9   7    0.19    0.13 
   4 -10  -7    5.67    0.21 
   4 -10  -7    6.07    0.24 
   3 -10  -7    0.06    0.06 
   3 -10  -7    0.23    0.08 
   2 -10  -7    0.78    0.10 
   2 -10  -7    0.67    0.10 
   1 -10  -7    0.04    0.06 
   1 -10  -7    0.03    0.06 
   0 -10  -7   -0.01    0.06 
   0 -10  -7    0.04    0.07 
  -1 -10  -7    0.19    0.07 
  -1 -10  -7    0.08    0.07 
  -2 -10  -7    0.27    0.08 
  -2 -10  -7    0.25    0.09 
  -3 -10  -7    0.37    0.09 
  -3 -10  -7    0.40    0.11 
   3  10   7    0.37    0.08 
  -4 -10  -7    0.52    0.12 
  -4 -10  -7    0.65    0.12 
   4  10   7    0.45    0.10 
  -5 -10  -7    0.56    0.13 
  -5 -10  -7    0.38    0.13 
   5  10   7    0.69    0.13 
  -6 -10  -7    1.35    0.17 
  -6 -10  -7    0.99    0.17 
   6  10   7    1.30    0.18 
  -7 -10  -7    4.94    0.29 
  -7 -10  -7    7.03    0.37 
   7  10   7    6.07    0.35 
  -8 -10  -7    0.19    0.11 
  -8 -10  -7    0.19    0.13 
   8  10   7    0.31    0.14 
   3 -11  -7    2.54    0.17 
   3 -11  -7    2.90    0.19 
   2 -11  -7    1.82    0.16 
   2 -11  -7    1.71    0.17 
   1 -11  -7    1.23    0.15 
   1 -11  -7    1.35    0.14 
   0 -11  -7   -0.01    0.08 
   0 -11  -7   -0.03    0.07 
  -1 -11  -7    4.84    0.26 
  -1 -11  -7    4.33    0.23 
  -2 -11  -7   -0.04    0.07 
  -2 -11  -7    0.08    0.08 
  -3 -11  -7    1.03    0.15 
  -3 -11  -7    1.26    0.16 
  -4 -11  -7    0.18    0.11 
  -4 -11  -7    0.25    0.10 
  -5 -11  -7    0.73    0.14 
  -5 -11  -7    0.59    0.14 
   5  11   7    0.57    0.12 
  -6 -11  -7    0.09    0.11 
  -6 -11  -7    0.29    0.12 
   6  11   7    0.12    0.11 
  -7 -11  -7   -0.14    0.09 
  -7 -11  -7   -0.10    0.10 
   7  11   7    0.08    0.11 
   1 -12  -7    0.76    0.14 
   1 -12  -7    0.72    0.12 
   0 -12  -7   -0.12    0.08 
   0 -12  -7    0.02    0.08 
  -1 -12  -7    0.00    0.09 
  -1 -12  -7    0.19    0.09 
  -2 -12  -7   -0.04    0.09 
  -2 -12  -7    0.29    0.10 
  -3 -12  -7    0.54    0.12 
  -3 -12  -7    0.51    0.14 
  -4 -12  -7    0.39    0.13 
  -4 -12  -7    0.41    0.12 
  -5 -12  -7    0.04    0.10 
  -5 -12  -7   -0.13    0.10 
  -6 -12  -7    0.03    0.11 
  -6 -12  -7    0.13    0.12 
  -1 -13  -7    0.23    0.12 
  -1 -13  -7    0.29    0.12 
  -2 -13  -7   -0.02    0.08 
  -2 -13  -7    0.04    0.11 
  -3 -13  -7    0.09    0.11 
  -3 -13  -7    0.13    0.10 
  -4 -13  -7    0.27    0.13 
  -4 -13  -7    0.18    0.11 
   2   8  -8    0.11    0.10 
   2   8  -8    0.19    0.13 
  -2  -8   8   -0.04    0.14 
   1   8  -8    1.05    0.19 
  -1  -8   8    1.09    0.19 
   0   8  -8    2.75    0.28 
   0  -8   8    2.70    0.27 
  -1   8  -8    1.36    0.19 
   1  -8   8    1.68    0.23 
   4   7  -8    0.07    0.13 
   4   7  -8    0.35    0.12 
   3   7  -8   -0.01    0.09 
   3   7  -8    0.13    0.11 
   2   7  -8    0.66    0.15 
   2   7  -8    0.70    0.15 
  -2  -7   8    0.56    0.14 
   1   7  -8    0.28    0.12 
  -1  -7   8    0.46    0.15 
   0   7  -8   -0.09    0.11 
   0  -7   8    0.01    0.11 
  -1   7  -8    0.37    0.12 
   1  -7   8    0.13    0.12 
  -2   7  -8    0.67    0.17 
   2  -7   8    1.00    0.23 
   2  -7   8    0.50    0.14 
  -3   7  -8    0.92    0.18 
   3  -7   8    0.38    0.13 
   3  -7   8    0.68    0.15 
   5   6  -8    0.73    0.17 
   5   6  -8    0.62    0.16 
   4   6  -8   -0.05    0.08 
   4   6  -8    0.08    0.12 
   3   6  -8    0.37    0.15 
   3   6  -8    0.56    0.15 
   2   6  -8   12.57    0.44 
   2   6  -8   12.28    0.45 
  -2  -6   8   11.74    0.42 
   1   6  -8    2.37    0.21 
   1   6  -8    2.49    0.24 
  -1  -6   8    2.23    0.21 
   0   6  -8    0.44    0.12 
   0  -6   8    0.47    0.14 
   0  -6   8    0.52    0.12 
  -1   6  -8    6.56    0.33 
   1  -6   8    6.30    0.32 
   1  -6   8    5.86    0.30 
  -2   6  -8    0.09    0.09 
   2  -6   8    0.07    0.10 
   2  -6   8   -0.06    0.08 
  -3   6  -8    0.86    0.16 
  -3   6  -8    0.80    0.14 
   3  -6   8    0.89    0.18 
   3  -6   8    0.82    0.15 
  -4   6  -8    0.26    0.12 
  -4   6  -8    0.23    0.12 
   4  -6   8    0.22    0.12 
   4  -6   8    0.01    0.09 
  -5   6  -8    0.52    0.14 
  -5   6  -8    0.67    0.14 
   5  -6   8    0.60    0.15 
   5  -6   8    0.73    0.18 
   5   5  -8    3.05    0.28 
   5   5  -8    3.04    0.26 
   4   5  -8    1.50    0.18 
   4   5  -8    1.86    0.22 
   3   5  -8    0.33    0.12 
   3   5  -8    0.42    0.12 
  -3  -5   8    0.54    0.11 
   2   5  -8   -0.01    0.08 
   2   5  -8    0.11    0.07 
  -2  -5   8    0.06    0.08 
   1   5  -8    1.20    0.15 
   1   5  -8    1.03    0.14 
  -1  -5   8    1.34    0.18 
  -1  -5   8    1.20    0.15 
   0   5  -8    0.09    0.09 
   0   5  -8    0.08    0.08 
   0  -5   8    0.03    0.09 
   0  -5   8    0.15    0.09 
  -1   5  -8    1.53    0.16 
   1  -5   8    1.46    0.17 
   1  -5   8    1.60    0.17 
  -2   5  -8    1.02    0.14 
  -2   5  -8    1.40    0.16 
   2  -5   8    1.36    0.17 
   2  -5   8    1.53    0.18 
  -3   5  -8    5.95    0.31 
  -3   5  -8    5.94    0.31 
   3  -5   8    5.84    0.31 
   3  -5   8    5.46    0.30 
  -4   5  -8    0.35    0.13 
  -4   5  -8    0.62    0.14 
   4  -5   8    0.66    0.14 
   4  -5   8    0.61    0.15 
  -5   5  -8    4.14    0.28 
  -5   5  -8    3.79    0.28 
   5  -5   8    3.52    0.27 
   5  -5   8    4.05    0.30 
  -6   5  -8    0.40    0.13 
  -6   5  -8    0.23    0.12 
   6  -5   8    0.45    0.14 
   6  -5   8    0.32    0.12 
   6  -5   8    0.46    0.13 
   6   4  -8    0.12    0.10 
   6   4  -8   -0.09    0.11 
   5   4  -8    0.61    0.14 
   5   4  -8    0.61    0.16 
   4   4  -8   -0.12    0.08 
   4   4  -8    0.05    0.08 
   3   4  -8    0.03    0.07 
   3   4  -8   -0.06    0.07 
  -3  -4   8    0.00    0.06 
   2   4  -8    0.07    0.07 
   2   4  -8    0.06    0.08 
   2   4  -8    0.07    0.06 
  -2  -4   8    0.04    0.06 
  -2  -4   8    0.14    0.07 
   1   4  -8   11.84    0.43 
   1   4  -8   12.76    0.39 
   1   4  -8   11.96    0.42 
   1   4  -8   13.01    0.40 
  -1  -4   8   12.08    0.38 
  -1  -4   8   12.14    0.37 
   0   4  -8    1.18    0.16 
   0   4  -8    0.85    0.12 
   0  -4   8    0.95    0.13 
   0  -4   8    0.84    0.12 
  -1   4  -8   -0.05    0.06 
  -1   4  -8    0.05    0.08 
   1  -4   8   -0.09    0.05 
   1  -4   8   -0.03    0.06 
  -2   4  -8    6.86    0.30 
  -2   4  -8    6.02    0.28 
   2  -4   8    6.23    0.28 
   2  -4   8    6.25    0.29 
  -3   4  -8    1.57    0.18 
  -3   4  -8    1.64    0.18 
   3  -4   8    1.27    0.16 
   3  -4   8    1.85    0.20 
  -4   4  -8    1.14    0.18 
  -4   4  -8    0.61    0.14 
   4  -4   8    0.78    0.15 
   4  -4   8    0.95    0.15 
  -5   4  -8    4.31    0.28 
  -5   4  -8    3.56    0.25 
   5  -4   8    3.97    0.28 
   5  -4   8    3.36    0.26 
   5  -4   8    4.16    0.28 
  -6   4  -8    0.58    0.14 
  -6   4  -8    0.61    0.15 
   6  -4   8    0.63    0.16 
   6  -4   8    0.97    0.16 
   6  -4   8    0.99    0.18 
   6   3  -8   -0.14    0.07 
   6   3  -8   -0.16    0.11 
   5   3  -8    0.47    0.11 
   5   3  -8    0.36    0.14 
   4   3  -8    5.94    0.27 
   4   3  -8    5.50    0.30 
   3   3  -8   -0.02    0.08 
   3   3  -8   -0.08    0.06 
  -3  -3   8    0.00    0.05 
   2   3  -8    0.09    0.06 
   2   3  -8    0.07    0.06 
   2   3  -8    0.03    0.07 
   2   3  -8    0.02    0.05 
  -2  -3   8    0.03    0.04 
  -2  -3   8    0.12    0.06 
   1   3  -8    4.90    0.23 
   1   3  -8    4.43    0.21 
   1   3  -8    4.64    0.22 
   1   3  -8    4.83    0.21 
  -1  -3   8    4.65    0.21 
   0   3  -8    0.07    0.07 
   0   3  -8    0.09    0.07 
   0   3  -8   -0.05    0.06 
   0   3  -8    0.01    0.06 
   0  -3   8    0.06    0.05 
   0  -3   8   -0.02    0.05 
  -1   3  -8    0.04    0.07 
  -1   3  -8    0.02    0.07 
   1  -3   8    0.00    0.06 
   1  -3   8    0.03    0.06 
  -2   3  -8    3.30    0.21 
  -2   3  -8    2.68    0.19 
   2  -3   8    2.89    0.19 
   2  -3   8    3.12    0.19 
  -3   3  -8    0.38    0.09 
  -3   3  -8    0.50    0.10 
   3  -3   8    0.47    0.10 
   3  -3   8    0.49    0.10 
  -4   3  -8    0.03    0.09 
  -4   3  -8    0.07    0.08 
   4  -3   8    0.14    0.09 
   4  -3   8    0.06    0.08 
   4  -3   8    0.08    0.08 
  -5   3  -8    0.01    0.08 
  -5   3  -8   -0.01    0.09 
   5  -3   8    0.23    0.10 
   5  -3   8    0.22    0.10 
   5  -3   8    0.10    0.09 
  -6   3  -8   11.18    0.42 
  -6   3  -8   10.66    0.42 
   6  -3   8   10.98    0.42 
   6  -3   8   11.22    0.44 
   6  -3   8   10.27    0.42 
  -7   3  -8   -0.09    0.09 
  -7   3  -8    0.11    0.11 
   7  -3   8    0.33    0.12 
   7  -3   8    0.17    0.12 
   7   2  -8    0.23    0.10 
   6   2  -8    0.06    0.08 
   6   2  -8   -0.04    0.11 
   5   2  -8    0.61    0.11 
   5   2  -8    0.72    0.15 
   4   2  -8    0.22    0.11 
   4   2  -8    0.30    0.09 
   3   2  -8    3.29    0.16 
   3   2  -8    3.38    0.19 
   3   2  -8    3.15    0.18 
   3   2  -8    3.60    0.23 
  -3  -2   8    3.09    0.15 
  -3  -2   8    3.16    0.12 
   2   2  -8    0.20    0.06 
   2   2  -8    0.15    0.06 
   2   2  -8    0.16    0.06 
   2   2  -8    0.13    0.07 
  -2  -2   8    0.16    0.06 
  -2  -2   8    0.28    0.06 
   1   2  -8    8.16    0.28 
   1   2  -8    8.12    0.26 
   1   2  -8    8.63    0.30 
   1   2  -8    7.66    0.26 
  -1  -2   8    8.09    0.25 
  -1  -2   8    8.23    0.27 
   0   2  -8   30.56    0.62 
   0   2  -8   30.44    0.60 
   0   2  -8   29.87    0.63 
   0   2  -8   30.17    0.63 
   0  -2   8   30.21    0.62 
  -1   2  -8    2.53    0.17 
  -1   2  -8    2.47    0.18 
  -1   2  -8    2.46    0.16 
  -1   2  -8    2.49    0.15 
   1  -2   8    2.27    0.16 
   1  -2   8    2.44    0.16 
  -2   2  -8    1.29    0.14 
  -2   2  -8    1.43    0.13 
  -2   2  -8    1.31    0.14 
   2  -2   8    1.27    0.13 
   2  -2   8    1.16    0.12 
  -3   2  -8   16.20    0.45 
  -3   2  -8   16.70    0.46 
   3  -2   8   16.66    0.45 
   3  -2   8   16.50    0.45 
   3  -2   8   16.22    0.45 
  -4   2  -8    0.40    0.11 
  -4   2  -8    0.48    0.11 
   4  -2   8    0.48    0.10 
   4  -2   8    0.33    0.09 
   4  -2   8    0.40    0.10 
  -5   2  -8    0.47    0.12 
  -5   2  -8    0.49    0.13 
   5  -2   8    0.99    0.15 
   5  -2   8    0.49    0.11 
   5  -2   8    0.60    0.13 
  -6   2  -8    5.66    0.30 
  -6   2  -8    5.74    0.31 
   6  -2   8    5.95    0.32 
   6  -2   8    5.60    0.30 
  -7   2  -8    6.46    0.34 
  -7   2  -8    6.41    0.32 
   7  -2   8    5.99    0.32 
   7  -2   8    5.94    0.34 
  -8   2  -8    0.03    0.08 
  -8   2  -8    0.06    0.10 
   8  -2   8    0.06    0.11 
   8  -2   8   -0.02    0.09 
   7   1  -8    1.95    0.18 
   7   1  -8    2.12    0.26 
   6   1  -8    2.54    0.25 
   6   1  -8    2.92    0.19 
   5   1  -8    1.40    0.15 
   5   1  -8    1.12    0.18 
   4   1  -8    0.15    0.09 
   4   1  -8   -0.01    0.05 
  -4  -1   8    0.05    0.04 
   3   1  -8    7.51    0.23 
   3   1  -8    7.35    0.25 
   3   1  -8    6.99    0.24 
   3   1  -8    7.65    0.31 
  -3  -1   8    6.33    0.19 
   2   1  -8    0.08    0.07 
   2   1  -8    0.16    0.06 
   2   1  -8    0.13    0.05 
   2   1  -8    0.13    0.05 
  -2  -1   8    0.22    0.04 
  -2  -1   8    0.17    0.04 
  -2  -1   8    0.22    0.06 
   1   1  -8    0.18    0.06 
   1   1  -8    0.23    0.06 
   1   1  -8    0.10    0.07 
   1   1  -8    0.18    0.05 
   1   1  -8    0.19    0.06 
  -1  -1   8    0.17    0.05 
  -1  -1   8    0.23    0.06 
   0   1  -8   10.53    0.30 
   0   1  -8   10.09    0.30 
   0   1  -8   10.16    0.28 
   0   1  -8   10.17    0.30 
   0  -1   8   10.18    0.29 
   0  -1   8   10.74    0.28 
   0  -1   8   10.20    0.28 
  -1   1  -8    1.73    0.14 
  -1   1  -8    1.60    0.12 
  -1   1  -8    1.37    0.13 
  -1   1  -8    1.57    0.12 
   1  -1   8    1.47    0.12 
   1  -1   8    1.53    0.12 
   1  -1   8    1.71    0.12 
  -2   1  -8    0.39    0.08 
  -2   1  -8    0.58    0.10 
  -2   1  -8    0.48    0.08 
   2  -1   8    0.40    0.08 
   2  -1   8    0.42    0.08 
   2  -1   8    0.45    0.09 
  -3   1  -8    7.51    0.28 
  -3   1  -8    7.53    0.28 
   3  -1   8    7.19    0.27 
   3  -1   8    7.36    0.27 
   3  -1   8    7.07    0.27 
  -4   1  -8    1.24    0.14 
  -4   1  -8    1.19    0.14 
   4  -1   8    1.26    0.14 
   4  -1   8    1.28    0.14 
   4  -1   8    1.26    0.15 
  -5   1  -8   -0.03    0.07 
  -5   1  -8   -0.08    0.06 
   5  -1   8   -0.03    0.06 
   5  -1   8    0.05    0.08 
  -6   1  -8    1.97    0.20 
  -6   1  -8    1.39    0.16 
   6  -1   8    2.05    0.22 
   6  -1   8    1.76    0.18 
  -7   1  -8    5.95    0.32 
  -7   1  -8    5.71    0.30 
   7  -1   8    5.69    0.33 
   7  -1   8    5.47    0.30 
  -8   1  -8    1.41    0.20 
  -8   1  -8    1.55    0.19 
   8  -1   8    1.32    0.19 
   8  -1   8    1.31    0.19 
   7   0  -8    1.04    0.19 
   7   0  -8    1.43    0.15 
   6   0  -8    1.07    0.18 
   6   0  -8    1.07    0.12 
   5   0  -8    0.27    0.07 
   5   0  -8    0.32    0.12 
   4   0  -8    0.05    0.05 
   4   0  -8   -0.03    0.08 
   4   0  -8   -0.02    0.04 
   3   0  -8    4.76    0.17 
   3   0  -8    4.92    0.18 
   3   0  -8    5.26    0.26 
   3   0  -8    5.00    0.19 
  -3   0   8    4.89    0.13 
  -3   0   8    4.84    0.12 
   2   0  -8    2.09    0.12 
   2   0  -8    2.25    0.12 
   2   0  -8    2.15    0.13 
   2   0  -8    1.84    0.16 
  -2   0   8    2.19    0.10 
  -2   0   8    2.17    0.10 
   1   0  -8    1.26    0.10 
   1   0  -8    1.33    0.10 
   1   0  -8    1.18    0.11 
   1   0  -8    1.22    0.13 
   1   0  -8    1.28    0.10 
  -1   0   8    1.31    0.09 
  -1   0   8    1.09    0.09 
  -1   0   8    0.87    0.06 
   0   0  -8   38.45    0.70 
   0   0  -8   38.20    0.68 
   0   0  -8   37.62    0.69 
   0   0  -8   38.79    0.70 
   0   0   8   39.05    0.68 
   0   0   8   38.44    0.66 
   0   0   8   39.08    0.66 
  -1   0  -8   11.97    0.29 
  -1   0  -8   11.83    0.32 
  -1   0  -8   11.79    0.31 
  -1   0  -8   11.72    0.32 
   1   0   8   12.04    0.30 
   1   0   8   12.06    0.31 
  -2   0  -8    6.78    0.24 
  -2   0  -8    6.94    0.24 
  -2   0  -8    6.49    0.22 
   2   0   8    6.48    0.23 
   2   0   8    6.39    0.23 
   2   0   8    6.50    0.23 
  -3   0  -8   10.30    0.31 
  -3   0  -8   10.31    0.32 
  -3   0  -8   10.13    0.32 
   3   0   8   10.30    0.31 
   3   0   8   10.67    0.32 
   3   0   8   10.18    0.31 
  -4   0  -8    2.17    0.17 
  -4   0  -8    2.30    0.17 
   4   0   8    2.52    0.17 
   4   0   8    2.40    0.18 
  -5   0  -8    2.60    0.20 
  -5   0  -8    2.37    0.18 
   5   0   8    2.16    0.17 
   5   0   8    2.56    0.20 
  -6   0  -8    0.67    0.13 
  -6   0  -8    0.45    0.11 
   6   0   8    0.78    0.12 
   6   0   8    0.65    0.13 
  -7   0  -8    5.32    0.30 
  -7   0  -8    5.23    0.28 
   7   0   8    5.14    0.28 
   7   0   8    5.84    0.32 
  -8   0  -8    1.45    0.19 
  -8   0  -8    1.72    0.22 
   8   0   8    1.58    0.19 
   8   0   8    1.47    0.21 
   7  -1  -8    1.68    0.15 
   7  -1  -8    2.16    0.26 
   6  -1  -8    6.64    0.37 
   6  -1  -8    6.23    0.23 
   5  -1  -8    2.16    0.13 
   5  -1  -8    2.13    0.22 
   4  -1  -8    0.86    0.08 
   4  -1  -8    0.87    0.14 
   4  -1  -8    0.76    0.09 
   4  -1  -8    0.74    0.08 
   3  -1  -8   26.57    0.48 
   3  -1  -8   27.23    0.50 
   3  -1  -8   26.09    0.49 
   3  -1  -8   27.79    0.63 
   2  -1  -8    7.74    0.28 
   2  -1  -8    7.36    0.21 
   2  -1  -8    6.91    0.20 
   2  -1  -8    7.53    0.21 
   1  -1  -8   15.20    0.32 
   1  -1  -8   15.30    0.33 
   1  -1  -8   15.28    0.39 
   1  -1  -8   15.75    0.34 
  -1   1   8   15.22    0.29 
  -1   1   8   14.70    0.29 
   0  -1  -8    7.13    0.22 
   0  -1  -8    7.45    0.21 
   0  -1  -8    7.44    0.23 
   0  -1  -8    7.55    0.23 
   0   1   8    7.48    0.18 
   0   1   8    7.31    0.20 
   0   1   8    7.38    0.20 
  -1  -1  -8   19.02    0.42 
  -1  -1  -8   19.07    0.38 
  -1  -1  -8   18.64    0.40 
  -1  -1  -8   18.46    0.41 
   1   1   8   19.07    0.42 
   1   1   8   19.28    0.42 
   1   1   8   19.39    0.39 
   1   1   8   19.22    0.39 
   1   1   8   18.95    0.40 
  -2  -1  -8    0.01    0.04 
  -2  -1  -8    0.10    0.05 
  -2  -1  -8    0.03    0.05 
   2   1   8    0.02    0.04 
   2   1   8   -0.03    0.03 
   2   1   8   -0.02    0.03 
   2   1   8    0.02    0.04 
  -3  -1  -8    1.80    0.13 
  -3  -1  -8    1.86    0.14 
  -3  -1  -8    2.00    0.15 
   3   1   8    1.88    0.14 
   3   1   8    1.97    0.11 
   3   1   8    2.07    0.14 
  -4  -1  -8    9.82    0.32 
  -4  -1  -8   10.31    0.33 
   4   1   8    9.90    0.31 
   4   1   8    9.81    0.25 
   4   1   8    9.76    0.32 
  -5  -1  -8    1.53    0.16 
  -5  -1  -8    1.48    0.17 
   5   1   8    1.39    0.14 
   5   1   8    1.41    0.16 
  -6  -1  -8    1.46    0.16 
  -6  -1  -8    1.97    0.21 
   6   1   8    1.28    0.15 
   6   1   8    1.63    0.18 
  -7  -1  -8    0.11    0.08 
  -7  -1  -8   -0.06    0.08 
   7   1   8    0.11    0.08 
   7   1   8    0.12    0.09 
  -8  -1  -8    6.21    0.34 
  -8  -1  -8    5.44    0.30 
   8   1   8    6.01    0.31 
   8   1   8    6.15    0.34 
  -9  -1  -8    0.42    0.13 
  -9  -1  -8    0.40    0.12 
   9   1   8    0.39    0.16 
   9   1   8    0.43    0.13 
   7  -2  -8    0.37    0.15 
   7  -2  -8    0.28    0.08 
   6  -2  -8    3.36    0.16 
   6  -2  -8    4.19    0.31 
   5  -2  -8    0.50    0.07 
   5  -2  -8    0.48    0.13 
   5  -2  -8    0.43    0.06 
   4  -2  -8    1.34    0.09 
   4  -2  -8    1.23    0.07 
   4  -2  -8    1.77    0.19 
   4  -2  -8    1.38    0.09 
   3  -2  -8    0.01    0.09 
   3  -2  -8    0.13    0.04 
   3  -2  -8    0.12    0.04 
   2  -2  -8    8.12    0.21 
   2  -2  -8    7.94    0.20 
   2  -2  -8    7.99    0.19 
   2  -2  -8    8.31    0.29 
   1  -2  -8   27.22    0.55 
   1  -2  -8   27.34    0.48 
   1  -2  -8   26.79    0.48 
   1  -2  -8   26.76    0.47 
   0  -2  -8    1.40    0.10 
   0  -2  -8    1.37    0.10 
   0  -2  -8    1.40    0.09 
   0  -2  -8    1.35    0.10 
   0   2   8    1.45    0.08 
   0   2   8    1.09    0.07 
  -1  -2  -8   12.69    0.27 
  -1  -2  -8   12.66    0.31 
  -1  -2  -8   13.05    0.32 
  -1  -2  -8   12.97    0.30 
   1   2   8   12.93    0.28 
   1   2   8   13.13    0.29 
   1   2   8   13.17    0.28 
   1   2   8   13.05    0.29 
  -2  -2  -8   40.25    0.72 
  -2  -2  -8   40.77    0.73 
  -2  -2  -8   40.73    0.74 
   2   2   8   40.95    0.71 
   2   2   8   39.64    0.70 
   2   2   8   40.56    0.68 
   2   2   8   40.60    0.71 
  -3  -2  -8    6.94    0.24 
  -3  -2  -8    6.77    0.25 
   3   2   8    6.97    0.24 
   3   2   8    7.12    0.24 
   3   2   8    7.09    0.19 
  -4  -2  -8    0.48    0.09 
  -4  -2  -8    0.27    0.07 
   4   2   8    0.41    0.08 
   4   2   8    0.45    0.05 
   4   2   8    0.49    0.09 
  -5  -2  -8    3.86    0.21 
  -5  -2  -8    3.96    0.22 
   5   2   8    4.10    0.20 
   5   2   8    3.94    0.21 
   5   2   8    3.86    0.14 
  -6  -2  -8    0.47    0.10 
  -6  -2  -8    0.39    0.10 
   6   2   8    0.52    0.10 
   6   2   8    0.56    0.11 
  -7  -2  -8    0.10    0.09 
  -7  -2  -8    0.11    0.09 
   7   2   8    0.12    0.09 
   7   2   8    0.14    0.08 
  -8  -2  -8    2.53    0.22 
  -8  -2  -8    2.58    0.26 
   8   2   8    2.28    0.22 
   8   2   8    2.74    0.26 
  -9  -2  -8    1.37    0.19 
  -9  -2  -8    1.18    0.18 
   9   2   8    1.46    0.22 
   9   2   8    1.62    0.20 
   7  -3  -8    0.91    0.20 
   7  -3  -8    1.07    0.12 
   6  -3  -8    2.66    0.26 
   5  -3  -8    4.38    0.29 
   4  -3  -8    0.78    0.13 
   3  -3  -8   17.35    0.29 
   3  -3  -8   18.55    0.50 
   2  -3  -8   17.41    0.30 
   2  -3  -8   16.49    0.29 
   2  -3  -8   16.54    0.43 
   2  -3  -8   17.02    0.30 
   1  -3  -8    1.16    0.12 
   1  -3  -8    1.30    0.07 
   1  -3  -8    1.16    0.08 
   1  -3  -8    1.23    0.08 
   0  -3  -8    7.50    0.20 
   0  -3  -8    6.86    0.19 
   0  -3  -8    7.30    0.19 
   0  -3  -8    7.17    0.21 
   0   3   8    7.14    0.16 
   0   3   8    7.20    0.16 
  -1  -3  -8   30.49    0.56 
  -1  -3  -8   29.68    0.56 
  -1  -3  -8   29.62    0.51 
   1   3   8   30.90    0.50 
   1   3   8   30.34    0.53 
   1   3   8   33.74    0.55 
   1   3   8   29.96    0.53 
  -2  -3  -8   12.45    0.33 
  -2  -3  -8   12.87    0.32 
  -2  -3  -8   12.37    0.32 
   2   3   8   13.25    0.33 
   2   3   8   12.58    0.30 
   2   3   8   12.93    0.30 
  -3  -3  -8   15.84    0.40 
  -3  -3  -8   15.33    0.39 
  -3  -3  -8   16.55    0.39 
   3   3   8   16.17    0.39 
   3   3   8   16.49    0.38 
   3   3   8   16.01    0.29 
  -4  -3  -8    9.96    0.32 
  -4  -3  -8    9.52    0.30 
   4   3   8   10.11    0.30 
   4   3   8    9.76    0.20 
   4   3   8    9.56    0.30 
  -5  -3  -8    0.33    0.09 
  -5  -3  -8    0.66    0.11 
   5   3   8    0.42    0.09 
   5   3   8    0.45    0.09 
   5   3   8    0.57    0.05 
  -6  -3  -8    1.48    0.16 
  -6  -3  -8    1.12    0.13 
   6   3   8    1.67    0.18 
   6   3   8    1.57    0.16 
  -7  -3  -8    1.15    0.15 
  -7  -3  -8    1.24    0.18 
   7   3   8    1.00    0.16 
   7   3   8    0.96    0.13 
  -8  -3  -8    0.34    0.11 
  -8  -3  -8    0.25    0.12 
   8   3   8    0.37    0.11 
   8   3   8    0.29    0.13 
  -9  -3  -8    1.90    0.21 
  -9  -3  -8    2.13    0.24 
   9   3   8    1.77    0.20 
   9   3   8    2.23    0.24 
   6  -4  -8    0.20    0.13 
   3  -4  -8    2.36    0.19 
   2  -4  -8   -0.08    0.06 
   1  -4  -8    0.82    0.10 
   1  -4  -8    0.68    0.06 
   1  -4  -8    0.75    0.06 
   1  -4  -8    0.77    0.06 
   0  -4  -8    7.07    0.19 
   0  -4  -8    6.64    0.20 
   0  -4  -8    6.80    0.18 
   0  -4  -8    6.68    0.19 
  -1  -4  -8    2.16    0.12 
  -1  -4  -8    2.23    0.09 
  -1  -4  -8    2.19    0.12 
  -1  -4  -8    2.32    0.12 
   1   4   8    2.29    0.10 
  -2  -4  -8   11.78    0.30 
  -2  -4  -8   11.89    0.31 
  -2  -4  -8   11.68    0.30 
   2   4   8   11.60    0.28 
   2   4   8   11.94    0.29 
   2   4   8   12.30    0.28 
  -3  -4  -8   13.90    0.37 
  -3  -4  -8   13.39    0.36 
  -3  -4  -8   14.05    0.36 
   3   4   8   14.57    0.34 
   3   4   8   13.67    0.35 
  -4  -4  -8    0.03    0.06 
  -4  -4  -8   -0.04    0.05 
   4   4   8    0.03    0.05 
   4   4   8   -0.07    0.05 
  -5  -4  -8    6.35    0.27 
  -5  -4  -8    6.12    0.26 
   5   4   8    6.53    0.27 
   5   4   8    6.11    0.24 
  -6  -4  -8    3.15    0.20 
  -6  -4  -8    3.18    0.22 
   6   4   8    2.92    0.18 
   6   4   8    3.09    0.21 
  -7  -4  -8   -0.07    0.07 
  -7  -4  -8    0.10    0.07 
   7   4   8    0.08    0.09 
   7   4   8   -0.02    0.06 
  -8  -4  -8   -0.03    0.08 
  -8  -4  -8   -0.14    0.07 
   8   4   8    0.10    0.09 
   8   4   8   -0.03    0.07 
  -9  -4  -8    2.84    0.27 
  -9  -4  -8    2.91    0.25 
   9   4   8    2.84    0.24 
   9   4   8    2.24    0.24 
   1  -5  -8    2.24    0.09 
   1  -5  -8    2.31    0.15 
   1  -5  -8    2.10    0.08 
   0  -5  -8    0.82    0.08 
   0  -5  -8    0.93    0.07 
   0  -5  -8    0.86    0.08 
   0  -5  -8    0.84    0.07 
   0  -5  -8    1.00    0.09 
  -1  -5  -8    6.90    0.16 
  -1  -5  -8    6.99    0.21 
  -1  -5  -8    7.15    0.21 
  -1  -5  -8    6.74    0.20 
  -1  -5  -8    6.71    0.20 
   1   5   8    7.08    0.17 
   1   5   8    7.09    0.18 
  -2  -5  -8    3.20    0.15 
  -2  -5  -8    3.08    0.16 
  -2  -5  -8    3.24    0.16 
  -2  -5  -8    3.29    0.15 
   2   5   8    3.44    0.17 
   2   5   8    3.45    0.14 
   2   5   8    3.31    0.14 
  -3  -5  -8   10.82    0.31 
  -3  -5  -8   10.97    0.32 
  -3  -5  -8   10.78    0.30 
   3   5   8   10.65    0.29 
   3   5   8   10.98    0.29 
  -4  -5  -8    3.47    0.19 
  -4  -5  -8    3.46    0.19 
   4   5   8    3.70    0.18 
   4   5   8    3.88    0.19 
  -5  -5  -8    8.71    0.31 
  -5  -5  -8    9.12    0.33 
   5   5   8    9.26    0.30 
   5   5   8    8.88    0.32 
  -6  -5  -8    1.28    0.14 
  -6  -5  -8    1.19    0.14 
   6   5   8    1.43    0.14 
   6   5   8    1.60    0.17 
  -7  -5  -8    0.20    0.09 
  -7  -5  -8    0.14    0.09 
   7   5   8    0.20    0.08 
   7   5   8    0.26    0.10 
   7   5   8    0.11    0.05 
  -8  -5  -8    0.06    0.09 
  -8  -5  -8    0.11    0.08 
   8   5   8    0.04    0.10 
   8   5   8    0.20    0.09 
  -9  -5  -8    1.34    0.18 
   9   5   8    1.51    0.18 
   9   5   8    1.77    0.23 
   1  -6  -8   13.80    0.27 
   1  -6  -8   14.15    0.28 
   1  -6  -8   14.08    0.28 
   0  -6  -8    2.51    0.11 
   0  -6  -8    2.78    0.12 
   0  -6  -8    2.84    0.12 
   0  -6  -8    2.56    0.12 
  -1  -6  -8    1.27    0.09 
  -1  -6  -8    1.31    0.10 
  -1  -6  -8    1.19    0.09 
  -1  -6  -8    1.27    0.07 
  -1  -6  -8    1.44    0.10 
   1   6   8    1.10    0.07 
   1   6   8    1.30    0.07 
  -2  -6  -8    0.22    0.06 
  -2  -6  -8   -0.03    0.04 
  -2  -6  -8   -0.02    0.04 
  -2  -6  -8    0.13    0.05 
   2   6   8    0.01    0.03 
   2   6   8    0.01    0.04 
  -3  -6  -8   17.43    0.41 
  -3  -6  -8   18.11    0.43 
  -3  -6  -8   17.20    0.42 
  -3  -6  -8   17.05    0.43 
   3   6   8   17.70    0.41 
   3   6   8   17.09    0.39 
  -4  -6  -8   15.79    0.42 
  -4  -6  -8   15.75    0.43 
  -4  -6  -8   15.68    0.40 
   4   6   8   14.73    0.40 
   4   6   8   15.44    0.38 
  -5  -6  -8    0.15    0.08 
  -5  -6  -8    0.08    0.07 
   5   6   8    0.11    0.07 
   5   6   8    0.10    0.07 
  -6  -6  -8    1.58    0.16 
  -6  -6  -8    1.74    0.18 
   6   6   8    1.36    0.14 
   6   6   8    1.49    0.17 
  -7  -6  -8    3.74    0.24 
  -7  -6  -8    3.80    0.27 
   7   6   8    3.52    0.25 
   7   6   8    3.61    0.23 
  -8  -6  -8    0.01    0.08 
   8   6   8   -0.07    0.08 
   8   6   8    0.09    0.08 
  -9  -6  -8    1.06    0.17 
   9   6   8    0.98    0.15 
   9   6   8    1.19    0.20 
   2  -7  -8    2.60    0.09 
   1  -7  -8    1.74    0.09 
   1  -7  -8    1.89    0.10 
   1  -7  -8    1.65    0.09 
   0  -7  -8    0.56    0.07 
   0  -7  -8    0.60    0.07 
   0  -7  -8    0.57    0.07 
  -1  -7  -8    0.08    0.05 
  -1  -7  -8    0.07    0.05 
  -1  -7  -8    0.01    0.04 
   1   7   8    0.00    0.03 
   1   7   8    0.02    0.03 
  -2  -7  -8    1.49    0.13 
  -2  -7  -8    1.42    0.12 
  -2  -7  -8    1.82    0.14 
  -2  -7  -8    1.57    0.12 
   2   7   8    1.49    0.10 
  -3  -7  -8    5.68    0.23 
  -3  -7  -8    5.75    0.25 
  -3  -7  -8    6.15    0.23 
  -3  -7  -8    5.90    0.24 
   3   7   8    6.08    0.22 
   3   7   8    6.24    0.21 
  -4  -7  -8   18.02    0.48 
  -4  -7  -8   17.47    0.46 
  -4  -7  -8   17.57    0.45 
   4   7   8   17.15    0.44 
  -5  -7  -8    0.08    0.08 
  -5  -7  -8    0.05    0.08 
   5   7   8    0.04    0.07 
  -6  -7  -8    1.98    0.18 
   6   7   8    2.21    0.20 
  -7  -7  -8    0.25    0.10 
   7   7   8    0.26    0.11 
  -8  -7  -8    0.56    0.13 
   8   7   8    0.66    0.15 
  -9  -7  -8    0.22    0.11 
   9   7   8    0.34    0.14 
   9   7   8    0.07    0.10 
   2  -8  -8    3.60    0.14 
   2  -8  -8    3.47    0.12 
   1  -8  -8    0.02    0.04 
   1  -8  -8    0.00    0.04 
   0  -8  -8    0.45    0.07 
   0  -8  -8    0.50    0.07 
  -1  -8  -8    7.08    0.28 
  -1  -8  -8    7.09    0.25 
  -1  -8  -8    7.44    0.24 
   1   8   8    7.10    0.18 
  -2  -8  -8    8.26    0.29 
  -2  -8  -8    8.41    0.27 
  -2  -8  -8    8.30    0.28 
  -3  -8  -8   -0.03    0.06 
  -3  -8  -8    0.04    0.07 
  -3  -8  -8   -0.01    0.06 
   3   8   8    0.05    0.06 
  -4  -8  -8    2.52    0.20 
  -4  -8  -8    2.46    0.18 
   4   8   8    2.30    0.17 
  -5  -8  -8    3.09    0.21 
  -5  -8  -8    3.06    0.23 
   5   8   8    3.19    0.21 
  -6  -8  -8    0.70    0.14 
  -6  -8  -8    0.93    0.13 
   6   8   8    1.06    0.17 
  -7  -8  -8    2.61    0.22 
   7   8   8    3.28    0.26 
  -8  -8  -8    0.05    0.08 
   8   8   8    0.09    0.10 
   3  -9  -8    6.25    0.21 
   3  -9  -8    6.04    0.17 
   2  -9  -8    0.21    0.06 
   2  -9  -8    0.35    0.06 
   1  -9  -8    4.12    0.16 
   1  -9  -8    4.26    0.18 
   0  -9  -8    9.46    0.28 
   0  -9  -8    8.85    0.26 
  -1  -9  -8    0.81    0.11 
  -1  -9  -8    0.79    0.10 
  -2  -9  -8    1.76    0.14 
  -2  -9  -8    1.79    0.16 
  -3  -9  -8    2.49    0.17 
  -3  -9  -8    1.91    0.18 
   3   9   8    2.29    0.14 
  -4  -9  -8    4.93    0.25 
  -4  -9  -8    4.93    0.27 
   4   9   8    4.77    0.24 
  -5  -9  -8    3.42    0.22 
  -5  -9  -8    4.08    0.26 
   5   9   8    3.47    0.23 
  -6  -9  -8    0.15    0.10 
  -6  -9  -8    0.22    0.10 
   6   9   8    0.32    0.11 
  -7  -9  -8   -0.14    0.08 
  -7  -9  -8    0.13    0.12 
   7   9   8    0.07    0.11 
  -8  -9  -8    0.22    0.11 
   8   9   8    0.03    0.12 
   3 -10  -8    0.08    0.06 
   3 -10  -8    0.13    0.05 
   2 -10  -8    6.52    0.22 
   2 -10  -8    6.30    0.24 
   1 -10  -8    0.05    0.06 
   1 -10  -8   -0.06    0.07 
   0 -10  -8    0.38    0.09 
   0 -10  -8    0.42    0.08 
  -1 -10  -8   -0.04    0.06 
  -1 -10  -8   -0.01    0.07 
  -2 -10  -8    0.66    0.11 
  -2 -10  -8    0.43    0.10 
  -3 -10  -8    0.47    0.11 
  -3 -10  -8    0.64    0.11 
  -4 -10  -8   -0.05    0.08 
  -4 -10  -8    0.09    0.08 
  -5 -10  -8    3.62    0.24 
  -5 -10  -8    4.28    0.28 
   5  10   8    4.24    0.25 
  -6 -10  -8    0.70    0.15 
  -6 -10  -8    0.75    0.14 
   6  10   8    0.57    0.14 
  -7 -10  -8   -0.07    0.09 
  -7 -10  -8   -0.12    0.10 
   7  10   8    0.07    0.11 
   2 -11  -8    0.46    0.09 
   2 -11  -8    0.39    0.10 
   1 -11  -8    8.14    0.28 
   1 -11  -8    8.11    0.31 
   0 -11  -8    0.35    0.09 
   0 -11  -8    0.56    0.12 
  -1 -11  -8    4.65    0.26 
  -1 -11  -8    4.47    0.23 
  -2 -11  -8   -0.05    0.08 
  -2 -11  -8    0.04    0.08 
  -3 -11  -8    5.65    0.30 
  -3 -11  -8    5.15    0.26 
  -4 -11  -8    0.07    0.08 
  -4 -11  -8    0.19    0.11 
  -5 -11  -8    1.20    0.18 
  -5 -11  -8    1.18    0.17 
  -6 -11  -8    0.60    0.13 
  -6 -11  -8    0.61    0.15 
  -7 -11  -8   -0.08    0.10 
  -7 -11  -8   -0.19    0.08 
   1 -12  -8    0.03    0.08 
   1 -12  -8   -0.08    0.07 
   0 -12  -8    6.48    0.30 
   0 -12  -8    6.19    0.27 
  -1 -12  -8    3.40    0.26 
  -1 -12  -8    2.74    0.22 
  -2 -12  -8    0.61    0.13 
  -2 -12  -8    0.63    0.14 
  -3 -12  -8    0.16    0.11 
  -3 -12  -8    0.15    0.09 
  -4 -12  -8    2.14    0.23 
  -4 -12  -8    1.80    0.19 
  -5 -12  -8    0.95    0.16 
  -5 -12  -8    0.61    0.15 
  -2 -13  -8    0.19    0.12 
  -2 -13  -8    0.30    0.12 
  -3 -13  -8    0.08    0.11 
  -3 -13  -8    0.02    0.10 
   2   7  -9    0.96    0.19 
   1   7  -9    0.26    0.12 
  -1  -7   9    0.43    0.22 
   0   7  -9    0.22    0.13 
   0  -7   9    0.24    0.13 
  -1   7  -9    0.07    0.12 
   1  -7   9    0.06    0.12 
  -2   7  -9    0.22    0.13 
   2  -7   9    0.07    0.11 
   3   6  -9    0.33    0.12 
   3   6  -9    0.14    0.11 
   2   6  -9    1.16    0.19 
   2   6  -9    0.93    0.15 
   1   6  -9    1.21    0.19 
   1   6  -9    0.77    0.15 
  -1  -6   9    1.18    0.17 
   0   6  -9    6.53    0.36 
   0  -6   9    6.32    0.34 
  -1   6  -9    3.55    0.30 
   1  -6   9    3.19    0.26 
  -2   6  -9    0.08    0.10 
   2  -6   9   -0.12    0.08 
  -3   6  -9    0.08    0.12 
   3  -6   9   -0.05    0.09 
   4  -6   9    0.57    0.15 
   4   5  -9    2.22    0.24 
   4   5  -9    2.17    0.25 
   3   5  -9    0.41    0.13 
   3   5  -9    0.40    0.11 
   2   5  -9    0.27    0.12 
   2   5  -9    0.55    0.14 
   1   5  -9   -0.08    0.09 
   1   5  -9   -0.16    0.09 
  -1  -5   9   -0.08    0.08 
   0   5  -9    0.30    0.13 
   0  -5   9    0.19    0.11 
  -1   5  -9    3.17    0.26 
   1  -5   9    2.57    0.22 
  -2   5  -9    0.12    0.08 
  -2   5  -9    0.10    0.10 
   2  -5   9   -0.04    0.08 
  -3   5  -9    0.06    0.10 
  -3   5  -9    0.32    0.11 
   3  -5   9    0.05    0.10 
   3  -5   9    0.02    0.09 
  -4   5  -9    1.03    0.17 
  -4   5  -9    1.32    0.20 
   4  -5   9    1.20    0.18 
   4  -5   9    1.07    0.17 
  -5   5  -9    1.05    0.18 
  -5   5  -9    1.02    0.17 
   5  -5   9    0.54    0.16 
   5  -5   9    0.67    0.15 
   5  -5   9    0.73    0.22 
   5   4  -9    2.57    0.26 
   5   4  -9    2.21    0.23 
   4   4  -9    0.23    0.13 
   4   4  -9    0.42    0.13 
   3   4  -9    1.86    0.21 
   3   4  -9    1.47    0.17 
   2   4  -9    0.13    0.09 
   2   4  -9    0.32    0.11 
  -2  -4   9    0.32    0.09 
   1   4  -9    1.00    0.13 
   1   4  -9    0.61    0.11 
  -1  -4   9    1.01    0.14 
   0   4  -9    0.78    0.13 
   0   4  -9    0.83    0.13 
   0  -4   9    0.99    0.14 
  -1   4  -9    7.41    0.32 
  -1   4  -9    7.20    0.33 
   1  -4   9    6.87    0.31 
   1  -4   9    6.49    0.29 
  -2   4  -9    4.04    0.27 
  -2   4  -9    3.67    0.24 
   2  -4   9    3.75    0.24 
   2  -4   9    3.70    0.24 
  -3   4  -9    0.92    0.14 
  -3   4  -9    1.04    0.16 
   3  -4   9    1.18    0.16 
   3  -4   9    1.41    0.19 
  -4   4  -9    0.93    0.16 
  -4   4  -9    0.95    0.16 
   4  -4   9    0.72    0.14 
   4  -4   9    0.62    0.13 
   4  -4   9    0.95    0.16 
  -5   4  -9   -0.02    0.09 
  -5   4  -9   -0.04    0.08 
   5  -4   9    0.05    0.08 
   5  -4   9    0.02    0.08 
   5  -4   9    0.03    0.10 
  -6   4  -9    1.67    0.22 
  -6   4  -9    1.79    0.23 
   6  -4   9    1.55    0.22 
   6  -4   9    1.40    0.19 
   6  -4   9    1.86    0.22 
   5   3  -9    6.62    0.36 
   5   3  -9    6.47    0.32 
   4   3  -9    6.32    0.34 
   4   3  -9    6.10    0.29 
   3   3  -9    3.43    0.25 
   3   3  -9    3.32    0.22 
   2   3  -9    2.26    0.18 
   2   3  -9    2.36    0.21 
  -2  -3   9    2.20    0.16 
   1   3  -9    0.84    0.12 
   1   3  -9    0.92    0.13 
   1   3  -9    0.60    0.10 
  -1  -3   9    0.80    0.12 
   0   3  -9   -0.02    0.07 
   0   3  -9    0.12    0.08 
   0   3  -9   -0.08    0.06 
   0  -3   9    0.03    0.06 
   0  -3   9   -0.03    0.06 
  -1   3  -9    1.65    0.17 
  -1   3  -9    1.70    0.19 
   1  -3   9    1.76    0.16 
   1  -3   9    1.83    0.17 
  -2   3  -9    2.52    0.19 
  -2   3  -9    2.61    0.21 
   2  -3   9    2.35    0.18 
   2  -3   9    2.81    0.20 
  -3   3  -9    0.02    0.08 
  -3   3  -9   -0.07    0.06 
   3  -3   9   -0.01    0.07 
   3  -3   9   -0.01    0.07 
   3  -3   9    0.01    0.07 
  -4   3  -9    0.62    0.13 
  -4   3  -9    0.50    0.13 
   4  -3   9    0.50    0.11 
   4  -3   9    0.32    0.11 
   4  -3   9    0.59    0.14 
  -5   3  -9    4.07    0.28 
  -5   3  -9    3.62    0.25 
   5  -3   9    3.75    0.26 
   5  -3   9    4.11    0.27 
   5  -3   9    4.06    0.27 
  -6   3  -9    0.76    0.15 
  -6   3  -9    0.56    0.14 
   6  -3   9    0.65    0.15 
   6  -3   9    0.79    0.15 
   6  -3   9    0.93    0.18 
   6   2  -9   -0.14    0.11 
   6   2  -9    0.06    0.09 
   5   2  -9   -0.08    0.12 
   5   2  -9    0.18    0.09 
   4   2  -9    6.93    0.35 
   4   2  -9    6.77    0.29 
   3   2  -9    0.60    0.11 
   3   2  -9    0.81    0.14 
   2   2  -9    0.29    0.10 
   2   2  -9    0.23    0.08 
  -2  -2   9    0.30    0.07 
   1   2  -9    3.77    0.25 
   1   2  -9    4.04    0.21 
   1   2  -9    3.97    0.21 
   1   2  -9    3.58    0.18 
  -1  -2   9    3.62    0.18 
  -1  -2   9    3.94    0.18 
   0   2  -9    0.16    0.07 
   0   2  -9    0.19    0.07 
   0   2  -9    0.15    0.07 
   0   2  -9    0.18    0.07 
   0  -2   9    0.17    0.06 
   0  -2   9    0.40    0.08 
  -1   2  -9    4.78    0.21 
  -1   2  -9    4.67    0.23 
  -1   2  -9    4.74    0.24 
  -1   2  -9    4.23    0.20 
   1  -2   9    4.97    0.22 
   1  -2   9    4.69    0.22 
  -2   2  -9   20.57    0.52 
  -2   2  -9   20.57    0.53 
   2  -2   9   20.47    0.51 
   2  -2   9   20.28    0.51 
   2  -2   9   20.44    0.51 
  -3   2  -9    0.31    0.09 
  -3   2  -9    0.05    0.07 
   3  -2   9    0.28    0.08 
   3  -2   9    0.20    0.08 
   3  -2   9    0.26    0.08 
  -4   2  -9    0.26    0.09 
  -4   2  -9    0.37    0.12 
   4  -2   9    0.30    0.09 
   4  -2   9    0.38    0.10 
   4  -2   9    0.26    0.10 
  -5   2  -9    8.51    0.36 
  -5   2  -9    7.73    0.34 
   5  -2   9    8.43    0.35 
   5  -2   9    8.10    0.35 
   5  -2   9    7.67    0.34 
  -6   2  -9    1.18    0.17 
  -6   2  -9    1.05    0.16 
   6  -2   9    1.30    0.19 
   6  -2   9    1.36    0.19 
   6  -2   9    1.20    0.17 
  -7   2  -9    0.26    0.12 
  -7   2  -9    0.24    0.11 
   7  -2   9    0.01    0.10 
   7  -2   9    0.27    0.13 
   6   1  -9   -0.12    0.11 
   6   1  -9   -0.08    0.07 
   5   1  -9    0.78    0.12 
   5   1  -9    0.43    0.14 
   4   1  -9   14.04    0.48 
   4   1  -9   13.83    0.39 
   3   1  -9    6.32    0.30 
   3   1  -9    6.33    0.25 
   2   1  -9   -0.01    0.05 
   2   1  -9    0.04    0.07 
   2   1  -9    0.03    0.05 
   2   1  -9   -0.06    0.05 
  -2  -1   9   -0.03    0.04 
  -2  -1   9   -0.04    0.05 
   1   1  -9    8.75    0.30 
   1   1  -9    9.01    0.29 
   1   1  -9    8.79    0.27 
  -1  -1   9    8.68    0.24 
  -1  -1   9    8.93    0.26 
  -1  -1   9    8.60    0.23 
   0   1  -9    0.36    0.08 
   0   1  -9    0.46    0.08 
   0   1  -9    0.38    0.08 
   0   1  -9    0.47    0.09 
   0  -1   9    0.34    0.07 
   0  -1   9    0.46    0.08 
   0  -1   9    0.69    0.09 
  -1   1  -9    0.58    0.10 
  -1   1  -9    0.76    0.10 
  -1   1  -9    0.49    0.09 
  -1   1  -9    0.72    0.10 
   1  -1   9    0.63    0.10 
   1  -1   9    0.29    0.07 
   1  -1   9    0.72    0.10 
  -2   1  -9    8.03    0.28 
  -2   1  -9    8.11    0.30 
  -2   1  -9    8.49    0.30 
   2  -1   9    8.26    0.29 
   2  -1   9    8.10    0.29 
   2  -1   9    8.50    0.29 
  -3   1  -9    1.44    0.16 
  -3   1  -9    1.51    0.16 
   3  -1   9    1.34    0.15 
   3  -1   9    1.37    0.14 
   3  -1   9    1.64    0.15 
  -4   1  -9    0.15    0.08 
  -4   1  -9    0.19    0.08 
   4  -1   9    0.23    0.09 
   4  -1   9    0.26    0.09 
   4  -1   9    0.17    0.07 
  -5   1  -9    0.05    0.08 
  -5   1  -9    0.13    0.09 
   5  -1   9   -0.02    0.07 
   5  -1   9    0.03    0.06 
   5  -1   9    0.19    0.10 
  -6   1  -9    0.70    0.15 
  -6   1  -9    0.60    0.13 
   6  -1   9    0.27    0.11 
   6  -1   9    0.47    0.11 
  -7   1  -9    2.12    0.25 
  -7   1  -9    1.81    0.21 
   7  -1   9    1.77    0.21 
   7  -1   9    1.70    0.20 
   6   0  -9   -0.04    0.06 
   6   0  -9   -0.01    0.10 
   5   0  -9   -0.10    0.08 
   5   0  -9   -0.02    0.06 
   4   0  -9    0.55    0.14 
   4   0  -9    0.74    0.10 
   3   0  -9    5.59    0.21 
   3   0  -9    5.41    0.28 
   3   0  -9    5.67    0.25 
  -3   0   9    5.31    0.14 
  -3   0   9    5.53    0.13 
   2   0  -9    1.20    0.11 
   2   0  -9    1.23    0.12 
   2   0  -9    1.26    0.14 
   2   0  -9    1.14    0.10 
  -2   0   9    1.13    0.08 
   1   0  -9    4.43    0.21 
   1   0  -9    4.44    0.19 
   1   0  -9    4.06    0.19 
   1   0  -9    4.59    0.18 
  -1   0   9    4.33    0.16 
  -1   0   9    4.27    0.14 
   0   0  -9    5.12    0.20 
   0   0  -9    5.56    0.22 
   0   0  -9    5.18    0.21 
   0   0  -9    5.58    0.22 
   0   0   9    5.56    0.18 
   0   0   9    5.35    0.20 
   0   0   9    5.54    0.18 
  -1   0  -9    7.14    0.24 
  -1   0  -9    7.60    0.27 
  -1   0  -9    7.64    0.24 
  -1   0  -9    7.43    0.26 
   1   0   9    7.78    0.24 
   1   0   9    7.56    0.25 
   1   0   9    7.43    0.24 
  -2   0  -9    5.74    0.22 
  -2   0  -9    5.06    0.23 
  -2   0  -9    5.64    0.24 
   2   0   9    5.31    0.22 
   2   0   9    5.61    0.22 
   2   0   9    5.35    0.21 
  -3   0  -9   10.75    0.35 
  -3   0  -9   10.77    0.33 
  -3   0  -9   10.52    0.35 
   3   0   9   11.19    0.34 
   3   0   9   10.91    0.34 
   3   0   9   11.34    0.34 
  -4   0  -9    1.83    0.16 
  -4   0  -9    2.04    0.20 
   4   0   9    1.85    0.17 
   4   0   9    1.76    0.15 
   4   0   9    1.85    0.16 
  -5   0  -9    4.22    0.24 
  -5   0  -9    3.94    0.24 
   5   0   9    3.77    0.22 
   5   0   9    3.72    0.24 
  -6   0  -9    1.83    0.20 
  -6   0  -9    1.98    0.20 
   6   0   9    1.54    0.18 
   6   0   9    1.86    0.19 
  -7   0  -9    1.02    0.17 
  -7   0  -9    0.65    0.15 
   7   0   9    0.86    0.15 
   7   0   9    0.82    0.14 
  -8   0  -9   -0.02    0.09 
  -8   0  -9    0.03    0.08 
   8   0   9    0.14    0.10 
   8   0   9   -0.04    0.10 
   6  -1  -9    0.02    0.06 
   6  -1  -9   -0.13    0.08 
   5  -1  -9    0.26    0.07 
   5  -1  -9    0.48    0.13 
   4  -1  -9    0.52    0.08 
   4  -1  -9    0.41    0.12 
   3  -1  -9   15.09    0.35 
   3  -1  -9   15.29    0.45 
   3  -1  -9   14.78    0.39 
   3  -1  -9   14.72    0.34 
   2  -1  -9    2.78    0.13 
   2  -1  -9    2.61    0.13 
   2  -1  -9    2.85    0.14 
   2  -1  -9    2.60    0.19 
   1  -1  -9    5.32    0.20 
   1  -1  -9    4.56    0.17 
   1  -1  -9    4.79    0.19 
   1  -1  -9    5.05    0.22 
  -1   1   9    4.87    0.15 
  -1   1   9    5.19    0.15 
   0  -1  -9    3.77    0.17 
   0  -1  -9    3.64    0.16 
   0  -1  -9    3.86    0.17 
   0  -1  -9    3.94    0.18 
   0   1   9    3.93    0.13 
   0   1   9    3.74    0.15 
  -1  -1  -9    2.14    0.12 
  -1  -1  -9    2.31    0.15 
  -1  -1  -9    2.20    0.14 
  -1  -1  -9    2.26    0.13 
   1   1   9    2.25    0.12 
   1   1   9    2.18    0.13 
   1   1   9    2.21    0.12 
  -2  -1  -9    0.35    0.08 
  -2  -1  -9    0.38    0.09 
  -2  -1  -9    0.59    0.08 
   2   1   9    0.44    0.08 
   2   1   9    0.42    0.07 
  -3  -1  -9   15.79    0.43 
  -3  -1  -9   16.46    0.43 
  -3  -1  -9   16.06    0.41 
   3   1   9   16.29    0.41 
   3   1   9   15.85    0.41 
   3   1   9   16.44    0.41 
  -4  -1  -9    0.19    0.07 
  -4  -1  -9    0.27    0.09 
   4   1   9    0.22    0.08 
   4   1   9    0.30    0.08 
  -5  -1  -9    5.30    0.27 
  -5  -1  -9    4.77    0.25 
   5   1   9    5.24    0.26 
   5   1   9    5.20    0.25 
  -6  -1  -9    1.03    0.14 
  -6  -1  -9    0.95    0.14 
   6   1   9    1.03    0.14 
   6   1   9    1.22    0.16 
  -7  -1  -9    0.13    0.09 
  -7  -1  -9    0.12    0.09 
   7   1   9   -0.01    0.09 
   7   1   9    0.13    0.09 
  -8  -1  -9    1.80    0.24 
  -8  -1  -9    1.44    0.19 
   8   1   9    1.28    0.19 
   8   1   9    1.50    0.19 
   6  -2  -9    0.08    0.06 
   6  -2  -9    0.07    0.11 
   5  -2  -9    0.09    0.05 
   5  -2  -9    0.07    0.10 
   4  -2  -9    0.11    0.04 
   4  -2  -9   -0.03    0.08 
   4  -2  -9    0.12    0.05 
   3  -2  -9    1.63    0.10 
   3  -2  -9    1.72    0.09 
   3  -2  -9    1.60    0.17 
   3  -2  -9    1.70    0.10 
   2  -2  -9   10.01    0.25 
   2  -2  -9   10.68    0.35 
   2  -2  -9   10.29    0.25 
   2  -2  -9    9.89    0.24 
   1  -2  -9    3.56    0.16 
   1  -2  -9    3.50    0.20 
   1  -2  -9    3.30    0.15 
   1  -2  -9    3.59    0.14 
   0  -2  -9    1.21    0.10 
   0  -2  -9    1.11    0.11 
   0  -2  -9    1.43    0.12 
   0  -2  -9    1.11    0.10 
   0   2   9    1.16    0.08 
   0   2   9    1.04    0.08 
  -1  -2  -9   17.21    0.36 
  -1  -2  -9   17.13    0.40 
  -1  -2  -9   16.78    0.40 
  -1  -2  -9   17.50    0.39 
   1   2   9   17.43    0.35 
   1   2   9   17.55    0.37 
   1   2   9   17.66    0.35 
  -2  -2  -9    3.82    0.18 
  -2  -2  -9    3.87    0.18 
  -2  -2  -9    3.81    0.17 
   2   2   9    4.00    0.16 
   2   2   9    3.69    0.17 
   2   2   9    3.92    0.16 
   2   2   9    3.96    0.17 
  -3  -2  -9   20.62    0.49 
  -3  -2  -9   20.63    0.49 
   3   2   9   20.75    0.47 
   3   2   9   20.60    0.41 
   3   2   9   20.63    0.47 
  -4  -2  -9   11.35    0.35 
  -4  -2  -9   11.27    0.36 
   4   2   9   11.34    0.35 
   4   2   9   11.52    0.27 
   4   2   9   11.37    0.34 
  -5  -2  -9    6.27    0.29 
  -5  -2  -9    5.94    0.27 
   5   2   9    5.94    0.27 
   5   2   9    6.32    0.26 
  -6  -2  -9    0.76    0.13 
  -6  -2  -9    0.79    0.15 
   6   2   9    0.99    0.15 
   6   2   9    0.74    0.12 
  -7  -2  -9    0.22    0.09 
  -7  -2  -9    0.26    0.10 
   7   2   9    0.23    0.09 
   7   2   9    0.20    0.10 
  -8  -2  -9    1.40    0.21 
  -8  -2  -9    1.57    0.19 
   8   2   9    1.46    0.21 
   8   2   9    1.26    0.17 
   6  -3  -9    1.68    0.22 
   5  -3  -9    3.56    0.27 
   4  -3  -9    0.00    0.08 
   3  -3  -9    6.86    0.15 
   3  -3  -9    7.27    0.30 
   2  -3  -9   33.59    0.69 
   2  -3  -9   31.31    0.52 
   2  -3  -9   32.00    0.54 
   1  -3  -9   36.49    0.62 
   1  -3  -9   36.65    0.70 
   1  -3  -9   37.78    0.63 
   1  -3  -9   36.21    0.61 
   0  -3  -9   13.18    0.31 
   0  -3  -9   13.37    0.32 
   0  -3  -9   13.19    0.30 
   0  -3  -9   13.10    0.31 
   0   3   9   13.20    0.25 
   0   3   9   13.36    0.26 
  -1  -3  -9    2.25    0.14 
  -1  -3  -9    2.27    0.11 
  -1  -3  -9    2.24    0.13 
   1   3   9    2.45    0.10 
   1   3   9    2.38    0.13 
   1   3   9    2.31    0.11 
  -2  -3  -9    7.39    0.26 
  -2  -3  -9    8.03    0.26 
   2   3   9    8.13    0.23 
   2   3   9    7.78    0.23 
   2   3   9    8.23    0.22 
  -3  -3  -9    5.22    0.22 
  -3  -3  -9    5.04    0.22 
   3   3   9    5.07    0.15 
   3   3   9    5.49    0.21 
   3   3   9    5.29    0.21 
  -4  -3  -9   11.91    0.37 
  -4  -3  -9   11.78    0.36 
   4   3   9   11.74    0.35 
   4   3   9   11.58    0.24 
   4   3   9   12.06    0.35 
  -5  -3  -9    0.77    0.11 
  -5  -3  -9    1.08    0.15 
   5   3   9    1.15    0.15 
   5   3   9    0.91    0.11 
  -6  -3  -9    2.59    0.22 
  -6  -3  -9    3.42    0.22 
   6   3   9    3.10    0.22 
   6   3   9    2.66    0.20 
  -7  -3  -9    0.38    0.11 
  -7  -3  -9    0.63    0.15 
   7   3   9    0.36    0.12 
   7   3   9    0.48    0.11 
  -8  -3  -9    0.26    0.11 
  -8  -3  -9    0.34    0.13 
   8   3   9    0.34    0.11 
   8   3   9    0.41    0.13 
   6  -4  -9    0.02    0.10 
   5  -4  -9    0.33    0.13 
   4  -4  -9    0.00    0.08 
   3  -4  -9    1.10    0.14 
   2  -4  -9    7.23    0.28 
   2  -4  -9    7.34    0.16 
   1  -4  -9    0.23    0.05 
   1  -4  -9    0.24    0.06 
   1  -4  -9    0.11    0.07 
   0  -4  -9    6.39    0.20 
   0  -4  -9    6.73    0.21 
   0  -4  -9    6.65    0.20 
  -1  -4  -9   15.79    0.36 
  -1  -4  -9   15.47    0.30 
  -1  -4  -9   15.88    0.36 
  -1  -4  -9   15.80    0.36 
   1   4   9   15.87    0.32 
  -2  -4  -9   42.27    0.77 
  -2  -4  -9   41.23    0.77 
  -2  -4  -9   41.65    0.76 
   2   4   9   42.72    0.70 
   2   4   9   42.64    0.72 
   2   4   9   42.90    0.72 
  -3  -4  -9    1.50    0.14 
  -3  -4  -9    1.14    0.12 
  -3  -4  -9    1.47    0.13 
   3   4   9    1.52    0.12 
   3   4   9    1.42    0.12 
  -4  -4  -9    4.88    0.24 
  -4  -4  -9    4.62    0.22 
   4   4   9    4.68    0.22 
   4   4   9    4.85    0.21 
  -5  -4  -9    1.99    0.16 
  -5  -4  -9    2.01    0.17 
   5   4   9    2.20    0.16 
   5   4   9    2.06    0.17 
  -6  -4  -9    3.54    0.22 
  -6  -4  -9    4.13    0.25 
   6   4   9    3.85    0.24 
   6   4   9    3.89    0.22 
  -7  -4  -9    0.78    0.14 
  -7  -4  -9    0.77    0.13 
   7   4   9    0.70    0.13 
   7   4   9    0.71    0.12 
  -8  -4  -9   -0.01    0.08 
  -8  -4  -9    0.05    0.09 
   8   4   9    0.04    0.10 
   8   4   9    0.05    0.08 
  -9  -4  -9   -0.03    0.08 
  -9  -4  -9    0.07    0.10 
   9   4   9   -0.04    0.09 
   9   4   9    0.07    0.10 
   5  -5  -9    0.09    0.10 
   4  -5  -9    2.96    0.23 
   3  -5  -9    0.30    0.10 
   2  -5  -9    9.43    0.32 
   1  -5  -9    9.80    0.21 
   1  -5  -9    9.59    0.22 
   1  -5  -9    9.59    0.30 
   1  -5  -9    9.83    0.22 
   0  -5  -9   17.55    0.36 
   0  -5  -9   17.45    0.36 
   0  -5  -9   17.86    0.38 
   0  -5  -9   17.20    0.36 
  -1  -5  -9    1.04    0.07 
  -1  -5  -9    1.11    0.10 
  -1  -5  -9    1.04    0.10 
  -1  -5  -9    1.03    0.11 
   1   5   9    0.99    0.07 
   1   5   9    0.98    0.08 
  -2  -5  -9    0.51    0.08 
  -2  -5  -9    0.59    0.10 
  -2  -5  -9    0.55    0.09 
   2   5   9    0.33    0.06 
   2   5   9    0.57    0.07 
   2   5   9    0.66    0.06 
  -3  -5  -9   17.28    0.44 
  -3  -5  -9   17.32    0.43 
  -3  -5  -9   17.95    0.43 
   3   5   9   18.15    0.40 
   3   5   9   17.53    0.40 
  -4  -5  -9    9.11    0.30 
  -4  -5  -9    8.87    0.32 
   4   5   9    8.71    0.30 
   4   5   9    9.16    0.29 
  -5  -5  -9    0.39    0.09 
  -5  -5  -9    0.31    0.09 
   5   5   9    0.40    0.08 
   5   5   9    0.43    0.09 
  -6  -5  -9    3.87    0.23 
  -6  -5  -9    3.67    0.25 
   6   5   9    3.98    0.21 
   6   5   9    3.80    0.24 
  -7  -5  -9    0.67    0.13 
  -7  -5  -9    0.41    0.11 
   7   5   9    0.68    0.12 
   7   5   9    0.60    0.14 
  -8  -5  -9    0.62    0.16 
  -8  -5  -9    0.58    0.13 
   8   5   9    0.40    0.11 
   8   5   9    0.37    0.13 
  -9  -5  -9    0.42    0.12 
  -9  -5  -9    0.37    0.14 
   9   5   9    0.46    0.12 
   9   5   9    0.41    0.14 
   1  -6  -9    3.56    0.18 
   1  -6  -9    3.20    0.12 
   1  -6  -9    3.21    0.12 
   1  -6  -9    3.10    0.11 
   0  -6  -9    7.78    0.22 
   0  -6  -9    7.65    0.21 
   0  -6  -9    7.92    0.22 
   0  -6  -9    7.64    0.23 
   0  -6  -9    7.72    0.22 
  -1  -6  -9   12.28    0.30 
  -1  -6  -9   12.55    0.31 
  -1  -6  -9   12.00    0.31 
  -1  -6  -9   12.33    0.32 
  -1  -6  -9   12.66    0.25 
   1   6   9   12.82    0.25 
   1   6   9   12.48    0.25 
  -2  -6  -9    0.03    0.04 
  -2  -6  -9    0.02    0.05 
  -2  -6  -9   -0.05    0.04 
  -2  -6  -9    0.00    0.05 
   2   6   9   -0.02    0.03 
   2   6   9    0.03    0.03 
  -3  -6  -9    2.17    0.15 
  -3  -6  -9    1.99    0.15 
  -3  -6  -9    1.78    0.14 
   3   6   9    2.06    0.13 
   3   6   9    1.97    0.13 
  -4  -6  -9    0.85    0.12 
  -4  -6  -9    0.85    0.11 
   4   6   9    0.86    0.10 
   4   6   9    0.84    0.11 
  -5  -6  -9    5.09    0.24 
  -5  -6  -9    4.73    0.26 
   5   6   9    4.68    0.22 
   5   6   9    4.96    0.24 
  -6  -6  -9    0.19    0.10 
  -6  -6  -9    0.12    0.08 
   6   6   9    0.11    0.09 
   6   6   9    0.10    0.07 
  -7  -6  -9    1.46    0.17 
  -7  -6  -9    2.66    0.25 
   7   6   9    1.84    0.18 
   7   6   9    2.36    0.22 
  -8  -6  -9    1.98    0.22 
  -8  -6  -9    2.09    0.21 
   8   6   9    1.89    0.20 
   8   6   9    2.66    0.25 
   1  -7  -9   11.23    0.24 
   1  -7  -9   11.45    0.26 
   0  -7  -9    0.30    0.06 
   0  -7  -9    0.14    0.05 
   0  -7  -9    0.16    0.05 
   0  -7  -9    0.22    0.06 
  -1  -7  -9    9.05    0.26 
  -1  -7  -9    9.48    0.38 
  -1  -7  -9    9.08    0.20 
  -1  -7  -9    8.65    0.26 
  -1  -7  -9    8.70    0.27 
   1   7   9    8.99    0.20 
   1   7   9    8.95    0.19 
  -2  -7  -9   13.86    0.36 
  -2  -7  -9   14.28    0.35 
  -2  -7  -9   14.45    0.50 
  -2  -7  -9   13.77    0.37 
   2   7   9   13.85    0.31 
   2   7   9   14.03    0.29 
  -3  -7  -9    8.61    0.31 
  -3  -7  -9    8.67    0.30 
  -3  -7  -9    8.80    0.44 
  -3  -7  -9    8.21    0.28 
   3   7   9    8.44    0.26 
   3   7   9    8.50    0.25 
  -4  -7  -9    0.27    0.10 
  -4  -7  -9    0.20    0.09 
  -4  -7  -9    0.28    0.08 
   4   7   9    0.22    0.07 
   4   7   9    0.21    0.08 
  -5  -7  -9    0.73    0.13 
  -5  -7  -9    0.88    0.12 
   5   7   9    1.09    0.14 
   5   7   9    0.92    0.12 
  -6  -7  -9    1.09    0.15 
  -6  -7  -9    1.05    0.15 
   6   7   9    0.91    0.14 
   6   7   9    1.05    0.14 
  -7  -7  -9    2.02    0.20 
   7   7   9    3.22    0.24 
   7   7   9    2.60    0.21 
  -8  -7  -9    0.07    0.09 
   8   7   9   -0.01    0.08 
   8   7   9   -0.04    0.08 
   2  -8  -9   -0.01    0.03 
   1  -8  -9   -0.02    0.03 
   1  -8  -9   -0.01    0.04 
   0  -8  -9    3.48    0.15 
   0  -8  -9    3.76    0.17 
  -1  -8  -9    2.65    0.11 
  -1  -8  -9    2.85    0.16 
  -1  -8  -9    2.70    0.15 
   1   8   9    2.75    0.10 
  -2  -8  -9    0.55    0.09 
  -2  -8  -9    0.58    0.09 
   2   8   9    0.60    0.07 
  -3  -8  -9    0.34    0.09 
  -3  -8  -9    0.33    0.08 
   3   8   9    0.46    0.08 
   3   8   9    0.41    0.07 
  -4  -8  -9   10.79    0.35 
  -4  -8  -9   11.05    0.37 
   4   8   9   11.45    0.35 
   4   8   9   10.67    0.32 
  -5  -8  -9    0.62    0.11 
  -5  -8  -9    0.53    0.13 
   5   8   9    0.72    0.11 
   5   8   9    0.62    0.12 
  -6  -8  -9   -0.10    0.07 
   6   8   9   -0.01    0.08 
  -7  -8  -9    3.10    0.23 
   7   8   9    2.97    0.22 
   7   8   9    3.58    0.27 
  -8  -8  -9    0.48    0.13 
   8   8   9    0.45    0.15 
   8   8   9    0.48    0.13 
   2  -9  -9    6.15    0.17 
   2  -9  -9    6.52    0.21 
   1  -9  -9    1.09    0.10 
   1  -9  -9    1.35    0.12 
   0  -9  -9    0.25    0.07 
   0  -9  -9    0.20    0.07 
  -1  -9  -9    8.59    0.27 
  -1  -9  -9    8.68    0.29 
  -2  -9  -9    2.81    0.18 
  -2  -9  -9    2.73    0.17 
  -3  -9  -9    0.15    0.08 
  -3  -9  -9    0.10    0.07 
  -4  -9  -9    0.85    0.14 
  -4  -9  -9    0.83    0.13 
  -5  -9  -9    1.68    0.19 
  -5  -9  -9    1.56    0.16 
   5   9   9    1.56    0.17 
  -6  -9  -9    0.62    0.14 
  -6  -9  -9    0.85    0.14 
   6   9   9    0.42    0.12 
  -7  -9  -9    0.11    0.10 
   7   9   9    0.11    0.11 
   8   9   9    1.23    0.20 
   3 -10  -9    0.37    0.08 
   2 -10  -9    0.05    0.05 
   2 -10  -9    0.00    0.05 
   1 -10  -9    2.15    0.14 
   1 -10  -9    2.42    0.17 
   0 -10  -9    8.92    0.28 
   0 -10  -9    9.70    0.31 
  -1 -10  -9    0.09    0.07 
  -1 -10  -9    0.23    0.08 
  -2 -10  -9    4.65    0.25 
  -2 -10  -9    4.55    0.23 
  -3 -10  -9    1.98    0.18 
  -3 -10  -9    2.39    0.21 
  -4 -10  -9    3.33    0.22 
  -4 -10  -9    4.30    0.26 
  -5 -10  -9   -0.01    0.08 
  -5 -10  -9    0.09    0.10 
  -6 -10  -9    0.27    0.12 
  -6 -10  -9    0.03    0.09 
  -7 -10  -9    0.11    0.10 
  -7 -10  -9    0.16    0.13 
   2 -11  -9    2.91    0.16 
   2 -11  -9    3.27    0.19 
   1 -11  -9    0.29    0.08 
   1 -11  -9    0.02    0.06 
   0 -11  -9    0.58    0.10 
   0 -11  -9    0.91    0.13 
  -1 -11  -9    7.36    0.31 
  -1 -11  -9    7.01    0.28 
  -2 -11  -9    5.48    0.26 
  -2 -11  -9    5.89    0.29 
  -3 -11  -9    0.49    0.12 
  -3 -11  -9    0.57    0.12 
  -4 -11  -9    0.40    0.11 
  -4 -11  -9    0.27    0.11 
  -5 -11  -9    1.51    0.18 
  -5 -11  -9    1.77    0.20 
  -6 -11  -9    0.19    0.10 
  -6 -11  -9    0.06    0.11 
   0 -12  -9    0.12    0.08 
   0 -12  -9   -0.01    0.07 
  -1 -12  -9    0.15    0.09 
  -1 -12  -9    0.30    0.11 
  -2 -12  -9    5.29    0.28 
  -2 -12  -9    5.65    0.31 
  -3 -12  -9    1.93    0.22 
  -3 -12  -9    1.93    0.19 
  -4 -12  -9   -0.04    0.09 
  -4 -12  -9    0.18    0.11 
  -5 -12  -9   -0.04    0.09 
  -5 -12  -9   -0.03    0.11 
   1   6 -10   -0.07    0.10 
   1   6 -10    0.17    0.13 
   0   6 -10   -0.03    0.09 
  -1   6 -10    0.79    0.15 
   1  -6  10    0.51    0.15 
   3   5 -10    0.92    0.17 
   3   5 -10    1.13    0.19 
   2   5 -10    0.23    0.10 
   2   5 -10    0.24    0.11 
   1   5 -10    0.16    0.11 
   1   5 -10    0.39    0.12 
   0   5 -10    0.22    0.11 
   0  -5  10    0.25    0.12 
  -1   5 -10    0.20    0.14 
   1  -5  10    0.40    0.13 
  -2   5 -10   -0.16    0.08 
   2  -5  10   -0.18    0.08 
  -3   5 -10    0.45    0.14 
  -3   5 -10    0.48    0.14 
   3  -5  10    0.53    0.14 
   4   4 -10    0.57    0.15 
   4   4 -10    0.53    0.14 
   3   4 -10    0.10    0.10 
   3   4 -10    0.36    0.13 
   2   4 -10    2.70    0.24 
   2   4 -10    2.28    0.24 
   1   4 -10    0.66    0.14 
   1   4 -10    0.56    0.13 
   0   4 -10    2.83    0.22 
   0   4 -10    3.26    0.26 
   0  -4  10    2.73    0.22 
  -1   4 -10    0.22    0.12 
   1  -4  10    0.31    0.11 
  -2   4 -10    0.22    0.11 
  -2   4 -10    0.27    0.11 
   2  -4  10    0.09    0.09 
  -3   4 -10    0.17    0.11 
  -3   4 -10    0.04    0.09 
   3  -4  10    0.13    0.10 
   3  -4  10    0.14    0.09 
  -4   4 -10    6.45    0.34 
  -4   4 -10    7.09    0.37 
   4  -4  10    6.64    0.34 
   4  -4  10    6.54    0.34 
  -5   4 -10    1.46    0.22 
  -5   4 -10    1.09    0.18 
   5  -4  10    1.59    0.22 
   5  -4  10    1.43    0.21 
   4   3 -10    1.91    0.20 
   4   3 -10    2.95    0.26 
   3   3 -10    5.10    0.32 
   3   3 -10    4.87    0.28 
   2   3 -10   11.37    0.41 
   2   3 -10   11.42    0.40 
   1   3 -10    1.71    0.20 
   1   3 -10    1.59    0.17 
  -1  -3  10    1.86    0.26 
   0   3 -10    0.09    0.08 
   0   3 -10    0.18    0.09 
   0  -3  10    0.19    0.08 
  -1   3 -10   -0.04    0.07 
  -1   3 -10    0.16    0.08 
   1  -3  10    0.05    0.07 
  -2   3 -10    0.17    0.10 
  -2   3 -10    0.04    0.08 
   2  -3  10    0.12    0.08 
   2  -3  10    0.09    0.08 
  -3   3 -10    0.33    0.12 
  -3   3 -10    0.32    0.11 
   3  -3  10    0.33    0.10 
   3  -3  10    0.53    0.12 
  -4   3 -10    1.48    0.19 
  -4   3 -10    2.35    0.24 
   4  -3  10    1.69    0.19 
   4  -3  10    1.65    0.19 
  -5   3 -10    2.33    0.25 
  -5   3 -10    1.88    0.22 
   5  -3  10    2.40    0.24 
   5  -3  10    2.25    0.23 
   5   2 -10    0.56    0.16 
   5   2 -10    0.39    0.11 
   4   2 -10    0.66    0.16 
   4   2 -10    1.06    0.15 
   3   2 -10   -0.19    0.09 
   3   2 -10    0.02    0.07 
   2   2 -10    5.50    0.26 
   2   2 -10    5.12    0.28 
   1   2 -10    0.07    0.08 
   1   2 -10    0.16    0.08 
  -1  -2  10    0.02    0.07 
   0   2 -10    0.12    0.08 
   0   2 -10    0.08    0.08 
   0   2 -10   -0.03    0.07 
   0  -2  10    0.07    0.07 
   0  -2  10   -0.01    0.06 
  -1   2 -10    3.56    0.22 
  -1   2 -10    3.45    0.22 
   1  -2  10    3.37    0.20 
   1  -2  10    3.78    0.20 
  -2   2 -10    0.00    0.07 
  -2   2 -10    0.21    0.10 
   2  -2  10    0.20    0.08 
   2  -2  10    0.16    0.08 
  -3   2 -10    0.06    0.08 
  -3   2 -10   -0.01    0.08 
   3  -2  10   -0.02    0.07 
   3  -2  10   -0.09    0.05 
   3  -2  10   -0.04    0.07 
  -4   2 -10    0.19    0.09 
  -4   2 -10    0.29    0.10 
   4  -2  10    0.33    0.10 
   4  -2  10    0.01    0.09 
   4  -2  10    0.28    0.10 
  -5   2 -10    2.52    0.24 
  -5   2 -10    2.35    0.23 
   5  -2  10    2.22    0.22 
   5  -2  10    2.61    0.22 
  -6   2 -10   -0.08    0.09 
  -6   2 -10    0.01    0.09 
   6  -2  10    0.03    0.09 
   6  -2  10   -0.06    0.10 
   5   1 -10    1.86    0.23 
   5   1 -10    1.97    0.18 
   4   1 -10    0.60    0.15 
   4   1 -10    0.65    0.11 
   3   1 -10    2.17    0.17 
   3   1 -10    2.63    0.23 
   2   1 -10    2.75    0.19 
   2   1 -10    3.15    0.23 
   1   1 -10   14.40    0.41 
   1   1 -10   14.68    0.42 
  -1  -1  10   14.15    0.36 
   0   1 -10    4.49    0.23 
   0   1 -10    4.34    0.22 
   0   1 -10    4.65    0.22 
   0   1 -10    4.54    0.23 
   0  -1  10    4.48    0.20 
   0  -1  10    4.06    0.18 
  -1   1 -10    0.15    0.07 
  -1   1 -10    0.17    0.08 
  -1   1 -10    0.20    0.08 
  -1   1 -10    0.18    0.07 
   1  -1  10    0.23    0.07 
   1  -1  10    0.27    0.07 
   1  -1  10    0.27    0.07 
  -2   1 -10    0.36    0.09 
  -2   1 -10    0.30    0.10 
   2  -1  10    0.50    0.10 
   2  -1  10    0.35    0.08 
   2  -1  10    0.25    0.08 
  -3   1 -10    0.25    0.10 
  -3   1 -10    0.07    0.07 
   3  -1  10    0.24    0.08 
   3  -1  10    0.26    0.09 
   3  -1  10    0.14    0.08 
  -4   1 -10    0.51    0.11 
  -4   1 -10    0.76    0.14 
   4  -1  10    0.47    0.10 
   4  -1  10    0.42    0.10 
   4  -1  10    0.49    0.11 
  -5   1 -10    4.86    0.28 
  -5   1 -10    4.83    0.28 
   5  -1  10    4.62    0.27 
   5  -1  10    4.92    0.28 
   5  -1  10    4.81    0.28 
  -6   1 -10    2.67    0.24 
  -6   1 -10    2.71    0.26 
   6  -1  10    2.39    0.30 
   6  -1  10    2.69    0.23 
   6  -1  10    2.45    0.24 
  -7   1 -10    0.09    0.12 
  -7   1 -10    0.05    0.09 
   7  -1  10    0.27    0.11 
   7  -1  10    0.05    0.09 
   5   0 -10    0.01    0.07 
   5   0 -10   -0.06    0.10 
   4   0 -10    1.71    0.15 
   4   0 -10    1.70    0.20 
   3   0 -10    0.29    0.08 
   3   0 -10    0.48    0.13 
   2   0 -10    0.61    0.10 
   2   0 -10    0.68    0.13 
   1   0 -10   13.02    0.38 
   1   0 -10   11.79    0.34 
   1   0 -10   12.07    0.34 
  -1   0  10   11.66    0.30 
   0   0 -10    0.20    0.07 
   0   0 -10    0.25    0.09 
   0   0 -10    0.09    0.06 
   0   0 -10    0.22    0.06 
   0   0  10    0.19    0.06 
   0   0  10    0.17    0.05 
   0   0  10    0.12    0.05 
  -1   0 -10    0.05    0.05 
  -1   0 -10    0.02    0.06 
  -1   0 -10    0.05    0.06 
  -1   0 -10    0.31    0.08 
   1   0  10    0.15    0.06 
   1   0  10    0.14    0.06 
   1   0  10    0.00    0.05 
  -2   0 -10    6.46    0.27 
  -2   0 -10    6.87    0.28 
  -2   0 -10    6.55    0.25 
   2   0  10    6.82    0.25 
   2   0  10    6.56    0.25 
  -3   0 -10    0.40    0.11 
  -3   0 -10    0.38    0.09 
   3   0  10    0.34    0.09 
   3   0  10    0.25    0.09 
   3   0  10    0.41    0.09 
  -4   0 -10    0.89    0.13 
  -4   0 -10    1.25    0.16 
   4   0  10    1.01    0.13 
   4   0  10    0.99    0.13 
   4   0  10    0.91    0.13 
  -5   0 -10    5.83    0.29 
  -5   0 -10    6.82    0.32 
   5   0  10    5.37    0.27 
   5   0  10    6.37    0.30 
   5   0  10    5.76    0.28 
  -6   0 -10    7.12    0.35 
  -6   0 -10    6.61    0.32 
   6   0  10    6.62    0.33 
   6   0  10    6.72    0.31 
  -7   0 -10    0.89    0.16 
  -7   0 -10    0.95    0.18 
   7   0  10    0.61    0.13 
   7   0  10    0.66    0.15 
   5  -1 -10    0.04    0.06 
   5  -1 -10   -0.02    0.10 
   4  -1 -10    3.98    0.18 
   4  -1 -10    3.77    0.27 
   3  -1 -10    2.54    0.15 
   3  -1 -10    2.74    0.22 
   2  -1 -10   -0.04    0.04 
   2  -1 -10   -0.03    0.07 
   1  -1 -10   14.08    0.39 
   1  -1 -10   14.34    0.36 
   1  -1 -10   14.20    0.36 
   1  -1 -10   14.41    0.40 
  -1   1  10   14.03    0.30 
   0  -1 -10    0.72    0.10 
   0  -1 -10    0.55    0.08 
   0  -1 -10    0.79    0.10 
   0  -1 -10    0.68    0.10 
   0   1  10    0.67    0.07 
   0   1  10    0.71    0.09 
  -1  -1 -10    0.52    0.09 
  -1  -1 -10    0.76    0.09 
  -1  -1 -10    0.83    0.11 
  -1  -1 -10    0.79    0.10 
   1   1  10    0.85    0.09 
   1   1  10    0.93    0.10 
   1   1  10    0.68    0.09 
  -2  -1 -10    0.19    0.07 
  -2  -1 -10    0.23    0.07 
  -2  -1 -10    0.12    0.07 
   2   1  10    0.20    0.06 
   2   1  10    0.13    0.06 
   2   1  10    0.21    0.06 
  -3  -1 -10    1.32    0.14 
  -3  -1 -10    1.25    0.13 
  -3  -1 -10    1.47    0.15 
   3   1  10    1.38    0.13 
   3   1  10    1.47    0.13 
   3   1  10    1.37    0.14 
  -4  -1 -10    0.23    0.09 
  -4  -1 -10    0.16    0.07 
   4   1  10    0.40    0.09 
   4   1  10    0.18    0.07 
   4   1  10    0.37    0.09 
  -5  -1 -10    0.39    0.10 
  -5  -1 -10    0.35    0.12 
   5   1  10    0.19    0.08 
   5   1  10    0.21    0.09 
  -6  -1 -10    3.81    0.26 
  -6  -1 -10    4.08    0.28 
   6   1  10    3.96    0.25 
   6   1  10    3.79    0.25 
  -7  -1 -10    1.38    0.18 
  -7  -1 -10    1.09    0.16 
   7   1  10    1.10    0.16 
   7   1  10    1.41    0.20 
  -8  -1 -10    0.36    0.14 
  -8  -1 -10    0.50    0.13 
   8   1  10    0.30    0.12 
   8   1  10    0.45    0.13 
   5  -2 -10    0.40    0.08 
   5  -2 -10    0.31    0.12 
   4  -2 -10    0.02    0.04 
   4  -2 -10   -0.17    0.07 
   3  -2 -10    1.41    0.11 
   3  -2 -10    1.32    0.16 
   2  -2 -10   -0.04    0.04 
   2  -2 -10    0.02    0.07 
   1  -2 -10    0.00    0.07 
   1  -2 -10    0.13    0.06 
   1  -2 -10    0.12    0.05 
   1  -2 -10    0.17    0.06 
   0  -2 -10   31.97    0.62 
   0  -2 -10   32.62    0.60 
   0  -2 -10   32.92    0.62 
   0  -2 -10   32.14    0.62 
   0   2  10   31.94    0.56 
  -1  -2 -10    1.51    0.12 
  -1  -2 -10    1.69    0.12 
  -1  -2 -10    1.91    0.14 
  -1  -2 -10    1.79    0.14 
   1   2  10    1.71    0.12 
   1   2  10    1.74    0.10 
  -2  -2 -10    5.89    0.24 
  -2  -2 -10    5.90    0.24 
  -2  -2 -10    5.56    0.22 
   2   2  10    5.58    0.20 
   2   2  10    5.95    0.22 
   2   2  10    6.31    0.22 
   2   2  10    5.93    0.22 
  -3  -2 -10    1.16    0.13 
  -3  -2 -10    0.96    0.12 
   3   2  10    1.03    0.11 
   3   2  10    1.03    0.11 
  -4  -2 -10    0.49    0.10 
  -4  -2 -10    0.61    0.12 
   4   2  10    0.39    0.09 
   4   2  10    0.59    0.10 
  -5  -2 -10    0.03    0.07 
  -5  -2 -10    0.05    0.07 
   5   2  10    0.12    0.08 
   5   2  10    0.17    0.07 
  -6  -2 -10    4.21    0.26 
  -6  -2 -10    4.92    0.29 
   6   2  10    4.66    0.27 
   6   2  10    4.68    0.26 
  -7  -2 -10    3.44    0.27 
  -7  -2 -10    3.52    0.25 
   7   2  10    3.44    0.24 
   7   2  10    3.16    0.25 
  -8  -2 -10    0.73    0.15 
  -8  -2 -10    0.67    0.14 
   8   2  10    0.59    0.13 
   8   2  10    0.84    0.17 
   5  -3 -10    0.02    0.10 
   4  -3 -10    2.57    0.22 
   3  -3 -10    4.62    0.26 
   3  -3 -10    4.56    0.15 
   2  -3 -10    0.03    0.06 
   2  -3 -10    0.08    0.04 
   1  -3 -10    1.73    0.10 
   1  -3 -10    1.83    0.11 
   1  -3 -10    1.47    0.15 
   1  -3 -10    1.65    0.11 
   0  -3 -10   50.62    0.86 
   0  -3 -10   51.78    0.88 
   0  -3 -10   49.78    0.85 
   0  -3 -10   51.26    0.87 
   0   3  10   52.36    0.78 
   0   3  10   50.07    0.77 
  -1  -3 -10   18.61    0.43 
  -1  -3 -10   18.73    0.37 
  -1  -3 -10   18.68    0.42 
   1   3  10   15.66    0.36 
  -2  -3 -10    1.33    0.13 
  -2  -3 -10    1.35    0.13 
   2   3  10    1.32    0.10 
   2   3  10    1.37    0.11 
   2   3  10    1.34    0.12 
  -3  -3 -10    2.22    0.17 
  -3  -3 -10    2.21    0.16 
   3   3  10    2.18    0.15 
   3   3  10    2.14    0.14 
   3   3  10    2.27    0.14 
  -4  -3 -10    0.26    0.09 
  -4  -3 -10    0.05    0.07 
   4   3  10    0.29    0.07 
   4   3  10    0.26    0.08 
  -5  -3 -10    3.86    0.24 
  -5  -3 -10    3.46    0.22 
   5   3  10    3.70    0.21 
   5   3  10    3.73    0.22 
  -6  -3 -10    2.66    0.23 
  -6  -3 -10    3.12    0.22 
   6   3  10    2.54    0.20 
   6   3  10    2.92    0.22 
  -7  -3 -10    1.08    0.15 
  -7  -3 -10    1.11    0.18 
   7   3  10    1.10    0.15 
   7   3  10    1.34    0.18 
  -8  -3 -10    0.06    0.11 
  -8  -3 -10    0.44    0.12 
   8   3  10    0.31    0.12 
   8   3  10    0.20    0.11 
   5  -4 -10    0.49    0.14 
   4  -4 -10    0.13    0.09 
   3  -4 -10    1.74    0.18 
   2  -4 -10    0.85    0.12 
   1  -4 -10    0.00    0.06 
   1  -4 -10    0.16    0.04 
   1  -4 -10    0.12    0.05 
   0  -4 -10    3.66    0.16 
   0  -4 -10    3.83    0.18 
   0  -4 -10    3.85    0.17 
  -1  -4 -10    0.28    0.05 
  -1  -4 -10    0.32    0.08 
  -1  -4 -10    0.26    0.08 
   1   4  10    0.29    0.06 
  -2  -4 -10    1.08    0.12 
  -2  -4 -10    1.08    0.13 
   2   4  10    1.00    0.08 
   2   4  10    0.89    0.09 
   2   4  10    1.05    0.10 
  -3  -4 -10    1.89    0.16 
  -3  -4 -10    2.37    0.17 
   3   4  10    2.22    0.14 
   3   4  10    2.31    0.14 
  -4  -4 -10   12.03    0.39 
  -4  -4 -10   11.93    0.37 
   4   4  10   11.78    0.35 
   4   4  10   12.25    0.36 
  -5  -4 -10    3.29    0.21 
  -5  -4 -10    3.69    0.23 
   5   4  10    3.60    0.21 
   5   4  10    3.20    0.20 
  -6  -4 -10    0.86    0.16 
  -6  -4 -10    0.69    0.12 
   6   4  10    0.55    0.11 
   6   4  10    0.47    0.10 
  -7  -4 -10    0.97    0.14 
  -7  -4 -10    1.36    0.19 
   7   4  10    1.05    0.17 
   7   4  10    0.88    0.14 
  -8  -4 -10    0.19    0.10 
  -8  -4 -10    0.18    0.10 
   8   4  10    0.10    0.12 
   8   4  10    0.20    0.10 
   5  -5 -10    0.27    0.12 
   4  -5 -10   -0.08    0.07 
   3  -5 -10    0.04    0.07 
   2  -5 -10    8.77    0.32 
   1  -5 -10    0.17    0.06 
   1  -5 -10    0.16    0.05 
   1  -5 -10    0.14    0.04 
   0  -5 -10    0.50    0.08 
   0  -5 -10    0.28    0.07 
   0  -5 -10    0.47    0.07 
  -1  -5 -10   10.73    0.29 
  -1  -5 -10   10.92    0.23 
  -1  -5 -10   10.62    0.30 
   1   5  10   10.91    0.23 
   1   5  10   11.06    0.30 
  -2  -5 -10    0.19    0.07 
  -2  -5 -10    0.23    0.07 
   2   5  10    0.21    0.05 
   2   5  10    0.18    0.05 
  -3  -5 -10    4.30    0.21 
  -3  -5 -10    4.32    0.22 
   3   5  10    4.40    0.18 
   3   5  10    4.43    0.19 
  -4  -5 -10    0.75    0.12 
  -4  -5 -10    0.84    0.12 
   4   5  10    0.93    0.11 
   4   5  10    1.02    0.13 
  -5  -5 -10    5.61    0.26 
  -5  -5 -10    5.77    0.29 
   5   5  10    5.60    0.25 
   5   5  10    6.17    0.27 
  -6  -5 -10    0.26    0.10 
  -6  -5 -10    0.56    0.13 
   6   5  10    0.45    0.12 
   6   5  10    0.25    0.09 
  -7  -5 -10    0.12    0.11 
  -7  -5 -10    0.09    0.09 
   7   5  10    0.13    0.09 
   7   5  10    0.14    0.09 
  -8  -5 -10    1.63    0.23 
  -8  -5 -10    1.32    0.18 
   8   5  10    1.30    0.17 
   8   5  10    1.47    0.20 
   4  -6 -10    0.36    0.12 
   3  -6 -10    0.03    0.08 
   2  -6 -10    0.02    0.06 
   1  -6 -10    9.15    0.30 
   1  -6 -10    8.51    0.21 
   1  -6 -10    8.65    0.22 
   0  -6 -10    0.10    0.05 
   0  -6 -10    0.17    0.05 
   0  -6 -10    0.15    0.05 
  -1  -6 -10    5.65    0.20 
  -1  -6 -10    5.38    0.21 
  -1  -6 -10    5.51    0.15 
   1   6  10    5.62    0.14 
   1   6  10    5.54    0.14 
  -2  -6 -10    0.13    0.06 
  -2  -6 -10    0.22    0.07 
   2   6  10    0.13    0.04 
  -3  -6 -10    0.04    0.06 
  -3  -6 -10    0.02    0.06 
   3   6  10    0.09    0.05 
   3   6  10   -0.02    0.04 
  -4  -6 -10   -0.07    0.07 
  -4  -6 -10   -0.01    0.06 
   4   6  10   -0.02    0.05 
   4   6  10    0.08    0.07 
  -5  -6 -10    0.13    0.08 
  -5  -6 -10    0.05    0.08 
   5   6  10    0.34    0.09 
   5   6  10    0.13    0.08 
  -6  -6 -10    6.16    0.33 
  -6  -6 -10    6.42    0.29 
   6   6  10    5.72    0.26 
   6   6  10    5.77    0.29 
  -7  -6 -10    0.20    0.10 
  -7  -6 -10    0.21    0.12 
   7   6  10    0.20    0.09 
   7   6  10    0.29    0.11 
  -8  -6 -10    0.46    0.14 
  -8  -6 -10    0.26    0.11 
   8   6  10    0.37    0.11 
   8   6  10    0.17    0.12 
   2  -7 -10    5.61    0.27 
   1  -7 -10    6.88    0.20 
   1  -7 -10    6.71    0.18 
   1  -7 -10    7.30    0.27 
   0  -7 -10    9.31    0.27 
   0  -7 -10    9.83    0.27 
   0  -7 -10   10.24    0.27 
   0  -7 -10    9.61    0.25 
  -1  -7 -10    6.68    0.23 
  -1  -7 -10    7.27    0.24 
  -1  -7 -10    7.41    0.20 
  -1  -7 -10    7.07    0.25 
  -2  -7 -10   -0.05    0.05 
  -2  -7 -10   -0.03    0.05 
  -2  -7 -10    0.04    0.05 
   2   7  10   -0.01    0.02 
  -3  -7 -10    1.12    0.12 
  -3  -7 -10    0.87    0.12 
   3   7  10    1.07    0.10 
  -4  -7 -10    0.76    0.11 
  -4  -7 -10    0.65    0.13 
   4   7  10    0.73    0.11 
   4   7  10    0.82    0.11 
  -5  -7 -10    0.24    0.09 
  -5  -7 -10    0.20    0.09 
   5   7  10    0.26    0.08 
   5   7  10    0.16    0.07 
  -6  -7 -10    0.59    0.15 
  -6  -7 -10    0.54    0.11 
   6   7  10    0.68    0.13 
   6   7  10    0.42    0.10 
  -7  -7 -10    0.17    0.10 
  -7  -7 -10    0.26    0.13 
   7   7  10    0.10    0.08 
   7   7  10    0.23    0.11 
  -8  -7 -10    0.13    0.11 
   8   7  10   -0.12    0.08 
   8   7  10    0.13    0.11 
   1  -8 -10    3.68    0.13 
   1  -8 -10    3.87    0.16 
   0  -8 -10    0.14    0.06 
   0  -8 -10    0.13    0.05 
   0  -8 -10    0.16    0.06 
  -1  -8 -10    0.92    0.11 
  -1  -8 -10    0.99    0.11 
  -2  -8 -10    5.08    0.23 
  -2  -8 -10    5.49    0.22 
  -3  -8 -10    0.03    0.06 
  -3  -8 -10   -0.01    0.06 
  -3  -8 -10    0.06    0.07 
  -4  -8 -10    2.26    0.18 
  -4  -8 -10    2.35    0.21 
  -4  -8 -10    2.63    0.21 
   4   8  10    2.42    0.16 
  -5  -8 -10    0.05    0.07 
   5   8  10    0.09    0.06 
  -6  -8 -10    1.27    0.16 
   6   8  10    1.27    0.18 
   6   8  10    1.17    0.14 
  -7  -8 -10    0.13    0.10 
   7   8  10    0.34    0.12 
   7   8  10    0.12    0.08 
   1  -9 -10    0.37    0.06 
   1  -9 -10    0.49    0.08 
   0  -9 -10    8.44    0.27 
   0  -9 -10    7.97    0.24 
  -1  -9 -10    1.70    0.15 
  -1  -9 -10    1.68    0.13 
  -2  -9 -10    2.70    0.19 
  -2  -9 -10    2.86    0.17 
  -3  -9 -10    0.67    0.12 
  -3  -9 -10    0.62    0.10 
  -4  -9 -10    2.08    0.20 
  -4  -9 -10    2.27    0.18 
  -5  -9 -10    0.20    0.11 
  -5  -9 -10   -0.02    0.07 
  -6  -9 -10    0.11    0.09 
  -7  -9 -10    0.92    0.16 
   2 -10 -10    0.02    0.05 
   1 -10 -10   -0.05    0.04 
   1 -10 -10    0.03    0.05 
   0 -10 -10    0.94    0.12 
   0 -10 -10    0.89    0.10 
  -1 -10 -10    2.87    0.18 
  -1 -10 -10    2.92    0.20 
  -2 -10 -10    4.27    0.24 
  -2 -10 -10    3.93    0.21 
  -3 -10 -10    0.37    0.09 
  -3 -10 -10    0.46    0.11 
  -4 -10 -10    0.34    0.10 
  -4 -10 -10    0.27    0.11 
  -5 -10 -10   -0.06    0.09 
  -5 -10 -10   -0.01    0.08 
  -6 -10 -10   -0.03    0.09 
  -6 -10 -10    0.02    0.10 
   1 -11 -10    0.07    0.06 
   1 -11 -10    0.04    0.06 
   0 -11 -10    0.13    0.07 
   0 -11 -10    0.07    0.06 
  -1 -11 -10    0.69    0.12 
  -1 -11 -10    0.43    0.09 
  -2 -11 -10    0.40    0.11 
  -2 -11 -10    0.35    0.09 
  -3 -11 -10    4.87    0.28 
  -3 -11 -10    4.24    0.25 
  -4 -11 -10    0.03    0.09 
  -4 -11 -10   -0.08    0.07 
  -5 -11 -10    0.73    0.15 
  -5 -11 -10    0.45    0.12 
  -2 -12 -10    2.21    0.20 
  -3 -12 -10    0.74    0.15 
  -3 -12 -10    0.65    0.13 
   2   4 -11    0.10    0.10 
   2   4 -11    0.11    0.11 
   1   4 -11    0.18    0.11 
   1   4 -11    0.03    0.09 
   0   4 -11    0.75    0.14 
  -1   4 -11    3.93    0.29 
  -2   4 -11    0.10    0.12 
  -2   4 -11    0.13    0.10 
   2  -4  11   -0.04    0.10 
  -3   4 -11    0.30    0.13 
  -3   4 -11    0.17    0.11 
   3  -4  11    0.54    0.14 
   3  -4  11    0.22    0.12 
   3   3 -11    0.38    0.13 
   3   3 -11    0.03    0.08 
   2   3 -11    0.03    0.08 
   2   3 -11    0.01    0.10 
   1   3 -11    4.53    0.27 
   1   3 -11    4.73    0.29 
   0   3 -11    0.64    0.14 
   0   3 -11    0.28    0.11 
  -1   3 -11    1.49    0.18 
  -1   3 -11    2.35    0.25 
  -2   3 -11   -0.08    0.08 
  -2   3 -11    0.22    0.10 
   2  -3  11   -0.18    0.07 
   2  -3  11    0.00    0.13 
  -3   3 -11    0.46    0.13 
  -3   3 -11    0.21    0.12 
   3  -3  11    0.33    0.12 
   3  -3  11    0.29    0.11 
  -4   3 -11    1.36    0.20 
  -4   3 -11    1.22    0.19 
   4  -3  11    1.47    0.19 
   4  -3  11    1.61    0.19 
   4   2 -11    0.06    0.08 
   3   2 -11    0.57    0.15 
   3   2 -11    0.49    0.12 
   2   2 -11    5.38    0.29 
   2   2 -11    6.02    0.31 
   1   2 -11    0.08    0.10 
   1   2 -11   -0.09    0.09 
   0   2 -11   -0.04    0.07 
   0   2 -11   -0.04    0.08 
   0   2 -11   -0.04    0.07 
  -1   2 -11    2.29    0.21 
  -1   2 -11    1.88    0.19 
   1  -2  11    2.14    0.21 
  -2   2 -11    0.09    0.09 
  -2   2 -11    0.09    0.08 
   2  -2  11    0.16    0.08 
   2  -2  11    0.18    0.08 
  -3   2 -11    0.06    0.08 
  -3   2 -11    0.07    0.10 
   3  -2  11    0.20    0.09 
   3  -2  11    0.04    0.08 
  -4   2 -11    2.72    0.24 
  -4   2 -11    2.61    0.23 
   4  -2  11    2.59    0.22 
   4  -2  11    2.77    0.23 
  -5   2 -11    1.33    0.19 
  -5   2 -11    1.25    0.21 
   5  -2  11    1.02    0.16 
   5  -2  11    1.34    0.18 
   4   1 -11    1.95    0.22 
   4   1 -11    1.92    0.18 
   3   1 -11    2.25    0.18 
   3   1 -11    2.18    0.22 
   2   1 -11    3.32    0.24 
   2   1 -11    3.30    0.22 
   1   1 -11    0.11    0.08 
   1   1 -11    0.13    0.09 
   0   1 -11    0.56    0.11 
   0   1 -11    0.62    0.11 
   0   1 -11    0.26    0.10 
  -1   1 -11    4.45    0.22 
  -1   1 -11    4.93    0.25 
  -1   1 -11    5.22    0.26 
   1  -1  11    4.39    0.23 
  -2   1 -11    0.05    0.09 
  -2   1 -11    0.16    0.08 
   2  -1  11   -0.02    0.06 
   2  -1  11    0.10    0.07 
  -3   1 -11    0.06    0.10 
  -3   1 -11    0.17    0.09 
   3  -1  11    0.05    0.07 
   3  -1  11    0.12    0.08 
  -4   1 -11    0.56    0.13 
  -4   1 -11    0.35    0.10 
   4  -1  11    0.50    0.11 
   4  -1  11    0.49    0.11 
  -5   1 -11    0.76    0.17 
  -5   1 -11    0.79    0.15 
   5  -1  11    0.71    0.13 
   5  -1  11    0.60    0.14 
  -6   1 -11    0.46    0.14 
  -6   1 -11    0.90    0.19 
   6  -1  11    0.82    0.16 
   6  -1  11    0.60    0.15 
   4   0 -11    0.13    0.11 
   4   0 -11    0.12    0.07 
   3   0 -11    0.17    0.07 
   3   0 -11    0.12    0.10 
   2   0 -11    1.87    0.19 
   2   0 -11    1.70    0.15 
   1   0 -11    4.21    0.22 
   1   0 -11    3.93    0.23 
   0   0 -11   -0.01    0.07 
   0   0 -11    0.01    0.07 
   0   0 -11    0.00    0.07 
  -1   0 -11    0.02    0.06 
  -1   0 -11    0.04    0.06 
  -1   0 -11   -0.03    0.06 
   1   0  11   -0.09    0.05 
  -2   0 -11   10.23    0.36 
  -2   0 -11   11.28    0.38 
   2   0  11   10.67    0.34 
   2   0  11   10.42    0.33 
  -3   0 -11    0.09    0.07 
  -3   0 -11    0.03    0.07 
   3   0  11   -0.02    0.06 
   3   0  11    0.00    0.06 
  -4   0 -11    0.29    0.11 
  -4   0 -11    0.26    0.09 
   4   0  11    0.34    0.10 
   4   0  11    0.27    0.09 
  -5   0 -11    0.87    0.15 
  -5   0 -11    1.35    0.20 
   5   0  11    0.84    0.14 
   5   0  11    0.94    0.14 
  -6   0 -11    1.28    0.20 
  -6   0 -11    1.13    0.18 
   6   0  11    1.18    0.18 
   6   0  11    0.90    0.15 
   4  -1 -11    0.98    0.11 
   4  -1 -11    0.62    0.15 
   3  -1 -11    0.04    0.09 
   3  -1 -11    0.07    0.06 
   2  -1 -11    6.07    0.24 
   2  -1 -11    6.34    0.29 
   1  -1 -11   10.21    0.32 
   1  -1 -11   10.50    0.32 
   1  -1 -11   10.95    0.35 
   0  -1 -11    0.16    0.07 
   0  -1 -11    0.02    0.06 
   0  -1 -11    0.03    0.06 
  -1  -1 -11    0.18    0.07 
  -1  -1 -11    0.33    0.07 
  -1  -1 -11    0.18    0.07 
   1   1  11    0.28    0.07 
  -2  -1 -11   11.99    0.38 
  -2  -1 -11   12.93    0.40 
   2   1  11   12.44    0.36 
   2   1  11   12.77    0.35 
  -3  -1 -11    0.81    0.13 
  -3  -1 -11    0.88    0.15 
   3   1  11    0.65    0.11 
   3   1  11    0.94    0.13 
  -4  -1 -11    2.14    0.19 
  -4  -1 -11    2.31    0.20 
   4   1  11    2.20    0.18 
   4   1  11    2.11    0.17 
  -5  -1 -11    2.58    0.23 
  -5  -1 -11    2.76    0.22 
   5   1  11    2.74    0.21 
   5   1  11    2.82    0.20 
  -6  -1 -11    0.54    0.12 
  -6  -1 -11    0.68    0.14 
   6   1  11    0.73    0.13 
   6   1  11    0.62    0.14 
  -7  -1 -11    0.27    0.11 
  -7  -1 -11    0.42    0.13 
   7   1  11    0.33    0.12 
   7   1  11    0.25    0.11 
   4  -2 -11    1.61    0.12 
   4  -2 -11    1.57    0.20 
   3  -2 -11   -0.04    0.08 
   3  -2 -11    0.02    0.05 
   2  -2 -11    0.27    0.10 
   2  -2 -11    0.23    0.07 
   1  -2 -11    3.74    0.21 
   1  -2 -11    3.60    0.17 
   1  -2 -11    3.84    0.19 
   0  -2 -11    0.01    0.05 
   0  -2 -11   -0.01    0.05 
   0  -2 -11    0.03    0.05 
  -1  -2 -11    0.45    0.08 
  -1  -2 -11    0.47    0.09 
  -1  -2 -11    0.60    0.11 
   1   2  11    0.55    0.08 
  -2  -2 -11    8.09    0.30 
  -2  -2 -11    7.46    0.29 
   2   2  11    7.52    0.26 
   2   2  11    7.93    0.29 
  -3  -2 -11    0.71    0.12 
  -3  -2 -11    0.65    0.12 
   3   2  11    0.66    0.10 
   3   2  11    0.66    0.10 
  -4  -2 -11   -0.01    0.07 
  -4  -2 -11    0.07    0.08 
   4   2  11    0.06    0.07 
   4   2  11   -0.05    0.05 
  -5  -2 -11    0.09    0.08 
  -5  -2 -11   -0.05    0.08 
   5   2  11    0.10    0.09 
   5   2  11    0.13    0.08 
  -6  -2 -11    1.40    0.18 
  -6  -2 -11    1.67    0.22 
   6   2  11    1.06    0.15 
   6   2  11    0.99    0.17 
  -7  -2 -11    2.17    0.23 
  -7  -2 -11    1.25    0.18 
   7   2  11    1.92    0.21 
   7   2  11    1.90    0.20 
   4  -3 -11    2.25    0.23 
   3  -3 -11    1.03    0.10 
   3  -3 -11    0.86    0.14 
   2  -3 -11   -0.04    0.04 
   2  -3 -11    0.02    0.07 
   1  -3 -11    1.13    0.10 
   1  -3 -11    1.09    0.10 
   1  -3 -11    0.94    0.11 
   0  -3 -11    0.43    0.08 
   0  -3 -11    0.37    0.08 
   0  -3 -11    0.40    0.07 
  -1  -3 -11    0.57    0.09 
  -1  -3 -11    0.67    0.08 
  -1  -3 -11    0.87    0.12 
  -2  -3 -11    0.76    0.12 
  -2  -3 -11    0.68    0.10 
   2   3  11    0.74    0.09 
  -3  -3 -11   20.46    0.53 
  -3  -3 -11   21.07    0.53 
   3   3  11   21.18    0.49 
   3   3  11   20.64    0.48 
  -4  -3 -11    0.63    0.11 
  -4  -3 -11    0.86    0.15 
   4   3  11    0.48    0.10 
   4   3  11    0.72    0.11 
  -5  -3 -11   -0.08    0.06 
  -5  -3 -11   -0.02    0.07 
   5   3  11   -0.04    0.06 
   5   3  11    0.12    0.07 
  -6  -3 -11    0.18    0.09 
  -6  -3 -11    0.19    0.10 
   6   3  11    0.14    0.08 
   6   3  11    0.26    0.10 
  -7  -3 -11    5.89    0.34 
  -7  -3 -11    5.43    0.30 
   7   3  11    4.96    0.28 
   7   3  11    4.87    0.30 
   4  -4 -11    1.38    0.19 
   3  -4 -11    1.66    0.18 
   2  -4 -11    1.49    0.10 
   2  -4 -11    1.38    0.15 
   1  -4 -11    1.00    0.09 
   1  -4 -11    0.85    0.09 
   1  -4 -11    1.05    0.12 
   0  -4 -11    6.21    0.21 
   0  -4 -11    6.48    0.22 
   0  -4 -11    6.14    0.22 
  -1  -4 -11    0.53    0.07 
  -1  -4 -11    0.29    0.08 
  -1  -4 -11    0.58    0.09 
  -2  -4 -11    8.41    0.29 
  -2  -4 -11    7.49    0.27 
   2   4  11    8.28    0.25 
  -3  -4 -11    7.92    0.31 
  -3  -4 -11    8.02    0.30 
   3   4  11    8.47    0.33 
   3   4  11    8.39    0.28 
  -4  -4 -11    2.29    0.20 
  -4  -4 -11    2.38    0.19 
   4   4  11    2.06    0.16 
   4   4  11    2.17    0.17 
  -5  -4 -11    2.09    0.20 
  -5  -4 -11    2.20    0.19 
   5   4  11    1.97    0.18 
   5   4  11    1.94    0.17 
  -6  -4 -11    4.83    0.29 
  -6  -4 -11    4.16    0.26 
   6   4  11    4.50    0.25 
   6   4  11    4.24    0.26 
  -7  -4 -11    1.88    0.21 
  -7  -4 -11    2.36    0.27 
   7   4  11    1.53    0.18 
   7   4  11    1.97    0.22 
   4  -5 -11    0.06    0.10 
   3  -5 -11    0.28    0.10 
   2  -5 -11    0.05    0.06 
   1  -5 -11   -0.05    0.04 
   1  -5 -11    0.03    0.04 
   1  -5 -11    0.16    0.07 
   0  -5 -11   19.59    0.42 
   0  -5 -11   19.33    0.42 
   0  -5 -11   18.75    0.41 
  -1  -5 -11    2.56    0.15 
  -1  -5 -11    2.68    0.11 
  -1  -5 -11    2.82    0.16 
  -2  -5 -11    3.31    0.18 
  -2  -5 -11    3.64    0.20 
   2   5  11    3.63    0.18 
  -3  -5 -11   -0.03    0.07 
  -3  -5 -11    0.08    0.08 
   3   5  11    0.09    0.06 
  -4  -5 -11    5.93    0.28 
  -4  -5 -11    6.03    0.27 
   4   5  11    6.09    0.30 
   4   5  11    5.64    0.24 
  -5  -5 -11   -0.02    0.07 
  -5  -5 -11    0.08    0.08 
   5   5  11   -0.03    0.07 
   5   5  11    0.06    0.07 
  -6  -5 -11    0.21    0.10 
  -6  -5 -11    0.06    0.10 
   6   5  11    0.05    0.09 
   6   5  11    0.08    0.08 
  -7  -5 -11    0.84    0.14 
  -7  -5 -11    0.50    0.16 
   7   5  11    0.68    0.15 
   7   5  11    0.59    0.13 
   4  -6 -11   -0.04    0.09 
   3  -6 -11    4.31    0.27 
   2  -6 -11    0.18    0.08 
   1  -6 -11    0.23    0.07 
   1  -6 -11    0.26    0.05 
   1  -6 -11    0.28    0.06 
   0  -6 -11    0.31    0.07 
   0  -6 -11    0.26    0.06 
   0  -6 -11    0.28    0.07 
  -1  -6 -11    6.79    0.24 
  -1  -6 -11    6.32    0.24 
  -2  -6 -11   -0.02    0.05 
  -2  -6 -11    0.02    0.05 
  -3  -6 -11    2.29    0.17 
  -3  -6 -11    2.36    0.18 
  -4  -6 -11    1.27    0.15 
  -4  -6 -11    1.53    0.16 
   4   6  11    1.61    0.14 
  -5  -6 -11    1.24    0.19 
  -5  -6 -11    0.88    0.13 
   5   6  11    0.91    0.12 
  -6  -6 -11    0.92    0.15 
  -6  -6 -11    1.31    0.20 
   6   6  11    1.09    0.14 
   6   6  11    1.19    0.19 
  -7  -6 -11    0.11    0.10 
  -7  -6 -11    0.38    0.15 
   7   6  11    0.12    0.09 
   7   6  11    0.03    0.10 
   3  -7 -11    0.30    0.12 
   2  -7 -11    1.99    0.18 
   1  -7 -11    0.08    0.06 
   1  -7 -11    0.04    0.04 
   1  -7 -11    0.11    0.04 
   0  -7 -11    1.09    0.11 
   0  -7 -11    1.13    0.10 
  -1  -7 -11    8.34    0.28 
  -1  -7 -11    7.85    0.25 
  -2  -7 -11    2.73    0.17 
  -2  -7 -11    2.93    0.18 
  -3  -7 -11    1.73    0.17 
  -3  -7 -11    1.70    0.15 
  -4  -7 -11    1.30    0.15 
  -4  -7 -11    1.24    0.16 
  -5  -7 -11    0.80    0.13 
  -5  -7 -11    0.90    0.15 
  -6  -7 -11   -0.12    0.08 
  -6  -7 -11   -0.01    0.08 
   6   7  11    0.13    0.12 
  -7  -7 -11    0.01    0.10 
  -7  -7 -11    0.09    0.10 
   7   7  11    0.07    0.14 
   3  -8 -11    0.47    0.13 
   2  -8 -11    3.87    0.24 
   1  -8 -11    0.05    0.04 
   1  -8 -11    0.04    0.05 
   0  -8 -11    0.10    0.05 
   0  -8 -11   -0.16    0.06 
  -1  -8 -11    1.15    0.12 
  -1  -8 -11    1.20    0.13 
  -1  -8 -11    1.05    0.11 
  -2  -8 -11    1.38    0.15 
  -2  -8 -11    1.10    0.12 
  -3  -8 -11    0.37    0.09 
  -3  -8 -11    0.26    0.09 
  -4  -8 -11    0.19    0.09 
  -4  -8 -11    0.16    0.07 
  -5  -8 -11    0.84    0.13 
  -5  -8 -11    1.11    0.18 
  -6  -8 -11    0.31    0.14 
  -6  -8 -11    0.41    0.11 
  -7  -8 -11   -0.12    0.07 
   1  -9 -11    0.16    0.05 
   1  -9 -11    0.21    0.07 
   0  -9 -11    2.63    0.16 
   0  -9 -11    2.38    0.14 
  -1  -9 -11    0.06    0.06 
  -1  -9 -11   -0.05    0.06 
  -2  -9 -11    1.48    0.14 
  -2  -9 -11    1.45    0.15 
  -3  -9 -11    0.41    0.11 
  -3  -9 -11    0.32    0.09 
  -4  -9 -11    0.00    0.07 
  -5  -9 -11    0.53    0.12 
  -6  -9 -11    1.40    0.17 
   1 -10 -11    0.25    0.07 
   0 -10 -11    0.01    0.05 
   0 -10 -11    0.06    0.07 
  -1 -10 -11    1.17    0.14 
  -1 -10 -11    1.07    0.12 
  -2 -10 -11    1.63    0.17 
  -2 -10 -11    1.83    0.16 
  -3 -10 -11    0.21    0.10 
  -3 -10 -11    0.18    0.09 
  -4 -10 -11    0.26    0.11 
  -4 -10 -11    0.32    0.10 
  -5 -10 -11    0.15    0.12 
  -5 -10 -11    0.23    0.10 
  -1 -11 -11    0.03    0.06 
  -1 -11 -11    0.15    0.08 
  -2 -11 -11    0.63    0.11 
  -2 -11 -11    0.45    0.11 
  -3 -11 -11    1.49    0.16 
  -3 -11 -11    1.53    0.18 
  -4 -11 -11   -0.02    0.08 
  -4 -11 -11    0.07    0.11 
   0   3 -12    0.29    0.12 
   0   3 -12    0.48    0.13 
  -1   3 -12    0.24    0.10 
  -2   3 -12    0.84    0.15 
  -2   3 -12    0.79    0.16 
   2   2 -12   -0.08    0.08 
   2   2 -12    0.12    0.10 
   1   2 -12    0.50    0.12 
   1   2 -12    0.58    0.13 
   0   2 -12    2.55    0.25 
   0   2 -12    2.19    0.20 
  -1   2 -12    6.39    0.32 
  -1   2 -12    7.39    0.35 
  -2   2 -12    0.32    0.11 
  -2   2 -12    0.41    0.14 
  -3   2 -12    0.52    0.14 
  -3   2 -12    0.57    0.15 
  -4   2 -12    0.06    0.09 
  -4   2 -12    0.21    0.11 
   3   1 -12    3.05    0.22 
   2   1 -12    1.26    0.17 
   2   1 -12    1.49    0.18 
   1   1 -12    1.63    0.17 
   1   1 -12    1.92    0.20 
   0   1 -12    0.92    0.14 
   0   1 -12    0.88    0.16 
   0   1 -12    0.80    0.13 
  -1   1 -12    5.97    0.30 
  -1   1 -12    6.22    0.31 
  -2   1 -12   -0.09    0.07 
  -2   1 -12    0.00    0.08 
  -3   1 -12    3.13    0.25 
  -3   1 -12    2.62    0.23 
  -4   1 -12    0.08    0.09 
  -4   1 -12    0.06    0.10 
   4  -1  12    0.04    0.10 
  -5   1 -12    0.12    0.09 
  -5   1 -12   -0.08    0.08 
   5  -1  12    0.11    0.09 
   3   0 -12    1.23    0.18 
   3   0 -12    1.18    0.14 
   2   0 -12    0.16    0.10 
   2   0 -12    0.19    0.09 
   1   0 -12   -0.11    0.07 
   1   0 -12   -0.07    0.07 
   0   0 -12    0.08    0.08 
   0   0 -12    0.10    0.07 
   0   0 -12    0.14    0.08 
  -1   0 -12    3.21    0.21 
  -1   0 -12    3.36    0.22 
  -1   0 -12    3.17    0.19 
  -2   0 -12    2.42    0.20 
  -2   0 -12    2.37    0.21 
  -3   0 -12    0.54    0.12 
  -3   0 -12    0.72    0.14 
  -4   0 -12    2.94    0.23 
  -4   0 -12    3.00    0.25 
   4   0  12    2.90    0.23 
  -5   0 -12   -0.13    0.06 
  -5   0 -12    0.06    0.09 
   5   0  12    0.16    0.09 
   3  -1 -12    0.09    0.07 
   3  -1 -12   -0.06    0.09 
   2  -1 -12    0.37    0.11 
   2  -1 -12    0.59    0.11 
   1  -1 -12    0.38    0.09 
   1  -1 -12    0.25    0.09 
   1  -1 -12    0.40    0.09 
   0  -1 -12    1.47    0.15 
   0  -1 -12    1.37    0.14 
   0  -1 -12    1.42    0.16 
  -1  -1 -12    1.30    0.15 
  -1  -1 -12    1.12    0.12 
  -1  -1 -12    1.03    0.13 
  -2  -1 -12    4.88    0.25 
  -2  -1 -12    5.20    0.27 
  -3  -1 -12    0.07    0.08 
  -3  -1 -12   -0.07    0.07 
  -4  -1 -12    3.97    0.26 
  -4  -1 -12    4.48    0.28 
   4   1  12    4.60    0.27 
  -5  -1 -12    0.78    0.15 
  -5  -1 -12    0.69    0.14 
   5   1  12    0.70    0.13 
  -6  -1 -12    3.00    0.24 
  -6  -1 -12    3.15    0.27 
   6   1  12    3.10    0.28 
   6   1  12    2.51    0.22 
   3  -2 -12    0.03    0.05 
   3  -2 -12    0.23    0.11 
   2  -2 -12    1.28    0.13 
   2  -2 -12    1.50    0.16 
   1  -2 -12    0.06    0.07 
   1  -2 -12    0.02    0.06 
   1  -2 -12    0.09    0.06 
   0  -2 -12    1.01    0.12 
   0  -2 -12    1.05    0.13 
   0  -2 -12    0.88    0.11 
  -1  -2 -12    0.04    0.08 
  -1  -2 -12    0.11    0.06 
  -1  -2 -12    0.03    0.05 
  -2  -2 -12    5.35    0.25 
  -2  -2 -12    5.83    0.27 
  -3  -2 -12    1.69    0.18 
  -3  -2 -12    2.02    0.21 
  -4  -2 -12    0.54    0.12 
  -4  -2 -12    0.55    0.13 
   4   2  12    0.75    0.14 
  -5  -2 -12    1.11    0.16 
  -5  -2 -12    1.02    0.15 
   5   2  12    1.14    0.15 
  -6  -2 -12    0.39    0.13 
  -6  -2 -12    0.22    0.11 
   6   2  12    0.23    0.15 
   6   2  12    0.31    0.10 
   3  -3 -12    0.03    0.05 
   3  -3 -12   -0.01    0.08 
   2  -3 -12    0.35    0.07 
   2  -3 -12    0.25    0.09 
   1  -3 -12    0.06    0.05 
   1  -3 -12    0.02    0.05 
   1  -3 -12    0.03    0.07 
   0  -3 -12    0.59    0.09 
   0  -3 -12    0.42    0.09 
   0  -3 -12    0.66    0.10 
  -1  -3 -12    0.03    0.05 
  -1  -3 -12   -0.02    0.05 
  -1  -3 -12    0.05    0.06 
  -2  -3 -12    1.28    0.14 
  -2  -3 -12    1.19    0.14 
  -3  -3 -12    3.87    0.23 
  -3  -3 -12    3.66    0.24 
  -4  -3 -12    0.03    0.09 
  -4  -3 -12   -0.02    0.06 
  -5  -3 -12    4.34    0.27 
  -5  -3 -12    4.27    0.28 
   5   3  12    4.10    0.26 
  -6  -3 -12   -0.10    0.09 
  -6  -3 -12    0.01    0.09 
   6   3  12    0.04    0.08 
   3  -4 -12    0.05    0.09 
   3  -4 -12    0.04    0.04 
   2  -4 -12    0.41    0.10 
   2  -4 -12    0.49    0.07 
   1  -4 -12    0.40    0.09 
   1  -4 -12    0.43    0.07 
   1  -4 -12    0.53    0.09 
   0  -4 -12   -0.01    0.04 
   0  -4 -12    0.00    0.05 
   0  -4 -12    0.02    0.05 
  -1  -4 -12    0.02    0.06 
  -1  -4 -12   -0.01    0.05 
  -1  -4 -12    0.05    0.06 
  -2  -4 -12    1.92    0.16 
  -2  -4 -12    1.87    0.17 
  -3  -4 -12    6.30    0.28 
  -3  -4 -12    5.80    0.28 
  -4  -4 -12    6.59    0.31 
  -4  -4 -12    7.54    0.32 
  -5  -4 -12    3.92    0.28 
  -5  -4 -12    3.53    0.24 
  -6  -4 -12    2.13    0.21 
  -6  -4 -12    2.94    0.27 
   3  -5 -12    4.92    0.29 
   2  -5 -12    0.75    0.08 
   2  -5 -12    0.68    0.12 
   1  -5 -12    0.37    0.08 
   1  -5 -12    0.22    0.06 
   1  -5 -12    0.18    0.06 
   0  -5 -12    0.72    0.12 
   0  -5 -12    0.97    0.10 
   0  -5 -12    0.80    0.10 
  -1  -5 -12    0.38    0.08 
  -1  -5 -12    0.25    0.07 
  -2  -5 -12    5.60    0.25 
  -2  -5 -12    5.62    0.24 
  -3  -5 -12    7.56    0.31 
  -3  -5 -12    7.24    0.29 
  -4  -5 -12    2.69    0.21 
  -4  -5 -12    3.28    0.23 
  -5  -5 -12    0.65    0.13 
  -5  -5 -12    0.42    0.12 
  -6  -5 -12    5.83    0.31 
  -6  -5 -12    6.20    0.35 
   3  -6 -12    7.90    0.36 
   2  -6 -12    0.16    0.09 
   1  -6 -12    0.91    0.16 
   1  -6 -12    0.79    0.08 
   1  -6 -12    0.61    0.08 
   0  -6 -12    1.62    0.12 
   0  -6 -12    1.50    0.13 
  -1  -6 -12    0.70    0.10 
  -1  -6 -12    0.68    0.10 
  -2  -6 -12    0.04    0.06 
  -2  -6 -12    0.12    0.07 
  -3  -6 -12    1.01    0.14 
  -3  -6 -12    1.47    0.16 
  -4  -6 -12    1.04    0.14 
  -4  -6 -12    0.91    0.14 
  -5  -6 -12    2.58    0.22 
  -5  -6 -12    3.52    0.26 
  -6  -6 -12    0.20    0.12 
  -6  -6 -12    0.25    0.11 
   1  -7 -12    0.57    0.08 
   1  -7 -12    0.54    0.07 
   0  -7 -12    0.04    0.05 
   0  -7 -12    0.07    0.05 
  -1  -7 -12    0.19    0.08 
  -1  -7 -12    0.15    0.06 
  -2  -7 -12    1.11    0.14 
  -2  -7 -12    1.26    0.13 
  -3  -7 -12    0.87    0.14 
  -3  -7 -12    0.99    0.13 
  -4  -7 -12    1.93    0.22 
  -4  -7 -12    1.74    0.18 
  -5  -7 -12    2.89    0.25 
  -5  -7 -12    3.16    0.22 
  -6  -7 -12    0.01    0.08 
  -6  -7 -12   -0.05    0.09 
   0  -8 -12    3.05    0.17 
   0  -8 -12    2.72    0.15 
  -1  -8 -12    0.06    0.05 
  -1  -8 -12   -0.04    0.05 
  -2  -8 -12    0.18    0.07 
  -2  -8 -12    0.00    0.07 
  -3  -8 -12    0.30    0.09 
  -3  -8 -12    0.31    0.10 
  -4  -8 -12    1.40    0.16 
  -4  -8 -12    1.54    0.19 
  -5  -8 -12    0.32    0.11 
  -5  -8 -12    0.35    0.11 
  -6  -8 -12    0.17    0.10 
  -6  -8 -12    0.26    0.13 
   0  -9 -12    1.09    0.11 
  -1  -9 -12    0.97    0.11 
  -2  -9 -12    3.56    0.20 
  -3  -9 -12    0.01    0.07 
  -4  -9 -12   -0.06    0.07 
  -5  -9 -12    0.42    0.12 
  -1 -10 -12   -0.01    0.06 
  -1 -10 -12    0.04    0.07 
  -2 -10 -12    0.86    0.13 
  -2 -10 -12    0.84    0.12 
  -3 -10 -12    1.67    0.17 
  -3 -10 -12    1.94    0.20 
  -4 -10 -12    0.06    0.08 
   0   1 -13   -0.10    0.07 
  -1   1 -13    0.19    0.10 
  -1   1 -13   -0.01    0.08 
  -2   1 -13    0.59    0.16 
  -2   1 -13    0.70    0.14 
   1   0 -13    0.98    0.15 
   1   0 -13    0.90    0.15 
   0   0 -13    0.20    0.09 
   0   0 -13    0.41    0.11 
   0   0 -13    0.26    0.10 
  -1   0 -13    0.56    0.12 
  -1   0 -13    0.74    0.13 
  -2   0 -13   -0.09    0.08 
  -2   0 -13    0.08    0.08 
  -3   0 -13    1.05    0.16 
  -3   0 -13    1.14    0.17 
   1  -1 -13    0.01    0.09 
   1  -1 -13   -0.07    0.07 
   0  -1 -13    0.26    0.09 
   0  -1 -13    0.06    0.07 
   0  -1 -13    0.11    0.08 
  -1  -1 -13    0.00    0.07 
  -1  -1 -13    0.07    0.08 
  -1  -1 -13    0.02    0.07 
  -2  -1 -13   -0.07    0.07 
  -2  -1 -13    0.08    0.08 
  -3  -1 -13    0.11    0.09 
  -3  -1 -13    0.24    0.10 
  -4  -1 -13    3.50    0.26 
  -4  -1 -13    3.81    0.28 
   2  -2 -13    1.62    0.15 
   2  -2 -13    1.44    0.17 
   1  -2 -13    0.63    0.10 
   1  -2 -13    0.44    0.11 
   1  -2 -13    0.63    0.11 
   0  -2 -13    1.68    0.16 
   0  -2 -13    1.76    0.16 
   0  -2 -13    1.90    0.17 
  -1  -2 -13    0.67    0.11 
  -1  -2 -13    0.51    0.11 
  -1  -2 -13    0.63    0.12 
  -2  -2 -13    1.07    0.16 
  -2  -2 -13    1.18    0.15 
  -3  -2 -13    0.00    0.07 
  -3  -2 -13    0.03    0.07 
  -4  -2 -13    4.02    0.27 
  -4  -2 -13    4.51    0.29 
  -5  -2 -13    3.61    0.27 
  -5  -2 -13    4.20    0.30 
   2  -3 -13    2.61    0.22 
   2  -3 -13    2.81    0.16 
   1  -3 -13    2.54    0.19 
   1  -3 -13    2.42    0.17 
   1  -3 -13    2.97    0.17 
   0  -3 -13   -0.07    0.06 
   0  -3 -13   -0.02    0.07 
   0  -3 -13   -0.01    0.05 
  -1  -3 -13    0.05    0.06 
  -1  -3 -13    0.00    0.07 
  -2  -3 -13    0.65    0.11 
  -2  -3 -13    0.75    0.13 
  -3  -3 -13    0.01    0.07 
  -3  -3 -13    0.03    0.08 
  -4  -3 -13    1.12    0.16 
  -4  -3 -13    1.00    0.17 
  -5  -3 -13    6.40    0.35 
  -5  -3 -13    6.50    0.33 
   2  -4 -13    2.47    0.21 
   2  -4 -13    2.64    0.15 
   1  -4 -13    1.45    0.13 
   1  -4 -13    1.22    0.18 
   1  -4 -13    1.42    0.13 
   0  -4 -13    0.03    0.06 
   0  -4 -13   -0.04    0.05 
  -1  -4 -13    0.16    0.07 
  -1  -4 -13    0.37    0.09 
  -2  -4 -13    0.31    0.10 
  -2  -4 -13    0.21    0.07 
  -3  -4 -13    0.31    0.09 
  -3  -4 -13    0.18    0.09 
  -4  -4 -13    0.35    0.13 
  -4  -4 -13    0.40    0.11 
  -5  -4 -13    2.88    0.26 
  -5  -4 -13    2.91    0.24 
   2  -5 -13    1.57    0.12 
   1  -5 -13    4.43    0.18 
   1  -5 -13    4.80    0.20 
   0  -5 -13    1.27    0.14 
   0  -5 -13    1.25    0.12 
  -1  -5 -13    1.95    0.16 
  -1  -5 -13    1.66    0.14 
  -2  -5 -13    0.59    0.11 
  -2  -5 -13    0.49    0.10 
  -3  -5 -13    0.20    0.09 
  -3  -5 -13    0.18    0.08 
  -4  -5 -13    0.12    0.08 
  -4  -5 -13    0.03    0.08 
  -5  -5 -13    1.55    0.19 
  -5  -5 -13    1.46    0.18 
   1  -6 -13    8.04    0.23 
   1  -6 -13    7.95    0.26 
   0  -6 -13    0.60    0.10 
   0  -6 -13    0.71    0.10 
  -1  -6 -13    0.07    0.07 
  -1  -6 -13    0.19    0.07 
  -2  -6 -13    0.28    0.09 
  -2  -6 -13    0.27    0.09 
  -3  -6 -13    1.03    0.14 
  -3  -6 -13    0.98    0.14 
  -4  -6 -13    0.75    0.15 
  -4  -6 -13    0.85    0.14 
  -5  -6 -13    0.19    0.09 
  -5  -6 -13    0.11    0.09 
   1  -7 -13   -0.05    0.06 
   0  -7 -13    5.30    0.21 
   0  -7 -13    5.93    0.23 
  -1  -7 -13   -0.03    0.06 
  -1  -7 -13    0.05    0.06 
  -2  -7 -13    0.59    0.11 
  -2  -7 -13    0.78    0.11 
  -3  -7 -13    0.02    0.07 
  -3  -7 -13   -0.07    0.07 
  -4  -7 -13    3.20    0.23 
  -4  -7 -13    3.33    0.25 
  -5  -7 -13    0.07    0.09 
  -5  -7 -13    0.09    0.09 
   0  -8 -13    1.38    0.12 
   0  -8 -13    1.59    0.15 
  -1  -8 -13    4.75    0.22 
  -1  -8 -13    5.01    0.24 
  -2  -8 -13    0.96    0.14 
  -2  -8 -13    1.26    0.14 
  -3  -8 -13    0.22    0.09 
  -3  -8 -13    0.13    0.09 
  -4  -8 -13   -0.02    0.08 
  -4  -8 -13    0.02    0.07 
  -1  -3 -14    2.35    0.20 
  -1  -3 -14    2.71    0.21 
  -2  -3 -14    0.71    0.14 
  -2  -3 -14    0.39    0.11 
  -1  -4 -14    0.54    0.11 
  -1  -4 -14    0.46    0.11 
  -2  -4 -14    0.59    0.13 
  -2  -4 -14    0.28    0.09 
  -3  -4 -14    1.03    0.15 
  -3  -4 -14    1.32    0.18 
  -1  -5 -14    0.51    0.11 
  -1  -5 -14    0.52    0.10 
  -2  -5 -14    1.27    0.17 
  -2  -5 -14    1.12    0.14 
  -3  -5 -14    0.39    0.12 
  -3  -5 -14    0.57    0.12 
  -2  -6 -14    0.55    0.12 
  -2  -6 -14    0.83    0.12 
   0   0   0    0.00    0.00 
;
_shelx_hkl_checksum              39749
loop_
_space_group_symop_operation_xyz
'x, y, z'
'-x, -y, -z'
loop_
_atom_site_label
_atom_site_type_symbol
_atom_site_fract_x
_atom_site_fract_y
_atom_site_fract_z
_atom_site_U_iso_or_equiv
_atom_site_adp_type
_atom_site_occupancy
_atom_site_site_symmetry_order
_atom_site_calc_flag
_atom_site_refinement_flags_posn
_atom_site_refinement_flags_adp
_atom_site_refinement_flags_occupancy
_atom_site_disorder_assembly
_atom_site_disorder_group
C1 C 0.1586(2) 0.1356(2) 0.40292(18) 0.0378(5) Uani 1 1 d . . . . .
C2 C -0.0246(3) 0.1823(2) 0.40648(19) 0.0397(5) Uani 1 1 d . . . . .
C3 C -0.1452(3) 0.2140(2) 0.4978(2) 0.0499(5) Uani 1 1 d . . . . .
H3 H -0.1190 0.2086 0.5759 0.060 Uiso 1 1 calc R U . . .
C4 C -0.3092(3) 0.2549(3) 0.4689(3) 0.0636(7) Uani 1 1 d . . . . .
H4 H -0.3931 0.2766 0.5293 0.076 Uiso 1 1 calc R U . . .
C5 C -0.3490(3) 0.2636(3) 0.3530(3) 0.0667(7) Uani 1 1 d . . . . .
H5 H -0.4583 0.2929 0.3358 0.080 Uiso 1 1 calc R U . . .
C6 C -0.2279(3) 0.2292(3) 0.2622(3) 0.0585(6) Uani 1 1 d . . . . .
H6 H -0.2543 0.2341 0.1842 0.070 Uiso 1 1 calc R U . . .
C7 C -0.0676(3) 0.1874(2) 0.2906(2) 0.0450(5) Uani 1 1 d . . . . .
C8 C 0.0825(3) 0.1358(2) 0.21606(19) 0.0459(5) Uani 1 1 d . . . . .
C9 C 0.2207(3) 0.1116(2) 0.29174(19) 0.0425(5) Uani 1 1 d . . . . .
C10 C 0.1929(3) 0.2046(2) 0.61352(18) 0.0402(5) Uani 1 1 d . . . . .
C11 C 0.1834(3) 0.3380(2) 0.5637(2) 0.0586(6) Uani 1 1 d . . . . .
H11 H 0.2163 0.3729 0.4789 0.070 Uiso 1 1 calc R U . . .
C12 C 0.1253(4) 0.4194(3) 0.6391(3) 0.0705(8) Uani 1 1 d . . . . .
H12 H 0.1178 0.5094 0.6056 0.085 Uiso 1 1 calc R U . . .
C13 C 0.0786(3) 0.3661(3) 0.7645(3) 0.0638(7) Uani 1 1 d . . . . .
C14 C 0.0884(3) 0.2340(3) 0.8158(2) 0.0616(7) Uani 1 1 d . . . . .
H14 H 0.0570 0.1994 0.9010 0.074 Uiso 1 1 calc R U . . .
C15 C 0.1454(3) 0.1531(2) 0.73970(19) 0.0474(5) Uani 1 1 d . . . . .
H15 H 0.1519 0.0631 0.7735 0.057 Uiso 1 1 calc R U . . .
C16 C 0.4765(3) 0.1548(2) 0.10179(19) 0.0423(5) Uani 1 1 d . . . . .
C17 C 0.6015(3) 0.1079(2) 0.0197(2) 0.0481(5) Uani 1 1 d . . . . .
H17 H 0.6522 0.0209 0.0423 0.058 Uiso 1 1 calc R U . . .
C18 C 0.6511(3) 0.1895(3) -0.0950(2) 0.0561(6) Uani 1 1 d . . . . .
H18 H 0.7363 0.1586 -0.1496 0.067 Uiso 1 1 calc R U . . .
C19 C 0.5736(3) 0.3167(3) -0.1280(2) 0.0574(6) Uani 1 1 d . . . . .
C20 C 0.4498(3) 0.3657(3) -0.0477(3) 0.0597(6) Uani 1 1 d . . . . .
H20 H 0.3988 0.4526 -0.0712 0.072 Uiso 1 1 calc R U . . .
C21 C 0.4027(3) 0.2843(2) 0.0681(2) 0.0535(6) Uani 1 1 d . . . . .
H21 H 0.3208 0.3168 0.1238 0.064 Uiso 1 1 calc R U . . .
Cl1 Cl 0.00430(15) 0.46877(11) 0.86024(11) 0.1165(4) Uani 1 1 d . . . . .
Cl2 Cl 0.63275(13) 0.41831(9) -0.27579(8) 0.0981(3) Uani 1 1 d . . . . .
O1 O 0.0897(2) 0.1117(2) 0.11724(15) 0.0667(5) Uani 1 1 d . . . . .
S1 S 0.28165(7) 0.09522(6) 0.52199(5) 0.05125(18) Uani 1 1 d . . . . .
S2 S 0.42447(7) 0.04353(6) 0.24919(5) 0.05169(18) Uani 1 1 d . . . . .
loop_
_atom_site_aniso_label
_atom_site_aniso_U_11
_atom_site_aniso_U_22
_atom_site_aniso_U_33
_atom_site_aniso_U_23
_atom_site_aniso_U_13
_atom_site_aniso_U_12
C1 0.0391(11) 0.0397(11) 0.0333(10) -0.0080(9) -0.0047(9) -0.0066(9)
C2 0.0378(11) 0.0388(11) 0.0404(11) -0.0072(9) -0.0038(9) -0.0088(9)
C3 0.0442(12) 0.0536(14) 0.0511(13) -0.0160(11) -0.0002(10) -0.0095(10)
C4 0.0402(13) 0.0660(17) 0.084(2) -0.0305(15) 0.0058(13) -0.0060(12)
C5 0.0400(14) 0.0677(17) 0.094(2) -0.0214(15) -0.0193(14) -0.0040(12)
C6 0.0476(14) 0.0637(16) 0.0652(16) -0.0109(13) -0.0194(12) -0.0115(12)
C7 0.0438(12) 0.0479(13) 0.0434(12) -0.0072(10) -0.0102(10) -0.0125(10)
C8 0.0502(13) 0.0536(13) 0.0357(11) -0.0091(10) -0.0080(10) -0.0156(10)
C9 0.0419(12) 0.0518(13) 0.0328(10) -0.0107(9) -0.0049(9) -0.0072(10)
C10 0.0393(11) 0.0479(12) 0.0336(10) -0.0109(9) -0.0063(9) -0.0070(9)
C11 0.0685(16) 0.0518(15) 0.0491(14) -0.0032(11) -0.0033(12) -0.0160(12)
C12 0.086(2) 0.0408(14) 0.086(2) -0.0148(14) -0.0199(17) -0.0099(13)
C13 0.0689(17) 0.0638(17) 0.0701(18) -0.0389(15) -0.0214(14) 0.0055(13)
C14 0.0738(17) 0.0733(18) 0.0353(12) -0.0191(12) -0.0087(12) 0.0005(14)
C15 0.0592(14) 0.0437(12) 0.0371(11) -0.0080(9) -0.0097(10) -0.0055(10)
C16 0.0366(11) 0.0561(14) 0.0397(11) -0.0222(10) -0.0036(9) -0.0077(10)
C17 0.0416(12) 0.0551(14) 0.0510(13) -0.0239(11) -0.0036(10) -0.0036(10)
C18 0.0504(14) 0.0680(17) 0.0517(14) -0.0275(13) 0.0110(11) -0.0120(12)
C19 0.0568(15) 0.0627(16) 0.0516(14) -0.0146(12) 0.0041(12) -0.0187(12)
C20 0.0570(15) 0.0490(14) 0.0688(17) -0.0162(13) 0.0009(13) -0.0072(11)
C21 0.0474(13) 0.0568(15) 0.0570(14) -0.0270(12) 0.0057(11) -0.0043(11)
Cl1 0.1317(8) 0.1135(8) 0.1334(8) -0.0949(7) -0.0387(7) 0.0266(6)
Cl2 0.1125(7) 0.0856(6) 0.0710(5) -0.0004(4) 0.0225(5) -0.0231(5)
O1 0.0706(12) 0.0962(14) 0.0418(9) -0.0264(9) -0.0132(8) -0.0163(10)
S1 0.0489(3) 0.0655(4) 0.0395(3) -0.0221(3) -0.0138(2) 0.0086(3)
S2 0.0467(3) 0.0651(4) 0.0379(3) -0.0155(3) -0.0037(2) 0.0027(3)
loop_
_atom_type_symbol
_atom_type_description
_atom_type_scat_dispersion_real
_atom_type_scat_dispersion_imag
_atom_type_scat_source
C C 0.0033 0.0016 'International Tables Vol C Tables 4.2.6.8 and 6.1.1.4'
H H 0.0000 0.0000 'International Tables Vol C Tables 4.2.6.8 and 6.1.1.4'
O O 0.0106 0.0060 'International Tables Vol C Tables 4.2.6.8 and 6.1.1.4'
S S 0.1246 0.1234 'International Tables Vol C Tables 4.2.6.8 and 6.1.1.4'
Cl Cl 0.1484 0.1585 'International Tables Vol C Tables 4.2.6.8 and 6.1.1.4'
loop_
_geom_angle_atom_site_label_1
_geom_angle_atom_site_label_2
_geom_angle_atom_site_label_3
_geom_angle
_geom_angle_site_symmetry_1
_geom_angle_site_symmetry_3
_geom_angle_publ_flag
C9 C1 C2 109.63(18) . . ?
C9 C1 S1 120.96(16) . . ?
C2 C1 S1 128.97(15) . . ?
C3 C2 C7 120.2(2) . . ?
C3 C2 C1 132.8(2) . . ?
C7 C2 C1 107.01(19) . . ?
C2 C3 C4 117.7(2) . . ?
C2 C3 H3 121.2 . . ?
C4 C3 H3 121.2 . . ?
C5 C4 C3 121.5(2) . . ?
C5 C4 H4 119.2 . . ?
C3 C4 H4 119.2 . . ?
C4 C5 C6 120.7(2) . . ?
C4 C5 H5 119.7 . . ?
C6 C5 H5 119.7 . . ?
C7 C6 C5 118.0(2) . . ?
C7 C6 H6 121.0 . . ?
C5 C6 H6 121.0 . . ?
C6 C7 C2 121.9(2) . . ?
C6 C7 C8 129.5(2) . . ?
C2 C7 C8 108.57(18) . . ?
O1 C8 C7 127.4(2) . . ?
O1 C8 C9 127.1(2) . . ?
C7 C8 C9 105.38(18) . . ?
C1 C9 C8 109.15(19) . . ?
C1 C9 S2 126.28(16) . . ?
C8 C9 S2 124.12(16) . . ?
C11 C10 C15 119.7(2) . . ?
C11 C10 S1 121.62(17) . . ?
C15 C10 S1 118.43(17) . . ?
C12 C11 C10 120.2(2) . . ?
C12 C11 H11 119.9 . . ?
C10 C11 H11 119.9 . . ?
C13 C12 C11 119.2(2) . . ?
C13 C12 H12 120.4 . . ?
C11 C12 H12 120.4 . . ?
C14 C13 C12 121.5(2) . . ?
C14 C13 Cl1 119.2(2) . . ?
C12 C13 Cl1 119.4(2) . . ?
C13 C14 C15 119.1(2) . . ?
C13 C14 H14 120.4 . . ?
C15 C14 H14 120.4 . . ?
C14 C15 C10 120.3(2) . . ?
C14 C15 H15 119.8 . . ?
C10 C15 H15 119.8 . . ?
C21 C16 C17 119.6(2) . . ?
C21 C16 S2 123.27(17) . . ?
C17 C16 S2 117.13(18) . . ?
C18 C17 C16 120.3(2) . . ?
C18 C17 H17 119.8 . . ?
C16 C17 H17 119.8 . . ?
C19 C18 C17 119.2(2) . . ?
C19 C18 H18 120.4 . . ?
C17 C18 H18 120.4 . . ?
C18 C19 C20 121.5(2) . . ?
C18 C19 Cl2 119.0(2) . . ?
C20 C19 Cl2 119.6(2) . . ?
C19 C20 C21 119.1(2) . . ?
C19 C20 H20 120.5 . . ?
C21 C20 H20 120.5 . . ?
C20 C21 C16 120.3(2) . . ?
C20 C21 H21 119.9 . . ?
C16 C21 H21 119.9 . . ?
C1 S1 C10 105.26(10) . . ?
C9 S2 C16 102.02(10) . . ?
loop_
_geom_bond_atom_site_label_1
_geom_bond_atom_site_label_2
_geom_bond_distance
_geom_bond_site_symmetry_2
_geom_bond_publ_flag
C1 C9 1.352(3) . ?
C1 C2 1.493(3) . ?
C1 S1 1.730(2) . ?
C2 C3 1.374(3) . ?
C2 C7 1.401(3) . ?
C3 C4 1.403(3) . ?
C3 H3 0.9300 . ?
C4 C5 1.380(4) . ?
C4 H4 0.9300 . ?
C5 C6 1.382(4) . ?
C5 H5 0.9300 . ?
C6 C7 1.373(3) . ?
C6 H6 0.9300 . ?
C7 C8 1.482(3) . ?
C8 O1 1.214(3) . ?
C8 C9 1.484(3) . ?
C9 S2 1.742(2) . ?
C10 C11 1.379(3) . ?
C10 C15 1.380(3) . ?
C10 S1 1.777(2) . ?
C11 C12 1.374(4) . ?
C11 H11 0.9300 . ?
C12 C13 1.374(4) . ?
C12 H12 0.9300 . ?
C13 C14 1.368(4) . ?
C13 Cl1 1.739(3) . ?
C14 C15 1.376(3) . ?
C14 H14 0.9300 . ?
C15 H15 0.9300 . ?
C16 C21 1.381(3) . ?
C16 C17 1.386(3) . ?
C16 S2 1.775(2) . ?
C17 C18 1.375(3) . ?
C17 H17 0.9300 . ?
C18 C19 1.368(4) . ?
C18 H18 0.9300 . ?
C19 C20 1.377(4) . ?
C19 Cl2 1.747(3) . ?
C20 C21 1.378(4) . ?
C20 H20 0.9300 . ?
C21 H21 0.9300 . ?
loop_
_geom_torsion_atom_site_label_1
_geom_torsion_atom_site_label_2
_geom_torsion_atom_site_label_3
_geom_torsion_atom_site_label_4
_geom_torsion
_geom_torsion_site_symmetry_1
_geom_torsion_site_symmetry_2
_geom_torsion_site_symmetry_3
_geom_torsion_site_symmetry_4
_geom_torsion_publ_flag
C9 C1 C2 C3 176.8(2) . . . . ?
S1 C1 C2 C3 4.5(4) . . . . ?
C9 C1 C2 C7 -1.2(2) . . . . ?
S1 C1 C2 C7 -173.54(17) . . . . ?
C7 C2 C3 C4 -1.9(3) . . . . ?
C1 C2 C3 C4 -179.7(2) . . . . ?
C2 C3 C4 C5 -0.2(4) . . . . ?
C3 C4 C5 C6 1.5(4) . . . . ?
C4 C5 C6 C7 -0.6(4) . . . . ?
C5 C6 C7 C2 -1.6(4) . . . . ?
C5 C6 C7 C8 174.9(2) . . . . ?
C3 C2 C7 C6 2.9(3) . . . . ?
C1 C2 C7 C6 -178.8(2) . . . . ?
C3 C2 C7 C8 -174.3(2) . . . . ?
C1 C2 C7 C8 4.0(2) . . . . ?
C6 C7 C8 O1 -5.7(4) . . . . ?
C2 C7 C8 O1 171.2(2) . . . . ?
C6 C7 C8 C9 177.9(2) . . . . ?
C2 C7 C8 C9 -5.2(2) . . . . ?
C2 C1 C9 C8 -2.1(2) . . . . ?
S1 C1 C9 C8 170.92(15) . . . . ?
C2 C1 C9 S2 -174.60(16) . . . . ?
S1 C1 C9 S2 -1.6(3) . . . . ?
O1 C8 C9 C1 -171.9(2) . . . . ?
C7 C8 C9 C1 4.5(2) . . . . ?
O1 C8 C9 S2 0.8(4) . . . . ?
C7 C8 C9 S2 177.16(16) . . . . ?
C15 C10 C11 C12 -0.6(4) . . . . ?
S1 C10 C11 C12 -175.2(2) . . . . ?
C10 C11 C12 C13 0.6(4) . . . . ?
C11 C12 C13 C14 -0.1(4) . . . . ?
C11 C12 C13 Cl1 -179.8(2) . . . . ?
C12 C13 C14 C15 -0.4(4) . . . . ?
Cl1 C13 C14 C15 179.3(2) . . . . ?
C13 C14 C15 C10 0.4(4) . . . . ?
C11 C10 C15 C14 0.1(4) . . . . ?
S1 C10 C15 C14 174.86(19) . . . . ?
C21 C16 C17 C18 -0.5(3) . . . . ?
S2 C16 C17 C18 -178.46(18) . . . . ?
C16 C17 C18 C19 -1.1(4) . . . . ?
C17 C18 C19 C20 1.6(4) . . . . ?
C17 C18 C19 Cl2 -178.01(19) . . . . ?
C18 C19 C20 C21 -0.4(4) . . . . ?
Cl2 C19 C20 C21 179.2(2) . . . . ?
C19 C20 C21 C16 -1.3(4) . . . . ?
C17 C16 C21 C20 1.7(4) . . . . ?
S2 C16 C21 C20 179.53(19) . . . . ?
C9 C1 S1 C10 153.75(18) . . . . ?
C2 C1 S1 C10 -34.7(2) . . . . ?
C11 C10 S1 C1 -61.5(2) . . . . ?
C15 C10 S1 C1 123.87(18) . . . . ?
C1 C9 S2 C16 -130.3(2) . . . . ?
C8 C9 S2 C16 58.3(2) . . . . ?
C21 C16 S2 C9 26.2(2) . . . . ?
C17 C16 S2 C9 -155.97(17) . . . . ?
