#------------------------------------------------------------------------------
#$Date: 2020-03-06 02:46:29 +0200 (Fri, 06 Mar 2020) $
#$Revision: 249091 $
#$URL: file:///home/coder/svn-repositories/cod/cif/4/03/80/4038034.cif $
#------------------------------------------------------------------------------
#
# This file is available in the Crystallography Open Database (COD),
# http://www.crystallography.net/
#
# All data on this site have been placed in the public domain by the
# contributors.
#
data_4038034
loop_
_publ_author_name
'Feng, Yangyang'
'Yang, Chenglin'
'Deng, Qingfu'
'Xiong, Ruimei'
'Zhang, Xiaohui'
'Xiong, Yan'
_publ_section_title
;
 Synthesis of anti Tricyclic Morpholine Derivatives through
 Iodine(III)-Mediated Intramolecular Umpolung Cycloaddition of Olefins.
;
_journal_name_full               'The Journal of organic chemistry'
_journal_paper_doi               10.1021/acs.joc.0c00286
_journal_year                    2020
_chemical_formula_moiety         'C17 H15 N O2'
_chemical_formula_sum            'C17 H15 N O2'
_chemical_formula_weight         265.30
_space_group_crystal_system      triclinic
_space_group_IT_number           2
_space_group_name_Hall           '-P 1'
_space_group_name_H-M_alt        'P -1'
_atom_sites_solution_hydrogens   geom
_atom_sites_solution_primary     dual
_audit_creation_date             2020-01-22
_audit_creation_method
;
Olex2 1.2
(compiled 2018.05.29 svn.r3508 for OlexSys, GUI svn.r5506)
;
_cell_angle_alpha                104.605(3)
_cell_angle_beta                 100.400(3)
_cell_angle_gamma                103.087(3)
_cell_formula_units_Z            2
_cell_length_a                   5.7120(12)
_cell_length_b                   11.113(2)
_cell_length_c                   11.571(2)
_cell_measurement_reflns_used    1829
_cell_measurement_temperature    150
_cell_measurement_theta_max      27.355
_cell_measurement_theta_min      3.117
_cell_volume                     669.9(2)
_computing_cell_refinement       'SAINT v8.34A (Bruker, 2013)'
_computing_data_reduction        'SAINT v8.34A (Bruker, 2013)'
_computing_molecular_graphics    'Olex2 (Dolomanov et al., 2009)'
_computing_publication_material  'Olex2 (Dolomanov et al., 2009)'
_computing_structure_refinement  'ShelXL (Sheldrick, 2015)'
_computing_structure_solution    'ShelXT (Sheldrick, 2015)'
_diffrn_ambient_temperature      150.0
_diffrn_measured_fraction_theta_full 0.993
_diffrn_measured_fraction_theta_max 0.939
_diffrn_measurement_device_type  'CCD Area Detector'
_diffrn_radiation_type           MoK\a
_diffrn_radiation_wavelength     0.71073
_diffrn_reflns_av_R_equivalents  0.0116
_diffrn_reflns_av_unetI/netI     0.0232
_diffrn_reflns_Laue_measured_fraction_full 0.993
_diffrn_reflns_Laue_measured_fraction_max 0.939
_diffrn_reflns_limit_h_max       7
_diffrn_reflns_limit_h_min       -7
_diffrn_reflns_limit_k_max       13
_diffrn_reflns_limit_k_min       -13
_diffrn_reflns_limit_l_max       13
_diffrn_reflns_limit_l_min       -15
_diffrn_reflns_number            4056
_diffrn_reflns_point_group_measured_fraction_full 0.993
_diffrn_reflns_point_group_measured_fraction_max 0.939
_diffrn_reflns_theta_full        25.242
_diffrn_reflns_theta_max         27.598
_diffrn_reflns_theta_min         3.117
_exptl_absorpt_coefficient_mu    0.086
_exptl_absorpt_correction_T_max  0.7456
_exptl_absorpt_correction_T_min  0.6829
_exptl_absorpt_correction_type   multi-scan
_exptl_absorpt_process_details
'SADABS-2014/5 (Bruker,2014/5) was used for absorption correction. wR2(int) was 0.0853 before and 0.0235 after correction. The Ratio of minimum to maximum transmission is 0.9159. The \l/2 correction factor is 0.00150.'
_exptl_crystal_colour            colourless
_exptl_crystal_colour_primary    colourless
_exptl_crystal_density_diffrn    1.315
_exptl_crystal_description       block
_exptl_crystal_F_000             280
_refine_diff_density_max         0.591
_refine_diff_density_min         -0.286
_refine_diff_density_rms         0.042
_refine_ls_extinction_method     none
_refine_ls_goodness_of_fit_ref   1.053
_refine_ls_hydrogen_treatment    constr
_refine_ls_matrix_type           full
_refine_ls_number_parameters     181
_refine_ls_number_reflns         2930
_refine_ls_number_restraints     0
_refine_ls_restrained_S_all      1.053
_refine_ls_R_factor_all          0.0714
_refine_ls_R_factor_gt           0.0559
_refine_ls_shift/su_max          0.000
_refine_ls_shift/su_mean         0.000
_refine_ls_structure_factor_coef Fsqd
_refine_ls_weighting_details
'w=1/[\s^2^(Fo^2^)+(0.0763P)^2^+0.1963P] where P=(Fo^2^+2Fc^2^)/3'
_refine_ls_weighting_scheme      calc
_refine_ls_wR_factor_gt          0.1483
_refine_ls_wR_factor_ref         0.1614
_reflns_Friedel_coverage         0.000
_reflns_number_gt                2232
_reflns_number_total             2930
_reflns_threshold_expression     'I > 2\s(I)'
_cod_data_source_file            jo0c00286_si_001.cif
_cod_data_source_block           200119fyy_0m
_cod_database_code               4038034
_shelx_shelxl_version_number     2018/3
_shelx_space_group_comment
;
The symmetry employed for this shelxl refinement is uniquely defined
by the following loop, which should always be used as a source of
symmetry information in preference to the above space-group names.
They are only intended as comments.
;
_olex2_refinement_description
;
1. Fixed Uiso
 At 1.2 times of:
  All C(H) groups, All C(H,H) groups
2.a Ternary CH refined with riding coordinates:
 C4(H4), C5(H5)
2.b Secondary CH2 refined with riding coordinates:
 C6(H6A,H6B), C7(H7A,H7B)
2.c Aromatic/amide H refined with riding coordinates:
 C9(H9), C10(H10), C11(H11), C12(H12), C13(H13), C14(H14), C15(H15), C16(H16),
 C17(H17)
;
_shelx_res_file
;
TITL 200119fyy_P -1 R = 0.10
    200119fyy_0m.res
    created by SHELXL-2018/3 at 11:44:58 on 22-Jan-2020
CELL 0.71073 5.712 11.113 11.571 104.605 100.4 103.087
ZERR 2 0.0012 0.002 0.002 0.003 0.003 0.003
LATT 1
SFAC C H N O
UNIT 34 30 2 4

L.S. 5
PLAN  -20
TEMP -123.15
CONF
bond $h
fmap 2
acta
OMIT 0 -1 1
OMIT 3 -1 1
REM <olex2.extras>
REM <HklSrc "%.\\200119FYY_0m.hkl">
REM </olex2.extras>

WGHT    0.076300    0.196300
FVAR       1.04304
O1    4    0.709422    0.138848   -0.020148    11.00000    0.09196    0.09304 =
         0.04337    0.01980    0.02857    0.03921
O2    4    0.570881    0.345521    0.396876    11.00000    0.06393    0.05543 =
         0.04226    0.01888    0.02183    0.03204
N1    3    0.667929    0.208240    0.178825    11.00000    0.05593    0.04588 =
         0.03808    0.01295    0.01504    0.02056
C1    1    0.749264    0.137630    0.086565    11.00000    0.05448    0.05513 =
         0.04441    0.00973    0.01909    0.01568
C2    1    0.527917    0.297469    0.174238    11.00000    0.04899    0.03751 =
         0.04294    0.01317    0.00990    0.01069
C3    1    0.481885    0.362943    0.284825    11.00000    0.04450    0.03829 =
         0.04480    0.01569    0.01193    0.01108
C4    1    0.774209    0.290118    0.402238    11.00000    0.05362    0.05427 =
         0.04573    0.01809    0.01856    0.02265
AFIX  13
H4    2    0.924756    0.355443    0.400233    11.00000   -1.20000
AFIX   0
C5    1    0.715712    0.172173    0.292961    11.00000    0.05902    0.04904 =
         0.04305    0.01577    0.01567    0.02316
AFIX  13
H5    2    0.563377    0.107249    0.293791    11.00000   -1.20000
AFIX   0
C6    1    0.920826    0.105880    0.279300    11.00000    0.05358    0.05804 =
         0.05103    0.01720    0.01933    0.02723
AFIX  23
H6A   2    1.086611    0.168177    0.321488    11.00000   -1.20000
H6B   2    0.899188    0.032723    0.314385    11.00000   -1.20000
AFIX   0
C7    1    0.891809    0.057509    0.140812    11.00000    0.06275    0.06669 =
         0.05146    0.00631    0.01701    0.03181
AFIX  23
H7A   2    1.056342    0.069819    0.121990    11.00000   -1.20000
H7B   2    0.799206   -0.035788    0.107099    11.00000   -1.20000
AFIX   0
C8    1    0.823706    0.260688    0.524043    11.00000    0.05336    0.05245 =
         0.03985    0.01519    0.01829    0.02493
C9    1    1.061646    0.302405    0.596830    11.00000    0.05471    0.07123 =
         0.04982    0.01814    0.01978    0.01997
AFIX  43
H9    2    1.191630    0.349290    0.570469    11.00000   -1.20000
AFIX   0
C10   1    1.115059    0.277122    0.708247    11.00000    0.05918    0.09106 =
         0.04790    0.01686    0.00813    0.03131
AFIX  43
H10   2    1.281136    0.306615    0.757578    11.00000   -1.20000
AFIX   0
C11   1    0.929247    0.209536    0.748113    11.00000    0.08421    0.06522 =
         0.04487    0.02367    0.01992    0.04123
AFIX  43
H11   2    0.966212    0.192370    0.824713    11.00000   -1.20000
AFIX   0
C12   1    0.689441    0.167089    0.675910    11.00000    0.07770    0.05434 =
         0.06158    0.02554    0.03325    0.01884
AFIX  43
H12   2    0.560088    0.120575    0.702907    11.00000   -1.20000
AFIX   0
C13   1    0.635175    0.191946    0.563351    11.00000    0.05162    0.06384 =
         0.05251    0.01741    0.01366    0.01569
AFIX  43
H13   2    0.469433    0.161905    0.513575    11.00000   -1.20000
AFIX   0
C14   1    0.338136    0.447988    0.285974    11.00000    0.05550    0.04251 =
         0.06020    0.01583    0.01694    0.01825
AFIX  43
H14   2    0.306883    0.491014    0.361171    11.00000   -1.20000
AFIX   0
C15   1    0.240067    0.470301    0.177691    11.00000    0.06770    0.05079 =
         0.07455    0.02241    0.00667    0.02658
AFIX  43
H15   2    0.138749    0.527344    0.178025    11.00000   -1.20000
AFIX   0
C16   1    0.289859    0.409427    0.069121    11.00000    0.09025    0.05984 =
         0.05817    0.02398   -0.00020    0.02826
AFIX  43
H16   2    0.224808    0.426232   -0.004837    11.00000   -1.20000
AFIX   0
C17   1    0.433558    0.324080    0.066575    11.00000    0.07865    0.05405 =
         0.04327    0.01522    0.00704    0.02055
AFIX  43
H17   2    0.467849    0.283622   -0.008665    11.00000   -1.20000
AFIX   0
HKLF 4




REM  200119fyy_P -1 R = 0.10
REM wR2 = 0.1614, GooF = S = 1.053, Restrained GooF = 1.053 for all data
REM R1 = 0.0559 for 2232 Fo > 4sig(Fo) and 0.0714 for all 2930 data
REM 181 parameters refined using 0 restraints

END

WGHT      0.0763      0.1963

REM Highest difference peak  0.591,  deepest hole -0.286,  1-sigma level  0.042
Q1    1   0.6463  0.2120  0.3796  11.00000  0.05    0.59
Q2    1   0.8587  0.2311  0.3052  11.00000  0.05    0.39
Q3    1   0.7230  0.1835  0.5061  11.00000  0.05    0.28
Q4    1   0.6727  0.1363  0.5925  11.00000  0.05    0.16
Q5    1   0.4735  0.3119  0.2298  11.00000  0.05    0.15
Q6    1   0.4990  0.1389  0.3253  11.00000  0.05    0.14
Q7    1   0.8339  0.1413  0.6821  11.00000  0.05    0.13
Q8    1   0.3514  0.3752  0.2802  11.00000  0.05    0.13
Q9    1   0.9629  0.0160  0.0961  11.00000  0.05    0.13
Q10   1   0.6959 -0.0342  0.1107  11.00000  0.05    0.13
Q11   1   0.9649  0.2394  0.5372  11.00000  0.05    0.12
Q12   1   0.7098  0.2188 -0.0198  11.00000  0.05    0.12
Q13   1   0.5827  0.3588  0.2304  11.00000  0.05    0.12
Q14   1   0.5340  0.2244  0.1642  11.00000  0.05    0.11
Q15   1   0.7783  0.2359 -0.0046  11.00000  0.05    0.11
Q16   1   0.6485  0.1638  0.1344  11.00000  0.05    0.11
Q17   1   1.1671  0.4072  0.5776  11.00000  0.05    0.11
Q18   1   0.4818  0.4366  0.2872  11.00000  0.05    0.11
Q19   1   0.8597  0.0509  0.2071  11.00000  0.05    0.11
Q20   1   1.1085  0.2299  0.3119  11.00000  0.05    0.11
;
_shelx_res_checksum              26928
_shelx_hkl_file
;
   1   0   0  486.59    5.90
   2   0   0  250.77    3.52
  -3   0   0   22.28    0.87
  -4   0   0    5.82    0.63
  -5   0   0   62.67    1.80
  -5   0   0   60.05    2.12
  -6   0   0    0.42    0.65
  -7   0   0    2.39    1.01
  -7   1   0   -0.47    0.81
  -6   1   0    2.60    0.76
  -5   1   0   11.98    0.94
  -5   1   0   12.50    1.14
   4  -1   0   37.31    1.34
   3  -1   0  184.69    3.09
   2  -1   0  165.35    2.56
   1  -1   0  929.40   11.58
  -1  -1   0 6491.11   91.21
  -2  -1   0  409.77    5.29
  -3  -1   0    0.07    0.23
  -4  -1   0    3.93    0.70
  -4  -1   0    3.88    0.52
  -5  -1   0    4.50    0.62
  -5  -1   0    4.17    0.81
  -6  -1   0    0.24    0.74
  -6   2   0    1.98    0.62
  -6   2   0    0.10    0.62
   5  -2   0    0.34    0.47
   4  -2   0  347.21    5.39
   3  -2   0   49.65    1.39
   2  -2   0    0.77    0.24
  -2   2   0    0.38    0.13
   1  -2   0 3764.56   45.64
  -1   2   0 3817.78   60.12
   0  -2   0 4169.22   65.75
  -1  -2   0 5164.73   61.17
  -1  -2   0 4907.54   78.16
  -2  -2   0  160.23    2.37
  -2  -2   0  155.54    2.81
  -3  -2   0    1.82    0.49
  -3  -2   0    2.13    0.34
  -4  -2   0  143.52    3.27
  -4  -2   0  145.99    2.66
  -5  -2   0    1.00    0.63
  -6  -2   0    5.97    1.11
   6  -3   0   -0.02    0.57
   5  -3   0    1.07    0.49
  -5   3   0    1.23    0.37
   4  -3   0   10.59    0.81
  -4   3   0    9.94    0.60
   3  -3   0 2137.70   26.54
  -3   3   0 2159.03   26.27
   2  -3   0  755.08    9.60
  -2   3   0  764.23    9.09
   1  -3   0  178.63    2.64
  -1   3   0  179.66    2.36
   0  -3   0  212.06    2.85
   0  -3   0  213.43    2.90
  -1  -3   0  430.30    5.81
  -1  -3   0  443.24    5.51
  -2  -3   0 1978.41   24.01
  -2  -3   0 2003.31   25.15
  -3  -3   0  106.40    1.98
  -3  -3   0  108.46    2.59
  -4  -3   0    9.82    0.71
  -4  -3   0    9.95    1.13
  -5  -3   0   12.29    1.27
  -6  -3   0    3.60    1.01
   6  -4   0   10.29    1.08
   5  -4   0    3.04    0.70
  -5   4   0    3.68    0.48
   4  -4   0   20.96    1.13
  -4   4   0   19.74    0.75
   3  -4   0   11.29    0.74
  -3   4   0   10.44    0.51
   2  -4   0  179.36    2.97
   2  -4   0  176.21    2.54
  -2   4   0  180.74    2.50
   1  -4   0  935.50   12.14
   1  -4   0  955.84   11.57
   0  -4   0  149.61    2.27
   0  -4   0  153.79    2.34
  -1  -4   0  118.22    2.20
  -1  -4   0  121.24    2.00
  -2  -4   0    4.60    0.63
  -2  -4   0    6.16    0.53
  -3  -4   0    9.59    0.68
  -3  -4   0   10.27    0.95
  -4  -4   0   81.13    2.51
  -5  -4   0   12.21    1.31
  -6  -4   0    2.09    0.97
   6  -5   0   10.70    1.12
   5  -5   0    1.87    0.58
   4  -5   0    9.64    0.84
  -4   5   0    9.40    0.55
   3  -5   0   68.93    1.85
  -3   5   0   72.73    1.38
   2  -5   0 1020.41   12.58
   2  -5   0 1010.47   12.72
  -2   5   0 1005.47   12.08
   1  -5   0  242.01    3.25
   1  -5   0  242.57    3.63
   0  -5   0   93.97    1.76
   0  -5   0   88.48    1.65
  -1  -5   0  512.42    6.76
  -1  -5   0  522.01    7.01
  -2  -5   0   26.08    1.00
  -2  -5   0   25.75    1.25
  -3  -5   0  182.08    3.85
  -3  -5   0  193.40    3.23
  -4  -5   0   37.28    1.91
  -5  -5   0    2.59    0.88
   7  -6   0    1.84    0.87
   6  -6   0    7.89    1.04
   5  -6   0   30.90    1.55
   4  -6   0    8.16    0.89
  -4   6   0    6.98    0.51
   3  -6   0   86.48    2.20
  -3   6   0   82.51    1.57
   2  -6   0   23.05    0.67
   2  -6   0   23.64    1.02
  -2   6   0   23.58    0.72
   1  -6   0  746.36    9.11
   1  -6   0  741.49    9.58
   0  -6   0  213.54    3.26
   0  -6   0  217.43    3.39
  -1  -6   0   79.78    1.78
  -1  -6   0   82.30    1.92
  -2  -6   0    2.54    0.56
  -2  -6   0    1.93    0.54
  -3  -6   0   53.04    2.06
  -3  -6   0   51.52    1.63
  -4  -6   0   47.98    2.11
  -5  -6   0   12.13    1.41
   7  -7   0   -0.63    0.61
   6  -7   0    9.47    1.17
   5  -7   0    0.37    0.52
   4  -7   0   18.65    1.18
   3  -7   0    0.04    0.41
  -3   7   0    0.04    0.25
   2  -7   0   58.83    1.68
   1  -7   0    4.31    0.47
   1  -7   0    4.04    0.57
   0  -7   0   14.42    0.84
   0  -7   0   14.47    0.74
  -1  -7   0   12.06    0.86
  -1  -7   0   11.23    0.85
  -2  -7   0  141.45    3.11
  -2  -7   0  134.50    2.73
  -3  -7   0    2.60    0.83
  -4  -7   0    9.06    1.26
  -5  -7   0    0.35    0.77
   6  -8   0    1.07    0.69
   5  -8   0    0.90    0.64
   4  -8   0   61.96    2.14
   3  -8   0   46.76    1.68
   2  -8   0    0.22    0.42
   1  -8   0    2.70    0.52
   1  -8   0    3.23    0.43
   0  -8   0   65.65    1.79
   0  -8   0   64.50    1.62
  -1  -8   0   31.69    1.27
  -1  -8   0   32.34    1.30
  -2  -8   0    1.84    0.61
  -2  -8   0    1.74    0.66
  -3  -8   0   64.66    2.39
  -4  -8   0    0.36    0.78
   6  -9   0    0.04    0.67
   5  -9   0    2.07    0.71
   4  -9   0    0.51    0.57
   3  -9   0   21.70    1.24
   2  -9   0   22.71    1.20
   1  -9   0   11.46    0.95
   0  -9   0    0.06    0.42
   0  -9   0    0.40    0.37
  -1  -9   0    6.82    0.81
  -1  -9   0    7.34    0.83
  -2  -9   0   23.99    1.53
  -3  -9   0    2.98    0.94
  -4  -9   0    1.33    0.84
   6 -10   0    0.86    0.80
   5 -10   0    7.15    1.10
   4 -10   0   -0.26    0.51
   3 -10   0    1.64    0.60
   2 -10   0    0.70    0.50
   1 -10   0   14.78    1.05
   0 -10   0    0.56    0.47
  -1 -10   0    0.35    0.57
  -1 -10   0   -0.02    0.53
  -2 -10   0    4.34    0.89
  -3 -10   0    0.41    0.85
   5 -11   0    0.53    0.63
   4 -11   0    8.85    1.12
   3 -11   0    9.39    1.12
   2 -11   0    1.74    0.60
   1 -11   0    1.84    0.62
   0 -11   0    4.24    0.75
  -1 -11   0    1.79    0.66
   4 -12   0   -0.52    0.60
   3 -12   0    0.57    0.67
   2 -12   0    1.25    0.63
   1 -12   0    1.95    0.73
   0 -12   0   15.67    1.29
   3 -13   0   -0.07    0.61
   2 -13   0    1.10    0.74
   1 -13   0    3.49    0.85
   0 -13   0    0.65    0.64
   0 -13   1    1.28    0.69
   1 -13   1   13.63    1.33
   2 -13   1    0.35    0.60
   3 -13   1    1.47    0.72
  -1 -12   1    2.03    0.67
   0 -12   1   -0.10    0.54
   1 -12   1    0.48    0.56
   2 -12   1   11.53    1.12
   3 -12   1    7.55    1.05
   4 -12   1   -0.19    0.54
  -2 -11   1    0.86    0.73
  -1 -11   1    5.29    0.88
   0 -11   1   27.69    1.48
   1 -11   1    0.91    0.59
   2 -11   1   13.40    1.10
   3 -11   1    6.58    0.95
   4 -11   1    6.62    1.05
   5 -11   1    5.26    1.04
  -3 -10   1    2.95    0.91
  -2 -10   1    5.92    0.85
  -2 -10   1    8.43    1.06
  -1 -10   1    8.38    0.93
   0 -10   1    0.02    0.45
   1 -10   1   24.61    1.31
   2 -10   1    0.64    0.48
   3 -10   1   14.88    1.21
   4 -10   1   14.41    1.29
   5 -10   1    0.05    0.61
   6 -10   1    3.12    0.88
  -4  -9   1    0.64    0.90
  -3  -9   1    9.40    1.17
  -2  -9   1    5.51    0.81
  -2  -9   1    6.65    0.91
  -1  -9   1   21.58    1.18
  -1  -9   1   21.91    1.17
   0  -9   1   14.37    0.87
   0  -9   1   15.58    1.05
   1  -9   1   19.39    1.12
   2  -9   1    0.43    0.43
   3  -9   1   16.24    1.11
   4  -9   1    0.21    0.57
   5  -9   1    2.70    0.73
   6  -9   1    1.37    0.78
  -4  -8   1    0.85    0.79
  -3  -8   1   22.64    1.46
  -3  -8   1   24.17    1.66
  -2  -8   1   15.40    1.12
  -2  -8   1   12.15    1.07
  -1  -8   1    6.45    0.74
  -1  -8   1    7.47    0.79
   0  -8   1   54.23    1.41
   0  -8   1   54.32    1.60
   1  -8   1   30.60    1.21
   2  -8   1   24.70    1.16
  -3   8  -1    0.83    0.33
   3  -8   1    0.63    0.43
  -4   8  -1   83.99    1.82
   4  -8   1   83.19    2.52
   5  -8   1   16.78    1.28
   6  -8   1    1.44    0.75
  -5  -7   1   10.93    1.46
  -4  -7   1   17.23    1.51
  -3  -7   1   -0.34    0.64
  -3  -7   1    0.71    0.59
  -2  -7   1    1.23    0.55
  -2  -7   1    1.46    0.54
  -1  -7   1  172.28    3.10
  -1  -7   1  170.01    3.14
   0  -7   1  110.64    2.27
   0  -7   1  113.41    2.07
   1  -7   1  279.02    4.36
   1  -7   1  280.19    3.78
  -2   7  -1   16.27    0.70
   2  -7   1   14.90    0.86
  -3   7  -1    0.72    0.28
   3  -7   1    0.99    0.43
  -4   7  -1    0.12    0.27
   4  -7   1    0.26    0.44
   5  -7   1   52.38    2.02
   6  -7   1   -0.18    0.53
  -5  -6   1    0.83    0.81
  -4  -6   1    8.67    1.21
  -3  -6   1    9.88    0.95
  -3  -6   1    7.39    0.95
  -2  -6   1   59.06    1.60
  -2  -6   1   64.49    1.92
  -1  -6   1    2.03    0.44
  -1  -6   1    1.98    0.43
   0  -6   1   40.94    1.05
   0  -6   1   41.83    1.19
   1  -6   1   41.27    1.21
   1  -6   1   40.71    0.86
  -2   6  -1  186.20    2.80
   2  -6   1  184.96    3.25
  -3   6  -1   78.16    1.58
   3  -6   1   80.49    2.05
  -4   6  -1    0.33    0.27
   4  -6   1    0.39    0.45
   5  -6   1    2.75    0.65
   6  -6   1    4.67    0.90
  -5  -5   1    8.03    1.19
  -4  -5   1    1.26    0.51
  -4  -5   1    1.89    0.79
  -3  -5   1  372.25    6.13
  -3  -5   1  364.90    5.35
  -2  -5   1   78.04    1.72
  -2  -5   1   80.60    2.07
  -1  -5   1  132.84    2.32
  -1  -5   1  133.30    2.46
   0  -5   1    1.43    0.31
   0  -5   1    1.31    0.24
  -1   5  -1  482.87    6.00
   1  -5   1  473.71    6.28
   1  -5   1  461.93    5.71
  -2   5  -1  577.91    7.32
   2  -5   1  592.70    7.83
  -3   5  -1  405.97    5.43
   3  -5   1  410.94    6.06
  -4   5  -1   16.86    0.76
   4  -5   1   16.16    1.00
  -5   5  -1   11.79    0.74
   5  -5   1   11.19    1.04
   6  -5   1    7.23    1.00
  -6  -4   1   -0.27    0.83
  -5  -4   1    0.51    0.70
  -4  -4   1   21.29    1.04
  -4  -4   1   23.68    1.53
  -3  -4   1   58.28    1.47
  -3  -4   1   51.58    1.82
  -2  -4   1 1166.56   14.32
  -2  -4   1 1199.04   14.97
  -1  -4   1   48.30    1.13
  -1  -4   1   46.68    1.23
   0  -4   1   52.79    1.13
   0  -4   1   52.29    1.02
  -1   4  -1  190.98    2.64
   1  -4   1  188.65    2.85
  -2   4  -1 1295.03   15.80
   2  -4   1 1272.10   15.63
  -3   4  -1  230.04    3.38
   3  -4   1  232.46    3.83
  -4   4  -1  108.92    2.11
   4  -4   1  110.92    2.52
  -5   4  -1    0.27    0.32
   5  -4   1   -0.46    0.42
   6  -4   1   13.32    1.25
  -6  -3   1   -0.05    0.74
  -5  -3   1   19.38    1.31
  -5  -3   1   19.21    1.47
  -4  -3   1   73.29    1.80
  -4  -3   1   73.60    2.32
  -3  -3   1   57.91    1.86
  -3  -3   1   57.69    1.40
  -2  -3   1  143.71    2.31
  -1  -3   1    3.11    0.35
   0  -3   1  507.49    6.22
   0  -3   1  495.57    6.09
  -1   3  -1  428.79    5.31
   1  -3   1  432.41    5.50
  -2   3  -1  453.80    5.66
   2  -3   1  441.66    5.95
  -3   3  -1  212.18    3.16
   3  -3   1  206.39    3.46
  -4   3  -1   31.51    1.04
   4  -3   1   32.30    1.26
  -5   3  -1    3.40    0.67
  -5   3  -1    3.84    0.52
   5  -3   1    2.89    0.63
  -6   3  -1   -0.16    0.40
  -6  -2   1   15.43    1.49
  -5  -2   1   11.59    1.25
  -5  -2   1   12.08    0.90
  -4  -2   1   44.87    1.39
  -3  -2   1   99.04    1.93
  -2  -2   1 1143.05   14.48
  -1  -2   1 9999.00  137.03
   0   2  -1  370.42    4.45
   0  -2   1  362.12    4.51
  -1   2  -1    2.96    0.21
  -2   2  -1    3.63    0.30
   2  -2   1    4.41    0.35
   3  -2   1  155.50    2.73
  -4   2  -1   11.41    0.85
   4  -2   1   11.58    0.77
  -5   2  -1   18.78    1.21
   5  -2   1   18.04    1.11
  -6   2  -1    0.14    0.63
  -6   2  -1    0.10    0.36
  -6  -1   1    0.58    0.81
  -5  -1   1    1.70    0.67
  -5  -1   1    1.61    0.51
  -4  -1   1  108.88    2.32
  -3  -1   1   15.85    0.75
  -2  -1   1   40.75    0.99
  -1  -1   1 4954.27   73.32
   0  -1   1 1141.49   21.01
   1  -1   1   93.31    1.39
   2  -1   1   98.02    1.69
  -3   1  -1   23.35    0.99
   3  -1   1   24.05    0.89
  -4   1  -1    2.89    0.55
   4  -1   1    3.39    0.50
  -5   1  -1    9.06    1.01
  -5   1  -1    8.86    0.80
  -6   1  -1    0.11    0.58
  -7   0   1    5.55    1.22
  -6   0   1    2.00    0.60
  -6   0   1    1.08    0.80
  -5   0   1   47.01    1.61
  -4   0   1   33.28    1.28
  -3   0   1   16.15    0.79
   2   0  -1  997.63   12.14
   1   0  -1  464.89    5.72
  -1   0  -1    6.32    0.34
   1   0   1    6.00    0.26
  -2   0  -1    2.36    0.35
   2   0   1    1.76    0.25
  -3   0  -1  139.74    2.70
  -3   0  -1  132.38    2.31
  -4   0  -1   34.42    1.42
  -4   0  -1   35.03    1.15
  -5   0  -1    2.26    0.66
  -6   0  -1    6.76    1.06
  -7   1   1   -0.67    0.77
  -6   1   1    1.29    0.54
  -5   1   1    0.64    0.51
   4  -1  -1  473.03    6.88
   3  -1  -1  110.63    2.24
   2  -1  -1  161.65    2.58
   1  -1  -1 1154.32   14.65
   1  -1  -1 1147.81   14.33
   0  -1  -1  441.34    5.52
   0  -1  -1  447.05    5.93
  -1  -1  -1 3141.35   44.01
  -1  -1  -1 2989.46   37.24
  -2  -1  -1   99.43    1.60
  -2  -1  -1   98.97    1.97
  -3  -1  -1    4.67    0.43
  -3  -1  -1    4.00    0.54
  -4  -1  -1   16.48    0.82
  -4  -1  -1   15.21    1.06
  -5  -1  -1    6.56    0.92
  -6  -1  -1    8.65    1.20
  -6   2   1    7.76    0.96
   5  -2  -1   -0.31    0.40
   4  -2  -1   56.58    1.71
   3  -2  -1   85.01    1.92
   2  -2  -1   27.38    0.87
  -2   2   1   28.01    0.57
   1  -2  -1  540.15    6.72
   1  -2  -1  539.19    6.74
   0  -2  -1 2290.90   27.50
   0  -2  -1 2265.25   27.65
  -1  -2  -1  236.05    3.40
  -1  -2  -1  237.16    3.03
  -2  -2  -1    0.36    0.28
  -2  -2  -1    0.88    0.19
  -3  -2  -1   24.07    0.79
  -3  -2  -1   22.64    1.10
  -4  -2  -1    0.70    0.51
  -5  -2  -1   16.08    1.40
  -6  -2  -1    1.96    0.91
  -7   3   1    4.88    0.89
   6  -3  -1    6.73    0.97
   5  -3  -1   22.04    1.31
   4  -3  -1   10.58    0.83
  -4   3   1   10.20    0.56
   3  -3  -1   14.75    0.82
   2  -3  -1   37.00    1.07
   2  -3  -1   35.54    0.90
  -2   3   1   35.22    0.68
   1  -3  -1 3548.71   43.31
   1  -3  -1 3466.92   59.97
   0  -3  -1 2298.31   28.26
   0  -3  -1 2326.12   28.52
  -1  -3  -1    6.49    0.48
  -1  -3  -1    6.88    0.40
  -2  -3  -1   69.70    1.81
  -2  -3  -1   70.44    1.34
  -3  -3  -1    8.73    0.57
  -3  -3  -1    7.81    0.80
  -4  -3  -1   14.52    1.16
  -5  -3  -1    0.35    0.66
  -6  -3  -1   16.08    1.68
   7  -4  -1   -0.09    0.61
   6  -4  -1   15.77    1.29
   5  -4  -1   17.92    1.24
   4  -4  -1  101.59    2.50
  -4   4   1  100.83    1.80
   3  -4  -1  103.77    2.30
  -3   4   1  102.23    1.64
   2  -4  -1   42.84    1.23
   2  -4  -1   41.89    0.99
  -2   4   1   42.71    0.81
   1  -4  -1   19.76    0.73
   1  -4  -1   19.81    0.63
   0  -4  -1  290.00    3.99
   0  -4  -1  292.89    3.95
  -1  -4  -1   36.34    0.94
  -1  -4  -1   35.03    1.08
  -2  -4  -1    3.41    0.42
  -2  -4  -1    2.82    0.51
  -3  -4  -1   57.02    1.40
  -3  -4  -1   58.39    1.96
  -4  -4  -1    0.73    0.60
  -5  -4  -1    8.87    1.21
   7  -5  -1   -0.38    0.61
   6  -5  -1   -0.07    0.59
   5  -5  -1   32.89    1.62
   4  -5  -1   49.33    1.73
   3  -5  -1  170.01    3.25
   3  -5  -1  170.16    2.84
  -3   5   1  171.37    2.47
   2  -5  -1  889.00   11.30
   2  -5  -1  874.72   10.76
   1  -5  -1  480.87    6.41
   1  -5  -1  473.42    6.11
   0  -5  -1    2.38    0.35
   0  -5  -1    2.32    0.34
  -1  -5  -1   10.19    0.69
  -1  -5  -1   10.37    0.62
  -2  -5  -1   40.14    1.18
  -2  -5  -1   39.93    1.51
  -3  -5  -1   10.94    1.06
  -4  -5  -1    5.79    0.99
  -5  -5  -1    6.17    1.11
   7  -6  -1   11.09    1.41
   6  -6  -1    3.58    0.82
   5  -6  -1   25.32    1.52
   4  -6  -1  150.75    3.33
   3  -6  -1    2.19    0.51
   3  -6  -1    2.03    0.35
  -3   6   1    2.39    0.30
   2  -6  -1   49.64    1.15
   2  -6  -1   48.21    1.45
   1  -6  -1   93.43    1.98
   1  -6  -1   90.45    1.72
   0  -6  -1    0.23    0.28
   0  -6  -1   -0.15    0.28
  -1  -6  -1   -0.18    0.33
  -1  -6  -1    0.34    0.33
  -2  -6  -1    6.51    0.79
  -2  -6  -1    8.42    0.77
  -3  -6  -1   28.61    1.54
  -4  -6  -1    0.66    0.75
  -5  -6  -1    3.09    0.94
   7  -7  -1    0.10    0.81
   6  -7  -1    4.27    0.91
   5  -7  -1   21.68    1.40
   4  -7  -1    4.37    0.70
   3  -7  -1    9.69    0.91
   2  -7  -1  166.64    2.69
   2  -7  -1  167.97    3.20
   1  -7  -1    1.68    0.42
   1  -7  -1    1.73    0.36
   0  -7  -1    1.60    0.39
   0  -7  -1    1.66    0.43
  -1  -7  -1   16.86    0.97
  -1  -7  -1   15.83    0.91
  -2  -7  -1  118.57    2.58
  -2  -7  -1  120.33    2.89
  -3  -7  -1    0.97    0.68
  -4  -7  -1   -0.22    0.78
   6  -8  -1    2.86    0.89
   5  -8  -1   13.34    1.20
   4  -8  -1    2.75    0.69
   3  -8  -1    0.61    0.44
   2  -8  -1    4.70    0.71
   1  -8  -1    5.14    0.54
   1  -8  -1    3.80    0.58
   0  -8  -1   50.95    1.55
   0  -8  -1   46.93    1.44
  -1  -8  -1    4.37    0.64
  -1  -8  -1    4.22    0.62
  -2  -8  -1   18.82    1.38
  -3  -8  -1   33.68    1.93
  -4  -8  -1    1.33    0.92
   6  -9  -1    2.86    0.86
   5  -9  -1    0.01    0.62
   4  -9  -1    3.23    0.75
   3  -9  -1   30.45    1.46
   2  -9  -1    0.41    0.46
   1  -9  -1    1.87    0.74
   1  -9  -1    2.37    0.56
   0  -9  -1   -0.40    0.39
   0  -9  -1    0.07    0.38
  -1  -9  -1    0.38    0.52
  -1  -9  -1   -0.20    0.45
  -2  -9  -1   27.20    1.67
  -3  -9  -1    1.33    0.90
   5 -10  -1    1.27    0.67
   4 -10  -1   -0.10    0.59
   3 -10  -1    5.42    0.88
   2 -10  -1   12.94    1.05
   1 -10  -1   92.47    2.51
   0 -10  -1    2.27    0.61
   0 -10  -1    1.30    0.52
  -1 -10  -1    2.74    0.73
  -2 -10  -1    0.63    0.75
  -3 -10  -1    4.39    1.09
   5 -11  -1    0.17    0.62
   4 -11  -1    1.96    0.76
   3 -11  -1    5.82    0.91
   2 -11  -1   22.06    1.43
   1 -11  -1   16.20    1.18
   0 -11  -1   51.61    1.93
  -1 -11  -1    1.36    0.71
  -2 -11  -1    2.97    0.90
   4 -12  -1    0.53    0.74
   3 -12  -1    0.53    0.60
   2 -12  -1    1.64    0.72
   1 -12  -1   12.18    1.14
   3 -13  -1    1.45    0.71
   2 -13  -1   -0.06    0.63
   1 -13  -1    0.29    0.67
  -1 -13   2    1.60    0.68
   0 -13   2    1.18    0.63
   1 -13   2    4.75    0.88
   2 -13   2   10.63    1.27
   3 -13   2   -0.55    0.55
  -2 -12   2    3.18    1.06
  -1 -12   2    2.55    0.77
   0 -12   2    2.63    0.74
   1 -12   2    3.27    0.73
   2 -12   2   44.00    1.92
   3 -12   2   26.71    1.67
   4 -12   2    0.42    0.67
  -3 -11   2    8.08    1.22
  -2 -11   2    5.43    0.92
  -1 -11   2    0.41    0.57
   0 -11   2    6.50    0.86
   1 -11   2    1.47    0.58
   2 -11   2    6.47    0.95
   3 -11   2   19.84    1.35
   4 -11   2    0.43    0.57
   5 -11   2    5.28    0.99
  -3 -10   2    2.86    0.91
  -2 -10   2    0.67    0.64
  -2 -10   2    0.72    0.62
  -1 -10   2    7.73    0.91
   0 -10   2   -0.19    0.51
   1 -10   2   24.99    1.26
   2 -10   2   25.19    1.37
   3 -10   2   71.11    2.33
  -4  10  -2    6.00    0.65
   4 -10   2    4.90    0.86
   5 -10   2    0.40    0.57
   6 -10   2    3.43    0.96
  -4  -9   2    1.68    0.91
  -3  -9   2    3.00    0.83
  -3  -9   2    2.38    0.74
  -2  -9   2   25.56    1.47
  -2  -9   2   24.86    1.35
  -1  -9   2   65.25    1.94
  -1  -9   2   65.47    1.88
   0  -9   2   64.55    1.88
   1  -9   2   40.61    1.48
   2  -9   2   36.46    1.47
  -3   9  -2  104.75    2.18
   3  -9   2  104.89    2.70
  -4   9  -2   34.87    1.23
   4  -9   2   32.92    1.67
   5  -9   2    8.47    1.06
   6  -9   2    0.79    0.73
  -4  -8   2    0.63    0.79
  -3  -8   2   13.63    1.14
  -3  -8   2   16.87    1.46
  -2  -8   2    3.99    0.74
  -2  -8   2    2.67    0.66
  -1  -8   2    0.12    0.46
  -1  -8   2    0.29    0.39
   0  -8   2  116.98    2.50
   0  -8   2  116.85    2.17
   1  -8   2   10.00    0.83
  -2   8  -2   47.51    1.27
   2  -8   2   47.18    1.57
  -3   8  -2   38.03    1.18
   3  -8   2   37.39    1.49
  -4   8  -2   33.02    1.17
   4  -8   2   31.57    1.53
   5  -8   2    0.44    0.58
   6  -8   2    0.31    0.58
  -5  -7   2    3.05    1.05
  -4  -7   2   18.71    1.53
  -4  -7   2   17.22    1.20
  -3  -7   2   -0.33    0.59
  -3  -7   2    1.08    0.69
  -2  -7   2    7.39    0.83
  -2  -7   2    8.30    0.86
  -1  -7   2    8.79    0.78
  -1  -7   2    7.27    0.71
   0  -7   2  232.07    3.76
   0  -7   2  230.07    3.43
   1  -7   2    0.80    0.36
  -2   7  -2   10.01    0.61
   2  -7   2    9.26    0.72
  -3   7  -2    1.77    0.34
   3  -7   2    2.31    0.51
  -4   7  -2   22.46    0.95
   4  -7   2   22.77    1.31
  -5   7  -2   -0.20    0.34
   5  -7   2    0.19    0.48
   6  -7   2   12.92    1.21
  -5  -6   2   14.06    1.50
  -4  -6   2   81.26    2.21
  -4  -6   2   89.27    2.88
  -3  -6   2  186.00    3.96
  -3  -6   2  182.40    3.32
  -2  -6   2    2.26    0.54
  -2  -6   2    2.11    0.54
  -1  -6   2  115.30    2.26
  -1  -6   2  112.56    2.30
   0  -6   2   20.95    0.86
   0  -6   2   20.03    0.69
  -1   6  -2  452.64    5.92
   1  -6   2  451.14    6.21
  -2   6  -2    1.21    0.29
   2  -6   2    1.16    0.36
  -3   6  -2   30.28    0.97
   3  -6   2   31.16    1.23
  -4   6  -2    0.41    0.30
   4  -6   2   -0.19    0.42
  -5   6  -2   18.35    0.95
   5  -6   2   18.23    1.19
   6  -6   2    0.49    0.66
  -6  -5   2    5.08    1.14
  -5  -5   2    5.14    1.07
  -4  -5   2   10.27    1.16
  -4  -5   2    9.59    0.90
  -3  -5   2   75.73    2.31
  -3  -5   2   79.54    1.87
  -2  -5   2  106.52    2.10
  -2  -5   2  109.61    2.51
  -1  -5   2   22.58    0.86
  -1  -5   2   24.78    0.96
   0  -5   2   27.50    0.75
   0  -5   2   28.42    0.89
  -1   5  -2   73.29    1.38
   1  -5   2   72.55    1.55
  -2   5  -2   39.55    1.00
   2  -5   2   40.01    1.19
  -3   5  -2    7.32    0.49
   3  -5   2    6.46    0.62
  -4   5  -2    0.65    0.31
   4  -5   2    0.21    0.42
  -5   5  -2    1.49    0.42
   5  -5   2    0.74    0.52
  -6  -4   2    0.79    0.84
  -5  -4   2    1.89    0.84
  -5  -4   2    2.21    0.59
  -4  -4   2   -0.02    0.42
  -4  -4   2    0.18    0.58
  -3  -4   2  391.53    5.56
  -2  -4   2 1045.08   12.83
  -1  -4   2  262.86    3.71
   0  -4   2  262.41    3.66
  -1   4  -2  181.48    2.60
   1  -4   2  177.78    2.73
  -2   4  -2  166.10    2.53
   2  -4   2  163.96    2.74
  -3   4  -2    4.43    0.40
  -3   4  -2    4.36    0.41
   3  -4   2    4.35    0.52
  -4   4  -2   25.10    0.96
  -4   4  -2   26.18    1.22
   4  -4   2   25.04    1.15
  -5   4  -2   12.07    0.85
   5  -4   2   10.13    0.98
  -6   4  -2    4.75    0.70
  -6  -3   2    1.21    0.93
  -5  -3   2    8.91    0.87
  -5  -3   2    8.72    1.14
  -4  -3   2   19.13    0.95
  -3  -3   2   51.47    1.34
  -2  -3   2 1764.26   21.85
  -1  -3   2 1427.06   18.28
   0   3  -2   83.87    1.35
   0  -3   2   83.38    1.43
  -1   3  -2    1.47    0.19
   1  -3   2    1.10    0.22
  -2   3  -2  231.37    3.03
  -2   3  -2  225.72    3.24
   2  -3   2  226.62    3.37
  -3   3  -2    1.18    0.29
  -3   3  -2    0.78    0.26
   3  -3   2    1.28    0.33
  -4   3  -2    1.18    0.37
  -4   3  -2    0.40    0.36
   4  -3   2    0.72    0.38
  -5   3  -2   -0.87    0.42
  -5   3  -2    0.06    0.38
   5  -3   2   -1.09    0.43
  -6   3  -2   20.45    1.16
  -6  -2   2    0.71    0.64
  -6  -2   2    0.33    0.85
  -5  -2   2   19.09    1.07
  -4  -2   2    4.80    0.60
  -3  -2   2   89.90    1.88
  -2  -2   2  204.90    3.06
  -1  -2   2  188.27    2.62
   0  -2   2   83.60    1.29
  -1   2  -2   24.36    0.60
   1  -2   2   23.92    0.59
  -2   2  -2  560.69    6.98
  -2   2  -2  566.42    7.11
   2  -2   2  554.82    7.08
  -3   2  -2  372.89    5.22
   3  -2   2  367.75    5.20
  -4   2  -2    0.10    0.35
   4  -2   2   -0.06    0.28
  -5   2  -2    2.28    0.64
  -6   2  -2    0.89    0.46
  -7  -1   2   -0.34    0.87
  -6  -1   2   12.17    1.06
  -5  -1   2   53.95    1.78
  -4  -1   2   25.99    1.11
  -3  -1   2    2.23    0.40
  -2  -1   2   56.20    1.24
  -1  -1   2 1524.55   18.87
   0   1  -2 1245.57   15.18
   0  -1   2 1215.34   15.05
  -1   1  -2   55.78    0.96
   1  -1   2   56.36    0.91
  -2   1  -2  111.59    1.92
   2  -1   2  108.77    1.78
  -3   1  -2  117.40    2.31
   3  -1   2  115.41    2.11
  -4   1  -2   18.40    1.06
  -4   1  -2   19.32    0.88
  -5   1  -2    4.29    0.71
  -6   1  -2    1.71    0.73
  -7   0   2   -0.04    0.88
  -6   0   2    0.36    0.46
  -5   0   2  248.40    4.40
  -4   0   2    5.60    0.68
  -3   0   2    4.48    0.57
   2   0  -2   43.17    1.10
   1   0  -2   36.67    0.86
   1   0  -2   37.15    0.84
   0   0  -2  678.23    8.56
   0   0   2  643.32    8.11
  -1   0  -2  254.62    3.42
   1   0   2  256.83    3.09
  -2   0  -2  480.26    6.31
  -2   0  -2  468.30    5.87
  -3   0  -2   14.09    0.61
  -3   0  -2   14.90    0.81
  -4   0  -2   13.93    1.01
  -5   0  -2    3.13    0.73
  -6   0  -2    1.95    0.80
  -7   1   2    4.41    1.01
  -7   1   2    3.52    1.02
  -6   1   2   -0.21    0.50
  -5   1   2   18.21    1.14
   4  -1  -2  245.00    4.24
   3  -1  -2    3.40    0.49
   2  -1  -2  115.43    2.08
   1  -1  -2 2792.87   34.52
   1  -1  -2 2789.00   34.38
   0  -1  -2  863.63   10.30
   0  -1  -2  859.70   10.69
  -1  -1  -2  247.27    2.99
  -1  -1  -2  250.07    3.47
  -2  -1  -2    0.74    0.27
  -2  -1  -2    0.52    0.16
  -3  -1  -2   76.29    1.46
  -3  -1  -2   77.52    1.99
  -4  -1  -2    0.90    0.53
  -5  -1  -2    3.59    0.81
  -6  -1  -2    3.36    0.92
  -7   2   2   12.37    1.15
  -6   2   2    1.15    0.56
   5  -2  -2  105.88    2.75
   4  -2  -2   47.70    1.64
   3  -2  -2   22.94    1.01
  -3   2   2   23.51    0.60
   2  -2  -2   34.76    0.97
   2  -2  -2   34.07    1.02
   1  -2  -2  557.14    6.99
   1  -2  -2  559.01    6.92
   0  -2  -2  341.34    4.46
   0  -2  -2  345.12    4.27
  -1  -2  -2   98.96    1.82
  -1  -2  -2   99.36    1.43
  -2  -2  -2  118.01    1.77
  -2  -2  -2  118.17    2.33
  -3  -2  -2    0.41    0.22
  -3  -2  -2    0.48    0.36
  -4  -2  -2   -0.48    0.49
  -5  -2  -2    7.70    1.03
  -6  -2  -2    0.95    0.75
  -7   3   2    4.36    0.91
   6  -3  -2   13.46    1.32
   5  -3  -2    2.62    0.66
   4  -3  -2  114.74    2.64
  -4   3   2  107.23    2.39
   3  -3  -2  444.37    6.44
  -3   3   2  449.82    5.47
   2  -3  -2  192.38    3.14
   2  -3  -2  192.37    2.95
   1  -3  -2  424.72    5.47
   1  -3  -2  423.75    5.57
   0  -3  -2  456.60    5.90
   0  -3  -2  460.48    5.73
  -1  -3  -2  285.82    3.69
  -1  -3  -2  282.79    4.16
  -2  -3  -2   15.04    0.58
  -2  -3  -2   14.63    0.84
  -3  -3  -2    0.34    0.41
  -4  -3  -2    7.70    0.99
  -5  -3  -2    0.38    0.65
  -6  -3  -2    0.82    0.81
   7  -4  -2   16.43    1.47
   6  -4  -2   26.10    1.67
   5  -4  -2   57.94    2.05
   4  -4  -2    2.23    0.56
   3  -4  -2   40.25    1.37
   3  -4  -2   40.51    1.21
  -3   4   2   40.30    0.78
   2  -4  -2    3.10    0.36
   2  -4  -2    2.93    0.44
   1  -4  -2  267.87    3.79
   1  -4  -2  273.42    3.92
   0  -4  -2   16.14    0.67
   0  -4  -2   16.39    0.60
  -1  -4  -2   16.53    0.85
  -1  -4  -2   17.36    0.62
  -2  -4  -2   42.74    1.08
  -2  -4  -2   41.28    1.46
  -3  -4  -2   -0.16    0.44
  -4  -4  -2    4.90    0.84
  -5  -4  -2    0.54    0.78
   7  -5  -2    4.92    1.03
   6  -5  -2   17.41    1.47
   5  -5  -2   23.66    1.40
   4  -5  -2    6.35    0.80
   3  -5  -2    4.56    0.64
   3  -5  -2    5.03    0.52
  -3   5   2    4.84    0.33
   2  -5  -2   31.84    1.14
   2  -5  -2   31.77    0.95
   1  -5  -2  192.33    3.14
   1  -5  -2  197.79    3.03
   0  -5  -2  164.24    2.72
   0  -5  -2  160.38    2.60
  -1  -5  -2  131.01    2.23
  -1  -5  -2  132.39    2.58
  -2  -5  -2    0.54    0.45
  -2  -5  -2    1.11    0.43
  -3  -5  -2    4.79    0.77
  -4  -5  -2   -0.34    0.66
  -5  -5  -2    0.93    0.87
   7  -6  -2    0.43    0.75
   6  -6  -2   33.62    1.82
   5  -6  -2    0.10    0.52
   4  -6  -2    6.63    0.87
   3  -6  -2   52.46    1.71
   3  -6  -2   51.82    1.42
   2  -6  -2  277.84    4.47
   2  -6  -2  278.86    4.09
   1  -6  -2  161.39    2.87
   1  -6  -2  161.23    2.72
   0  -6  -2    7.03    0.57
   0  -6  -2    7.54    0.66
  -1  -6  -2  123.64    2.57
  -1  -6  -2  119.60    2.24
  -2  -6  -2   49.06    1.82
  -3  -6  -2    1.04    0.63
  -4  -6  -2   -0.21    0.63
   6  -7  -2    1.78    0.79
   5  -7  -2    9.90    1.09
   4  -7  -2   84.07    2.46
   3  -7  -2    5.85    0.78
   3  -7  -2    7.06    0.92
   2  -7  -2    0.96    0.32
   2  -7  -2    0.48    0.42
   1  -7  -2   53.01    1.52
   1  -7  -2   54.16    1.45
   0  -7  -2    7.01    0.66
   0  -7  -2    6.37    0.59
  -1  -7  -2    0.91    0.46
  -1  -7  -2    0.78    0.41
  -2  -7  -2   35.66    1.62
  -3  -7  -2   -0.30    0.70
  -4  -7  -2    0.25    0.84
   6  -8  -2    1.24    0.75
   5  -8  -2    5.82    0.95
   4  -8  -2    7.62    0.97
   3  -8  -2   25.36    1.33
   2  -8  -2  471.82    7.06
   2  -8  -2  470.57    6.52
   1  -8  -2    6.95    0.75
   1  -8  -2    8.41    0.81
   0  -8  -2    0.78    0.42
   0  -8  -2    0.48    0.42
  -1  -8  -2    4.03    0.67
  -2  -8  -2    2.97    0.82
  -3  -8  -2    3.45    0.90
  -4  -8  -2    1.00    0.86
   6  -9  -2    1.84    0.81
   5  -9  -2   20.26    1.47
   4  -9  -2   22.26    1.41
   3  -9  -2   38.70    1.66
   2  -9  -2   56.70    1.90
   1  -9  -2  220.93    3.84
   1  -9  -2  229.13    4.14
   0  -9  -2    7.92    0.83
   0  -9  -2    8.68    0.83
  -1  -9  -2    0.07    0.56
  -2  -9  -2   12.74    1.43
  -3  -9  -2    3.16    0.95
   5 -10  -2    0.88    0.65
   4 -10  -2    0.60    0.59
   3 -10  -2    5.45    0.86
   2 -10  -2   39.52    1.67
   1 -10  -2    6.33    0.86
   0 -10  -2    2.19    0.63
   0 -10  -2    1.40    0.63
  -1 -10  -2    8.26    0.99
  -2 -10  -2   13.23    1.38
   5 -11  -2   23.96    1.68
   4 -11  -2    4.45    0.96
   3 -11  -2    0.31    0.60
   2 -11  -2    6.27    0.90
   1 -11  -2   37.25    1.73
  -1 -11  -2   11.83    1.27
  -2 -11  -2    4.18    1.03
   4 -12  -2    4.90    0.99
   3 -12  -2    3.62    0.89
   2 -12  -2    1.16    0.62
   1 -12  -2    3.12    0.82
   3 -13  -2    2.50    0.84
   2 -13  -2    2.46    0.83
  -1 -13   3    2.05    0.75
   0 -13   3    0.48    0.67
   1 -13   3   19.62    1.49
   2 -13   3    7.61    1.11
   3 -13   3    0.28    0.67
  -2 -12   3    1.07    0.73
  -1 -12   3    1.10    0.72
   0 -12   3    0.72    0.58
   1 -12   3   14.67    1.20
   2 -12   3    1.62    0.67
   3 -12   3    0.04    0.54
   4 -12   3    2.36    0.80
  -3 -11   3    0.75    0.82
  -3 -11   3    0.05    0.81
  -2 -11   3   12.83    1.34
  -1 -11   3    0.34    0.59
   0 -11   3    0.39    0.52
   1 -11   3    3.29    0.70
   2 -11   3  127.21    3.19
   3 -11   3    1.38    0.63
  -4  11  -3    0.51    0.47
   4 -11   3    0.81    0.59
   5 -11   3    9.15    1.28
  -3 -10   3    2.54    0.90
  -3 -10   3    3.62    0.91
  -2 -10   3    4.47    0.83
  -2 -10   3    2.67    0.78
  -1 -10   3   13.97    1.11
   0 -10   3    0.15    0.53
   1 -10   3    6.56    0.82
   2 -10   3    5.00    0.81
  -3  10  -3  104.74    2.32
   3 -10   3  101.36    2.78
  -4  10  -3    7.79    0.74
   4 -10   3   10.88    1.20
   5 -10   3    7.97    1.10
   6 -10   3    1.01    0.83
  -4  -9   3    4.49    1.09
  -3  -9   3   -0.48    0.64
  -3  -9   3   -0.22    0.64
  -2  -9   3    9.47    1.07
  -2  -9   3   10.00    1.04
  -1  -9   3    5.98    0.72
  -1  -9   3    7.05    0.84
   0  -9   3    0.44    0.47
   1  -9   3    2.70    0.57
  -2   9  -3   83.17    1.92
   2  -9   3   79.71    2.19
  -3   9  -3    0.09    0.34
   3  -9   3   -0.40    0.41
  -4   9  -3   23.35    1.06
   4  -9   3   23.93    1.45
  -5   9  -3   -0.13    0.38
   5  -9   3    0.78    0.60
   6  -9   3    6.71    1.12
  -5  -8   3    3.41    1.06
  -4  -8   3   24.37    1.83
  -4  -8   3   22.00    1.52
  -3  -8   3    5.33    0.98
  -3  -8   3    6.81    0.90
  -2  -8   3    0.62    0.55
  -2  -8   3   -0.20    0.43
  -1  -8   3   -0.38    0.33
  -1  -8   3    0.11    0.47
   0  -8   3   28.57    1.20
   1  -8   3   11.51    0.82
  -2   8  -3    9.75    0.66
   2  -8   3   10.52    0.82
  -3   8  -3    1.27    0.42
   3  -8   3    0.62    0.52
  -4   8  -3   50.09    1.51
   4  -8   3   48.87    1.90
  -5   8  -3    2.33    0.53
   5  -8   3    2.89    0.72
  -5  -7   3   -0.17    0.81
  -4  -7   3    9.37    1.29
  -4  -7   3   10.28    1.07
  -3  -7   3    2.68    0.77
  -3  -7   3    1.35    0.65
  -2  -7   3    3.04    0.62
  -2  -7   3    2.42    0.65
  -1  -7   3   49.71    1.51
  -1  -7   3   48.53    1.48
   0  -7   3   80.33    1.88
   0  -7   3   81.10    1.61
  -1   7  -3    1.33    0.35
   1  -7   3    0.72    0.38
  -2   7  -3   32.28    1.02
   2  -7   3   31.85    1.20
  -3   7  -3   10.44    0.69
   3  -7   3   10.22    0.88
  -4   7  -3    0.81    0.40
   4  -7   3    0.19    0.48
  -5   7  -3   10.26    0.83
   5  -7   3   10.80    1.08
  -5  -6   3    9.63    1.29
  -5  -6   3    7.80    0.97
  -4  -6   3    8.48    1.17
  -4  -6   3   10.03    1.01
  -3  -6   3   21.26    1.49
  -3  -6   3   23.76    1.20
  -2  -6   3    1.17    0.45
  -2  -6   3    0.39    0.51
  -1  -6   3   19.83    0.90
  -1  -6   3   19.27    0.93
   0  -6   3  171.73    2.90
   0  -6   3  170.55    2.63
  -1   6  -3  438.44    5.78
   1  -6   3  428.11    5.98
  -2   6  -3   45.45    1.18
   2  -6   3   45.82    1.36
  -3   6  -3    7.36    0.55
   3  -6   3    7.57    0.73
  -4   6  -3    0.28    0.31
   4  -6   3   -1.07    0.40
  -5   6  -3   -0.13    0.36
   5  -6   3    0.24    0.42
  -6   6  -3    0.05    0.42
  -6  -5   3   10.19    1.49
  -5  -5   3    0.86    0.77
  -5  -5   3   -0.39    0.52
  -4  -5   3    5.99    0.77
  -4  -5   3    5.06    0.93
  -3  -5   3  161.01    3.00
  -2  -5   3    3.13    0.46
  -1  -5   3   18.48    0.78
   0  -5   3   34.84    1.02
  -1   5  -3  397.68    5.25
   1  -5   3  391.36    5.37
  -2   5  -3   30.71    0.93
   2  -5   3   28.93    1.00
  -3   5  -3   25.74    0.91
   3  -5   3   25.88    1.04
  -4   5  -3   92.93    2.07
   4  -5   3   92.75    2.32
  -5   5  -3   55.31    1.67
   5  -5   3   56.89    2.23
  -6   5  -3    4.42    0.69
  -6  -4   3    0.04    0.77
  -5  -4   3    0.45    0.46
  -5  -4   3   -0.12    0.65
  -4  -4   3   70.67    1.90
  -3  -4   3   14.21    0.83
  -2  -4   3   87.41    1.78
  -1  -4   3  269.70    3.82
   0   4  -3  389.32    5.08
   0  -4   3  396.45    5.20
  -1   4  -3    6.53    0.39
   1  -4   3    6.81    0.45
  -2   4  -3  173.12    2.73
   2  -4   3  172.12    2.82
  -3   4  -3    4.52    0.44
  -3   4  -3    4.44    0.37
   3  -4   3    5.26    0.54
  -4   4  -3    5.84    0.60
   4  -4   3    5.11    0.65
  -5   4  -3   61.90    1.82
  -6   4  -3    3.41    0.68
  -6  -3   3    0.55    0.59
  -6  -3   3    2.92    1.02
  -5  -3   3    7.98    0.90
  -4  -3   3    3.53    0.57
  -3  -3   3   19.73    0.86
  -2  -3   3   83.80    1.68
  -1  -3   3    0.72    0.22
   0   3  -3   73.45    1.27
   0  -3   3   73.17    1.31
  -1   3  -3  161.74    2.41
   1  -3   3  161.52    2.38
  -2   3  -3   10.24    0.41
  -2   3  -3   10.27    0.52
   2  -3   3    9.41    0.51
  -3   3  -3    1.49    0.28
  -3   3  -3    2.26    0.37
   3  -3   3    2.53    0.38
  -4   3  -3    0.08    0.30
  -4   3  -3    0.06    0.33
   4  -3   3    0.12    0.34
  -5   3  -3   24.55    1.20
  -6   3  -3    0.58    0.52
  -6  -2   3   11.99    1.10
  -5  -2   3   42.70    1.63
  -4  -2   3   40.20    1.39
  -3  -2   3   18.11    0.83
  -2  -2   3   72.27    1.51
  -1  -2   3  172.73    2.50
   0   2  -3  612.22    7.32
   0   2  -3  599.97    7.31
   0  -2   3  602.53    7.34
  -1   2  -3  125.74    1.79
  -1   2  -3  125.48    1.96
   1  -2   3  125.33    1.82
  -2   2  -3   18.91    0.70
  -2   2  -3   17.61    0.61
   2  -2   3   17.90    0.61
  -3   2  -3    0.02    0.23
  -3   2  -3   -0.06    0.22
   3  -2   3    0.41    0.24
  -4   2  -3    4.65    0.58
  -5   2  -3   37.49    1.55
  -5   2  -3   38.66    1.59
  -6   2  -3   29.30    1.51
  -7  -1   3    1.73    0.99
  -6  -1   3   17.40    1.18
  -5  -1   3   29.40    1.36
  -4  -1   3  129.33    2.69
  -3  -1   3   82.76    1.84
  -2  -1   3  641.16    8.17
   1   1  -3   43.92    1.03
  -1  -1   3   43.38    0.93
   0   1  -3  145.38    2.05
   0   1  -3  146.10    1.98
   0  -1   3  137.84    1.88
  -1   1  -3    0.71    0.17
  -1   1  -3    0.38    0.16
   1  -1   3    0.36    0.10
  -2   1  -3   -0.05    0.17
   2  -1   3    0.18    0.15
  -3   1  -3   -0.06    0.26
   3  -1   3    0.17    0.22
  -4   1  -3    4.53    0.59
  -5   1  -3    0.39    0.48
  -6   1  -3   22.08    1.55
  -7   0   3    0.63    0.67
  -6   0   3    9.57    0.99
  -5   0   3  118.49    2.77
  -4   0   3   32.37    1.28
  -3   0   3   61.88    1.60
  -2   0   3  128.63    2.25
   1   0  -3   88.03    1.58
  -1   0   3   85.04    1.47
   0   0  -3  395.84    4.99
   0   0   3  387.89    4.99
  -1   0  -3   36.11    0.89
  -2   0  -3   28.47    0.61
  -2   0  -3   28.85    0.94
  -3   0  -3   58.12    1.62
  -3   0  -3   60.59    1.21
  -4   0  -3    3.13    0.56
  -5   0  -3    0.42    0.53
  -6   0  -3    0.23    0.71
  -7   1   3    2.90    0.82
  -6   1   3   14.76    1.22
  -5   1   3   37.36    1.60
   4  -1  -3    1.41    0.49
   3  -1  -3  796.89   10.44
   2  -1  -3  101.03    1.98
   2  -1  -3   99.03    1.95
   1  -1  -3  122.11    2.00
   1  -1  -3  122.11    1.95
   0  -1  -3   62.96    0.98
   0  -1  -3   63.72    1.25
  -1  -1  -3   14.18    0.59
  -2  -1  -3   33.74    1.08
  -2  -1  -3   32.88    0.63
  -3  -1  -3   47.04    1.51
  -4  -1  -3   11.42    0.97
  -5  -1  -3    0.18    0.55
  -6  -1  -3    1.67    0.89
  -7   2   3    2.04    0.77
  -6   2   3   53.43    2.01
   5  -2  -3   70.24    2.22
   4  -2  -3  100.59    2.48
   3  -2  -3  149.08    2.89
  -3   2   3  153.65    2.01
   2  -2  -3  267.19    3.98
   2  -2  -3  259.20    3.90
   1  -2  -3 2478.41   31.93
   1  -2  -3 2552.27   31.05
   0  -2  -3  206.23    2.70
   0  -2  -3  197.41    2.99
  -1  -2  -3   12.25    0.64
  -1  -2  -3   12.18    0.33
  -2  -2  -3   93.21    2.06
  -2  -2  -3   90.28    1.41
  -3  -2  -3   11.96    0.89
  -4  -2  -3    3.07    0.71
  -5  -2  -3    0.00    0.69
  -6  -2  -3    1.29    0.89
  -7   3   3   19.29    1.44
   6  -3  -3    2.77    0.80
   5  -3  -3   -0.07    0.58
   4  -3  -3    1.37    0.52
   3  -3  -3  199.37    3.57
   3  -3  -3  201.80    3.45
   2  -3  -3  401.65    5.63
   2  -3  -3  394.24    5.48
   1  -3  -3  325.75    4.53
   1  -3  -3  330.25    4.54
   0  -3  -3    0.56    0.26
   0  -3  -3    0.75    0.20
  -1  -3  -3  249.50    3.82
  -1  -3  -3  246.18    3.24
  -2  -3  -3   20.68    1.04
  -3  -3  -3   -0.28    0.38
  -4  -3  -3    0.62    0.62
  -5  -3  -3    3.89    0.90
   7  -4  -3    1.22    0.77
   6  -4  -3   52.11    2.25
   5  -4  -3    6.12    0.95
   4  -4  -3   99.34    2.55
   3  -4  -3    2.81    0.50
   3  -4  -3    2.27    0.40
   2  -4  -3  289.67    4.45
   2  -4  -3  289.49    4.25
   1  -4  -3  841.40   10.53
   1  -4  -3  844.90   10.55
   0  -4  -3 1227.78   15.13
   0  -4  -3 1253.30   14.84
  -1  -4  -3  198.83    3.36
  -1  -4  -3  197.81    2.83
  -2  -4  -3   10.51    0.84
  -3  -4  -3    0.68    0.58
  -4  -4  -3   16.37    1.33
  -5  -4  -3    2.47    0.92
   7  -5  -3    5.46    1.07
   6  -5  -3    1.42    0.72
   5  -5  -3    2.17    0.71
   4  -5  -3   98.08    2.60
   3  -5  -3  240.52    3.93
   3  -5  -3  235.99    4.20
   2  -5  -3  103.61    2.07
   2  -5  -3  106.19    2.30
   1  -5  -3  152.43    2.67
   1  -5  -3  151.09    2.64
   0  -5  -3    6.31    0.61
   0  -5  -3    5.34    0.47
  -1  -5  -3  513.54    7.16
  -1  -5  -3  502.91    6.56
  -2  -5  -3    7.01    0.83
  -3  -5  -3    0.28    0.58
  -4  -5  -3    0.32    0.65
  -5  -5  -3    3.71    1.10
   7  -6  -3   -0.22    0.79
   6  -6  -3    8.32    1.16
   5  -6  -3    1.49    0.66
   4  -6  -3  134.79    2.90
   4  -6  -3  137.05    3.22
   3  -6  -3  131.09    2.62
   3  -6  -3  132.98    2.93
   2  -6  -3  288.83    4.41
   2  -6  -3  294.91    4.73
   1  -6  -3   27.46    1.08
   1  -6  -3   33.82    1.13
   0  -6  -3   30.68    1.20
   0  -6  -3   28.58    1.01
  -1  -6  -3   54.41    1.67
  -2  -6  -3    0.21    0.56
  -3  -6  -3   -1.12    0.60
  -4  -6  -3   -0.28    0.68
   6  -7  -3    5.54    1.01
   5  -7  -3   19.46    1.46
   4  -7  -3    2.01    0.68
   3  -7  -3  884.84   12.00
   3  -7  -3  872.01   11.43
   2  -7  -3  253.53    4.05
   2  -7  -3  252.39    4.36
   1  -7  -3    0.44    0.39
   1  -7  -3    0.05    0.32
   0  -7  -3   32.85    1.17
   0  -7  -3   32.76    1.32
  -1  -7  -3   31.02    1.36
  -2  -7  -3   58.76    2.14
  -3  -7  -3    1.42    0.82
  -4  -7  -3    0.67    0.89
   6  -8  -3    0.54    0.74
   5  -8  -3   -0.64    0.49
   4  -8  -3   10.20    1.05
   3  -8  -3   25.33    1.37
   2  -8  -3  507.37    7.51
   2  -8  -3  502.69    7.12
   1  -8  -3   18.90    1.03
   1  -8  -3   19.66    1.08
   0  -8  -3   -0.10    0.35
   0  -8  -3   -0.58    0.43
  -1  -8  -3    2.33    0.63
  -2  -8  -3    0.62    0.78
  -3  -8  -3    3.31    0.95
   6  -9  -3    7.66    1.21
   5  -9  -3    0.53    0.62
   4  -9  -3    6.81    1.00
   3  -9  -3   37.61    1.69
   2  -9  -3   84.81    2.37
   1  -9  -3   19.09    1.12
   1  -9  -3   20.44    1.19
   0  -9  -3    1.56    0.64
  -1  -9  -3    7.75    1.00
  -2  -9  -3    0.13    0.78
  -3  -9  -3    5.94    1.22
   5 -10  -3    6.34    1.06
   4 -10  -3    3.31    0.86
   3 -10  -3   13.87    1.29
   2 -10  -3   63.92    2.19
   1 -10  -3  155.32    3.76
   1 -10  -3  166.23    3.53
   0 -10  -3   31.80    1.63
  -1 -10  -3   11.67    1.37
  -2 -10  -3    4.29    0.98
   5 -11  -3    5.77    1.75
   4 -11  -3    1.54    0.75
   3 -11  -3    1.32    0.66
   2 -11  -3    9.77    1.13
   0 -11  -3    4.09    0.98
  -1 -11  -3    3.74    0.94
   4 -12  -3    2.48    0.80
   3 -12  -3    3.09    0.89
   2 -12  -3    1.75    0.72
  -1 -13   4    3.56    0.86
   0 -13   4    1.36    0.76
   1 -13   4   26.18    1.59
   2 -13   4   -0.15    0.58
   3 -13   4   -0.66    0.57
  -2 -12   4    0.33    0.77
  -1 -12   4    0.85    0.74
   0 -12   4    5.80    0.92
   1 -12   4    1.36    0.66
   2 -12   4   34.87    1.80
   3 -12   4    0.62    0.60
  -4  12  -4    2.22    0.59
   4 -12   4    3.63    0.85
  -3 -11   4    4.87    1.57
  -3 -11   4    3.10    0.91
  -2 -11   4    2.32    0.81
  -1 -11   4    0.13    0.61
   0 -11   4   -0.01    0.53
   1 -11   4   22.55    1.40
   2 -11   4   12.95    1.12
  -3  11  -4   15.55    0.99
   3 -11   4   17.02    1.34
  -4  11  -4   24.52    1.27
   4 -11   4   23.18    1.58
   5 -11   4    7.88    1.20
  -4 -10   4    0.56    0.78
  -4 -10   4   -0.02    0.88
  -3 -10   4    0.62    0.67
  -3 -10   4   -0.01    0.71
  -2 -10   4    5.74    0.98
  -2 -10   4    5.33    0.99
  -1 -10   4   15.48    1.18
   0 -10   4    2.83    0.67
   1 -10   4    2.39    0.64
   2 -10   4    0.99    0.55
  -3  10  -4    1.19    0.46
   3 -10   4    0.70    0.54
  -4  10  -4    6.48    0.77
   4 -10   4    6.14    0.92
  -5  10  -4    5.15    0.74
   5 -10   4    4.93    0.91
  -4  -9   4    1.35    0.90
  -4  -9   4    0.15    0.82
  -3  -9   4   12.78    1.38
  -3  -9   4   12.42    1.32
  -2  -9   4    1.26    0.60
  -2  -9   4    1.75    0.68
  -1  -9   4   15.91    1.10
   0  -9   4    2.84    0.65
   1  -9   4    1.02    0.52
  -2   9  -4   48.54    1.48
   2  -9   4   50.19    1.72
  -3   9  -4    0.16    0.43
   3  -9   4    1.22    0.54
  -4   9  -4    9.64    0.86
   4  -9   4    9.63    0.99
  -5   9  -4    1.52    0.56
   5  -9   4    1.50    0.62
  -5  -8   4    0.01    0.86
  -4  -8   4   -0.65    0.79
  -4  -8   4   -0.87    0.69
  -3  -8   4   -1.32    0.50
  -3  -8   4    0.31    0.60
  -2  -8   4   55.62    1.96
  -2  -8   4   60.16    1.92
  -1  -8   4    5.50    0.67
  -1  -8   4    7.97    0.85
   0  -8   4   44.66    1.53
  -1   8  -4   63.87    1.62
   1  -8   4   66.13    1.82
  -2   8  -4   17.17    0.86
   2  -8   4   16.83    0.98
  -3   8  -4    9.24    0.81
   3  -8   4    8.15    0.94
  -4   8  -4   20.98    1.09
   4  -8   4   21.47    1.32
  -5   8  -4    4.00    0.64
   5  -8   4    4.67    0.84
  -5  -7   4    0.16    0.74
  -5  -7   4    2.11    1.02
  -4  -7   4   10.78    1.38
  -4  -7   4   11.01    1.15
  -3  -7   4    4.33    0.77
  -3  -7   4    2.63    0.75
  -2  -7   4    1.61    0.58
  -2  -7   4    1.13    0.51
  -1  -7   4   51.33    1.53
  -1  -7   4   50.72    1.54
   0  -7   4    1.48    0.44
   0  -7   4    1.18    0.32
  -1   7  -4    2.50    0.40
   1  -7   4    2.18    0.49
  -2   7  -4    4.88    0.52
   2  -7   4    4.66    0.58
  -3   7  -4  149.61    2.79
   3  -7   4  145.83    3.07
  -4   7  -4  120.95    2.58
   4  -7   4  118.37    2.88
  -5   7  -4    1.67    0.53
  -6   7  -4   -0.24    0.41
  -5  -6   4   -0.90    0.79
  -5  -6   4   -0.52    0.52
  -4  -6   4    0.98    0.61
  -3  -6   4    6.99    0.78
  -2  -6   4    0.75    0.40
  -1  -6   4   37.56    1.23
   0  -6   4   44.28    1.31
  -1   6  -4    6.60    0.49
   1  -6   4    6.39    0.57
  -2   6  -4   38.24    1.13
   2  -6   4   37.43    1.22
  -3   6  -4  113.38    2.27
   3  -6   4  109.83    2.44
  -4   6  -4  146.07    2.86
   4  -6   4  143.37    3.12
  -5   6  -4    8.28    0.82
  -6   6  -4   -0.19    0.46
  -6  -5   4   -0.91    0.52
  -6  -5   4    1.28    0.90
  -5  -5   4   -0.24    0.49
  -4  -5   4    3.12    0.65
  -3  -5   4    1.66    0.47
  -2  -5   4    9.06    0.69
  -1  -5   4   12.70    0.68
   0   5  -4    0.96    0.27
   0  -5   4    2.02    0.39
  -1   5  -4   17.00    0.68
   1  -5   4   16.17    0.71
  -2   5  -4    0.62    0.23
   2  -5   4   -0.03    0.25
  -3   5  -4   24.61    0.96
   3  -5   4   24.17    1.03
  -4   5  -4    4.09    0.61
   4  -5   4    3.03    0.64
  -5   5  -4    3.73    0.66
  -6   5  -4    0.12    0.43
  -6  -4   4    3.10    0.77
  -6  -4   4    4.70    1.12
  -5  -4   4    0.29    0.47
  -4  -4   4    9.55    0.88
  -3  -4   4    4.55    0.55
  -2  -4   4    0.11    0.26
  -1  -4   4   42.98    1.09
   0   4  -4  101.95    1.77
   0  -4   4  106.11    1.86
  -1   4  -4  555.21    7.11
   1  -4   4  554.80    7.08
  -2   4  -4   40.19    0.82
  -2   4  -4   39.87    1.11
   2  -4   4   40.38    1.10
  -3   4  -4    2.12    0.37
  -3   4  -4    2.03    0.37
   3  -4   4    1.71    0.38
  -4   4  -4   72.80    1.91
  -5   4  -4   37.84    1.55
  -6   4  -4    8.89    0.99
  -6  -3   4    4.40    0.81
  -5  -3   4   16.50    1.08
  -4  -3   4   10.84    0.89
  -3  -3   4    0.62    0.34
  -2  -3   4  115.91    2.12
  -1  -3   4    1.10    0.27
   0   3  -4   68.27    1.27
   0   3  -4   66.06    1.25
   0  -3   4   68.51    1.29
  -1   3  -4  352.87    4.46
  -1   3  -4  354.56    4.75
   1  -3   4  357.22    4.63
  -2   3  -4    3.24    0.38
  -2   3  -4    3.46    0.34
   2  -3   4    3.25    0.35
  -3   3  -4   -0.18    0.24
  -3   3  -4    0.33    0.24
   3  -3   4    0.15    0.24
  -4   3  -4   47.21    1.45
  -4   3  -4   46.95    1.55
  -5   3  -4  108.15    2.65
  -6   3  -4    7.79    0.95
  -6  -2   4   22.02    1.32
  -5  -2   4    0.55    0.48
  -4  -2   4   11.88    0.87
  -3  -2   4   18.16    0.87
  -2  -2   4    5.88    0.48
   1   2  -4   23.37    0.58
   1   2  -4   21.84    0.77
  -1  -2   4   21.96    0.66
   0   2  -4  142.21    2.10
   0   2  -4  142.46    2.17
   0  -2   4  144.90    2.05
  -1   2  -4  183.72    2.75
   1  -2   4  182.73    2.50
  -2   2  -4   24.47    0.76
  -2   2  -4   24.67    0.86
   2  -2   4   24.36    0.70
  -3   2  -4   16.52    0.78
  -3   2  -4   15.48    0.81
   3  -2   4   16.77    0.71
  -4   2  -4   -0.14    0.34
  -5   2  -4   27.70    1.74
  -5   2  -4   26.01    1.34
  -6   2  -4    2.08    0.62
  -7  -1   4   -0.81    0.61
  -6  -1   4    0.77    0.62
  -5  -1   4   -0.39    0.43
  -4  -1   4   91.22    2.22
  -3  -1   4   18.54    0.87
  -2  -1   4  644.87    8.30
   1   1  -4   16.36    0.65
   1   1  -4   16.04    0.42
  -1  -1   4   15.51    0.56
   0   1  -4  120.68    1.79
   0   1  -4  121.51    1.91
   0  -1   4  111.11    1.63
  -1   1  -4   96.34    1.72
  -1   1  -4   93.57    1.66
   1  -1   4   94.41    1.32
  -2   1  -4  219.77    3.33
   2  -1   4  219.98    2.91
  -3   1  -4   48.40    1.41
  -4   1  -4    3.79    0.57
  -5   1  -4   10.20    1.10
  -7   0   4   12.10    1.29
  -6   0   4    0.87    0.59
  -5   0   4    3.48    0.72
  -4   0   4    0.97    0.43
  -3   0   4   68.45    1.72
   2   0  -4  970.03   12.36
  -2   0   4  993.03   12.19
   1   0  -4  268.34    3.29
   1   0  -4  266.09    3.82
  -1   0   4  263.16    3.64
   0   0  -4   10.18    0.50
   0   0  -4    9.45    0.39
   0   0   4    9.11    0.29
  -1   0  -4   32.72    0.93
  -2   0  -4  267.24    4.06
  -2   0  -4  273.02    3.27
  -3   0  -4   19.42    0.99
  -4   0  -4    1.14    0.48
  -5   0  -4   10.39    1.08
  -6   0  -4   10.66    1.26
  -7   1   4   -0.27    0.58
  -6   1   4    7.02    1.00
  -5   1   4   10.23    0.94
   4  -1  -4   42.87    1.57
   3  -1  -4    5.85    0.62
   2  -1  -4   59.26    1.51
   2  -1  -4   60.38    1.47
   1  -1  -4  298.09    4.24
   1  -1  -4  297.97    3.80
   1  -1  -4  304.23    4.11
   0  -1  -4    4.78    0.25
   0  -1  -4    5.33    0.44
  -1  -1  -4    3.54    0.41
  -2  -1  -4    1.38    0.35
  -3  -1  -4   10.40    0.82
  -4  -1  -4   19.78    1.29
  -5  -1  -4    1.44    0.75
  -6  -1  -4   -0.86    0.79
  -7   2   4   10.28    1.23
  -6   2   4   29.32    1.66
   5  -2  -4  120.03    3.09
   4  -2  -4    9.76    0.94
   3  -2  -4   50.95    1.55
   3  -2  -4   53.32    1.57
   2  -2  -4  199.36    3.25
   2  -2  -4  193.90    3.25
   1  -2  -4 1385.13   16.47
   1  -2  -4 1370.52   17.87
   0  -2  -4    4.69    0.51
   0  -2  -4    4.61    0.29
  -1  -2  -4    9.31    0.64
  -1  -2  -4    9.33    0.25
  -2  -2  -4   43.95    1.39
  -3  -2  -4   55.31    1.79
  -4  -2  -4    1.63    0.68
  -5  -2  -4   11.03    1.27
  -7   3   4    2.06    0.79
   6  -3  -4    7.24    1.08
   5  -3  -4  198.00    4.20
   4  -3  -4  106.42    2.66
   3  -3  -4   25.75    1.12
   3  -3  -4   26.61    1.10
   2  -3  -4    1.72    0.33
   2  -3  -4    1.35    0.35
   1  -3  -4  231.63    3.59
   1  -3  -4  231.40    3.46
   0  -3  -4  953.25   12.08
   0  -3  -4  984.87   11.65
  -1  -3  -4   29.72    0.67
  -1  -3  -4   32.33    1.10
  -2  -3  -4    6.14    0.68
  -3  -3  -4   36.96    1.61
  -4  -3  -4    8.22    1.06
  -5  -3  -4    0.84    0.83
   7  -4  -4    0.68    0.73
   6  -4  -4    1.85    0.78
   5  -4  -4   71.02    2.38
   4  -4  -4   10.26    1.00
   4  -4  -4   11.80    1.03
   3  -4  -4   35.15    1.30
   3  -4  -4   35.83    1.37
   2  -4  -4   16.30    0.82
   2  -4  -4   12.68    0.80
   1  -4  -4    0.68    0.29
   1  -4  -4    0.56    0.30
   0  -4  -4   19.51    0.70
   0  -4  -4   20.15    0.97
  -1  -4  -4    2.02    0.50
  -2  -4  -4    7.88    0.89
  -3  -4  -4    0.70    0.54
  -4  -4  -4    2.53    0.79
  -5  -4  -4    0.54    0.78
   7  -5  -4    7.12    1.42
   6  -5  -4   39.70    2.06
   5  -5  -4   53.52    2.10
   4  -5  -4  473.68    7.40
   4  -5  -4  463.68    7.10
   3  -5  -4  150.85    2.97
   3  -5  -4  154.81    3.20
   2  -5  -4   56.91    1.53
   2  -5  -4   57.92    1.64
   1  -5  -4   63.95    1.58
   1  -5  -4   65.94    1.67
   0  -5  -4   99.26    2.20
   0  -5  -4   94.81    1.86
  -1  -5  -4   11.40    0.93
  -2  -5  -4   -0.14    0.49
  -3  -5  -4    0.53    0.59
  -4  -5  -4   -0.70    0.72
   6  -6  -4    3.63    0.96
   5  -6  -4    4.07    0.84
   4  -6  -4   36.80    1.65
   4  -6  -4   35.35    1.49
   3  -6  -4  450.70    6.94
   3  -6  -4  447.04    6.62
   2  -6  -4    5.03    0.68
   2  -6  -4    3.60    0.50
   1  -6  -4   16.84    0.87
   1  -6  -4   17.04    0.98
   0  -6  -4   30.34    1.05
   0  -6  -4   31.98    1.29
  -1  -6  -4    7.72    0.86
  -2  -6  -4    7.23    0.90
  -3  -6  -4    1.61    0.73
  -4  -6  -4   -0.84    0.70
   6  -7  -4    4.53    1.04
   5  -7  -4    3.18    0.85
   4  -7  -4    4.95    0.89
   3  -7  -4    0.82    0.48
   3  -7  -4    0.46    0.57
   2  -7  -4   27.06    1.19
   2  -7  -4   25.39    1.24
   1  -7  -4    2.84    0.54
   1  -7  -4    4.69    0.64
   0  -7  -4   15.94    1.12
  -1  -7  -4    2.54    0.66
  -2  -7  -4    2.20    0.77
  -3  -7  -4    0.64    0.82
   6  -8  -4    4.12    0.97
   5  -8  -4    5.36    0.95
   4  -8  -4    0.40    0.54
   3  -8  -4   71.13    2.02
   3  -8  -4   71.40    2.25
   2  -8  -4  120.31    2.88
   2  -8  -4  119.32    2.66
   1  -8  -4   13.97    1.04
   1  -8  -4   13.48    0.95
   0  -8  -4   14.06    1.07
  -1  -8  -4   10.87    1.23
  -2  -8  -4    5.30    0.95
  -3  -8  -4    5.42    1.17
   5  -9  -4    0.85    0.68
   4  -9  -4    3.26    0.82
   3  -9  -4   86.71    2.58
   2  -9  -4   19.61    1.20
   2  -9  -4   19.71    1.23
   1  -9  -4   30.22    1.46
   1  -9  -4   28.24    1.45
   0  -9  -4    0.61    0.62
  -1  -9  -4    1.54    0.81
  -2  -9  -4    0.95    0.79
   5 -10  -4    0.93    0.69
   4 -10  -4   22.65    1.51
   3 -10  -4   21.75    1.51
   2 -10  -4    5.93    0.91
   1 -10  -4    4.85    0.83
   0 -10  -4    2.80    0.82
  -1 -10  -4    0.11    0.84
   4 -11  -4    0.93    0.74
   3 -11  -4   38.20    1.94
   2 -11  -4    8.76    1.07
   0 -11  -4   22.11    1.67
  -1 -11  -4   -1.36    0.89
   3 -12  -4   -0.45    0.67
  -1 -13   5   12.84    1.37
   0 -13   5   11.56    1.26
   1 -13   5   65.75    2.47
   2 -13   5    1.18    0.68
   3 -13   5    4.96    0.93
  -4  13  -5    1.92    0.67
  -2 -12   5   10.69    1.30
  -1 -12   5    1.43    0.77
   0 -12   5   12.10    1.20
   1 -12   5    0.67    0.61
   2 -12   5   24.70    1.58
   3 -12   5    0.40    0.56
  -4  12  -5    4.92    0.75
   4 -12   5    6.59    1.08
  -3 -11   5    9.25    1.25
  -2 -11   5    1.92    0.89
  -1 -11   5   20.62    1.41
   0 -11   5   58.06    2.14
   1 -11   5   10.62    1.06
   2 -11   5   -0.52    0.50
  -3  11  -5    0.66    0.52
   3 -11   5    1.48    0.62
  -4  11  -5    1.42    0.59
   4 -11   5    0.83    0.67
  -5  11  -5   56.03    1.98
   5 -11   5   53.92    2.35
  -4 -10   5    3.22    0.95
  -4 -10   5    4.98    1.54
  -3 -10   5    5.23    1.02
  -3 -10   5    2.71    0.89
  -2 -10   5   43.49    1.88
  -1 -10   5    8.49    0.99
   0 -10   5   59.11    1.96
   1 -10   5   53.58    1.89
  -2  10  -5   24.08    1.15
   2 -10   5   22.95    1.32
  -3  10  -5    2.85    0.60
   3 -10   5    3.47    0.73
  -4  10  -5    2.89    0.64
   4 -10   5    1.47    0.62
  -5  10  -5   -0.30    0.48
   5 -10   5    0.80    0.67
  -4  -9   5    2.96    0.99
  -4  -9   5    1.56    0.84
  -3  -9   5   16.19    1.31
  -3  -9   5   14.16    1.40
  -2  -9   5    2.66    0.71
  -2  -9   5    3.09    0.77
  -1  -9   5   25.67    1.33
   0  -9   5   19.39    1.14
   1  -9   5    2.26    0.59
  -2   9  -5   53.15    1.60
   2  -9   5   54.98    1.82
  -3   9  -5   18.39    1.09
   3  -9   5   19.10    1.24
  -4   9  -5   26.81    1.29
   4  -9   5   26.63    1.49
  -5   9  -5    6.32    0.79
  -6   9  -5    4.66    0.81
  -5  -8   5   -1.06    0.77
  -5  -8   5   -0.82    0.85
  -4  -8   5    5.44    0.94
  -4  -8   5    7.65    1.24
  -3  -8   5    7.23    0.95
  -3  -8   5    9.70    1.16
  -2  -8   5    0.13    0.54
  -2  -8   5   -1.05    0.51
  -1  -8   5   27.77    1.24
  -1  -8   5   27.49    1.29
   0  -8   5    2.06    0.55
  -1   8  -5   17.44    0.90
   1  -8   5   18.09    1.01
  -2   8  -5  424.54    6.10
   2  -8   5  421.43    6.37
  -3   8  -5  391.18    5.84
   3  -8   5  388.45    6.20
  -4   8  -5    1.37    0.48
   4  -8   5    2.07    0.61
  -5   8  -5    1.56    0.52
  -6   8  -5    2.02    0.64
  -5  -7   5    0.23    0.88
  -5  -7   5   -0.90    0.57
  -4  -7   5    0.44    0.58
  -3  -7   5    8.07    0.88
  -2  -7   5    4.88    0.70
  -1  -7   5    4.41    0.63
   0  -7   5   84.53    2.02
  -1   7  -5   13.76    0.78
   1  -7   5   13.04    0.83
  -2   7  -5   71.63    1.75
   2  -7   5   73.53    1.88
  -3   7  -5   58.35    1.69
   3  -7   5   62.16    1.89
  -4   7  -5  121.11    2.67
   4  -7   5  118.49    2.87
  -5   7  -5    4.94    0.70
  -6   7  -5   -0.35    0.49
  -5  -6   5    5.99    0.89
  -4  -6   5    0.09    0.56
  -3  -6   5   -0.17    0.45
  -2  -6   5    0.26    0.39
  -1  -6   5   32.67    1.17
   0   6  -5   16.80    0.75
   0  -6   5   17.63    0.86
  -1   6  -5    2.19    0.37
   1  -6   5    3.21    0.49
  -2   6  -5   35.72    1.15
   2  -6   5   35.25    1.21
  -3   6  -5  228.56    3.83
   3  -6   5  234.19    4.00
  -4   6  -5   13.68    1.06
  -5   6  -5    2.20    0.57
  -6   6  -5    1.91    0.59
  -6  -5   5    2.03    0.75
  -5  -5   5   -0.65    0.54
  -4  -5   5    9.07    0.85
  -3  -5   5   -0.03    0.42
  -2  -5   5    1.35    0.40
  -1  -5   5  127.36    2.34
   0   5  -5  450.30    5.96
   0  -5   5  447.87    6.07
  -1   5  -5  127.84    2.28
  -1   5  -5  126.04    1.87
   1  -5   5  126.52    2.29
  -2   5  -5    1.24    0.31
   2  -5   5    0.81    0.30
  -3   5  -5  122.12    2.48
   3  -5   5  123.02    2.48
  -4   5  -5  419.17    6.29
  -5   5  -5   11.10    1.00
  -6   5  -5    0.24    0.53
  -6  -4   5    6.11    0.91
  -5  -4   5    6.10    0.81
  -4  -4   5    1.73    0.54
  -3  -4   5    2.55    0.47
  -1  -4   5    1.85    0.35
   0   4  -5  115.59    1.98
   0   4  -5  113.63    1.98
   0  -4   5  117.04    2.02
  -1   4  -5  134.72    2.31
  -1   4  -5  134.86    2.03
   1  -4   5  136.48    2.26
  -2   4  -5   14.31    0.56
  -2   4  -5   14.54    0.71
   2  -4   5   14.65    0.66
  -3   4  -5   13.96    0.83
   3  -4   5   13.50    0.76
  -4   4  -5  127.73    2.82
  -5   4  -5    9.59    0.92
  -6   4  -5   -0.15    0.47
  -6  -3   5   13.20    1.20
  -5  -3   5    0.82    0.52
  -4  -3   5    2.06    0.51
  -3  -3   5    6.08    0.61
  -2  -3   5    1.92    0.38
   1   3  -5   26.53    0.96
   1   3  -5   27.65    0.76
  -1  -3   5   28.97    0.86
   0   3  -5 1015.58   12.22
   0   3  -5  998.56   12.16
   0  -3   5 1006.99   12.11
  -1   3  -5   10.54    0.49
  -1   3  -5   10.27    0.57
   1  -3   5    9.17    0.48
  -2   3  -5   32.98    0.92
  -2   3  -5   32.36    1.06
   2  -3   5   31.33    0.87
  -3   3  -5   12.48    0.78
  -3   3  -5   12.56    0.72
  -4   3  -5   35.96    1.48
  -5   3  -5   12.14    1.10
  -6   3  -5    0.67    0.54
  -6  -2   5    1.59    0.64
  -5  -2   5   17.17    1.13
  -4  -2   5   77.79    2.06
  -3  -2   5  320.90    4.91
  -2  -2   5    7.56    0.54
   1   2  -5   72.26    1.61
   1   2  -5   70.19    1.24
  -1  -2   5   70.24    1.38
   0   2  -5  664.92    8.24
   0   2  -5  668.28    8.38
   0  -2   5  674.10    8.38
  -1   2  -5 1291.66   16.17
  -1   2  -5 1278.73   15.49
   1  -2   5 1285.24   15.53
  -2   2  -5  162.52    2.66
  -2   2  -5  166.74    2.87
   2  -2   5  165.26    2.40
  -3   2  -5    7.99    0.66
  -3   2  -5    6.61    0.67
  -4   2  -5    4.97    0.66
  -4   2  -5    3.97    0.66
  -5   2  -5   23.85    1.31
  -6   2  -5    3.58    0.74
  -7  -1   5   -0.34    0.97
  -6  -1   5    4.16    0.82
  -5  -1   5    9.07    0.92
  -4  -1   5   10.10    0.84
  -3  -1   5  118.37    2.44
   2   1  -5  169.23    3.06
  -2  -1   5  161.28    2.77
   1   1  -5    8.14    0.57
   1   1  -5    9.19    0.37
  -1  -1   5    8.70    0.45
   0   1  -5  896.20   10.87
   0   1  -5  910.46   11.09
   0  -1   5  899.04   11.56
  -1   1  -5  467.55    6.14
  -1   1  -5  462.35    6.16
   1  -1   5  464.02    5.53
  -2   1  -5   47.67    1.27
  -3   1  -5    3.61    0.50
  -4   1  -5   15.40    1.07
  -5   1  -5    0.31    0.55
  -6   1  -5    2.18    0.66
  -7   0   5   -0.64    0.67
  -6   0   5    6.10    0.93
  -5   0   5   10.56    0.96
  -4   0   5    1.66    0.49
  -3   0   5  222.65    3.78
   2   0  -5   56.54    1.57
  -2   0   5   58.84    1.43
   1   0  -5   41.47    1.15
   1   0  -5   41.06    0.78
  -1   0   5   42.55    1.00
   0   0  -5   10.27    0.47
   0   0   5   11.03    0.34
  -1   0  -5  426.21    5.81
  -2   0  -5   74.33    1.72
  -3   0  -5   15.86    0.99
  -4   0  -5    2.46    0.63
  -5   0  -5   18.10    1.44
  -7   1   5    5.04    0.95
  -6   1   5   60.86    2.19
  -5   1   5    4.45    0.76
  -4   1   5    0.75    0.43
   3  -1  -5    7.05    0.67
   3  -1  -5    6.77    0.76
   2  -1  -5  491.51    6.92
   2  -1  -5  503.82    6.79
   1  -1  -5   99.93    1.98
   1  -1  -5  100.04    1.50
   1  -1  -5  102.37    1.81
   0  -1  -5   13.55    0.72
   0   1   5   13.03    0.40
  -1  -1  -5    1.48    0.35
  -2  -1  -5  156.67    2.91
  -3  -1  -5   43.79    1.59
  -4  -1  -5   45.94    1.86
  -5  -1  -5   -0.11    0.67
  -7   2   5    1.55    0.73
  -6   2   5   14.59    1.36
   5  -2  -5   10.40    1.14
   4  -2  -5   20.41    1.20
   3  -2  -5    2.56    0.50
   3  -2  -5    1.90    0.47
   2  -2  -5   36.91    1.23
   2  -2  -5   37.28    1.18
   1  -2  -5   58.45    1.30
   1  -2  -5   57.03    1.46
   0  -2  -5    3.44    0.31
   0  -2  -5    4.57    0.53
  -1  -2  -5   10.89    0.73
  -2  -2  -5    3.69    0.55
  -3  -2  -5    2.22    0.63
  -4  -2  -5    2.71    0.76
  -5  -2  -5    2.40    0.88
  -7   3   5    1.80    0.83
   6  -3  -5   62.54    2.44
   5  -3  -5   52.61    2.07
   4  -3  -5    0.97    0.47
   4  -3  -5   -0.11    0.56
   3  -3  -5   -0.33    0.38
   3  -3  -5    0.56    0.34
   2  -3  -5   65.90    1.70
   2  -3  -5   64.94    1.66
   1  -3  -5   28.15    0.91
   1  -3  -5   28.46    1.06
   0  -3  -5   16.03    0.58
   0  -3  -5   16.53    0.90
  -1  -3  -5    1.33    0.42
  -2  -3  -5   10.24    0.94
  -3  -3  -5    0.10    0.52
  -4  -3  -5   11.94    1.35
  -5  -3  -5    4.26    0.96
  -7   4   5    1.54    1.14
   6  -4  -5   17.43    1.56
   5  -4  -5  161.60    3.81
   4  -4  -5  356.87    5.88
   4  -4  -5  343.72    5.92
   3  -4  -5   27.89    1.26
   3  -4  -5   28.31    1.25
   2  -4  -5   12.84    0.78
   2  -4  -5   12.86    0.81
   1  -4  -5    0.91    0.32
   1  -4  -5    0.95    0.38
   0  -4  -5   27.93    1.18
   0  -4  -5   27.17    0.84
  -1  -4  -5    0.07    0.38
  -2  -4  -5   15.73    1.13
  -3  -4  -5   16.37    1.36
  -4  -4  -5   -0.18    0.74
   6  -5  -5    3.09    0.95
   5  -5  -5    0.77    0.64
   4  -5  -5  111.49    2.89
   4  -5  -5  108.12    2.74
   3  -5  -5   19.21    1.23
   3  -5  -5   22.29    1.16
   2  -5  -5    9.14    0.73
   2  -5  -5    8.67    0.78
   1  -5  -5   79.61    1.83
   1  -5  -5   81.62    2.03
   0  -5  -5   13.46    0.93
  -1  -5  -5    0.76    0.49
  -2  -5  -5    0.27    0.50
  -3  -5  -5    8.38    1.13
  -4  -5  -5    3.13    1.01
   6  -6  -5   14.41    1.40
   5  -6  -5    0.21    0.59
   4  -6  -5  153.12    3.40
   4  -6  -5  155.59    3.59
   3  -6  -5   13.41    1.17
   3  -6  -5   15.79    1.00
   2  -6  -5    2.41    0.55
   2  -6  -5    4.09    0.57
   1  -6  -5    1.00    0.50
   1  -6  -5    0.21    0.35
   0  -6  -5   59.50    1.86
  -1  -6  -5   53.24    1.84
  -2  -6  -5    2.02    0.69
  -3  -6  -5   -0.45    0.74
  -4  -6  -5    1.62    0.95
   6  -7  -5   15.58    1.49
   5  -7  -5    4.38    0.89
   4  -7  -5   34.84    1.69
   4  -7  -5   31.82    1.51
   3  -7  -5  174.36    3.53
   3  -7  -5  172.88    3.73
   2  -7  -5   23.85    1.19
   2  -7  -5   25.15    1.22
   1  -7  -5    0.05    0.36
   1  -7  -5    0.19    0.41
   0  -7  -5    1.10    0.58
  -1  -7  -5    7.88    1.03
  -2  -7  -5    6.95    1.01
  -3  -7  -5   -0.44    0.71
   6  -8  -5   -0.13    0.77
   5  -8  -5    6.38    1.09
   4  -8  -5   15.22    1.33
   3  -8  -5    2.62    0.74
   3  -8  -5    3.72    0.64
   2  -8  -5   13.83    1.10
   2  -8  -5   14.76    1.08
   1  -8  -5    2.49    0.63
   0  -8  -5   12.13    1.21
  -1  -8  -5    0.09    0.73
  -2  -8  -5    5.56    1.12
   5  -9  -5    1.33    0.74
   4  -9  -5    0.20    0.58
   3  -9  -5   17.14    1.25
   2  -9  -5   55.24    2.01
   2  -9  -5   54.49    1.92
   1  -9  -5   17.29    1.29
   0  -9  -5   -0.06    0.59
  -1  -9  -5    2.58    0.98
  -2  -9  -5   -0.80    0.80
   5 -10  -5    0.44    0.75
   4 -10  -5    0.99    0.67
   1 -10  -5    7.54    1.01
   0 -10  -5    6.69    1.07
  -1 -10  -5   -0.46    0.79
   4 -11  -5    0.66    0.67
   3 -11  -5   10.39    1.16
   0 -11  -5   -0.91    0.73
   0 -13   6   11.39    1.27
   1 -13   6   27.68    1.74
   2 -13   6    3.90    0.91
   3 -13   6    1.33    0.71
  -4  13  -6   11.31    1.15
  -2 -12   6    8.85    1.29
  -1 -12   6   35.40    1.90
   0 -12   6    2.95    0.83
   1 -12   6   12.44    1.21
   2 -12   6   -0.05    0.51
  -3  12  -6   13.14    1.14
   3 -12   6   15.77    1.28
  -4  12  -6   13.96    1.20
   4 -12   6   15.75    1.42
  -3 -11   6    2.64    1.00
  -2 -11   6    9.22    1.19
  -1 -11   6   20.57    1.43
   0 -11   6    9.55    1.12
   1 -11   6   28.12    1.52
  -2  11  -6   20.27    1.15
   2 -11   6   19.90    1.37
  -3  11  -6   -0.50    0.46
   3 -11   6    0.00    0.47
  -4  11  -6    4.26    0.72
   4 -11   6    5.43    0.94
  -5  11  -6    0.41    0.60
  -4 -10   6    0.94    0.87
  -3 -10   6   -0.06    0.73
  -3 -10   6    0.78    0.78
  -2 -10   6    5.28    0.95
  -1 -10   6   46.90    1.86
   0 -10   6    2.80    0.70
   1 -10   6  161.02    3.43
  -2  10  -6   70.66    1.98
   2 -10   6   73.17    2.26
  -3  10  -6    0.53    0.47
   3 -10   6    0.30    0.46
  -4  10  -6   14.61    1.13
   4 -10   6   16.30    1.30
  -5  10  -6    2.77    0.72
  -4  -9   6    4.08    0.97
  -4  -9   6    4.56    1.09
  -3  -9   6    0.42    0.72
  -3  -9   6   -0.10    0.70
  -2  -9   6    1.42    0.68
  -2  -9   6    1.68    0.67
  -1  -9   6    1.18    0.63
   0  -9   6   84.96    2.28
  -1   9  -6  158.27    3.08
   1  -9   6  157.85    3.25
  -2   9  -6  137.21    2.82
   2  -9   6  135.49    3.02
  -3   9  -6   -0.13    0.45
   3  -9   6    0.30    0.49
  -4   9  -6    5.39    0.74
   4  -9   6    6.52    0.87
  -5   9  -6   12.63    1.05
  -5  -8   6    1.00    0.93
  -4  -8   6    0.64    0.68
  -4  -8   6    1.75    0.86
  -3  -8   6    0.69    0.70
  -2  -8   6    2.31    0.67
  -1  -8   6   99.21    2.43
   0  -8   6    1.60    0.56
  -1   8  -6    3.05    0.52
   1  -8   6    3.27    0.60
  -2   8  -6    1.61    0.54
   2  -8   6    3.04    0.58
  -3   8  -6   26.45    1.21
   3  -8   6   27.57    1.34
  -4   8  -6   50.60    1.73
  -5   8  -6    0.62    0.54
  -5  -7   6   -0.53    0.70
  -4  -7   6    1.22    0.70
  -3  -7   6   -0.62    0.53
  -2  -7   6   43.56    1.60
  -1  -7   6   56.00    1.68
   0   7  -6   11.13    0.77
   0  -7   6    9.58    0.83
  -1   7  -6  126.57    2.46
   1  -7   6  126.61    2.57
  -2   7  -6  358.84    5.42
   2  -7   6  364.68    5.52
  -3   7  -6   98.84    2.38
   3  -7   6   98.71    2.42
  -4   7  -6    8.35    0.81
  -5   7  -6   -0.09    0.47
  -6   7  -6    4.41    0.78
  -5  -6   6    3.77    0.89
  -4  -6   6    1.66    0.62
  -3  -6   6    0.49    0.46
  -2  -6   6   50.68    1.59
  -1  -6   6   38.63    1.31
   0   6  -6    0.28    0.31
   0  -6   6    0.29    0.39
  -1   6  -6   32.20    1.09
   1  -6   6   32.27    1.15
  -2   6  -6   72.27    1.79
   2  -6   6   75.16    1.81
  -3   6  -6  835.27   10.99
   3  -6   6  832.96   11.00
  -4   6  -6    0.08    0.43
  -5   6  -6    1.30    0.54
  -6   6  -6    0.61    0.58
  -6  -5   6   -0.70    0.66
  -5  -5   6   -0.74    0.56
  -4  -5   6   -0.21    0.44
  -3  -5   6    2.20    0.56
  -2  -5   6   24.80    1.04
  -1  -5   6    9.84    0.68
   0   5  -6   27.44    0.90
   0  -5   6   25.49    0.98
  -1   5  -6   85.33    1.81
  -1   5  -6   84.51    1.54
   1  -5   6   84.62    1.77
  -2   5  -6   88.94    1.97
   2  -5   6   92.79    1.93
  -3   5  -6    3.05    0.60
  -4   5  -6   34.94    1.41
  -5   5  -6    1.91    0.58
  -6   5  -6   -0.16    0.46
  -6  -4   6   -0.01    0.59
  -5  -4   6   12.72    1.06
  -4  -4   6    4.73    0.69
  -3  -4   6   24.89    1.08
  -2  -4   6   20.20    0.88
   1   4  -6  541.77    7.07
  -1  -4   6  563.99    7.26
   0   4  -6  272.40    4.01
   0   4  -6  280.45    3.99
   0  -4   6  274.04    3.96
  -1   4  -6    2.67    0.36
  -1   4  -6    2.37    0.30
   1  -4   6    2.98    0.38
  -2   4  -6  109.01    1.91
  -2   4  -6  106.51    2.20
   2  -4   6  109.57    2.02
  -3   4  -6  247.78    4.15
  -4   4  -6   49.69    1.70
  -5   4  -6    2.04    0.64
  -6   4  -6   -0.13    0.56
  -6  -3   6    0.42    0.60
  -5  -3   6   11.76    1.09
  -4  -3   6   21.77    1.13
  -3  -3   6    0.81    0.43
  -2  -3   6   32.44    1.06
   1   3  -6    0.85    0.23
   1   3  -6    0.39    0.28
   0   3  -6 1916.64   23.75
   0   3  -6 1889.79   23.97
   0  -3   6 1882.32   40.09
  -1   3  -6   99.91    1.92
  -1   3  -6   95.40    1.78
   1  -3   6   96.45    1.67
  -2   3  -6   16.61    0.81
  -3   3  -6    5.01    0.57
  -3   3  -6    4.46    0.61
  -4   3  -6    2.01    0.55
  -5   3  -6   34.86    1.59
  -6   3  -6    0.47    0.56
  -6  -2   6    0.63    0.59
  -5  -2   6    1.78    0.62
  -4  -2   6    2.58    0.60
  -3  -2   6    6.49    0.64
   2   2  -6   13.72    0.88
  -2  -2   6   14.55    0.72
   1   2  -6  211.25    3.48
   1   2  -6  215.02    3.00
  -1  -2   6  211.59    3.13
   0   2  -6  123.61    2.07
   0  -2   6  123.21    1.91
  -1   2  -6   23.03    0.86
  -1   2  -6   22.87    0.87
   1  -2   6   23.31    0.61
  -2   2  -6   59.73    1.57
  -2   2  -6   58.39    1.47
  -3   2  -6    4.63    0.58
  -3   2  -6    2.53    0.53
  -4   2  -6    4.33    0.67
  -4   2  -6    3.58    0.66
  -5   2  -6   10.24    1.08
  -6  -1   6    4.88    0.87
  -5  -1   6    4.04    0.79
  -4  -1   6    0.81    0.46
  -3  -1   6   11.13    0.77
   2   1  -6   30.07    1.18
  -2  -1   6   29.38    1.02
   1   1  -6   26.30    0.67
   1   1  -6   25.17    0.96
  -1  -1   6   25.24    0.77
   0   1  -6  315.62    4.29
   0   1  -6  320.57    4.55
   0  -1   6  307.63    4.00
  -1   1  -6  497.96    6.67
  -1   1  -6  498.16    6.70
  -2   1  -6   15.85    0.83
  -2   1  -6   16.54    0.86
  -3   1  -6   10.61    0.85
  -4   1  -6   47.05    1.75
  -5   1  -6    3.17    0.72
  -6   0   6    3.75    0.90
  -5   0   6    2.48    0.64
  -4   0   6   33.93    1.39
   3   0  -6   16.27    1.08
  -3   0   6   16.31    0.89
   2   0  -6   11.16    0.77
  -2   0   6   10.48    0.62
   1   0  -6    0.20    0.27
   1   0  -6    0.31    0.14
  -1   0   6    0.27    0.21
   0   0  -6   34.12    0.92
   0   0  -6   35.48    1.14
   0   0   6   34.45    0.69
  -1   0  -6   26.19    1.04
  -2   0  -6  158.97    2.96
  -3   0  -6    0.71    0.47
  -4   0  -6   10.01    1.13
  -5   0  -6    4.36    0.86
  -6   1   6    2.01    0.75
  -5   1   6    7.00    0.90
  -4   1   6    1.78    0.54
   3  -1  -6  180.42    3.60
  -3   1   6  186.66    3.41
   2  -1  -6   66.55    1.79
   2  -1  -6   65.76    1.64
   1  -1  -6    1.37    0.20
   1  -1  -6    1.12    0.35
  -1   1   6    1.94    0.31
   0  -1  -6    3.22    0.46
   0   1   6    2.73    0.24
  -1  -1  -6    3.01    0.50
  -2  -1  -6    4.79    0.63
  -3  -1  -6    3.01    0.67
  -4  -1  -6    0.90    0.62
  -5  -1  -6   17.92    1.59
  -6   2   6   39.25    1.87
  -5   2   6   19.05    1.26
   4  -2  -6    2.89    0.62
   4  -2  -6    1.00    0.62
   3  -2  -6   10.15    0.81
   3  -2  -6    9.37    0.90
   2  -2  -6   44.67    1.36
   2  -2  -6   46.81    1.51
   1  -2  -6  272.13    4.31
   1  -2  -6  272.75    3.95
   0  -2  -6  246.22    4.02
   0  -2  -6  251.76    3.35
  -1  -2  -6   23.50    1.15
  -2  -2  -6   16.52    1.04
  -3  -2  -6    5.14    0.78
  -4  -2  -6    1.10    0.73
  -5  -2  -6    0.03    0.73
  -6   3   6   11.49    1.21
   5  -3  -6   84.88    2.64
   4  -3  -6   44.97    1.77
   4  -3  -6   41.47    1.73
   3  -3  -6    4.84    0.65
   3  -3  -6    5.83    0.75
   2  -3  -6   14.05    0.84
   2  -3  -6   14.29    0.93
   1  -3  -6   19.46    0.98
   1  -3  -6   20.11    0.80
   0  -3  -6   18.44    0.99
  -1  -3  -6   45.41    1.60
  -2  -3  -6   10.09    0.96
  -3  -3  -6   20.34    1.42
  -4  -3  -6    2.90    0.84
   6  -4  -6    8.16    1.19
   5  -4  -6    5.60    0.95
   4  -4  -6   22.71    1.42
   4  -4  -6   24.87    1.42
   3  -4  -6   33.77    1.45
   3  -4  -6   35.25    1.47
   2  -4  -6   18.37    1.06
   2  -4  -6   18.24    0.96
   1  -4  -6    8.82    0.81
   1  -4  -6    9.01    0.64
   0  -4  -6   26.57    1.20
  -1  -4  -6   10.53    0.95
  -2  -4  -6   12.23    1.09
  -3  -4  -6    2.32    0.75
  -4  -4  -6   -0.76    0.78
   6  -5  -6    4.83    1.02
   5  -5  -6   24.15    1.54
   4  -5  -6   27.37    1.47
   4  -5  -6   26.33    1.47
   3  -5  -6   14.88    1.02
   3  -5  -6   13.17    1.01
   2  -5  -6    2.98    0.59
   2  -5  -6    3.90    0.61
   1  -5  -6   13.04    0.96
   1  -5  -6   13.81    0.81
   0  -5  -6    2.93    0.65
  -1  -5  -6    7.37    0.91
  -2  -5  -6   -0.45    0.56
  -3  -5  -6   25.03    1.75
  -4  -5  -6    2.12    1.02
   6  -6  -6    1.85    0.90
   5  -6  -6   15.78    1.43
   5  -6  -6   15.49    1.30
   4  -6  -6   18.32    1.27
   4  -6  -6   17.51    1.27
   3  -6  -6   18.39    1.17
   3  -6  -6   17.80    1.18
   2  -6  -6   14.78    1.00
   2  -6  -6   16.78    1.02
   1  -6  -6    0.10    0.48
   0  -6  -6    5.17    0.75
  -1  -6  -6    7.72    0.96
  -2  -6  -6    0.06    0.75
  -3  -6  -6   13.16    1.47
   6  -7  -6    2.41    0.88
   5  -7  -6    0.80    0.73
   4  -7  -6   15.55    1.22
   4  -7  -6   14.81    1.23
   3  -7  -6   13.32    1.10
   3  -7  -6   10.82    1.02
   2  -7  -6    1.98    0.53
   2  -7  -6    2.50    0.59
   1  -7  -6    1.91    0.58
   0  -7  -6   -0.51    0.59
  -1  -7  -6    2.13    0.84
  -2  -7  -6    9.52    1.30
  -3  -7  -6   -0.21    0.94
   5  -8  -6   -0.41    0.58
   4  -8  -6    3.43    0.81
   3  -8  -6   -0.44    0.48
   3  -8  -6    0.33    0.50
   2  -8  -6   18.78    1.26
   1  -8  -6    2.09    0.64
   0  -8  -6   -0.38    0.65
  -1  -8  -6   -1.02    0.66
  -2  -8  -6   -0.57    0.91
   5  -9  -6    9.34    1.31
   4  -9  -6   -0.46    0.64
   3  -9  -6    4.01    0.81
   3  -9  -6    3.28    0.71
   2  -9  -6   10.13    1.13
   1  -9  -6    8.92    1.07
   0  -9  -6   -0.40    0.65
  -1  -9  -6    2.53    0.94
   4 -10  -6    0.87    0.66
   3 -10  -6    2.72    1.13
   2 -10  -6    0.90    0.64
   1 -10  -6    3.91    0.89
   0 -10  -6    0.40    0.83
   4 -11  -6    6.25    1.13
   1 -11  -6    0.48    0.77
   0 -13   7    1.83    0.79
   1 -13   7    4.70    0.90
   2 -13   7    6.50    1.03
  -3  13  -7    1.55    0.65
   3 -13   7    3.94    0.96
  -1 -12   7    6.48    1.10
   0 -12   7   50.16    2.17
   1 -12   7    3.69    0.86
   2 -12   7    0.92    0.61
  -3  12  -7    1.37    0.68
   3 -12   7    2.29    0.67
  -4  12  -7    0.32    0.61
   4 -12   7    0.39    0.65
  -2 -11   7    2.61    0.97
  -1 -11   7   11.15    1.23
   0 -11   7  172.64    3.81
   1 -11   7   61.66    2.14
  -2  11  -7   -0.82    0.47
   2 -11   7    1.04    0.61
  -3  11  -7    0.13    0.53
   3 -11   7    0.71    0.52
  -4  11  -7    5.93    0.87
   4 -11   7    5.34    0.95
  -3 -10   7   -0.43    0.70
  -2 -10   7    3.82    0.91
  -1 -10   7    0.02    0.71
   0 -10   7    1.14    0.64
  -1  10  -7   66.12    1.98
   1 -10   7   68.70    2.18
  -2  10  -7    2.72    0.63
   2 -10   7    3.00    0.69
  -3  10  -7    3.07    0.67
   3 -10   7    2.92    0.69
  -4  10  -7    5.06    0.82
  -5  10  -7    2.22    0.66
  -4  -9   7    1.91    0.89
  -4  -9   7    1.34    0.93
  -3  -9   7    8.58    1.12
  -2  -9   7    3.03    0.79
  -1  -9   7   26.03    1.41
   0  -9   7   72.41    2.17
  -1   9  -7  111.16    2.51
   1  -9   7  111.51    2.66
  -2   9  -7   15.90    1.01
   2  -9   7   16.22    1.07
  -3   9  -7    0.17    0.44
   3  -9   7    0.85    0.47
  -4   9  -7    5.59    0.77
  -5   9  -7    2.01    0.64
  -5  -8   7   -0.08    0.81
  -4  -8   7   -1.06    0.60
  -3  -8   7   53.25    1.96
  -2  -8   7   76.88    2.25
  -1  -8   7    2.35    0.73
   0   8  -7   60.87    1.68
   0  -8   7   63.62    1.92
  -1   8  -7  130.57    2.69
   1  -8   7  136.54    2.85
  -2   8  -7  306.15    4.91
   2  -8   7  297.70    4.95
  -3   8  -7    1.83    0.53
   3  -8   7    2.11    0.53
  -4   8  -7    0.85    0.48
  -5   8  -7   -0.42    0.44
  -5  -7   7   -0.58    0.63
  -4  -7   7    0.04    0.59
  -3  -7   7   12.61    1.16
  -2  -7   7    2.77    0.70
  -1  -7   7  205.79    3.72
   0   7  -7   12.63    0.79
   0  -7   7   11.95    0.98
  -1   7  -7   16.81    0.90
   1  -7   7   17.51    1.00
  -2   7  -7   25.23    1.15
   2  -7   7   24.65    1.14
  -3   7  -7    5.91    0.72
  -4   7  -7    0.69    0.48
  -5   7  -7    0.39    0.50
  -5  -6   7    0.61    0.71
  -4  -6   7   15.96    1.27
  -3  -6   7   23.02    1.26
  -2  -6   7  251.55    4.23
  -1  -6   7  123.78    2.56
   0   6  -7   44.56    1.28
   0  -6   7   42.65    1.40
  -1   6  -7   59.98    1.56
   1  -6   7   56.98    1.55
  -2   6  -7   70.42    1.86
   2  -6   7   71.39    1.78
  -3   6  -7    5.41    0.68
  -4   6  -7    0.35    0.46
  -5   6  -7   -0.31    0.48
  -5  -5   7   -0.07    0.57
  -4  -5   7    5.21    0.77
  -3  -5   7   18.70    1.04
  -2  -5   7    1.22    0.50
   1   5  -7  881.78   11.16
  -1  -5   7  907.12   11.38
   0   5  -7   98.92    1.99
   0   5  -7   95.78    1.99
   0  -5   7   97.15    2.01
  -1   5  -7    4.38    0.52
   1  -5   7    2.57    0.42
  -2   5  -7    4.49    0.58
   2  -5   7    4.57    0.53
  -3   5  -7   13.68    0.93
  -4   5  -7   25.46    1.33
  -5   5  -7    1.64    0.58
  -6  -4   7    1.61    0.80
  -5  -4   7    0.34    0.56
  -4  -4   7   16.59    1.06
  -3  -4   7    3.74    0.60
  -2  -4   7   62.49    1.61
   1   4  -7   44.84    1.15
   1   4  -7   45.80    1.45
  -1  -4   7   46.64    1.27
   0   4  -7   65.83    1.49
   0   4  -7   64.26    1.56
   0  -4   7   64.90    1.48
  -1   4  -7   44.28    1.17
  -1   4  -7   44.83    1.27
   1  -4   7   45.34    1.15
  -2   4  -7   35.71    1.24
  -3   4  -7    4.70    0.66
  -4   4  -7   14.57    1.10
  -5   4  -7   -0.42    0.44
  -6  -3   7    0.01    0.58
  -5  -3   7   15.39    1.15
  -4  -3   7   11.92    0.92
  -3  -3   7    1.09    0.42
  -2  -3   7   90.67    1.95
   1   3  -7  106.02    2.30
   1   3  -7  102.27    1.84
  -1  -3   7  107.53    1.98
   0   3  -7  139.23    2.55
   0   3  -7  141.87    2.41
   0  -3   7  144.08    2.31
  -1   3  -7    5.76    0.51
  -1   3  -7    6.11    0.54
   1  -3   7    5.14    0.44
  -2   3  -7   78.80    1.78
  -2   3  -7   80.33    1.92
  -3   3  -7  295.85    4.90
  -4   3  -7   -0.23    0.44
  -5   3  -7    1.35    0.61
  -6  -2   7    4.04    0.87
  -5  -2   7    3.28    0.72
  -4  -2   7    8.56    0.83
  -3  -2   7    2.10    0.48
   2   2  -7   56.99    1.78
  -2  -2   7   56.54    1.46
   1   2  -7   18.75    0.93
   1   2  -7   16.59    0.62
  -1  -2   7   17.64    0.69
   0   2  -7   56.23    1.28
   0   2  -7   52.97    1.43
   0  -2   7   55.55    1.12
  -1   2  -7   37.46    1.19
  -1   2  -7   38.10    1.14
  -2   2  -7    7.38    0.73
  -2   2  -7    7.67    0.74
  -3   2  -7   39.23    1.44
  -3   2  -7   39.60    1.52
  -4   2  -7   50.91    1.83
  -5   2  -7    7.56    0.98
  -6  -1   7    3.03    0.81
  -5  -1   7   28.24    1.46
  -4  -1   7    1.58    0.54
   3   1  -7    4.12    0.69
  -3  -1   7    6.24    0.66
   2   1  -7    0.56    0.37
  -2  -1   7    0.60    0.33
   1   1  -7  217.96    3.70
   1   1  -7  217.42    3.08
  -1  -1   7  216.05    3.21
   0   1  -7    0.23    0.22
   0   1  -7    0.12    0.31
   0  -1   7   -0.03    0.18
  -1   1  -7    4.24    0.50
  -1   1  -7    4.38    0.53
  -2   1  -7  136.12    2.74
  -2   1  -7  134.62    2.72
  -3   1  -7   17.67    1.07
  -3   1  -7   18.30    1.14
  -4   1  -7    8.05    0.94
  -4   1  -7    7.98    0.89
  -5   1  -7    8.25    1.04
  -6   0   7    2.84    0.88
  -5   0   7    5.12    0.83
  -4   0   7   40.03    1.54
   3   0  -7    5.61    0.79
  -3   0   7    6.68    0.68
   2   0  -7   10.28    0.82
  -2   0   7   11.29    0.70
   1   0  -7  401.52    5.24
   1   0  -7  410.23    6.00
  -1   0   7  412.68    5.45
   0   0  -7  430.43    5.81
   0   0  -7  434.60    6.19
  -1   0  -7  103.36    2.26
  -1   0  -7  106.19    2.17
  -2   0  -7    8.62    0.93
  -3   0  -7    8.64    1.01
  -4   0  -7    0.41    0.61
  -5   0  -7   15.26    1.30
  -5   0  -7   16.14    1.51
  -6   1   7   13.21    1.33
  -5   1   7    0.65    0.55
  -4   1   7    1.56    0.59
   3  -1  -7   23.32    1.32
  -3   1   7   24.48    1.17
   2  -1  -7   16.21    1.02
  -2   1   7   15.08    0.78
   1  -1  -7   29.56    1.21
   1  -1  -7   27.18    0.76
  -1   1   7   29.00    0.89
   0  -1  -7   92.28    2.13
  -1  -1  -7   44.38    1.53
  -2  -1  -7  138.41    2.99
  -3  -1  -7   -0.42    0.57
  -4  -1  -7    0.48    0.68
  -5  -1  -7    5.01    1.10
  -6   2   7    0.53    0.70
  -5   2   7    3.83    0.78
   4  -2  -7    0.95    0.51
   4  -2  -7   -0.40    0.54
   3  -2  -7    4.51    0.68
   3  -2  -7    2.78    0.59
   2  -2  -7   67.56    1.70
   2  -2  -7   65.98    1.91
   1  -2  -7   33.03    0.87
   1  -2  -7   33.50    1.01
   1  -2  -7   32.30    1.26
   0  -2  -7    0.64    0.42
  -1  -2  -7   23.07    1.24
  -2  -2  -7    3.77    0.75
  -3  -2  -7    4.54    0.88
  -4  -2  -7    0.43    0.77
  -6   3   7    2.54    0.80
   5  -3  -7    9.62    1.14
   4  -3  -7    7.49    0.91
   4  -3  -7    7.10    0.92
   3  -3  -7    0.96    0.52
   3  -3  -7    0.94    0.50
   2  -3  -7    2.92    0.50
   2  -3  -7    2.58    0.53
   1  -3  -7    5.57    0.67
   1  -3  -7    6.69    0.55
   0  -3  -7    7.51    0.82
  -1  -3  -7   12.64    1.00
  -2  -3  -7   82.08    2.45
  -3  -3  -7    3.41    0.82
  -4  -3  -7    3.71    1.00
   6  -4  -7    0.46    0.71
   5  -4  -7    1.16    0.66
   4  -4  -7   17.57    1.24
   4  -4  -7   19.23    1.28
   3  -4  -7   46.63    1.67
   3  -4  -7   45.13    1.78
   2  -4  -7    0.07    0.43
   2  -4  -7    0.03    0.36
   1  -4  -7    0.18    0.43
   0  -4  -7    2.22    0.62
  -1  -4  -7   15.84    1.22
  -2  -4  -7   46.02    1.91
  -3  -4  -7    9.92    1.18
  -4  -4  -7   -0.33    0.89
   6  -5  -7    4.65    1.09
   5  -5  -7    0.08    0.60
   5  -5  -7   -0.45    0.51
   4  -5  -7    7.48    0.95
   4  -5  -7    8.11    1.03
   3  -5  -7    9.06    1.00
   3  -5  -7    8.24    0.86
   2  -5  -7   38.76    1.43
   2  -5  -7   38.46    1.59
   1  -5  -7   12.15    1.08
   0  -5  -7   43.77    1.74
  -1  -5  -7    0.49    0.57
  -2  -5  -7   16.30    1.40
  -3  -5  -7    2.51    1.01
   6  -6  -7    0.08    0.80
   5  -6  -7   42.31    2.03
   5  -6  -7   44.85    2.07
   4  -6  -7    2.92    0.75
   4  -6  -7    2.92    0.71
   3  -6  -7    0.06    0.50
   3  -6  -7    0.74    0.53
   2  -6  -7    2.58    0.70
   2  -6  -7    2.84    0.61
   1  -6  -7   25.79    1.43
   0  -6  -7    1.88    0.73
  -1  -6  -7    4.99    0.94
  -2  -6  -7    9.80    1.23
  -3  -6  -7   -0.63    0.85
   5  -7  -7    0.41    0.57
   5  -7  -7    0.74    0.72
   4  -7  -7   46.98    2.02
   4  -7  -7   45.57    1.98
   3  -7  -7   -0.59    0.48
   3  -7  -7    0.06    0.45
   2  -7  -7    1.44    0.61
   1  -7  -7    3.51    0.79
   0  -7  -7   13.32    1.37
  -1  -7  -7    3.57    0.99
  -2  -7  -7    3.05    1.12
   5  -8  -7    0.00    0.63
   4  -8  -7    1.34    0.63
   4  -8  -7    1.03    0.67
   3  -8  -7    8.21    1.05
   3  -8  -7    6.18    0.93
   2  -8  -7    0.16    0.54
   1  -8  -7    1.38    0.73
   0  -8  -7    0.52    0.76
  -1  -8  -7   -0.80    0.80
   5  -9  -7    4.75    1.07
   4  -9  -7   12.83    1.37
   3  -9  -7   10.73    1.24
   2  -9  -7    0.61    0.60
   1  -9  -7   -0.35    0.63
   0  -9  -7    4.31    1.00
   4 -10  -7   13.14    1.43
   2 -10  -7    1.96    0.77
   1 -10  -7   -0.32    0.69
   1 -13   8    0.60    0.62
   2 -13   8    1.60    0.71
  -3  13  -8    4.22    0.85
  -1 -12   8   22.45    1.73
   0 -12   8   20.60    1.59
   1 -12   8    0.47    0.63
  -2  12  -8    2.75    0.70
   2 -12   8    5.00    0.84
  -3  12  -8    7.02    0.91
   3 -12   8    7.19    1.02
  -2 -11   8    0.91    0.82
  -1 -11   8    5.40    0.97
   0 -11   8    2.56    0.78
   1 -11   8    1.69    0.61
  -2  11  -8    2.31    0.69
   2 -11   8    2.42    0.66
  -3  11  -8   -0.60    0.45
   3 -11   8    0.93    0.52
  -4  11  -8    0.01    0.55
  -3 -10   8    2.49    0.90
  -2 -10   8   -0.73    0.69
  -1 -10   8    5.92    1.01
   0 -10   8   72.51    2.33
  -1  10  -8   51.58    1.76
   1 -10   8   54.96    1.97
  -2  10  -8   29.40    1.37
   2 -10   8   29.33    1.43
  -3  10  -8    5.80    0.82
   3 -10   8    5.61    0.83
  -4  10  -8    0.55    0.55
  -4  -9   8    0.42    1.24
  -3  -9   8    5.32    1.00
  -2  -9   8    1.85    0.75
  -1  -9   8   42.53    1.76
   0  -9   8    9.11    0.99
  -1   9  -8   47.87    1.66
   1  -9   8   45.59    1.73
  -2   9  -8   28.39    1.37
   2  -9   8   29.13    1.38
  -3   9  -8    4.65    0.73
  -4   9  -8   -0.61    0.43
  -5   9  -8    1.11    0.64
  -4  -8   8    0.31    0.71
  -3  -8   8    0.94    0.68
  -2  -8   8   17.47    1.25
  -1  -8   8    2.83    0.71
   0   8  -8   -0.38    0.38
   0  -8   8    0.51    0.53
  -1   8  -8   45.14    1.55
   1  -8   8   42.93    1.58
  -2   8  -8    3.92    0.64
   2  -8   8    4.62    0.66
  -3   8  -8   19.44    1.14
  -4   8  -8    1.99    0.59
  -5   8  -8    3.87    0.79
  -4  -7   8   -0.64    0.57
  -3  -7   8   21.00    1.29
  -2  -7   8   82.74    2.24
  -1  -7   8   71.76    2.05
   0   7  -8    0.81    0.40
   0  -7   8    1.17    0.51
  -1   7  -8   27.17    1.16
   1  -7   8   26.29    1.14
  -2   7  -8   19.17    1.12
   2  -7   8   19.70    1.05
  -3   7  -8    3.84    0.69
  -4   7  -8    5.72    0.78
  -5   7  -8   -0.52    0.54
  -5  -6   8   -0.09    0.65
  -4  -6   8    2.58    0.75
  -3  -6   8    3.45    0.73
  -2  -6   8  163.38    3.21
   1   6  -8   15.88    0.83
  -1  -6   8   15.14    0.98
   0   6  -8    0.48    0.37
   0  -6   8    0.78    0.48
  -1   6  -8    5.48    0.63
   1  -6   8    5.59    0.62
  -2   6  -8   65.60    1.88
  -3   6  -8    1.35    0.51
  -4   6  -8   -0.28    0.41
  -5   6  -8   15.94    1.22
  -5  -5   8    8.44    1.05
  -4  -5   8    4.07    0.79
  -3  -5   8    1.56    0.59
  -2  -5   8   53.78    1.62
   1   5  -8  148.92    2.65
  -1  -5   8  151.35    2.78
   0   5  -8    3.14    0.47
   0   5  -8    2.54    0.44
   0  -5   8    2.32    0.46
  -1   5  -8    4.34    0.54
   1  -5   8    5.39    0.56
  -2   5  -8  105.51    2.38
  -3   5  -8   64.91    1.98
  -4   5  -8   -0.60    0.46
  -5   5  -8    0.78    0.57
  -5  -4   8    0.36    0.59
  -4  -4   8   29.42    1.43
  -3  -4   8    2.43    0.54
  -2  -4   8   38.41    1.33
   1   4  -8    0.30    0.39
   1   4  -8    0.43    0.30
  -1  -4   8    0.35    0.33
   0   4  -8    3.34    0.48
   0   4  -8    3.63    0.47
   0  -4   8    4.06    0.51
  -1   4  -8   -0.06    0.26
  -1   4  -8    0.26    0.29
  -2   4  -8   76.09    1.96
  -3   4  -8   96.77    2.41
  -4   4  -8    1.83    0.60
  -5   4  -8    3.81    0.84
  -6  -3   8    5.40    0.93
  -5  -3   8   37.07    1.72
  -4  -3   8    0.31    0.52
  -3  -3   8   18.02    0.99
   2   3  -8   21.83    1.25
  -2  -3   8   21.10    0.94
   1   3  -8    1.94    0.34
   1   3  -8    2.41    0.48
  -1  -3   8    2.48    0.42
   0   3  -8   50.62    1.31
   0   3  -8   49.21    1.46
   0  -3   8   49.97    1.21
  -1   3  -8   21.90    0.92
  -1   3  -8   20.84    0.94
  -2   3  -8   50.67    1.56
  -2   3  -8   50.97    1.52
  -3   3  -8   42.96    1.60
  -4   3  -8   44.23    1.75
  -5   3  -8   -0.89    0.50
  -6  -2   8    1.09    0.71
  -5  -2   8   12.41    1.12
  -4  -2   8   61.68    1.95
  -3  -2   8   47.55    1.55
   2   2  -8  125.28    2.88
  -2  -2   8  126.29    2.45
   1   2  -8   82.29    1.61
   1   2  -8   79.04    2.05
  -1  -2   8   87.20    1.68
   0   2  -8    3.87    0.43
   0   2  -8    4.84    0.57
   0  -2   8    4.02    0.45
  -1   2  -8    4.55    0.59
  -1   2  -8    5.31    0.57
  -2   2  -8   17.60    0.97
  -2   2  -8   19.54    1.09
  -3   2  -8    3.56    0.69
  -3   2  -8    3.55    0.69
  -4   2  -8   19.64    1.34
  -5   2  -8    6.45    1.04
  -6  -1   8    3.37    0.84
  -5  -1   8   14.19    1.16
  -4  -1   8   23.64    1.26
   3   1  -8   31.27    1.53
  -3  -1   8   31.29    1.28
   2   1  -8   45.22    1.68
  -2  -1   8   44.83    1.35
   1   1  -8   37.39    1.38
   1   1  -8   38.64    0.98
  -1  -1   8   38.96    1.03
   0   1  -8  198.21    3.14
   0   1  -8  195.17    3.49
  -1   1  -8   40.61    1.44
  -1   1  -8   42.31    1.34
  -2   1  -8   15.13    0.98
  -2   1  -8   15.72    1.08
  -3   1  -8   17.49    1.24
  -3   1  -8   17.81    1.10
  -4   1  -8   24.22    1.38
  -4   1  -8   24.55    1.60
  -5   1  -8    2.55    0.78
  -6   0   8    5.84    0.99
  -5   0   8    0.33    0.54
  -4   0   8    0.33    0.47
   3   0  -8  224.24    4.45
  -3   0   8  229.13    4.01
   2   0  -8    6.41    0.74
  -2   0   8    5.51    0.56
   1   0  -8    5.86    0.43
   1   0  -8    5.88    0.70
  -1   0   8    7.04    0.51
   0   0  -8   95.89    2.26
   0   0  -8   96.46    1.93
  -1   0  -8  244.39    4.19
  -1   0  -8  245.53    4.01
  -2   0  -8   61.85    1.93
  -2   0  -8   59.23    1.79
  -3   0  -8    5.76    0.86
  -3   0  -8    5.64    0.76
  -4   0  -8    0.87    0.59
  -4   0  -8   -0.11    0.71
  -6   1   8    3.70    0.87
  -5   1   8    5.19    0.91
   4  -1  -8    0.47    0.54
  -4   1   8   -0.40    0.42
   3  -1  -8   14.98    1.15
  -3   1   8   15.19    1.02
   2  -1  -8   99.66    2.54
  -2   1   8  106.88    2.21
   1  -1  -8  109.51    2.55
   0  -1  -8   16.47    0.80
   0  -1  -8   15.74    1.02
  -1  -1  -8   44.31    1.64
  -2  -1  -8   18.35    1.21
  -3  -1  -8   11.72    1.28
  -4  -1  -8   -0.79    0.77
  -6   2   8    5.81    1.00
  -5   2   8   -0.16    0.59
   4  -2  -8    0.05    0.58
  -4   2   8   -0.43    0.47
   3  -2  -8    1.50    0.62
  -3   2   8    0.86    0.49
   2  -2  -8   86.58    2.37
  -2   2   8   82.65    1.99
   1  -2  -8    1.39    0.49
   0  -2  -8   70.76    2.03
  -1  -2  -8  516.56    7.68
  -2  -2  -8   27.57    1.59
  -3  -2  -8   -0.01    0.65
  -4  -2  -8    0.51    0.88
  -6   3   8    7.49    1.14
  -5   3   8    2.57    0.76
   4  -3  -8   14.00    1.31
   4  -3  -8   14.21    1.12
   3  -3  -8    5.42    0.72
   3  -3  -8    5.91    0.85
   2  -3  -8   90.37    2.44
   2  -3  -8   90.45    2.12
   1  -3  -8  195.07    3.78
   0  -3  -8    6.09    0.77
  -1  -3  -8   28.30    1.49
  -2  -3  -8   98.57    2.85
  -3  -3  -8    3.47    0.92
  -6   4   8   10.74    1.21
   5  -4  -8    1.62    0.75
   5  -4  -8    1.40    0.75
   4  -4  -8    0.69    0.60
   4  -4  -8   -0.17    0.51
   3  -4  -8   75.62    2.22
   3  -4  -8   75.37    2.44
   2  -4  -8    0.11    0.39
   2  -4  -8    0.01    0.43
   1  -4  -8   35.90    1.54
   0  -4  -8    1.34    0.63
  -1  -4  -8   57.29    2.13
  -2  -4  -8    4.25    1.02
  -3  -4  -8    5.48    1.09
   6  -5  -8    1.39    0.88
   5  -5  -8   14.48    1.35
   5  -5  -8   14.56    1.36
   4  -5  -8    2.79    0.78
   4  -5  -8    3.60    0.78
   3  -5  -8    1.91    0.61
   3  -5  -8    2.52    0.67
   2  -5  -8  192.39    4.02
   1  -5  -8   13.98    1.21
   0  -5  -8   11.33    1.12
  -1  -5  -8    0.39    0.70
  -2  -5  -8   18.18    1.58
  -3  -5  -8   25.40    1.91
   5  -6  -8   -0.15    0.62
   5  -6  -8    0.09    0.58
   4  -6  -8    0.91    0.63
   4  -6  -8    1.27    0.68
   3  -6  -8   17.32    1.30
   3  -6  -8   18.30    1.25
   2  -6  -8    1.70    0.66
   1  -6  -8   18.70    1.32
   0  -6  -8   23.77    1.59
  -1  -6  -8    1.00    0.77
  -2  -6  -8    1.46    0.92
   5  -7  -8   -0.11    0.62
   5  -7  -8    0.93    0.79
   4  -7  -8    8.25    1.10
   4  -7  -8    6.90    1.04
   3  -7  -8    2.85    0.73
   2  -7  -8   13.24    1.19
   1  -7  -8   16.52    1.44
   0  -7  -8    8.25    1.14
  -1  -7  -8   -0.55    0.74
   5  -8  -8   24.04    1.80
   4  -8  -8    1.25    0.72
   4  -8  -8    0.68    0.69
   3  -8  -8    8.68    1.11
   2  -8  -8    0.25    0.59
   1  -8  -8    1.75    0.80
   0  -8  -8   14.80    1.59
  -1  -8  -8   11.66    1.41
   3  -9  -8    0.40    0.62
   2  -9  -8    0.67    0.60
   1  -9  -8    2.01    0.85
  -1 -12   9    6.40    1.31
   0 -12   9    5.87    0.99
   1 -12   9    2.91    0.75
  -2  12  -9   -0.47    0.64
   2 -12   9    1.05    0.61
  -3  12  -9   -0.40    0.55
  -2 -11   9    2.24    1.03
  -1 -11   9    3.56    0.92
   0 -11   9    7.23    1.06
  -1  11  -9   -0.52    0.46
   1 -11   9    0.24    0.53
  -2  11  -9    1.49    0.61
   2 -11   9    2.56    0.69
  -3  11  -9   -1.21    0.57
  -4  11  -9    0.72    0.70
  -3 -10   9    1.25    1.11
  -2 -10   9    2.07    0.95
  -1 -10   9    5.18    0.96
   0 -10   9   11.22    1.12
  -1  10  -9    4.09    0.75
   1 -10   9    5.13    0.84
  -2  10  -9    1.05    0.58
   2 -10   9    0.79    0.45
  -3  10  -9   13.24    1.13
  -4  10  -9    1.26    0.65
  -3  -9   9    4.91    1.01
  -2  -9   9   -0.83    0.70
  -1  -9   9    5.52    0.97
   0   9  -9   31.61    1.41
   0  -9   9   31.40    1.57
  -1   9  -9    2.03    0.56
   1  -9   9    2.43    0.66
  -2   9  -9    1.07    0.52
   2  -9   9    1.94    0.53
  -3   9  -9    0.75    0.53
  -4   9  -9    0.47    0.65
  -4  -8   9   -0.72    0.76
  -3  -8   9    7.48    1.04
  -2  -8   9    2.40    0.76
  -1  -8   9   17.71    1.22
   0   8  -9   15.99    0.99
   0  -8   9   14.05    1.06
  -1   8  -9   24.88    1.20
   1  -8   9   24.01    1.24
  -2   8  -9   13.90    0.99
  -3   8  -9    0.45    0.47
  -4   8  -9   13.39    1.14
  -4  -7   9   -1.42    0.64
  -3  -7   9   -0.32    0.56
  -2  -7   9    9.05    0.97
  -1  -7   9   22.43    1.23
   0   7  -9    3.58    0.58
   0  -7   9    3.47    0.70
  -1   7  -9   30.56    1.27
   1  -7   9   31.43    1.28
  -2   7  -9    5.59    0.75
  -3   7  -9    0.26    0.44
  -4   7  -9   -0.34    0.50
  -5   7  -9    0.20    0.60
  -5  -6   9   11.74    1.33
  -4  -6   9   -0.06    0.68
  -3  -6   9    1.51    0.64
  -2  -6   9  109.66    2.56
   1   6  -9    0.23    0.38
  -1  -6   9   -0.42    0.50
   0   6  -9    3.32    0.52
   0  -6   9    3.84    0.64
  -1   6  -9   11.22    0.82
   1  -6   9   11.35    1.03
  -2   6  -9   67.59    1.94
  -3   6  -9    6.58    0.81
  -4   6  -9   -0.32    0.45
  -5   6  -9    3.63    0.83
  -5  -5   9    2.04    0.76
  -4  -5   9    5.15    0.83
  -3  -5   9   -0.17    0.53
  -2  -5   9   16.96    1.03
   1   5  -9   16.27    1.06
   1   5  -9   15.25    0.83
  -1  -5   9   15.49    0.91
   0   5  -9  114.56    2.36
   0   5  -9  112.21    2.48
   0  -5   9  113.41    2.31
  -1   5  -9    1.40    0.44
  -2   5  -9   23.79    1.19
  -3   5  -9   19.28    1.15
  -4   5  -9    2.32    0.65
  -5   5  -9    0.68    0.66
  -5  -4   9   25.75    1.47
  -4  -4   9    0.18    0.57
  -3  -4   9   30.28    1.35
  -2  -4   9  158.25    3.01
   1   4  -9    3.61    0.63
   1   4  -9    3.45    0.47
  -1  -4   9    3.98    0.54
   0   4  -9   39.57    1.40
   0   4  -9   40.44    1.26
   0  -4   9   38.72    1.22
  -1   4  -9   54.60    1.55
  -1   4  -9   50.17    1.52
  -2   4  -9   11.14    0.86
  -3   4  -9    1.83    0.57
  -4   4  -9    0.20    0.49
  -5   4  -9    1.63    0.77
  -5  -3   9    0.06    0.63
  -4  -3   9   37.23    1.55
  -3  -3   9    5.48    0.73
   2   3  -9   66.69    2.17
  -2  -3   9   71.32    1.76
   1   3  -9  142.70    3.07
   1   3  -9  142.48    2.51
  -1  -3   9  148.62    2.60
   0   3  -9   96.14    2.01
   0   3  -9   93.66    2.24
  -1   3  -9   64.52    1.76
  -1   3  -9   61.56    1.68
  -2   3  -9    0.92    0.48
  -2   3  -9    1.43    0.50
  -3   3  -9   11.54    0.95
  -4   3  -9    0.77    0.60
  -6  -2   9    0.92    0.84
  -5  -2   9   -0.48    0.53
  -4  -2   9   32.01    1.46
   3   2  -9  110.37    3.07
  -3  -2   9  108.87    2.52
   2   2  -9    0.95    0.57
  -2  -2   9    0.55    0.39
   1   2  -9  306.22    4.40
   1   2  -9  302.18    5.14
  -1  -2   9  315.85    4.44
   0   2  -9   30.19    1.04
   0   2  -9   30.28    1.30
  -1   2  -9   35.07    1.37
  -1   2  -9   33.36    1.25
  -2   2  -9  149.45    3.08
  -2   2  -9  148.04    3.11
  -3   2  -9    9.05    0.89
  -4   2  -9    7.92    0.96
  -6  -1   9    0.27    0.66
  -5  -1   9   -0.58    0.52
  -4  -1   9    2.84    0.66
   3   1  -9   15.16    1.32
  -3  -1   9   15.80    0.98
   2   1  -9    1.06    0.56
  -2  -1   9    1.60    0.44
   1   1  -9    8.35    0.96
   1   1  -9    7.98    0.59
  -1  -1   9    9.24    0.62
   0   1  -9   21.24    1.20
   0   1  -9   19.81    0.89
  -1   1  -9   23.54    1.19
  -1   1  -9   22.74    1.07
  -2   1  -9   30.87    1.35
  -2   1  -9   33.53    1.52
  -3   1  -9    5.79    0.82
  -3   1  -9    4.50    0.83
  -4   1  -9   10.09    1.14
  -6   0   9    1.21    0.78
  -5   0   9   35.53    1.71
   4   0  -9   -0.25    0.62
  -4   0   9   -0.42    0.52
   3   0  -9    1.80    0.62
  -3   0   9    2.83    0.61
   2   0  -9    7.74    0.89
  -2   0   9    6.31    0.66
   1   0  -9  202.52    3.88
   0   0  -9  332.34    4.85
   0   0  -9  319.52    5.29
  -1   0  -9   14.48    0.94
  -1   0  -9   15.29    1.16
  -2   0  -9   25.60    1.24
  -2   0  -9   27.59    1.49
  -3   0  -9    6.66    0.88
  -3   0  -9    7.34    1.01
  -4   0  -9   -0.15    0.82
  -4   0  -9    1.65    0.64
  -6   1   9    0.31    0.68
  -5   1   9   10.23    1.10
   4  -1  -9   27.22    1.69
  -4   1   9   26.21    1.38
   3  -1  -9   35.06    1.69
  -3   1   9   31.90    1.39
   2  -1  -9  104.61    2.77
  -2   1   9  102.40    2.21
   1  -1  -9   33.97    1.48
   0  -1  -9  405.48    5.81
   0  -1  -9  404.06    6.38
  -1  -1  -9  137.47    2.85
  -1  -1  -9  135.73    3.12
  -2  -1  -9    0.28    0.67
  -3  -1  -9    5.05    0.99
  -4  -1  -9    9.51    1.12
  -4  -1  -9    6.37    1.24
  -6   2   9    2.54    0.79
  -5   2   9    8.87    1.13
   4  -2  -9   43.82    2.07
  -4   2   9   41.17    1.73
   3  -2  -9    2.66    0.69
  -3   2   9    0.23    0.59
   2  -2  -9   11.77    1.12
   1  -2  -9   34.41    1.56
   0  -2  -9   27.08    1.12
   0  -2  -9   28.98    1.56
  -1  -2  -9   64.17    2.21
  -2  -2  -9    1.07    0.79
  -3  -2  -9   -0.58    0.76
  -6   3   9    6.89    1.09
   5  -3  -9    3.37    0.87
  -5   3   9    4.12    0.84
   4  -3  -9    2.96    0.84
  -4   3   9    2.16    0.73
   3  -3  -9  219.62    4.60
   3  -3  -9  214.02    4.10
   2  -3  -9   -0.26    0.48
   1  -3  -9    9.21    1.04
   0  -3  -9   50.54    1.90
  -1  -3  -9   40.34    1.82
  -2  -3  -9   43.54    1.99
  -3  -3  -9   -0.49    0.78
  -6   4   9    3.06    1.06
   5  -4  -9    6.25    1.09
   5  -4  -9    6.75    1.09
   4  -4  -9    3.05    0.73
   4  -4  -9    4.70    0.94
   3  -4  -9    3.88    0.73
   3  -4  -9    3.86    0.80
   2  -4  -9   62.00    2.22
   1  -4  -9   17.19    1.23
   0  -4  -9   13.68    1.31
  -1  -4  -9   36.97    1.94
  -2  -4  -9    9.93    1.24
   5  -5  -9    5.87    1.07
   5  -5  -9    4.52    0.94
   4  -5  -9    0.75    0.68
   4  -5  -9   -0.06    0.57
   3  -5  -9    7.61    1.02
   2  -5  -9    4.87    0.84
   1  -5  -9   -0.06    0.54
   0  -5  -9    1.49    0.75
  -1  -5  -9    8.56    1.22
  -2  -5  -9    2.91    1.00
   5  -6  -9    2.82    0.87
   5  -6  -9    2.63    0.83
   4  -6  -9    2.02    0.81
   4  -6  -9    1.29    0.68
   3  -6  -9    6.04    1.02
   2  -6  -9    1.26    0.65
   1  -6  -9   34.79    1.76
   0  -6  -9    7.07    1.11
  -1  -6  -9   -0.81    0.82
   5  -7  -9    2.93    0.91
   5  -7  -9    3.81    0.99
   4  -7  -9    3.24    0.91
   3  -7  -9    4.16    0.92
   2  -7  -9    5.84    0.94
   1  -7  -9    2.89    0.87
   0  -7  -9   -0.03    0.79
  -1  -7  -9   12.90    1.54
   4  -8  -9   -0.07    0.62
   3  -8  -9    4.44    0.98
   2  -8  -9    8.80    1.18
   1  -8  -9    0.24    0.73
   0  -8  -9    0.49    0.80
   3  -9  -9    1.26    0.71
   2  -9  -9    2.21    0.82
   0 -12  10    0.18    0.72
   1 -12  10    3.90    0.80
  -2  12 -10    3.21    0.90
   2 -12  10    4.74    0.82
  -1 -11  10    5.71    1.04
   0 -11  10    0.25    0.65
  -1  11 -10   -0.14    0.58
   1 -11  10    0.64    0.54
  -2  11 -10   -0.29    0.62
  -3  11 -10    1.00    0.69
  -2 -10  10    1.55    0.96
  -1 -10  10    8.86    1.13
   0 -10  10   15.98    1.25
  -1  10 -10    0.19    0.55
   1 -10  10    1.13    0.57
  -2  10 -10    0.82    0.56
  -3  10 -10   24.97    1.49
  -3  -9  10   10.81    1.31
  -2  -9  10   19.80    1.59
  -1  -9  10    3.84    0.91
   0   9 -10    0.95    0.51
   0  -9  10    0.43    0.60
  -1   9 -10    6.41    0.79
   1  -9  10    8.38    0.87
  -2   9 -10    1.41    0.61
  -3   9 -10    1.18    0.67
  -4   9 -10   17.13    1.38
  -3  -8  10   33.64    1.75
  -2  -8  10   21.18    1.41
  -1  -8  10    1.51    0.68
   0   8 -10   14.79    0.99
   0  -8  10   13.92    1.14
  -1   8 -10    5.30    0.75
  -2   8 -10    4.23    0.69
  -3   8 -10    0.54    0.52
  -4   8 -10   27.76    1.59
  -4  -7  10    2.20    0.85
  -3  -7  10    1.09    0.80
  -2  -7  10    2.13    0.72
   1   7 -10   80.33    2.05
  -1  -7  10   84.80    2.32
   0   7 -10    0.00    0.43
   0  -7  10    0.42    0.55
  -1   7 -10   71.65    2.01
  -2   7 -10    0.17    0.44
  -3   7 -10    3.06    0.72
  -4   7 -10    7.07    0.97
  -4  -6  10   34.15    1.71
  -3  -6  10    1.73    0.67
  -2  -6  10   12.08    1.12
   1   6 -10   15.88    0.94
  -1  -6  10   11.53    1.09
   0   6 -10   47.86    1.54
   0  -6  10   46.47    1.54
  -1   6 -10   10.39    0.91
  -2   6 -10    7.36    0.80
  -3   6 -10    4.33    0.72
  -4   6 -10    2.34    0.69
  -5  -5  10   27.97    1.65
  -4  -5  10    2.62    0.75
  -3  -5  10   24.00    1.37
  -2  -5  10   10.48    1.03
   1   5 -10   76.96    1.83
   1   5 -10   76.04    2.24
  -1  -5  10   77.20    1.99
   0   5 -10    8.43    0.76
  -1   5 -10    1.01    0.46
  -2   5 -10    1.50    0.53
  -3   5 -10   -0.35    0.45
  -4   5 -10    2.33    0.71
  -5  -4  10   -0.36    0.58
  -4  -4  10   61.08    2.04
  -3  -4  10  131.57    2.92
   2   4 -10  336.25    5.98
  -2  -4  10  338.98    5.28
   1   4 -10    4.47    0.54
   1   4 -10    4.94    0.73
  -1  -4  10    3.92    0.62
   0   4 -10    4.52    0.65
   0   4 -10    4.62    0.60
  -1   4 -10   49.30    1.54
  -2   4 -10   20.26    1.16
  -3   4 -10    1.58    0.58
  -4   4 -10   -0.22    0.49
  -5  -3  10    9.80    1.09
  -4  -3  10   19.71    1.30
  -3  -3  10   18.18    1.10
   2   3 -10  264.98    5.05
  -2  -3  10  256.35    4.23
   1   3 -10  109.71    2.19
   1   3 -10  113.01    2.79
  -1  -3  10  110.54    2.21
   0   3 -10    7.68    0.87
   0   3 -10    7.15    0.67
  -1   3 -10   15.35    1.02
  -1   3 -10   15.98    0.96
  -2   3 -10   10.28    0.86
  -3   3 -10    7.49    0.91
  -4   3 -10    1.00    0.60
  -5  -2  10    9.36    1.09
  -4  -2  10    0.81    0.60
   3   2 -10   66.64    2.48
  -3  -2  10   64.12    1.89
   2   2 -10  315.66    5.68
  -2  -2  10  303.58    4.75
   1   2 -10   86.92    2.49
   0   2 -10   40.85    1.32
   0   2 -10   42.98    1.62
  -1   2 -10    0.02    0.45
  -1   2 -10    0.30    0.35
  -2   2 -10    2.18    0.61
  -2   2 -10    2.50    0.58
  -3   2 -10   -0.38    0.41
  -4   2 -10    1.10    0.61
  -5  -1  10   42.44    1.87
  -4  -1  10    0.22    0.54
   3   1 -10  192.30    4.32
  -3  -1  10  194.08    3.67
   2   1 -10  156.73    3.61
  -2  -1  10  156.64    2.91
   1   1 -10  507.70    7.75
   0   1 -10  218.07    3.70
   0   1 -10  233.69    4.26
  -1   1 -10    3.61    0.66
  -1   1 -10    3.50    0.55
  -2   1 -10   16.31    1.26
  -2   1 -10   17.77    1.13
  -3   1 -10    6.54    1.01
  -3   1 -10    6.94    0.87
  -4   1 -10   -0.21    0.51
  -5   0  10    0.76    0.71
   4   0 -10  103.34    3.26
  -4   0  10  106.52    2.76
   3   0 -10    2.23    0.71
  -3   0  10    1.71    0.62
   2   0 -10   78.41    2.45
   1   0 -10    2.04    0.65
   0   0 -10   88.25    2.48
   0   0 -10   87.15    2.02
  -1   0 -10   16.95    1.19
  -1   0 -10   16.64    1.02
  -2   0 -10    0.73    0.64
  -2   0 -10    0.80    0.46
  -3   0 -10    1.03    0.58
  -3   0 -10    0.20    0.77
  -5   1  10   29.94    1.63
   4  -1 -10  140.56    3.84
  -4   1  10  138.42    3.23
   3  -1 -10  118.31    3.27
  -3   1  10  118.06    2.70
   2  -1 -10    7.89    0.98
   1  -1 -10   23.85    1.47
   0  -1 -10   62.89    2.10
  -1  -1 -10   90.50    2.28
  -1  -1 -10   87.24    2.53
  -2  -1 -10    5.97    0.94
  -2  -1 -10    6.83    0.82
  -3  -1 -10    0.87    0.77
  -3  -1 -10    1.46    0.63
  -5   2  10    0.74    0.61
   4  -2 -10   81.90    2.91
  -4   2  10   82.67    2.47
   3  -2 -10  139.05    3.60
  -3   2  10  138.43    3.01
   2  -2 -10    1.52    0.60
   1  -2 -10   19.06    1.29
   0  -2 -10    3.46    0.76
  -1  -2 -10   25.59    1.54
  -1  -2 -10   28.04    1.32
  -2  -2 -10   15.92    1.54
  -3  -2 -10    2.43    1.02
   5  -3 -10    0.35    0.78
  -5   3  10    1.48    0.63
   4  -3 -10   29.53    1.84
  -4   3  10   30.72    1.53
   3  -3 -10   20.27    1.52
   2  -3 -10   18.70    1.44
   1  -3 -10   12.78    1.16
   0  -3 -10   21.26    1.54
  -1  -3 -10   37.56    1.93
  -2  -3 -10   -0.50    0.72
   5  -4 -10    0.32    0.68
  -5   4  10    1.44    0.70
   4  -4 -10    7.92    1.20
  -4   4  10    9.09    0.96
   3  -4 -10   12.39    1.32
   2  -4 -10   40.55    1.97
   1  -4 -10    6.82    0.99
   0  -4 -10   30.06    1.69
  -1  -4 -10    7.17    1.06
  -2  -4 -10    7.58    1.22
   5  -5 -10    0.01    0.71
   5  -5 -10   -0.08    0.67
   4  -5 -10   -1.66    0.72
   4  -5 -10    1.13    0.80
   3  -5 -10    7.24    1.11
   2  -5 -10    3.47    0.89
   1  -5 -10    5.70    0.94
   0  -5 -10   51.24    2.27
  -1  -5 -10   23.86    1.73
   5  -6 -10    0.90    0.84
   5  -6 -10    0.78    0.82
   4  -6 -10    0.77    0.78
   3  -6 -10    9.46    1.21
   2  -6 -10    0.71    0.63
   1  -6 -10    8.20    1.11
   0  -6 -10    1.59    0.85
   4  -7 -10    2.76    0.94
   3  -7 -10    1.88    0.84
   2  -7 -10    0.85    0.69
   1  -7 -10    1.43    0.81
   0  -7 -10   13.32    1.52
   3  -8 -10    5.32    1.08
   2  -8 -10    1.26    0.83
   1 -12  11    4.42    0.88
  -1 -11  11    7.91    1.15
   0 -11  11    1.45    0.70
  -1  11 -11    1.46    0.66
   1 -11  11    2.93    0.75
  -2  11 -11   12.34    1.22
  -2 -10  11    1.76    0.99
  -1 -10  11    1.25    0.82
   0 -10  11    0.22    0.63
  -1  10 -11    3.49    0.73
  -2  10 -11   18.74    1.30
  -3  10 -11    1.20    0.69
  -3  -9  11   16.21    2.37
  -2  -9  11    1.12    0.80
  -1  -9  11    2.48    0.87
   0   9 -11    4.11    0.71
   0  -9  11    5.27    0.86
  -1   9 -11    2.46    0.63
  -2   9 -11   -0.10    0.51
  -3   9 -11   48.81    1.98
  -3  -8  11   -0.44    0.74
  -2  -8  11   10.44    1.18
  -1  -8  11   22.26    1.37
   0   8 -11   10.22    0.96
   0  -8  11    9.66    1.05
  -1   8 -11    0.81    0.50
  -2   8 -11    0.11    0.47
  -3   8 -11   -0.57    0.51
  -4  -7  11    2.64    0.98
  -3  -7  11    4.65    0.99
  -2  -7  11   20.96    1.36
   1   7 -11    3.24    0.60
  -1  -7  11    2.02    0.64
   0   7 -11   10.23    0.86
  -1   7 -11    0.01    0.46
  -2   7 -11    0.44    0.51
  -3   7 -11    3.53    0.75
  -4  -6  11    6.06    1.00
  -3  -6  11   48.93    1.88
  -2  -6  11    0.70    0.59
   1   6 -11    5.33    0.66
  -1  -6  11    6.29    0.86
   0   6 -11   24.74    1.20
  -1   6 -11    0.03    0.43
  -2   6 -11    1.40    0.52
  -3   6 -11    3.16    0.69
  -4   6 -11    1.64    0.72
  -4  -5  11    7.83    1.08
  -3  -5  11   67.87    2.19
  -2  -5  11   11.27    1.05
   1   5 -11   15.56    0.91
   1   5 -11   16.08    1.20
  -1  -5  11   13.95    1.03
   0   5 -11    3.09    0.57
  -1   5 -11   19.46    1.08
  -2   5 -11   -0.17    0.43
  -3   5 -11    0.64    0.51
  -4   5 -11    2.13    0.75
  -5  -4  11    1.15    0.73
  -4  -4  11   -0.53    0.58
  -3  -4  11    3.47    0.74
   2   4 -11    2.88    0.73
  -2  -4  11    2.31    0.64
   1   4 -11   22.40    1.31
   1   4 -11   21.61    0.99
   0   4 -11   21.81    1.07
   0   4 -11   21.90    1.26
  -1   4 -11    1.07    0.43
  -2   4 -11    0.47    0.46
  -3   4 -11    0.02    0.52
  -5  -3  11    0.93    0.67
  -4  -3  11   -0.42    0.50
   3   3 -11   73.17    2.64
  -3  -3  11   69.06    2.05
   2   3 -11  106.89    3.06
  -2  -3  11  105.44    2.38
   1   3 -11   23.86    1.36
   0   3 -11   32.27    1.50
   0   3 -11   29.99    1.20
  -1   3 -11    0.17    0.44
  -1   3 -11    0.10    0.38
  -2   3 -11    2.44    0.56
  -3   3 -11    3.54    0.70
  -5  -2  11    8.20    1.04
  -4  -2  11    1.28    0.59
   3   2 -11   18.38    1.56
  -3  -2  11   17.54    1.12
   2   2 -11   15.26    1.39
   1   2 -11  129.67    3.19
   0   2 -11    0.59    0.35
   0   2 -11    1.07    0.54
  -1   2 -11    4.91    0.68
  -1   2 -11    4.84    0.76
  -2   2 -11   -0.27    0.42
  -2   2 -11   -0.16    0.63
  -3   2 -11    0.65    0.50
  -5  -1  11    7.00    1.03
   4   1 -11    6.89    1.11
  -4  -1  11    3.99    0.76
   3   1 -11   18.63    1.58
  -3  -1  11   14.80    1.06
   2   1 -11    0.47    0.58
   1   1 -11    5.98    0.90
   0   1 -11   -0.06    0.44
   0   1 -11   -0.03    0.39
  -1   1 -11    6.55    0.75
  -1   1 -11    6.19    0.86
  -2   1 -11    2.24    0.59
  -2   1 -11    1.56    0.69
  -3   1 -11    4.70    0.84
  -5   0  11   18.29    1.46
   4   0 -11    0.83    0.73
  -4   0  11   -0.35    0.59
   3   0 -11   19.03    1.49
  -3   0  11   19.71    1.15
   2   0 -11    1.50    0.68
   1   0 -11   32.94    1.71
   0   0 -11   12.25    1.21
  -1   0 -11   -0.37    0.40
  -1   0 -11   -0.08    0.51
  -2   0 -11    0.44    0.46
  -2   0 -11    0.25    0.63
  -3   0 -11    4.44    1.00
  -3   0 -11    4.67    0.83
  -5   1  11    3.07    0.83
   4  -1 -11   12.64    1.48
  -4   1  11   14.10    1.12
   3  -1 -11    7.73    1.09
   2  -1 -11    5.44    0.89
   1  -1 -11    2.02    0.71
   0  -1 -11   -0.23    0.56
  -1  -1 -11    1.67    0.75
  -1  -1 -11    2.13    0.57
  -2  -1 -11    1.02    0.57
  -2  -1 -11    0.27    0.64
   5  -2 -11    1.07    0.93
  -5   2  11    1.81    0.76
   4  -2 -11   41.85    2.23
  -4   2  11   44.95    1.83
   3  -2 -11   13.09    1.35
   2  -2 -11    0.18    0.56
   1  -2 -11    4.06    0.82
   0  -2 -11    2.02    0.79
  -1  -2 -11    0.83    0.77
  -2  -2 -11    2.26    0.64
  -2  -2 -11    1.33    0.85
   5  -3 -11   14.23    1.63
  -5   3  11   14.35    1.25
   4  -3 -11   15.58    1.57
   3  -3 -11   13.12    1.50
   2  -3 -11   -0.24    0.55
   1  -3 -11    1.32    0.76
   0  -3 -11   31.00    1.74
  -1  -3 -11    0.27    0.69
  -2  -3 -11    0.52    0.79
  -2  -3 -11    1.30    0.55
   5  -4 -11    2.97    1.00
  -5   4  11    5.75    0.97
   4  -4 -11   49.47    2.44
   3  -4 -11    8.67    1.23
   2  -4 -11    0.45    0.70
   1  -4 -11    0.25    0.73
   0  -4 -11    5.88    1.01
  -1  -4 -11    6.85    1.16
   5  -5 -11    3.92    1.08
   4  -5 -11    1.58    0.94
   3  -5 -11    1.85    0.80
   2  -5 -11    9.86    1.28
   1  -5 -11    0.39    0.69
   0  -5 -11    5.53    1.05
   4  -6 -11    3.17    1.06
   3  -6 -11    3.03    1.00
   2  -6 -11    0.75    0.72
   1  -6 -11    0.95    0.75
   0 -11  12    4.76    0.96
  -1  11 -12    3.85    0.87
  -1 -10  12   -0.26    0.68
   0  10 -12   -0.05    0.60
   0 -10  12    1.71    0.76
  -1  10 -12   -0.38    0.50
  -2  10 -12    0.31    0.69
  -2  -9  12    6.18    1.06
  -1  -9  12    1.04    0.81
   0   9 -12    2.57    0.66
  -1   9 -12    1.37    0.63
  -2   9 -12    0.54    0.57
  -3  -8  12    0.01    0.76
  -2  -8  12    3.14    0.95
  -1  -8  12    3.82    0.85
   0   8 -12    7.17    0.82
  -1   8 -12    0.01    0.51
  -2   8 -12    5.49    0.85
  -3   8 -12    0.35    0.60
  -3  -7  12    2.94    0.86
  -2  -7  12   -0.23    0.71
   1   7 -12    2.14    0.55
  -1  -7  12    1.31    0.69
   0   7 -12    2.20    0.57
  -1   7 -12    2.78    0.66
  -2   7 -12    0.51    0.54
  -3   7 -12    0.91    0.63
  -4  -6  12    1.17    0.86
  -3  -6  12    9.86    1.14
  -2  -6  12    1.94    0.65
   1   6 -12    1.86    0.53
   0   6 -12    0.17    0.44
  -1   6 -12    4.90    0.71
  -2   6 -12    3.86    0.70
  -3   6 -12    0.30    0.61
  -4  -5  12   15.60    1.29
  -3  -5  12   36.91    1.71
  -2  -5  12    0.53    0.54
   1   5 -12    4.33    0.81
   0   5 -12   14.69    0.94
  -1   5 -12    4.63    0.70
  -2   5 -12   -0.10    0.44
  -3   5 -12    4.14    0.78
  -4  -4  12   -0.38    0.57
  -3  -4  12    6.38    0.84
   2   4 -12   39.64    1.96
   1   4 -12    0.43    0.50
   0   4 -12    0.05    0.39
  -1   4 -12    3.69    0.64
  -2   4 -12    2.05    0.63
  -3   4 -12    4.80    0.82
  -4  -3  12   -0.72    0.53
   3   3 -12    0.60    0.64
  -3  -3  12   -0.27    0.50
   2   3 -12    1.90    0.67
   1   3 -12    4.23    0.80
   0   3 -12   11.81    0.87
   0   3 -12   14.02    1.19
  -1   3 -12    0.08    0.41
  -2   3 -12    1.43    0.55
  -3   3 -12    0.44    0.52
  -5  -2  12   -0.25    0.64
  -4  -2  12   -0.40    0.45
   3   2 -12   17.24    1.51
  -3  -2  12   16.66    1.05
   2   2 -12    1.30    0.70
   1   2 -12    1.36    0.64
   0   2 -12    4.10    0.79
  -1   2 -12    2.96    0.69
  -1   2 -12    2.76    0.60
  -2   2 -12    2.26    0.61
  -3   2 -12   -1.19    0.48
  -5  -1  12    6.47    1.03
   4   1 -12    0.09    0.76
  -4  -1  12    0.35    0.58
   3   1 -12    0.19    0.73
   2   1 -12    0.53    0.60
   1   1 -12   16.74    1.31
   0   1 -12    1.66    0.68
  -1   1 -12    1.32    0.66
  -1   1 -12    0.65    0.44
  -2   1 -12    0.41    0.69
  -2   1 -12    0.07    0.49
  -5   0  12   11.60    1.29
   4   0 -12    7.72    1.29
  -4   0  12    5.02    0.87
   3   0 -12    5.87    1.09
   2   0 -12    3.36    0.83
   1   0 -12    0.11    0.61
   0   0 -12    4.33    0.87
  -1   0 -12    2.18    0.69
  -2   0 -12    0.60    0.72
  -2   0 -12    0.48    0.49
  -5   1  12   -0.09    0.59
   4  -1 -12    0.81    0.79
   3  -1 -12    0.49    0.70
   2  -1 -12   -0.03    0.60
   1  -1 -12   32.59    1.85
   0  -1 -12    0.38    0.58
  -1  -1 -12    1.50    0.78
  -2  -1 -12    0.35    0.56
  -2  -1 -12    0.14    0.73
   5  -2 -12   11.28    1.58
  -5   2  12    8.67    1.14
   4  -2 -12    1.00    0.82
   3  -2 -12   -0.19    0.63
   2  -2 -12    1.96    0.85
   1  -2 -12    7.27    1.13
   0  -2 -12    8.29    1.14
  -1  -2 -12    1.06    0.80
   5  -3 -12    1.36    0.93
   4  -3 -12    0.48    0.80
   3  -3 -12   13.18    1.49
   2  -3 -12    6.42    1.13
   1  -3 -12    0.58    0.70
   0  -3 -12    1.48    0.78
  -1  -3 -12    1.06    0.83
   4  -4 -12   18.04    1.78
   3  -4 -12    0.41    0.83
   2  -4 -12    9.06    1.23
   1  -4 -12    3.30    0.91
   0  -4 -12    2.90    0.99
   3  -5 -12    5.79    1.14
   2  -5 -12    2.56    0.96
   1  -5 -12    4.10    0.97
  -1 -10  13   17.17    1.58
   0  10 -13    1.42    0.72
  -2  -9  13    9.25    1.43
   0   9 -13    4.63    0.79
  -1   9 -13    1.22    0.64
  -2  -8  13    1.86    0.85
   0   8 -13    0.68    0.57
  -1   8 -13    0.06    0.55
  -2   8 -13    6.69    1.01
  -3  -7  13    0.58    0.83
  -2  -7  13   14.69    1.41
   0   7 -13    4.35    0.71
  -1   7 -13    1.89    0.65
  -2   7 -13   -0.56    0.48
  -3  -6  13    4.30    0.90
   0   6 -13   -0.13    0.45
  -1   6 -13    0.56    0.49
  -2   6 -13    0.96    0.63
  -4  -5  13    1.66    1.00
  -3  -5  13    1.63    0.70
   2   5 -13    1.45    0.72
   0   5 -13    0.64    0.48
  -1   5 -13   -0.54    0.43
  -2   5 -13    4.55    0.78
  -4  -4  13    5.44    0.95
  -3  -4  13    0.69    0.57
   2   4 -13    0.09    0.58
   1   4 -13    0.74    0.57
  -1   4 -13   -0.20    0.45
  -2   4 -13    1.55    0.64
  -4  -3  13    1.68    0.72
   3   3 -13    2.47    0.87
   2   3 -13    4.63    0.95
   1   3 -13    3.76    0.82
   0   3 -13    2.36    0.71
  -1   3 -13   16.73    1.13
  -2   3 -13    0.59    0.54
  -4  -2  13    2.02    0.71
   3   2 -13    0.26    0.68
   2   2 -13    1.11    0.74
   1   2 -13    1.06    0.67
   0   2 -13   12.51    1.29
  -1   2 -13    6.09    0.92
  -1   2 -13    5.99    1.05
  -2   2 -13    5.09    0.84
   4   1 -13    0.46    0.79
   3   1 -13    0.65    0.74
   2   1 -13    2.18    0.83
   1   1 -13    1.51    0.74
   0   1 -13    5.16    0.90
  -1   1 -13   17.72    1.48
   4   0 -13   19.83    1.96
   3   0 -13    9.07    1.34
   2   0 -13   25.01    1.74
   1   0 -13   -0.32    0.61
   0   0 -13    5.77    1.00
  -1   0 -13    0.39    0.61
   4  -1 -13   18.68    1.97
   3  -1 -13   14.48    1.59
   2  -1 -13    4.63    1.00
   1  -1 -13   30.02    1.91
   0  -1 -13    0.66    0.73
  -1  -1 -13   -0.01    0.72
   4  -2 -13    2.39    0.98
   3  -2 -13   20.12    1.78
   2  -2 -13    5.79    1.09
   1  -2 -13    0.59    0.69
   0  -2 -13    0.94    0.71
   3  -3 -13   -0.19    0.71
   2  -3 -13    7.59    1.28
   1  -3 -13   19.64    1.76
   0   8 -14    1.84    0.67
   0   7 -14   -0.50    0.50
  -1   7 -14   -0.27    0.57
  -1   6 -14    0.17    0.56
   2   5 -14    5.51    1.20
  -1   5 -14    1.65    0.60
   2   4 -14    2.82    0.90
  -1   4 -14    0.73    0.60
   3   3 -14    0.77    0.76
   2   3 -14   11.22    1.38
   1   3 -14    6.01    1.02
   3   2 -14    3.66    1.07
   2   2 -14    1.39    0.75
   1   2 -14    4.41    0.96
   0   2 -14   14.29    1.48
   3   1 -14    8.11    1.28
   2   1 -14    4.62    1.06
   1   1 -14    0.55    0.69
   0   1 -14    1.09    0.71
   3   0 -14    1.15    0.93
   2   0 -14   -0.76    0.71
   1   0 -14    0.77    0.76
   0   0 -14    0.00    0.69
   3  -1 -14    4.74    1.15
   2  -1 -14    1.93    0.96
   1  -1 -14    8.77    1.21
   2   4 -15    6.31    1.17
   2   3 -15    3.50    1.01
   1   3 -15    2.05    0.88
   0   0   0    0.00    0.00


 _exptl_absorpt_process_details 'SADABS 2014/5'
 _exptl_absorpt_correction_type   multi-scan
 _exptl_absorpt_correction_T_max  0.7456
 _exptl_absorpt_correction_T_min  0.6829
 _exptl_special_details
)
 The following wavelength and cell were deduced by SADABS from the
 direction cosines etc. They are given here for emergency use only:
 CELL 0.71127    5.720   11.154   11.590  104.528  100.445  103.326
)

_computing_structure_solution     'SHELXT 2014/5 (Sheldrick, 2014)'
;
_shelx_hkl_checksum              76048
_olex2_submission_special_instructions 'No special instructions were received'
loop_
_space_group_symop_operation_xyz
'x, y, z'
'-x, -y, -z'
loop_
_atom_site_label
_atom_site_type_symbol
_atom_site_fract_x
_atom_site_fract_y
_atom_site_fract_z
_atom_site_U_iso_or_equiv
_atom_site_adp_type
_atom_site_occupancy
_atom_site_site_symmetry_order
_atom_site_calc_flag
_atom_site_refinement_flags_posn
_atom_site_refinement_flags_adp
_atom_site_refinement_flags_occupancy
_atom_site_disorder_assembly
_atom_site_disorder_group
O1 O 0.7094(3) 0.13885(17) -0.02015(13) 0.0726(5) Uani 1 1 d . . . . .
O2 O 0.5709(2) 0.34552(12) 0.39688(11) 0.0494(3) Uani 1 1 d . . . . .
N1 N 0.6679(3) 0.20824(14) 0.17882(13) 0.0451(4) Uani 1 1 d . . . . .
C1 C 0.7493(4) 0.13763(19) 0.08656(17) 0.0515(5) Uani 1 1 d . . . . .
C2 C 0.5279(3) 0.29747(16) 0.17424(16) 0.0435(4) Uani 1 1 d . . . . .
C3 C 0.4819(3) 0.36294(16) 0.28482(16) 0.0420(4) Uani 1 1 d . . . . .
C4 C 0.7742(4) 0.29012(19) 0.40224(16) 0.0486(4) Uani 1 1 d . . . . .
H4 H 0.924756 0.355443 0.400233 0.058 Uiso 1 1 calc R . . . .
C5 C 0.7157(4) 0.17217(18) 0.29296(16) 0.0483(4) Uani 1 1 d . . . . .
H5 H 0.563377 0.107249 0.293791 0.058 Uiso 1 1 calc R . . . .
C6 C 0.9208(4) 0.1059(2) 0.27930(17) 0.0513(5) Uani 1 1 d . . . . .
H6A H 1.086611 0.168177 0.321488 0.062 Uiso 1 1 calc R . . . .
H6B H 0.899188 0.032723 0.314385 0.062 Uiso 1 1 calc R . . . .
C7 C 0.8918(4) 0.0575(2) 0.14081(18) 0.0599(5) Uani 1 1 d . . . . .
H7A H 1.056342 0.069819 0.121990 0.072 Uiso 1 1 calc R . . . .
H7B H 0.799206 -0.035788 0.107099 0.072 Uiso 1 1 calc R . . . .
C8 C 0.8237(3) 0.26069(18) 0.52404(16) 0.0458(4) Uani 1 1 d . . . . .
C9 C 1.0616(4) 0.3024(2) 0.59683(18) 0.0574(5) Uani 1 1 d . . . . .
H9 H 1.191630 0.349290 0.570469 0.069 Uiso 1 1 calc R . . . .
C10 C 1.1151(4) 0.2771(2) 0.70825(19) 0.0659(6) Uani 1 1 d . . . . .
H10 H 1.281136 0.306615 0.757578 0.079 Uiso 1 1 calc R . . . .
C11 C 0.9292(4) 0.2095(2) 0.74811(18) 0.0595(5) Uani 1 1 d . . . . .
H11 H 0.966212 0.192370 0.824713 0.071 Uiso 1 1 calc R . . . .
C12 C 0.6894(4) 0.1671(2) 0.6759(2) 0.0609(5) Uani 1 1 d . . . . .
H12 H 0.560088 0.120575 0.702907 0.073 Uiso 1 1 calc R . . . .
C13 C 0.6352(4) 0.1919(2) 0.56335(18) 0.0561(5) Uani 1 1 d . . . . .
H13 H 0.469433 0.161905 0.513575 0.067 Uiso 1 1 calc R . . . .
C14 C 0.3381(4) 0.44799(18) 0.28597(19) 0.0517(5) Uani 1 1 d . . . . .
H14 H 0.306883 0.491014 0.361171 0.062 Uiso 1 1 calc R . . . .
C15 C 0.2401(4) 0.4703(2) 0.1777(2) 0.0636(6) Uani 1 1 d . . . . .
H15 H 0.138749 0.527344 0.178025 0.076 Uiso 1 1 calc R . . . .
C16 C 0.2899(5) 0.4094(2) 0.0691(2) 0.0697(6) Uani 1 1 d . . . . .
H16 H 0.224808 0.426232 -0.004837 0.084 Uiso 1 1 calc R . . . .
C17 C 0.4336(4) 0.3241(2) 0.06657(18) 0.0595(5) Uani 1 1 d . . . . .
H17 H 0.467849 0.283622 -0.008665 0.071 Uiso 1 1 calc R . . . .
loop_
_atom_site_aniso_label
_atom_site_aniso_U_11
_atom_site_aniso_U_22
_atom_site_aniso_U_33
_atom_site_aniso_U_23
_atom_site_aniso_U_13
_atom_site_aniso_U_12
O1 0.0920(12) 0.0930(12) 0.0434(8) 0.0198(7) 0.0286(7) 0.0392(10)
O2 0.0639(8) 0.0554(8) 0.0423(7) 0.0189(6) 0.0218(6) 0.0320(6)
N1 0.0559(9) 0.0459(8) 0.0381(7) 0.0129(6) 0.0150(6) 0.0206(7)
C1 0.0545(11) 0.0551(11) 0.0444(10) 0.0097(8) 0.0191(8) 0.0157(9)
C2 0.0490(10) 0.0375(9) 0.0429(9) 0.0132(7) 0.0099(7) 0.0107(7)
C3 0.0445(9) 0.0383(9) 0.0448(9) 0.0157(7) 0.0119(7) 0.0111(7)
C4 0.0536(10) 0.0543(11) 0.0457(10) 0.0181(8) 0.0186(8) 0.0227(9)
C5 0.0590(11) 0.0490(10) 0.0430(9) 0.0158(8) 0.0157(8) 0.0232(9)
C6 0.0536(11) 0.0580(11) 0.0510(10) 0.0172(9) 0.0193(8) 0.0272(9)
C7 0.0628(12) 0.0667(13) 0.0515(11) 0.0063(9) 0.0170(9) 0.0318(10)
C8 0.0534(10) 0.0525(10) 0.0399(9) 0.0152(8) 0.0183(8) 0.0249(8)
C9 0.0547(11) 0.0712(13) 0.0498(11) 0.0181(9) 0.0198(9) 0.0200(10)
C10 0.0592(13) 0.0911(16) 0.0479(11) 0.0169(11) 0.0081(9) 0.0313(12)
C11 0.0842(15) 0.0652(13) 0.0449(10) 0.0237(9) 0.0199(10) 0.0412(12)
C12 0.0777(14) 0.0543(12) 0.0616(12) 0.0255(10) 0.0333(11) 0.0188(10)
C13 0.0516(11) 0.0638(12) 0.0525(11) 0.0174(9) 0.0137(9) 0.0157(9)
C14 0.0555(11) 0.0425(10) 0.0602(11) 0.0158(8) 0.0169(9) 0.0183(8)
C15 0.0677(13) 0.0508(12) 0.0746(14) 0.0224(10) 0.0067(11) 0.0266(10)
C16 0.0902(17) 0.0598(13) 0.0582(13) 0.0240(10) -0.0002(11) 0.0283(12)
C17 0.0786(14) 0.0540(11) 0.0433(10) 0.0152(9) 0.0070(9) 0.0205(10)
loop_
_atom_type_symbol
_atom_type_description
_atom_type_scat_dispersion_real
_atom_type_scat_dispersion_imag
_atom_type_scat_source
C C 0.0033 0.0016 'International Tables Vol C Tables 4.2.6.8 and 6.1.1.4'
H H 0.0000 0.0000 'International Tables Vol C Tables 4.2.6.8 and 6.1.1.4'
N N 0.0061 0.0033 'International Tables Vol C Tables 4.2.6.8 and 6.1.1.4'
O O 0.0106 0.0060 'International Tables Vol C Tables 4.2.6.8 and 6.1.1.4'
loop_
_geom_angle_atom_site_label_1
_geom_angle_atom_site_label_2
_geom_angle_atom_site_label_3
_geom_angle
_geom_angle_site_symmetry_1
_geom_angle_site_symmetry_3
_geom_angle_publ_flag
C3 O2 C4 115.08(13) . . ?
C1 N1 C2 129.36(15) . . ?
C1 N1 C5 112.74(15) . . ?
C2 N1 C5 117.56(14) . . ?
O1 C1 N1 125.73(19) . . ?
O1 C1 C7 126.48(18) . . ?
N1 C1 C7 107.79(15) . . ?
C3 C2 N1 117.83(15) . . ?
C17 C2 N1 123.77(17) . . ?
C17 C2 C3 118.40(17) . . ?
O2 C3 C2 123.01(15) . . ?
O2 C3 C14 116.22(16) . . ?
C14 C3 C2 120.76(17) . . ?
O2 C4 H4 108.7 . . ?
O2 C4 C5 109.96(15) . . ?
O2 C4 C8 107.90(14) . . ?
C5 C4 H4 108.7 . . ?
C5 C4 C8 112.72(15) . . ?
C8 C4 H4 108.7 . . ?
N1 C5 C4 109.47(15) . . ?
N1 C5 H5 109.0 . . ?
N1 C5 C6 103.25(14) . . ?
C4 C5 H5 109.0 . . ?
C4 C5 C6 116.92(16) . . ?
C6 C5 H5 109.0 . . ?
C5 C6 H6A 110.8 . . ?
C5 C6 H6B 110.8 . . ?
H6A C6 H6B 108.9 . . ?
C7 C6 C5 104.57(15) . . ?
C7 C6 H6A 110.8 . . ?
C7 C6 H6B 110.8 . . ?
C1 C7 C6 105.60(16) . . ?
C1 C7 H7A 110.6 . . ?
C1 C7 H7B 110.6 . . ?
C6 C7 H7A 110.6 . . ?
C6 C7 H7B 110.6 . . ?
H7A C7 H7B 108.8 . . ?
C9 C8 C4 118.96(17) . . ?
C9 C8 C13 119.10(17) . . ?
C13 C8 C4 121.94(17) . . ?
C8 C9 H9 119.6 . . ?
C8 C9 C10 120.8(2) . . ?
C10 C9 H9 119.6 . . ?
C9 C10 H10 119.8 . . ?
C11 C10 C9 120.4(2) . . ?
C11 C10 H10 119.8 . . ?
C10 C11 H11 120.3 . . ?
C12 C11 C10 119.32(19) . . ?
C12 C11 H11 120.3 . . ?
C11 C12 H12 119.8 . . ?
C11 C12 C13 120.4(2) . . ?
C13 C12 H12 119.8 . . ?
C8 C13 C12 119.93(19) . . ?
C8 C13 H13 120.0 . . ?
C12 C13 H13 120.0 . . ?
C3 C14 H14 120.0 . . ?
C15 C14 C3 120.00(19) . . ?
C15 C14 H14 120.0 . . ?
C14 C15 H15 120.1 . . ?
C16 C15 C14 119.77(19) . . ?
C16 C15 H15 120.1 . . ?
C15 C16 H16 119.6 . . ?
C15 C16 C17 120.86(19) . . ?
C17 C16 H16 119.6 . . ?
C2 C17 H17 119.9 . . ?
C16 C17 C2 120.1(2) . . ?
C16 C17 H17 119.9 . . ?
loop_
_geom_bond_atom_site_label_1
_geom_bond_atom_site_label_2
_geom_bond_distance
_geom_bond_site_symmetry_2
_geom_bond_publ_flag
O1 C1 1.219(2) . ?
O2 C3 1.382(2) . ?
O2 C4 1.431(2) . ?
N1 C1 1.376(2) . ?
N1 C2 1.413(2) . ?
N1 C5 1.472(2) . ?
C1 C7 1.508(3) . ?
C2 C3 1.405(2) . ?
C2 C17 1.395(2) . ?
C3 C14 1.384(3) . ?
C4 H4 1.0000 . ?
C4 C5 1.497(3) . ?
C4 C8 1.518(2) . ?
C5 H5 1.0000 . ?
C5 C6 1.530(3) . ?
C6 H6A 0.9900 . ?
C6 H6B 0.9900 . ?
C6 C7 1.521(3) . ?
C7 H7A 0.9900 . ?
C7 H7B 0.9900 . ?
C8 C9 1.370(3) . ?
C8 C13 1.389(3) . ?
C9 H9 0.9500 . ?
C9 C10 1.383(3) . ?
C10 H10 0.9500 . ?
C10 C11 1.376(3) . ?
C11 H11 0.9500 . ?
C11 C12 1.376(3) . ?
C12 H12 0.9500 . ?
C12 C13 1.394(3) . ?
C13 H13 0.9500 . ?
C14 H14 0.9500 . ?
C14 C15 1.383(3) . ?
C15 H15 0.9500 . ?
C15 C16 1.380(3) . ?
C16 H16 0.9500 . ?
C16 C17 1.386(3) . ?
C17 H17 0.9500 . ?
loop_
_geom_torsion_atom_site_label_1
_geom_torsion_atom_site_label_2
_geom_torsion_atom_site_label_3
_geom_torsion_atom_site_label_4
_geom_torsion
_geom_torsion_site_symmetry_1
_geom_torsion_site_symmetry_2
_geom_torsion_site_symmetry_3
_geom_torsion_site_symmetry_4
_geom_torsion_publ_flag
O1 C1 C7 C6 171.8(2) . . . . ?
O2 C3 C14 C15 -179.51(17) . . . . ?
O2 C4 C5 N1 59.0(2) . . . . ?
O2 C4 C5 C6 175.93(15) . . . . ?
O2 C4 C8 C9 -130.16(18) . . . . ?
O2 C4 C8 C13 50.3(2) . . . . ?
N1 C1 C7 C6 -9.1(2) . . . . ?
N1 C2 C3 O2 1.2(3) . . . . ?
N1 C2 C3 C14 -177.56(16) . . . . ?
N1 C2 C17 C16 177.55(19) . . . . ?
N1 C5 C6 C7 -24.3(2) . . . . ?
C1 N1 C2 C3 -176.18(17) . . . . ?
C1 N1 C2 C17 3.8(3) . . . . ?
C1 N1 C5 C4 145.43(16) . . . . ?
C1 N1 C5 C6 20.2(2) . . . . ?
C2 N1 C1 O1 -1.1(3) . . . . ?
C2 N1 C1 C7 179.78(18) . . . . ?
C2 N1 C5 C4 -40.7(2) . . . . ?
C2 N1 C5 C6 -165.88(15) . . . . ?
C2 C3 C14 C15 -0.6(3) . . . . ?
C3 O2 C4 C5 -48.9(2) . . . . ?
C3 O2 C4 C8 -172.22(14) . . . . ?
C3 C2 C17 C16 -2.5(3) . . . . ?
C3 C14 C15 C16 -1.2(3) . . . . ?
C4 O2 C3 C2 19.0(2) . . . . ?
C4 O2 C3 C14 -162.18(16) . . . . ?
C4 C5 C6 C7 -144.57(18) . . . . ?
C4 C8 C9 C10 -179.69(19) . . . . ?
C4 C8 C13 C12 179.94(18) . . . . ?
C5 N1 C1 O1 171.87(19) . . . . ?
C5 N1 C1 C7 -7.2(2) . . . . ?
C5 N1 C2 C3 11.1(2) . . . . ?
C5 N1 C2 C17 -168.96(17) . . . . ?
C5 C4 C8 C9 108.2(2) . . . . ?
C5 C4 C8 C13 -71.3(2) . . . . ?
C5 C6 C7 C1 20.8(2) . . . . ?
C8 C4 C5 N1 179.48(15) . . . . ?
C8 C4 C5 C6 -63.6(2) . . . . ?
C8 C9 C10 C11 -0.1(3) . . . . ?
C9 C8 C13 C12 0.4(3) . . . . ?
C9 C10 C11 C12 0.1(3) . . . . ?
C10 C11 C12 C13 0.2(3) . . . . ?
C11 C12 C13 C8 -0.4(3) . . . . ?
C13 C8 C9 C10 -0.2(3) . . . . ?
C14 C15 C16 C17 1.2(4) . . . . ?
C15 C16 C17 C2 0.7(4) . . . . ?
C17 C2 C3 O2 -178.73(17) . . . . ?
C17 C2 C3 C14 2.5(3) . . . . ?
