#------------------------------------------------------------------------------
#$Date: 2020-08-14 02:05:52 +0300 (Fri, 14 Aug 2020) $
#$Revision: 255298 $
#$URL: file:///home/coder/svn-repositories/cod/cif/4/03/86/4038693.cif $
#------------------------------------------------------------------------------
#
# This file is available in the Crystallography Open Database (COD),
# http://www.crystallography.net/
#
# All data on this site have been placed in the public domain by the
# contributors.
#
data_4038693
loop_
_publ_author_name
'Rowlands, Gareth J.'
'Severinsen, Rebecca J.'
'Buchanan, Jenna K.'
'Shaffer, Karl J.'
'Jameson, Heather T.'
'Thennakoon, Nishani'
'Leito, Ivo'
'L\~okov, M\"art'
'K\"utt, Agnes'
'Vianello, Robert'
'Despotovi\'c, Ines'
'Radi\'c, Nena'
'Plieger, Paul G.'
_publ_section_title
;
 Synthesis and Basicity Studies of Quinolino[7,8-h]quinoline Derivatives
;
_journal_name_full               'The Journal of Organic Chemistry'
_journal_paper_doi               10.1021/acs.joc.0c01428
_journal_year                    2020
_chemical_formula_moiety         'C16 H7 Cl N4 O5, C2 H3 N'
_chemical_formula_sum            'C18 H10 Cl N5 O5'
_chemical_formula_weight         411.76
_space_group_crystal_system      monoclinic
_space_group_IT_number           11
_space_group_name_Hall           '-P 2yb'
_space_group_name_H-M_alt        'P 1 21/m 1'
_atom_sites_solution_hydrogens   mixed
_atom_sites_solution_primary     iterative
_audit_creation_date             2015-12-04
_audit_creation_method
;
Olex2 1.2-alpha
(compiled 2015.01.12 svn.r3133 for OlexSys, GUI svn.r4987)
;
_cell_angle_alpha                90
_cell_angle_beta                 95.267(8)
_cell_angle_gamma                90
_cell_formula_units_Z            2
_cell_length_a                   9.8312(12)
_cell_length_b                   6.6242(9)
_cell_length_c                   12.7222(19)
_cell_measurement_reflns_used    495
_cell_measurement_temperature    123
_cell_measurement_theta_max      68.7
_cell_measurement_theta_min      7.0
_cell_volume                     825.02(19)
_computing_cell_refinement
;
CrystalClear-SM Expert 2.0 rc14 (Rigaku, 2009)
;
_computing_data_collection
;
CrystalClear-SM Expert 2.0 rc14 (Rigaku, 2009)
;
_computing_data_reduction
;
CrystalClear-SM Expert 2.0 rc14 (Rigaku, 2009)
;
_computing_molecular_graphics    'Olex2 (Dolomanov et al., 2009)'
_computing_publication_material  'Olex2 (Dolomanov et al., 2009)'
_computing_structure_refinement  'ShelXL (Sheldrick, 2008)'
_computing_structure_solution
;
Superflip (Palatinus & Chapuis, 2007;Palatinus & van der Lee, 2008;
Palatinus et al., 2012)
;
_diffrn_ambient_temperature      123
_diffrn_detector                 RX
_diffrn_detector_area_resol_mean 10.0000
_diffrn_measured_fraction_theta_full 0.988
_diffrn_measured_fraction_theta_max 0.974
_diffrn_measurement_details
;
scan:
	Number of images: 60
	           Slice: 20.0000 - 200.0000
	     Image width: 3.0000
	        Exp time: 60.0000
	   Rotation axis: Omega
	           Omega: 0.0000
	             Chi: 54.0000
	             Phi: 0.0000
	             XTD: 127.4000
	          2theta: -0.1435
scan:
	Number of images: 60
	           Slice: 20.0000 - 200.0000
	     Image width: 3.0000
	        Exp time: 60.0000
	   Rotation axis: Omega
	           Omega: 0.0000
	             Chi: 54.0000
	             Phi: 270.0000
	             XTD: 127.4000
	          2theta: -0.1259
scan:
	Number of images: 50
	           Slice: 20.0000 - 170.0000
	     Image width: 3.0000
	        Exp time: 60.0000
	   Rotation axis: Omega
	           Omega: 0.0000
	             Chi: 54.0000
	             Phi: 90.0000
	             XTD: 127.4000
	          2theta: -0.1259
scan:
	Number of images: 53
	           Slice: 24.0000 - 184.0000
	     Image width: 3.0000
	        Exp time: 60.0000
	   Rotation axis: Omega
	           Omega: 0.0000
	             Chi: 54.0000
	             Phi: 180.0000
	             XTD: 127.4000
	          2theta: -0.1259
scan:
	Number of images: 60
	           Slice: 20.0000 - 200.0000
	     Image width: 3.0000
	        Exp time: 60.0000
	   Rotation axis: Omega
	           Omega: 0.0000
	             Chi: 0.0000
	             Phi: 0.0000
	             XTD: 127.4000
	          2theta: -0.1259
;
_diffrn_measurement_device
;
Crystal Goniometer
;
_diffrn_measurement_device_type
;
Rigaku RAXIS conversion
;
_diffrn_measurement_method       'profile data from \w-scans'
_diffrn_measurement_specimen_support Loop
_diffrn_orient_matrix_type       FS_PROCESS
_diffrn_orient_matrix_UB_11      -0.003145
_diffrn_orient_matrix_UB_12      0.008935
_diffrn_orient_matrix_UB_13      0.078205
_diffrn_orient_matrix_UB_21      0.100441
_diffrn_orient_matrix_UB_22      0.027328
_diffrn_orient_matrix_UB_23      0.008666
_diffrn_orient_matrix_UB_31      -0.018332
_diffrn_orient_matrix_UB_32      0.148197
_diffrn_orient_matrix_UB_33      -0.006313
_diffrn_radiation_monochromator  Confocal
_diffrn_radiation_type           CuK\a
_diffrn_radiation_wavelength     1.54187
_diffrn_reflns_av_R_equivalents  0.1035
_diffrn_reflns_av_unetI/netI     0.1196
_diffrn_reflns_Laue_measured_fraction_full 0.988
_diffrn_reflns_Laue_measured_fraction_max 0.974
_diffrn_reflns_limit_h_max       12
_diffrn_reflns_limit_h_min       -12
_diffrn_reflns_limit_k_max       6
_diffrn_reflns_limit_k_min       -7
_diffrn_reflns_limit_l_max       15
_diffrn_reflns_limit_l_min       -15
_diffrn_reflns_number            9287
_diffrn_reflns_point_group_measured_fraction_full 0.988
_diffrn_reflns_point_group_measured_fraction_max 0.974
_diffrn_reflns_theta_full        67.687
_diffrn_reflns_theta_max         72.038
_diffrn_reflns_theta_min         6.991
_diffrn_source                   'Rotating Anode'
_diffrn_source_current           40.0
_diffrn_source_power             2.0
_diffrn_source_voltage           50.0
_exptl_absorpt_coefficient_mu    2.485
_exptl_absorpt_correction_T_max  1.000
_exptl_absorpt_correction_T_min  0.806
_exptl_absorpt_correction_type   multi-scan
_exptl_absorpt_process_details   '(ABSCOR; Higashi, 1995)'
_exptl_crystal_colour            Yellow
_exptl_crystal_density_diffrn    1.658
_exptl_crystal_description       Platelet
_exptl_crystal_F_000             420
_exptl_crystal_size_max          0.2
_exptl_crystal_size_mid          0.02
_exptl_crystal_size_min          0.02
_refine_diff_density_max         0.597
_refine_diff_density_min         -0.520
_refine_diff_density_rms         0.089
_refine_ls_extinction_method     none
_refine_ls_goodness_of_fit_ref   0.996
_refine_ls_hydrogen_treatment    mixed
_refine_ls_matrix_type           full
_refine_ls_number_parameters     191
_refine_ls_number_reflns         1729
_refine_ls_number_restraints     0
_refine_ls_restrained_S_all      0.996
_refine_ls_R_factor_all          0.1521
_refine_ls_R_factor_gt           0.0762
_refine_ls_shift/su_max          0.000
_refine_ls_shift/su_mean         0.000
_refine_ls_structure_factor_coef Fsqd
_refine_ls_weighting_details
'w=1/[\s^2^(Fo^2^)+(0.0949P)^2^] where P=(Fo^2^+2Fc^2^)/3'
_refine_ls_weighting_scheme      calc
_refine_ls_wR_factor_gt          0.1589
_refine_ls_wR_factor_ref         0.2062
_reflns_Friedel_coverage         0.000
_reflns_number_gt                874
_reflns_number_total             1729
_reflns_threshold_expression     'I > 2\s(I)'
_cod_data_source_file            jo0c01428_si_002.cif
_cod_data_source_block           33
_cod_depositor_comments
;
The following automatic conversions were performed:

data item '_exptl_absorpt_correction_type' value 'Multi-scan' was
changed to 'multi-scan' in accordance with the
/home/data/users/saulius/crontab/automatic-downloads/rss-feeds/ACS/lib/dictionaries/cif_core.dic
dictionary named 'cif_core.dic' version 2.4.2 last updated on
2011-04-26.

Automatic conversion script
Id: cif_fix_values 7556 2019-12-06 15:28:31Z antanas 
;
_cod_database_code               4038693
_shelx_space_group_comment
;
The symmetry employed for this shelxl refinement is uniquely defined
by the following loop, which should always be used as a source of
symmetry information in preference to the above space-group names.
They are only intended as comments.
;
_olex2_refinement_description
;
1. Fixed Uiso
 At 1.2 times of:
  All C(H) groups
 At 1.5 times of:
  All C(H,H,H) groups
2. Others
 Fixed Sof: O3(0.5) O4(0.5) N23(0.5) N26(0.5) H3AA(0.5) H3AB(0.5) H3AC(0.5)
3.a Aromatic/amide H refined with riding coordinates:
 C2(H2), C3(H3), C5(H5), C8(H8), C10(H10), C11(H11)
3.b Idealised Me refined as rotating group:
 C3AC(H3AA,H3AB,H3AC)
;
_shelx_res_file
;
    shelx.res created by SHELXL-2014/7

TITL
CELL 1.54187 9.8312 6.6242 12.7222 90 95.2671 90
ZERR 2 0.0012 0.0009 0.0019 0 0.0082 0
LATT 1
SYMM -X,0.5+Y,-Z
SFAC C H N O Cl
UNIT 36 20 10 10 2

L.S. 4 0 0
PLAN  2
MORE -1
BOND $H
CONF
fmap 2 53
acta
OMIT 4 7 0
REM <olex2.extras>
REM <HklSrc "%.\\shelx.hkl">
REM </olex2.extras>

WGHT    0.094900
FVAR       0.23331
CL1   5    0.466386    0.750000   -0.014276    10.50000    0.04006    0.03754 =
         0.02472    0.00000    0.00129    0.00000
O1    4    0.364582    0.750000    0.763954    10.50000    0.04113    0.04173 =
         0.02594    0.00000    0.00461    0.00000
PART 1
O2    4    0.023801    0.750000    0.148718    10.50000    0.03201    0.19157 =
         0.03519    0.00000   -0.00380    0.00000
O3    4    0.036804    0.977198    0.293367    10.50000    0.03081    0.04231 =
         0.03671   -0.00400    0.00214    0.00181
PART 0
PART 2
O4    4    0.018279    0.565689    0.355797    10.50000    0.03578    0.04697 =
         0.03955    0.00082   -0.00230   -0.00914
O5    4   -0.032284    0.750000    0.492619    10.50000    0.02847    0.08403 =
         0.03691    0.00000    0.01202    0.00000
PART 0
N1    3    0.643780    0.750000    0.325028    10.50000    0.02886    0.02504 =
         0.02704    0.00000    0.00233    0.00000

N1AC  3    0.844076    0.750000    0.911453    10.50000    0.04279    0.12868 =
         0.04105    0.00000    0.00300    0.00000
N12   3    0.613069    0.750000    0.526358    10.50000    0.03047    0.03080 =
         0.01934    0.00000    0.00138    0.00000
PART 1
N23   3    0.085246    0.855886    0.232368    10.50000    0.02630    0.04225 =
         0.03682    0.00571    0.00183    0.00336
PART 0
PART 2
N26   3    0.049614    0.679555    0.432313    10.50000    0.03513    0.02914 =
         0.03605    0.01167   -0.00140    0.00469
PART 0
C2    1    0.722103    0.750000    0.244651    10.50000    0.02065    0.04057 =
         0.02720    0.00000    0.00129    0.00000
AFIX  43
H2    2    0.816359    0.750000    0.260458    10.50000   -1.20000
AFIX   0

C2AC  1    0.957074    0.750000    0.901101    10.50000    0.04876    0.09210 =
         0.04324    0.00000   -0.00004    0.00000
C3    1    0.672271    0.750000    0.139687    10.50000    0.03617    0.03518 =
         0.02308    0.00000    0.00557    0.00000
AFIX  43
H3    2    0.731432    0.750000    0.086689    10.50000   -1.20000
AFIX   0

C3AC  1    1.100535    0.750000    0.887276    10.50000    0.03941    0.21773 =
         0.06262    0.00000    0.01588    0.00000
PART -1
AFIX 137
H3AA  2    1.146488    0.654241    0.934781    10.50000   -1.50000
H3AB  2    1.137393    0.882286    0.901946    10.50000   -1.50000
H3AC  2    1.113548    0.713473    0.815866    10.50000   -1.50000
AFIX   0

PART 0
C4    1    0.533608    0.750000    0.115337    10.50000    0.03518    0.03032 =
         0.02453    0.00000    0.00628    0.00000
C5    1    0.304123    0.750000    0.178045    10.50000    0.03223    0.08206 =
         0.01942    0.00000   -0.00594    0.00000
AFIX  43
H5    2    0.264080    0.750000    0.108915    10.50000   -1.20000
AFIX   0
C6    1    0.225642    0.750000    0.258687    10.50000    0.02975    0.08496 =
         0.02829    0.00000   -0.00139    0.00000
C7    1    0.194573    0.750000    0.451851    10.50000    0.02220    0.04547 =
         0.02863    0.00000    0.00354    0.00000
C8    1    0.245788    0.750000    0.555392    10.50000    0.02642    0.04132 =
         0.03246    0.00000    0.01527    0.00000
AFIX  43
H8    2    0.186878    0.750000    0.608561    10.50000   -1.20000
AFIX   0
C9    1    0.443154    0.750000    0.693051    10.50000    0.03690    0.01508 =
         0.02713    0.00000   -0.00063    0.00000
C10   1    0.587620    0.750000    0.711399    10.50000    0.03795    0.02944 =
         0.02221    0.00000   -0.00775    0.00000
AFIX  43
H10   2    0.628542    0.750000    0.780272    10.50000   -1.20000
AFIX   0
C11   1    0.666869    0.750000    0.629280    10.50000    0.03018    0.02368 =
         0.02761    0.00000   -0.00725    0.00000
AFIX  43
H11   2    0.761335    0.750000    0.643704    10.50000   -1.20000
AFIX   0
C13   1    0.475607    0.750000    0.498994    10.50000    0.02831    0.01456 =
         0.02591    0.00000   -0.00066    0.00000
C14   1    0.387797    0.750000    0.581168    10.50000    0.03185    0.02761 =
         0.01777    0.00000    0.00126    0.00000
C15   1    0.419752    0.750000    0.390310    10.50000    0.03149    0.02260 =
         0.01969    0.00000    0.00238    0.00000
C16   1    0.276863    0.750000    0.366975    10.50000    0.02819    0.02009 =
         0.02452    0.00000    0.01008    0.00000
C17   1    0.507049    0.750000    0.302540    10.50000    0.02726    0.01983 =
         0.02001    0.00000    0.00203    0.00000
C18   1    0.446202    0.750000    0.197936    10.50000    0.03580    0.01028 =
         0.02487    0.00000    0.00913    0.00000
H12   2    0.664536    0.750000    0.470956    10.50000    0.04026
HKLF 4

REM
REM R1 =  0.0762 for     874 Fo > 4sig(Fo)  and  0.1521 for all    1729 data
REM    191 parameters refined using      0 restraints

END

WGHT      0.0949      0.0000

REM Highest difference peak  0.597,  deepest hole -0.520,  1-sigma level  0.089
Q1    1   0.4158  0.7500 -0.1211  10.50000  0.05    0.60
Q2    1   0.3791  0.7500 -0.0164  10.50000  0.05    0.40
;
_shelx_res_checksum              76522
_shelx_hkl_file
;
   0   0   2    2.86    0.76
   0   0   2    3.47    1.00
   0   0   2    2.97    0.64
   0   0   2    4.10    1.15
   0   0   2    3.29    0.37
   0   0  -2    3.60    0.89
   0   0  -2    3.45    0.70
   0   0  -2    3.31    0.59
   0   0  -2    0.24    1.17
   0   0   3    1.04    0.82
   0   0   3    0.89    0.66
   0   0   3    1.18    1.14
   0   0   3    1.38    0.59
   0   0   3    1.73    0.91
   0   0  -3    1.25    1.05
   0   0  -3    1.36    1.12
   0   0  -3    1.36    0.77
   0   0  -3    0.91    0.44
   0   0   4   15.45    3.90
   0   0   4   16.35    1.21
   0   0   4   16.28    1.74
   0   0   4   14.93    1.89
   0   0   4   13.39    1.86
   0   0  -4   16.02    2.18
   0   0  -4   16.34    1.71
   0   0  -4   13.85    2.62
   0   0  -4   14.50    1.18
   0   0   5   19.56    2.23
   0   0   5    4.33    4.50
   0   0   5   17.79    1.81
   0   0   5   18.77    2.28
   0   0   5   20.62    1.36
   0   0   5   16.68    1.09
   0   0  -5   17.12    2.91
   0   0  -5   21.78    2.29
   0   0  -5   19.06    4.96
   0   0   6    8.24    0.65
   0   0   6   11.35    3.16
   0   0   6   11.81    1.97
   0   0   6    8.62    0.99
   0   0   6   13.17    2.09
   0   0   6    9.57    1.48
   0   0  -6   15.44    4.55
   0   0  -6   15.68    2.91
   0   0  -6    8.45    1.75
   0   0   7    9.57    1.97
   0   0   7    7.75    0.66
   0   0   7   10.86    2.70
   0   0   7    6.79    1.43
   0   0   7    9.88    1.94
   0   0  -7   10.60    2.78
   0   0  -7    9.01    1.85
   0   0  -7   10.98    2.73
   0   0   8   41.21    4.71
   0   0   8   45.59    4.77
   0   0   8   44.35    7.96
   0   0  -8   40.19    5.90
   0   0  -8   45.05    5.75
   0   0  -8   38.65    4.55
   0   0   9   11.67    3.15
   0   0  -9   11.61    4.29
   0   0  -9   14.08    5.89
   0   0  10    9.09    3.10
   0   0 -10    8.99    4.72
   0   0 -10    7.18    4.16
   0   0  11    0.79    2.09
   0   0 -11    1.33    4.02
   0   0 -11    1.76    3.27
   0   0  12    1.64    2.19
   0   0 -12    1.00    3.64
   0   0 -12    1.03    4.30
   0   0  13    3.63    2.53
   0   0 -13    4.65    2.72
   0   0 -13   -1.86    4.54
   0   0  14    1.58    1.75
   0   0 -14    1.94    3.04
   0   0 -14   -3.03    3.26
   0   0  15    3.34    1.59
   0   0 -15    4.90    2.84
   0   0 -15    0.02    1.67
   0  -1   0    0.45    0.58
   0  -1   0    0.29    0.32
   0  -1   0    0.16    0.61
   0   1   0    0.02    0.35
   0   1   0    0.29    0.41
   0   1   0    0.02    0.09
   0  -1   0   -0.21    0.10
   0   1   0    0.07    0.09
   0   1   1  123.36    3.41
   0   1   1  115.66    3.98
   0   1   1  113.37    3.80
   0  -1   1  132.94    3.83
   0   1   1  124.35    5.18
   0  -1   1  112.72    7.81
   0  -1   1  122.98    5.44
   0  -1   1  119.84    5.14
   0   1  -1  115.05    6.85
   0   1  -1  122.47    3.39
   0   1  -1  121.21    5.57
   0  -1  -1  117.53    4.12
   0  -1  -1  120.55    3.93
   0  -1  -1  116.42    4.92
   0  -1  -1  124.50    4.21
   0   1  -1  114.22    7.42
   0  -1  -1  123.49    3.14
   0  -1   2    1.08    0.87
   0  -1   2    1.10    0.95
   0   1   2    1.21    0.73
   0   1   2    1.05    0.84
   0   1   2    0.94    0.57
   0  -1   2    1.06    0.84
   0  -1   2    0.91    0.57
   0  -1  -2    1.74    0.57
   0  -1  -2    0.80    0.15
   0  -1  -2    0.85    0.13
   0   1  -2    0.83    0.42
   0   1  -2    1.86    1.06
   0  -1  -2    0.96    0.50
   0   1  -2    1.64    0.80
   0   1  -2    0.93    0.79
   0  -1  -2    1.23    0.90
   0  -1   3   37.37    2.94
   0  -1   3   33.59    2.18
   0  -1   3   37.40    2.92
   0  -1   3   36.64    2.65
   0  -1   3   33.90    3.24
   0   1   3   34.27    4.73
   0   1   3   33.49    2.27
   0   1   3   39.06    2.44
   0   1  -3   30.86    1.91
   0   1  -3   35.70    3.59
   0  -1  -3   34.79    2.51
   0  -1  -3   30.10    2.56
   0   1  -3   35.10    2.52
   0   1  -3   33.46    3.25
   0  -1  -3   34.14    3.90
   0  -1   4   47.78    4.40
   0   1   4   51.73    3.11
   0  -1   4   56.40    3.47
   0  -1   4   52.52    3.08
   0   1   4   49.71    1.09
   0   1   4   48.25    1.51
   0   1   4   50.34    3.20
   0  -1   4   51.95    3.53
   0  -1   4   46.10    3.38
   0   1   4   47.62    6.60
   0   1  -4   46.90    3.60
   0  -1  -4   50.86    4.51
   0  -1  -4   49.32    2.97
   0  -1  -4   48.18    3.41
   0   1  -4   47.39    2.67
   0   1  -4   54.75    4.58
   0   1  -4   45.97    3.94
   0  -1   5   66.29    9.48
   0   1   5   73.93    6.25
   0  -1   5   68.97    4.96
   0  -1   5   73.60    5.27
   0   1   5   74.72    4.34
   0   1   5   71.62    2.55
   0  -1   5   74.72    4.79
   0   1   5   75.12    4.41
   0  -1   5   72.83    4.15
   0   1   5   69.54    1.72
   0   1  -5   72.68    5.08
   0  -1  -5   83.09   10.28
   0   1  -5   77.21    5.73
   0  -1  -5   76.00    4.92
   0  -1  -5   77.92    4.63
   0   1  -5   73.90    4.13
   0   1  -5   78.87    9.30
   0   1   6    1.56    0.41
   0   1   6    3.93    2.92
   0   1   6    2.79    1.25
   0  -1   6    3.36    1.36
   0  -1   6    3.26    0.82
   0  -1   6    2.71    1.41
   0  -1   6    2.57    1.92
   0  -1   6    1.64    0.73
   0   1   6    3.01    1.31
   0  -1   6    2.91    1.24
   0   1  -6    1.82    0.86
   0  -1  -6    2.12    1.59
   0   1  -6    2.27    1.00
   0   1  -6    2.29    1.74
   0   1  -6    2.31    3.11
   0  -1  -6    2.23    2.06
   0  -1  -6    1.33    1.13
   0  -1   7   -0.07    0.57
   0   1   7    0.00    1.21
   0  -1   7   -1.12    1.17
   0  -1   7   -0.73    0.81
   0  -1   7    1.43    0.88
   0   1   7   -0.34    0.89
   0  -1   7    0.21    0.83
   0   1   7    1.20    0.90
   0  -1   7   -0.57    0.38
   0  -1   7   -0.17    0.47
   0   1  -7    0.10    0.68
   0  -1  -7   -0.28    0.95
   0   1  -7   -0.42    1.42
   0  -1  -7    0.60    2.33
   0   1  -7    0.62    1.26
   0  -1  -7    0.71    1.02
   0  -1   8    0.27    0.54
   0  -1   8    0.14    1.09
   0   1   8   -0.14    2.46
   0   1   8    0.88    1.33
   0  -1   8    0.16    0.87
   0  -1   8   -0.45    1.51
   0  -1   8    0.42    1.13
   0  -1   8   -0.14    1.43
   0  -1   8    0.76    0.49
   0   1   8    0.77    1.15
   0  -1  -8    0.48    1.76
   0   1  -8    0.01    1.50
   0   1  -8    1.50    1.92
   0   1  -8    0.92    1.38
   0  -1  -8   -0.82    1.13
   0  -1   9    0.66    1.28
   0  -1   9    0.28    0.56
   0   1   9    0.61    1.32
   0  -1   9    0.02    0.80
   0   1  -9    1.08    1.69
   0  -1  -9    1.36    1.92
   0  -1  -9    1.33    1.79
   0   1  -9   -0.88    1.92
   0   1  10    3.23    2.36
   0  -1  10    2.77    2.17
   0  -1 -10    4.12    3.24
   0   1 -10    0.50    3.66
   0   1 -10    2.25    3.01
   0  -1 -10    4.62    3.03
   0  -1  11   13.70    3.92
   0   1  11   19.62    4.49
   0  -1 -11   14.79    5.15
   0   1 -11   10.29    4.36
   0  -1 -11   14.88    5.38
   0   1 -11   17.39    6.18
   0   1  12    9.04    3.54
   0  -1  12    7.20    3.25
   0  -1 -12    7.24    5.73
   0  -1 -12    9.47    7.44
   0   1 -12    8.22    6.20
   0   1 -12   12.81    5.76
   0  -1  13    1.44    3.00
   0   1  13    7.36    3.93
   0   1 -13   10.45    5.19
   0  -1 -13    4.04    5.21
   0   1 -13   12.05    5.68
   0  -1 -13   13.70    5.91
   0  -1  14    5.19    2.98
   0   1  14    8.21    3.11
   0   1 -14    9.27    4.70
   0  -1 -14   14.30    5.02
   0  -1 -14   12.58    3.10
   0   1 -14    0.52    4.30
   0   1  15   15.07    2.59
   0  -1  15   14.41    2.44
   0   1 -15   21.13    4.76
   0  -1 -15    0.79    5.03
   0  -1 -15   17.23    4.77
   0   1 -15    0.36    3.16
   0   2   0 2921.87  213.11
   0  -2   0 2861.43  212.80
   0  -2   0 2693.23  211.50
   0  -2   0 2853.52  218.92
   0  -2   0 2892.40  206.61
   0   2   1    7.97    1.09
   0   2   1    8.63    0.52
   0  -2   1    8.35    1.79
   0  -2   1    8.77    2.05
   0   2   1    8.12    0.59
   0  -2   1   10.87    0.66
   0  -2   1    9.59    1.86
   0  -2  -1   11.93    1.50
   0   2  -1    9.84    1.73
   0  -2  -1   10.04    1.82
   0  -2  -1    8.59    1.51
   0  -2  -1    9.93    1.03
   0   2  -1   10.07    1.57
   0  -2  -1    8.57    0.56
   0  -2   2   27.22    2.81
   0  -2   2   21.82    4.04
   0   2   2   25.11    1.49
   0  -2   2   24.84    1.26
   0  -2   2   26.78    1.33
   0  -2   2   32.92    3.31
   0   2  -2   23.48    2.55
   0  -2  -2   28.79    1.13
   0   2  -2   26.21    1.14
   0  -2  -2   30.94    2.72
   0  -2  -2   23.72    1.61
   0  -2  -2   27.70    1.00
   0  -2  -2   25.10    1.43
   0   2  -2   30.59    3.06
   0  -2  -2   26.66    1.09
   0  -2  -2   28.42    1.46
   0   2  -2   28.82    3.43
   0   2   3   32.57    1.48
   0   2   3   35.73    1.89
   0  -2   3   31.07    1.76
   0  -2   3   38.23    2.69
   0  -2   3   36.17    2.94
   0  -2   3   32.16    1.62
   0  -2   3   38.04    2.51
   0  -2   3   31.82    3.19
   0   2   3   35.42    3.26
   0   2  -3   30.63    3.42
   0  -2  -3   33.78    0.97
   0   2  -3   32.29    1.79
   0  -2  -3   37.03    3.26
   0  -2  -3   35.49    2.23
   0  -2  -3   34.92    1.84
   0   2  -3   35.69    3.72
   0  -2  -3   31.01    0.82
   0   2  -3   34.94    3.11
   0   2   4   18.34    1.83
   0  -2   4   21.60    2.45
   0   2   4   19.66    4.07
   0  -2   4   19.35    1.87
   0   2   4   17.99    1.56
   0  -2   4   22.93    2.19
   0  -2   4   15.41    1.82
   0  -2   4   15.88    1.30
   0   2  -4   21.32    2.76
   0  -2  -4   20.26    1.62
   0   2  -4   18.68    3.50
   0   2  -4   19.20    2.89
   0   2  -4   20.02    1.59
   0  -2  -4   19.47    1.98
   0  -2  -4   20.14    3.12
   0  -2   5    0.36    0.88
   0  -2   5    0.31    0.50
   0  -2   5   -0.24    0.34
   0  -2   5   -0.43    0.67
   0   2   5    0.40    0.61
   0   2   5    0.82    0.55
   0  -2   5    0.03    0.79
   0  -2   5    0.24    0.65
   0   2   5    0.44    1.29
   0   2  -5   -0.23    1.57
   0   2  -5    0.34    1.10
   0  -2  -5   -0.60    0.50
   0  -2  -5    1.24    1.01
   0   2  -5   -0.38    0.41
   0  -2  -5    0.06    0.67
   0   2  -5   -0.24    0.77
   0  -2   6    4.51    1.59
   0  -2   6    6.04    1.34
   0  -2   6    4.14    1.45
   0  -2   6    4.78    1.90
   0   2   6    5.03    1.59
   0  -2   6    5.72    0.95
   0   2   6    6.12    1.51
   0   2   6    3.86    2.06
   0  -2   6    4.88    3.65
   0  -2  -6    6.09    1.76
   0  -2  -6    5.70    4.25
   0   2  -6    5.43    3.52
   0   2  -6    6.30    2.22
   0   2  -6    4.58    1.29
   0  -2  -6    4.23    1.33
   0   2  -6    3.99    1.63
   0  -2   7    8.20    1.65
   0  -2   7    7.50    1.81
   0  -2   7    6.98    1.14
   0  -2   7    5.39    2.49
   0  -2   7    6.07    1.66
   0   2   7    6.81    3.98
   0   2   7    6.20    1.88
   0  -2   7    6.78    1.71
   0  -2   7    7.76    2.71
   0   2   7    6.50    1.86
   0   2  -7    5.33    1.93
   0   2  -7    7.15    4.03
   0  -2  -7    5.78    1.77
   0  -2  -7    7.75    2.23
   0   2  -7    5.80    3.37
   0  -2   8   26.62    3.94
   0  -2   8   24.70    3.03
   0  -2   8   27.06    3.10
   0  -2   8   25.15    3.05
   0   2   8   22.44    4.21
   0   2  -8   24.39    6.14
   0  -2  -8   25.70    4.23
   0  -2  -8   28.67    5.34
   0   2  -8   29.64    2.91
   0   2  -8   26.12    4.59
   0  -2   9    8.68    2.30
   0   2   9   11.32    2.78
   0  -2   9    9.89    1.53
   0  -2   9    5.64    1.65
   0  -2  -9    0.04    4.22
   0  -2  -9   12.27    4.08
   0   2  -9   12.31    5.02
   0   2  -9    7.71    4.55
   0  -2  10    6.72    1.47
   0  -2  10    5.96    2.74
   0   2  10    9.89    3.13
   0   2 -10    8.40    5.16
   0  -2 -10    6.48    4.04
   0  -2 -10   10.31    4.34
   0   2 -10   11.17    3.91
   0  -2  11   -0.20    1.36
   0   2  11    0.81    1.54
   0   2 -11    0.17    1.82
   0  -2 -11    0.17    2.20
   0   2 -11    0.47    2.63
   0  -2 -11   -0.19    2.22
   0  -2  12    5.82    2.21
   0   2  12    3.36    3.62
   0  -2 -12   -1.48    4.12
   0   2 -12    8.09    3.90
   0   2 -12    0.80    4.10
   0  -2 -12    1.50    3.45
   0  -2  13    3.89    2.26
   0   2  13    2.67    2.66
   0   2 -13    6.38    2.52
   0   2 -13    2.13    4.29
   0  -2 -13    4.67    3.63
   0  -2 -13    6.84    3.84
   0   2  14   -0.14    1.40
   0  -2  14    0.01    1.12
   0  -2 -14    0.27    3.20
   0   2 -14    1.59    1.71
   0   2 -14    3.65    2.49
   0  -2 -14    4.50    2.56
   0  -2 -15    0.01    2.64
   0  -2 -15    4.57    2.18
   0  -3   0   -0.01    1.26
   0  -3   0   -0.12    0.29
   0  -3   0    0.42    0.73
   0   3   0    0.37    0.71
   0  -3   0   -0.68    0.86
   0  -3   0    0.28    0.41
   0  -3   0    0.05    0.95
   0  -3   0    0.41    0.72
   0  -3   1    1.14    0.86
   0   3   1    1.06    0.70
   0  -3   1    0.39    0.46
   0  -3   1    0.48    1.06
   0  -3   1    0.23    1.11
   0  -3   1    0.80    1.08
   0  -3  -1    1.64    1.83
   0  -3  -1    0.63    0.95
   0  -3  -1    0.40    0.31
   0  -3  -1    0.90    1.51
   0  -3  -1    0.98    0.39
   0  -3  -1    0.57    0.59
   0   3  -1    0.01    0.45
   0  -3  -1    0.62    0.50
   0   3  -1    0.48    1.03
   0   3   2    9.68    0.80
   0  -3   2   13.34    1.21
   0  -3   2   14.33    2.55
   0  -3   2   12.19    2.28
   0   3   2   10.51    0.62
   0  -3   2   11.53    1.67
   0  -3   2    7.27    3.69
   0   3  -2   11.56    1.71
   0  -3  -2   12.31    1.49
   0  -3  -2   14.03    1.16
   0  -3  -2   11.36    1.19
   0  -3  -2   11.12    3.61
   0  -3  -2   11.35    1.10
   0  -3  -2   10.75    1.19
   0   3  -2   17.47    2.41
   0  -3  -2   13.37    3.29
   0   3   3    2.72    0.69
   0  -3   3    2.81    2.87
   0  -3   3    3.52    2.01
   0  -3   3    6.50    0.95
   0  -3   3    4.48    1.32
   0  -3   3    3.67    1.76
   0   3  -3    4.19    2.25
   0  -3  -3    2.53    0.74
   0   3  -3    8.98    1.93
   0  -3  -3    4.22    0.54
   0  -3  -3    4.53    0.87
   0  -3  -3    4.16    1.67
   0  -3  -3    4.30    1.02
   0  -3   4   16.33    2.05
   0   3   4   15.75    1.72
   0  -3   4   19.41    1.70
   0  -3   4   15.79    2.96
   0  -3   4   17.79    3.28
   0  -3   4   17.07    3.17
   0   3  -4   16.51    3.05
   0  -3  -4   19.85    5.75
   0   3  -4   11.67    3.03
   0   3  -4   22.43    4.07
   0  -3  -4   14.07    1.88
   0  -3  -4   14.30    1.72
   0  -3   5   32.75    4.05
   0  -3   5   34.15    2.61
   0  -3   5   27.90    4.50
   0   3   5   32.80    2.20
   0  -3   5   27.89    2.99
   0  -3   5   37.00    4.29
   0   3  -5   34.19    4.43
   0   3  -5   30.66    6.56
   0   3  -5   29.25    3.98
   0  -3  -5   37.24    3.38
   0  -3  -5   27.98    2.83
   0  -3  -5   41.18    8.35
   0  -3   6    4.59    1.86
   0  -3   6    0.42    1.13
   0  -3   6    4.51    1.14
   0  -3   6    2.55    1.78
   0   3   6    3.33    1.08
   0  -3   6    5.77    1.86
   0  -3   6    4.02    3.33
   0   3  -6    5.08    2.56
   0  -3  -6    1.93    1.60
   0  -3  -6    4.45    2.43
   0  -3  -6    5.50    1.46
   0   3  -6    3.10    2.32
   0   3   7   -0.62    1.19
   0  -3   7    0.48    1.17
   0  -3   7   -0.25    1.04
   0   3  -7    1.59    1.86
   0   3  -7    0.54    2.19
   0  -3  -7    0.42    1.83
   0  -3  -7   -0.11    1.19
   0  -3  -7    1.15    1.06
   0  -3   8   -0.62    0.75
   0  -3   8    0.44    1.02
   0   3   8   -0.13    0.88
   0  -3  -8    0.07    1.20
   0   3  -8    0.01    2.06
   0   3  -8    1.73    1.80
   0   3   9    0.35    1.48
   0  -3   9    0.88    1.22
   0  -3   9    1.29    1.15
   0  -3  -9    0.15    4.13
   0   3  -9    1.66    2.81
   0   3  -9    0.06    2.79
   0  -3  -9   -0.24    2.32
   0  -3  10    3.22    1.43
   0  -3  10    2.97    1.43
   0   3  10    3.24    2.00
   0  -3 -10    2.29    2.98
   0   3 -10    0.05    3.18
   0   3 -10    5.08    3.70
   0  -3  11    5.49    2.33
   0   3  11    3.28    2.37
   0  -3 -11    7.83    3.46
   0   3 -11   -0.11    3.13
   0  -3 -11    2.75    5.76
   0   3 -11    2.76    4.29
   0  -3  12    4.47    2.10
   0   3  12    5.58    2.27
   0  -3 -12    7.07    3.54
   0  -3 -12    7.46    3.45
   0   3 -12   -0.07    2.55
   0   3 -12    4.31    4.10
   0   3  13    4.03    1.51
   0  -3 -13   -0.21    2.53
   0   3 -13    2.21    2.97
   0  -3 -13   -0.02    4.05
   0  -3 -14    8.85    2.64
   0  -3 -14   -0.01    3.87
   0  -4   0  662.44   40.16
   0  -4   0  677.57   42.63
   0  -4   0  670.20   38.32
   0  -4   0  674.08   37.05
   0  -4   0  669.10   38.78
   0  -4   0  631.86   44.98
   0  -4   0  673.25   36.93
   0  -4   0  665.34   33.64
   0  -4   1   11.28    1.49
   0  -4   1    7.27    3.04
   0  -4   1    1.87    2.95
   0  -4   1    9.75    1.40
   0  -4   1    9.34    1.90
   0  -4   1    7.29    2.44
   0  -4   1    7.61    1.05
   0  -4  -1    5.97    0.79
   0  -4  -1    9.11    1.14
   0  -4  -1   10.52    1.55
   0  -4  -1    7.54    1.92
   0  -4  -1    5.77    2.71
   0  -4  -1    5.74    1.52
   0  -4  -1    5.72    2.39
   0  -4  -1    8.50    1.51
   0  -4   2    0.38    0.77
   0  -4   2    2.26    1.29
   0  -4   2    2.64    1.08
   0  -4   2    3.06    1.07
   0  -4   2    3.47    1.58
   0  -4   2    0.88    1.41
   0  -4  -2    2.70    2.26
   0  -4  -2    2.12    1.41
   0  -4  -2    1.88    0.97
   0   4  -2   -0.02    0.51
   0  -4  -2    0.77    0.55
   0  -4  -2    0.41    2.47
   0   4  -2    2.90    1.31
   0  -4  -2    0.73    0.94
   0  -4   3    4.41    1.86
   0  -4   3    4.40    1.02
   0  -4   3    3.39    1.38
   0  -4   3    0.05    1.08
   0  -4   3    3.02    1.62
   0  -4   3    2.13    1.59
   0  -4  -3    2.39    0.92
   0  -4  -3    3.36    2.52
   0  -4  -3    1.70    2.61
   0   4  -3    5.49    1.08
   0   4  -3    0.02    0.71
   0  -4   4    6.76    2.74
   0  -4   4    6.94    2.02
   0  -4   4   13.13    2.64
   0  -4  -4   21.44    3.53
   0  -4  -4   10.73    1.69
   0  -4   5    2.31    1.27
   0  -4   5    4.35    2.01
   0  -4   5    5.71    1.35
   0  -4  -5    2.56    1.31
   0   4  -5    0.00    1.00
   0   4  -5    4.03    2.02
   0  -4  -5    3.03    4.29
   0  -4   6   15.39    2.38
   0  -4   6   16.68    2.84
   0  -4  -6    6.52    2.45
   0   4  -6    8.00    3.70
   0  -4  -6    0.07    6.31
   0  -4   7    8.50    2.98
   0  -4   7    9.13    2.29
   0  -4  -7    6.43    2.36
   0  -4  -7   -0.13    3.89
   0   4  -7    8.02    3.53
   0  -4   8    3.64    2.35
   0  -4   8    8.74    1.98
   0   4  -8    3.91    3.40
   0  -4  -8    4.79    2.38
   0  -4   9    0.08    1.14
   0  -4   9    0.50    1.33
   0   4  -9    1.10    2.08
   0  -4  -9    1.34    1.97
   0  -4  -9   -0.04    3.34
   0  -4  10    8.98    2.70
   0  -4  10   15.93    3.66
   0  -4 -10    5.81    3.60
   0  -4 -10   14.71    7.28
   0  -4  11    1.59    1.84
   0  -4  11    1.34    1.42
   0  -4 -11    0.68    3.92
   0  -4 -11    1.30    1.84
   0  -4  12    0.69    1.86
   0  -4 -12   -0.01    2.15
   0  -4 -12    3.44    2.00
   0  -4 -13   -0.01    1.16
   0  -5   0    0.36    0.81
   0  -5   0    0.31    1.78
   0  -5   1    2.80    1.53
   0  -5   1    1.57    2.54
   0  -5   1    3.36    1.55
   0  -5  -1    0.05    3.06
   0  -5   2   -0.70    1.23
   0  -5   2    0.10    1.75
   0  -5   2    0.80    0.78
   0  -5  -2    0.05    2.00
   0  -5   3   -0.10    2.12
   0  -5   3    0.57    1.68
   0  -5   3    1.88    1.43
   0  -5  -3    0.07    1.76
   0  -5   4    0.01    1.66
   0  -5   4   -0.05    1.36
   0  -5   4    0.22    1.03
   0  -5  -4    3.07    1.70
   0  -5   5   31.71    3.66
   0  -5   5   29.74    4.88
   0  -5  -5   32.12    8.53
   0  -5   6   -0.07    1.21
   0  -5   6    2.12    1.68
   0  -5  -6    0.01    3.16
   0  -5   7    0.29    1.33
   0  -5   7   -0.09    1.77
   0  -5  -7    0.05    2.89
   0  -5   8    0.87    1.72
   0  -5   8    0.06    2.46
   0  -5  -8    4.46    2.68
   0  -5   9    1.04    1.99
   0  -5   9    0.88    1.55
   0  -5  -9   -0.17    2.23
   0  -5  10    4.57    1.92
   0  -5  10    4.76    2.23
   0  -5  11    0.76    0.94
   0  -5  11   -0.00    1.46
   0  -5 -11    0.02    1.62
   0  -5  12    0.04    0.86
   0  -5 -12    0.01    0.95
   0  -6   0  116.01    9.08
   0  -6   1   -0.05    0.77
   0  -6   1    0.05    1.79
   0  -6  -1   -0.15    1.20
   0  -6   2    1.31    1.22
   0  -6   2    1.94    1.34
   0  -6   2   -0.04    1.65
   0  -6  -2    2.71    3.56
   0  -6   3    3.60    1.88
   0  -6   3    0.03    2.58
   0  -6  -3   11.92    4.62
   0  -6   4    1.30    2.00
   0  -6  -4    8.28    3.67
   0  -6  -5    4.11    4.02
   0  -6  -6    8.10    5.46
   0  -6   7    0.31    1.50
   0  -6  -7    0.54    2.71
   0  -6   8    7.27    2.62
   0  -6   8    6.74    3.79
   0  -6  -8    6.86    3.02
   0  -6   9    3.76    1.46
   0  -6   9    0.77    1.84
   0  -6  10    0.02    2.35
   0  -6  10    5.10    1.42
   0  -7  -3    4.74    2.84
   0  -7   4    0.24    0.89
   0  -7  -4    3.14    2.07
   0  -7   5    1.07    1.86
   0  -7  -5    8.00    2.62
   0  -7   6   -0.20    1.15
   0  -7  -6    0.73    0.90
   0  -7   7    1.43    0.97
   0  -7   8    2.40    0.96
   1   0 -15    2.54    3.02
   1   0 -15   -0.13    1.31
  -1   0  15    0.55    1.45
   1   0 -14   13.69    5.33
   1   0 -14    7.06    5.13
  -1   0  14    2.54    3.01
   1   0 -13    6.83    5.25
   1   0 -13    4.75    6.95
  -1   0  13    5.15    4.06
   1   0 -12    3.22    4.28
   1   0 -12    2.52    3.44
  -1   0  12    2.95    2.60
   1   0 -11    4.70    6.36
   1   0 -11    5.91    4.94
  -1   0  11    6.04    3.39
   1   0 -10  153.15   15.33
   1   0 -10  151.82   17.42
  -1   0  10  138.63   11.59
   1   0  -9    2.37    3.05
   1   0  -9    2.94    4.07
  -1   0   9    2.86    2.11
   1   0  -8    7.31    4.63
   1   0  -8    7.02    2.53
   1   0  -8    6.07    2.67
  -1   0   8    8.32    2.82
  -1   0   8    7.62    2.26
  -1   0   8    6.73    2.15
   1   0  -7   12.58    2.12
   1   0  -7   12.39    3.13
   1   0  -7   12.22    4.98
  -1   0   7   11.02    2.27
  -1   0   7   12.45    4.51
  -1   0   7   15.35    2.22
  -1   0   7    9.69    0.97
  -1   0   7    8.86    1.00
   1   0  -6   14.87    2.84
   1   0  -6   14.05    2.05
   1   0  -6    5.40    5.04
  -1   0   6   11.81    0.74
  -1   0   6   11.90    1.14
  -1   0   6   13.46    3.72
  -1   0   6   13.58    2.35
  -1   0   6   11.89    1.07
  -1   0   6   13.62    2.27
  -1   0   6   10.46    0.84
   1   0  -5   80.49    5.00
   1   0  -5   70.61    5.56
   1   0  -5   63.73    8.97
  -1   0   5   70.33    4.52
  -1   0   5   66.79    3.38
  -1   0   5   68.26    2.60
  -1   0   5   73.29    2.60
  -1   0   5   62.90    8.55
  -1   0   5   69.86    3.19
  -1   0   5   79.19    5.02
   1   0  -4   97.29    5.94
   1   0  -4   97.94    5.20
   1   0  -4  101.55    6.68
  -1   0   4   98.65    5.55
  -1   0   4  102.43    3.72
  -1   0   4  110.03    4.92
  -1   0   4   98.80    9.56
  -1   0   4   96.86    3.27
  -1   0   4  104.34    5.56
   1   0  -3   55.25    4.19
   1   0  -3   45.51    2.86
   1   0  -3   49.72    3.52
  -1   0   3   51.19    2.20
  -1   0   3   42.92    6.47
  -1   0   3   46.19    1.51
  -1   0   3   46.68    3.09
  -1   0   3   50.08    3.22
  -1   0   3   48.06    2.23
   1   0  -2   19.35    2.18
   1   0  -2   18.42    1.04
   1   0  -2   20.99    0.95
   1   0  -2   17.95    1.44
   1   0  -2   19.21    1.94
  -1   0   2   18.85    1.85
  -1   0   2   19.95    1.54
  -1   0   2   18.08    0.78
  -1   0   2   21.21    2.28
  -1   0   2   24.42    1.57
   1   0   2    6.75    0.88
   1   0   2    5.77    0.86
   1   0   2    5.58    0.92
   1   0   2    5.77    1.88
   1   0   2    6.06    1.00
  -1   0  -2    5.52    1.03
  -1   0  -2    4.99    0.83
  -1   0  -2    6.27    0.80
  -1   0  -2    0.13    2.03
  -1   0  -2    5.93    0.98
   1   0   3  136.00    5.78
   1   0   3  142.87    5.15
   1   0   3  137.48    6.22
   1   0   3  145.91    6.31
   1   0   3  141.59    7.01
  -1   0  -3  141.99    6.21
  -1   0  -3  144.24    5.42
  -1   0  -3  144.29    7.37
  -1   0  -3  136.74    6.56
  -1   0  -3  140.87    6.53
   1   0   4   55.57    3.37
   1   0   4   51.09    2.52
   1   0   4   55.05    4.06
   1   0   4   53.72    3.72
   1   0   4   52.48    3.50
  -1   0  -4   48.10    2.09
  -1   0  -4   52.70    3.40
  -1   0  -4   51.18    4.26
  -1   0  -4   49.04    2.04
  -1   0  -4   51.03    3.74
   1   0   5   25.67    2.56
   1   0   5   27.49    2.63
   1   0   5   29.53    4.99
   1   0   5   26.88    2.68
   1   0   5   24.88    1.80
  -1   0  -5   27.48    3.01
  -1   0  -5   23.59    1.68
  -1   0  -5   25.06    2.63
  -1   0  -5   27.99    3.66
   1   0   6   67.82    8.30
   1   0   6   63.15    2.99
   1   0   6   64.65    4.47
   1   0   6   79.33    5.23
   1   0   6   68.93    4.34
  -1   0  -6   71.90    5.58
  -1   0  -6   69.35    4.61
  -1   0  -6   61.19    3.02
  -1   0  -6   75.91    9.61
   1   0   7   11.79    1.28
   1   0   7    6.45    1.04
   1   0   7   11.69    2.00
   1   0   7    8.51    3.81
  -1   0  -7    7.32    2.02
  -1   0  -7   13.85    2.84
  -1   0  -7   14.84    3.09
   1   0   8    1.03    0.75
   1   0   8    0.72    1.26
   1   0   8   -0.00    1.96
  -1   0  -8   -2.36    1.59
  -1   0  -8   -0.77    2.33
  -1   0  -8    0.43    1.16
   1   0   9    1.76    1.63
  -1   0  -9    0.88    2.23
  -1   0  -9    0.97    2.05
   1   0  10    1.63    1.82
  -1   0 -10    0.33    3.69
  -1   0 -10    0.73    2.63
   1   0  11    0.06    1.58
  -1   0 -11    0.10    2.43
  -1   0 -11   -0.85    2.06
   1   0  12    0.17    1.66
  -1   0 -12   -1.11    1.88
  -1   0 -12    0.57    2.42
   1   0  13   -0.72    2.07
  -1   0 -13    0.17    2.80
  -1   0 -13    1.76    1.76
   1   0  14    1.75    2.43
  -1   0 -14    0.31    2.88
  -1   0 -14    1.30    2.97
   1   0  15    0.68    1.19
  -1   0 -15   -0.13    1.57
  -1   0 -15    0.73    1.90
   1   1 -15   33.82    5.16
   1  -1 -15   34.99    5.06
   1   1 -15   26.26    7.45
   1  -1 -15   27.39    6.39
  -1   1  15   33.22    4.42
  -1  -1  15   29.90    4.08
   1  -1 -14   14.07    4.77
   1   1 -14    9.92    4.54
   1   1 -14   16.45    6.81
   1  -1 -14    7.62    6.63
  -1   1  14    4.97    3.27
  -1  -1  14    3.99    2.66
   1  -1 -13    1.53    4.55
   1   1 -13    9.66    4.17
   1   1 -13    6.00    4.25
   1  -1 -13    3.55    3.61
  -1   1  13   -0.27    2.42
  -1  -1  13    0.58    2.23
   1   1 -12    0.85    4.00
   1  -1 -12    0.15    3.26
   1  -1 -12    0.40    4.89
   1   1 -12    6.70    2.73
  -1  -1  12    0.28    2.20
  -1   1  12    0.01    2.23
   1  -1 -11   -0.84    3.77
   1  -1 -11    2.49    4.85
   1   1 -11    3.96    5.57
   1   1 -11    1.95    4.07
  -1   1  11    2.49    2.60
  -1  -1  11    2.81    2.17
   1   1 -10    9.80    6.07
   1   1 -10   13.76    5.57
   1  -1 -10   14.78    4.74
   1  -1 -10    9.13    4.30
  -1  -1  10   13.65    4.67
  -1   1  10   13.59    3.65
   1   1  -9   15.05    7.86
   1  -1  -9   19.75    5.11
   1   1  -9   21.83    6.33
   1  -1  -9   10.72    8.01
  -1  -1   9   19.44    2.24
  -1   1   9   26.51    4.05
  -1  -1   9   18.67    2.61
  -1  -1   9   25.61    3.64
   1  -1  -8   29.19    4.68
   1   1  -8   21.70    2.73
   1   1  -8   22.97    5.56
   1  -1  -8   22.10    3.27
   1   1  -8   22.92    4.31
   1  -1  -8   23.54    4.21
  -1  -1   8   18.80    1.58
  -1   1   8   23.51    2.85
  -1  -1   8   23.92    3.51
  -1  -1   8   23.51    2.27
  -1  -1   8   19.77    1.83
  -1  -1   8   20.55    4.40
  -1   1   8   19.85    4.35
  -1   1   8   25.73    3.47
  -1  -1   8   27.01    4.21
  -1  -1   8   17.42    1.93
   1  -1  -7    6.08    2.20
   1  -1  -7    5.84    1.59
   1   1  -7    5.28    1.83
   1   1  -7    6.97    4.06
   1  -1  -7    5.25    4.11
   1   1  -7    6.03    2.81
  -1   1   7    6.74    1.88
  -1  -1   7    3.35    0.89
  -1  -1   7    5.83    1.40
  -1  -1   7    5.66    2.54
  -1   1   7    3.97    3.38
  -1  -1   7    6.60    1.73
  -1  -1   7    4.46    1.31
  -1  -1   7    4.86    1.19
  -1  -1   7    4.74    1.79
  -1   1   7    4.84    1.50
   1   1  -6   16.11    3.58
   1   1  -6   17.22    3.47
   1  -1  -6   12.27    1.93
   1  -1  -6   14.77    2.86
   1  -1  -6   12.95    3.49
   1   1  -6   12.35    1.83
  -1  -1   6   12.14    3.42
  -1   1   6   12.50    2.02
  -1   1   6   13.93    4.16
  -1  -1   6   12.42    1.59
  -1   1   6   13.05    2.12
  -1  -1   6   10.06    1.19
  -1  -1   6   13.62    2.33
  -1  -1   6   14.01    2.35
  -1  -1   6   10.08    1.25
  -1  -1   6   13.78    2.21
   1   1  -5    0.24    1.19
   1   1  -5   -0.38    0.93
   1  -1  -5   -0.21    0.64
   1  -1  -5   -0.31    0.76
   1  -1  -5    0.50    1.19
   1   1  -5    0.23    1.28
  -1   1   5    0.12    0.65
  -1  -1   5    0.79    0.74
  -1  -1   5   -0.03    0.50
  -1  -1   5   -0.50    0.87
  -1   1   5    0.03    0.87
  -1  -1   5   -0.18    0.58
  -1  -1   5    0.20    0.60
  -1   1   5    1.73    0.93
   1   1  -4   54.44    4.74
   1   1  -4   53.22    5.82
   1  -1  -4   55.04    4.57
   1  -1  -4   54.07    4.48
   1   1  -4   48.80    3.03
   1  -1  -4   53.55    2.96
  -1   1   4   53.72    3.74
  -1  -1   4   54.42    7.74
  -1  -1   4   53.04    3.51
  -1   1   4   50.01    3.07
  -1  -1   4   48.71    3.87
  -1  -1   4   54.13    3.30
  -1   1   4   50.91    1.26
  -1   1   4   50.01    3.88
  -1  -1   4   55.86    3.05
  -1  -1   4   57.33    3.08
   1   1  -3    1.46    1.41
   1  -1  -3    0.61    0.25
   1  -1  -3    1.33    0.62
   1  -1  -3    1.38    0.95
   1  -1  -3    0.80    0.72
   1   1  -3    0.69    1.60
   1   1  -3    0.62    0.62
  -1  -1   3    3.20    0.86
  -1   1   3    0.51    0.34
  -1  -1   3    0.62    1.12
  -1   1   3    0.98    0.63
  -1  -1   3    0.90    0.67
  -1   1   3    0.62    0.79
  -1   1   3    1.07    0.83
  -1  -1   3    2.60    0.67
  -1  -1   3    1.25    0.74
  -1  -1   3    1.08    1.20
   1  -1  -2   93.03    6.40
   1   1  -2   93.68    3.87
   1  -1  -2   98.19    3.71
   1  -1  -2   89.63    4.22
   1  -1  -2   95.02    2.57
   1   1  -2   90.06    7.37
   1   1  -2   90.56    8.52
   1  -1  -2   94.47    3.27
  -1   1   2   90.31    3.19
  -1  -1   2   91.60    8.97
  -1   1   2   82.41    3.52
  -1   1   2   97.20    3.43
  -1  -1   2  102.79    3.66
  -1   1   2   94.20    2.40
  -1  -1   2   85.20    3.76
  -1   1   2   91.73    4.28
  -1  -1   2   90.62    3.65
  -1  -1   2   97.04    4.10
  -1  -1   2   98.65    6.55
   1   1  -1   30.34    1.78
   1   1  -1   29.98    1.52
   1  -1  -1   24.95    1.91
   1  -1  -1   27.56    1.50
   1  -1  -1   31.86    1.09
   1   1  -1   32.94    3.19
   1  -1  -1   28.10    1.73
   1  -1  -1   30.63    1.06
   1   1  -1   27.81    3.91
  -1   1   1   31.95    1.60
  -1  -1   1   32.54    3.57
  -1   1   1   35.89    2.11
  -1  -1   1   31.59    1.83
  -1   1   1   29.11    1.47
  -1  -1   1   31.33    1.37
  -1  -1   1   30.33    2.42
  -1   1   1   33.95    1.16
  -1  -1   1   32.88    4.25
  -1  -1   1   32.39    2.20
  -1   1   1   27.81    1.35
   1  -1   0   53.57    1.41
   1   1   0   53.46    1.89
   1  -1   0   44.99    2.53
   1   1   0   54.11    2.25
   1  -1   0   52.44    2.14
   1  -1   0   53.17    1.06
   1  -1   0   52.25    2.84
   1   1   0   51.32    2.27
   1  -1   0   50.27    1.61
  -1  -1   0   58.71    5.22
  -1   1   0   48.76    2.46
  -1   1   0   53.57    2.65
  -1   1   0   50.54    1.77
  -1  -1   0   58.52    2.25
  -1  -1   0   51.31    4.25
  -1  -1   0   53.28    1.95
  -1  -1   0   50.69    1.95
  -1  -1   0   56.42    2.64
   1  -1   1    3.39    1.09
   1  -1   1    3.13    0.85
   1   1   1    1.86    0.84
   1   1   1    3.35    0.50
   1  -1   1    1.74    0.93
   1  -1   1    2.92    0.51
   1   1   1    3.02    0.61
   1  -1   1    2.58    0.48
  -1   1  -1    3.41    1.05
  -1   1  -1    3.92    0.61
  -1   1  -1    1.69    0.99
  -1   1  -1    3.22    1.19
  -1   1  -1    2.08    0.41
  -1  -1  -1   -0.06    0.72
  -1  -1  -1    3.05    0.78
  -1  -1  -1    3.41    0.59
  -1  -1  -1    2.85    0.44
  -1  -1  -1    3.14    1.03
   1   1   2   71.01    3.13
   1   1   2   78.81    2.36
   1  -1   2   72.93    2.80
   1   1   2   69.74    4.18
   1  -1   2   77.38    3.55
   1  -1   2   88.05    4.54
   1   1   2   74.97    4.22
   1  -1   2   64.47    5.21
   1  -1   2   89.39    6.08
   1   1   2   81.28    2.90
  -1   1  -2   84.63    4.86
  -1   1  -2   77.37    3.54
  -1  -1  -2   73.87    4.67
  -1   1  -2   79.24    3.42
  -1  -1  -2   76.04    3.42
  -1   1  -2   70.00    4.72
  -1  -1  -2   74.73    2.75
  -1  -1  -2   71.06    2.55
  -1   1  -2   78.96    3.44
  -1  -1  -2   86.52    3.98
   1   1   3   25.22    4.04
   1  -1   3   29.23    2.08
   1  -1   3   25.02    1.67
   1   1   3   27.05    2.13
   1   1   3   25.43    1.73
   1   1   3   28.76    2.21
   1  -1   3   26.27    3.26
   1  -1   3   26.70    2.42
  -1  -1  -3   28.35    2.30
  -1  -1  -3   27.80    3.48
  -1  -1  -3   29.53    2.60
  -1   1  -3   28.11    2.32
  -1  -1  -3   25.98    0.92
  -1   1  -3   24.65    2.15
  -1   1  -3   27.42    2.91
  -1  -1  -3   25.05    1.13
  -1   1  -3   25.66    3.60
   1   1   4    2.31    1.03
   1   1   4    1.96    0.72
   1  -1   4    0.54    1.11
   1  -1   4    2.11    0.90
   1   1   4    2.43    1.14
   1  -1   4    1.89    1.43
   1  -1   4    2.37    0.96
   1   1   4    1.68    1.22
   1  -1   4    1.72    1.19
  -1   1  -4    2.29    1.01
  -1   1  -4    1.89    1.54
  -1  -1  -4    2.47    1.40
  -1   1  -4    1.66    1.90
  -1  -1  -4    2.10    2.27
  -1  -1  -4    2.61    0.55
  -1  -1  -4    2.08    1.15
  -1   1  -4    1.64    0.86
   1   1   5  300.25   21.72
   1   1   5  298.16   15.20
   1   1   5  277.52   13.59
   1   1   5  295.74   14.23
   1  -1   5  296.82   15.67
   1  -1   5  298.41   13.76
   1  -1   5  286.55   14.05
   1  -1   5  292.52   14.63
   1  -1   5  303.52   17.48
  -1  -1  -5  297.43   17.49
  -1   1  -5  291.93   14.06
  -1   1  -5  295.45   16.09
  -1  -1  -5  299.83   15.11
  -1   1  -5  293.59   20.06
  -1   1  -5  295.48   13.82
  -1  -1  -5  302.62   13.97
   1  -1   6    2.84    1.12
   1  -1   6    4.91    1.36
   1   1   6    4.18    1.43
   1   1   6    4.17    1.06
   1  -1   6    5.18    3.52
   1   1   6    4.28    3.46
   1   1   6    5.77    1.66
   1  -1   6    3.03    1.88
   1  -1   6    3.61    1.39
  -1   1  -6    6.16    3.00
  -1  -1  -6    4.23    1.61
  -1   1  -6    5.35    1.97
  -1   1  -6    4.36    1.25
  -1   1  -6    5.81    1.15
  -1  -1  -6    5.42    1.86
  -1  -1  -6    6.03    3.98
   1   1   7   56.43    4.53
   1   1   7   56.65    4.56
   1  -1   7   53.66    4.57
   1  -1   7   51.19    3.35
   1  -1   7   52.38    4.79
   1  -1   7   48.70    6.92
   1  -1   7   53.27    4.05
   1   1   7   54.96    7.76
  -1   1  -7   49.36    4.10
  -1  -1  -7   50.12    5.25
  -1   1  -7   56.63    7.84
  -1   1  -7   48.73    6.01
  -1  -1  -7   54.56    4.70
  -1   1  -7   49.60    4.07
  -1  -1  -7   53.88    8.91
   1  -1   8    7.17    1.17
   1  -1   8    7.87    1.99
   1  -1   8    5.55    2.46
   1   1   8    7.68    2.31
   1  -1   8    6.27    1.80
   1  -1   8    5.53    1.50
  -1   1  -8    5.80    2.63
  -1  -1  -8    7.46    4.81
  -1   1  -8    5.15    1.93
  -1  -1  -8    8.49    2.69
  -1   1  -8    8.58    4.22
   1  -1   9   49.24    6.36
   1   1   9   51.08    5.54
   1  -1   9   42.10    2.87
  -1   1  -9   49.26    7.78
  -1  -1  -9   59.98    8.26
  -1   1  -9   55.08    9.76
   1  -1  10    0.85    1.83
   1   1  10    1.46    1.83
  -1   1 -10    1.23    2.65
  -1  -1 -10    2.01    3.91
  -1  -1 -10    1.36    2.64
  -1   1 -10    2.01    3.63
   1  -1  11    1.85    2.10
   1   1  11    0.46    2.22
  -1   1 -11    3.30    3.26
  -1  -1 -11    0.80    3.25
  -1  -1 -11    3.35    4.20
  -1   1 -11    1.25    2.15
   1   1  12    0.45    2.15
   1  -1  12   -0.51    1.78
  -1  -1 -12   -2.27    3.73
  -1   1 -12    4.08    2.96
  -1  -1 -12    3.99    3.01
  -1   1 -12    0.01    3.06
   1   1  13    0.82    1.96
   1  -1  13    0.57    1.74
  -1  -1 -13   -1.06    2.97
  -1   1 -13    2.47    3.13
  -1  -1 -13    5.72    3.70
  -1   1 -13    0.10    3.22
   1  -1  14   -0.47    1.84
   1   1  14    3.62    2.19
  -1  -1 -14    9.59    3.21
  -1   1 -14    3.27    3.05
  -1  -1 -14   -0.45    2.09
  -1   1 -14    8.55    3.23
   1   1  15    1.83    1.74
   1  -1  15    2.60    1.41
  -1   1 -15    5.39    2.52
  -1  -1 -15    9.50    2.84
  -1  -1 -15    0.62    1.90
   1  -2 -15   -0.01    2.01
   1   2 -15    3.22    1.47
   1  -2 -15   -0.09    1.15
  -1   2  15    0.06    0.86
   1   2 -14    2.53    2.35
   1  -2 -14   -1.50    2.01
   1   2 -14   -0.19    1.59
   1  -2 -14   -0.02    2.67
  -1   2  14   -0.38    1.20
  -1  -2  14    1.38    1.39
   1  -2 -13    0.89    3.31
   1  -2 -13    9.29    3.78
   1   2 -13    2.95    2.81
   1   2 -13    5.47    4.55
  -1   2  13    1.95    2.42
  -1  -2  13    5.39    2.39
   1   2 -12   13.97    6.60
   1   2 -12    6.67    7.89
   1  -2 -12    7.16    4.50
   1  -2 -12    7.17    4.70
  -1   2  12    6.19    4.47
  -1  -2  12   10.21    3.97
   1   2 -11    0.58    3.53
   1   2 -11    1.79    3.46
   1  -2 -11    2.12    2.74
   1  -2 -11    3.28    3.06
  -1   2  11    0.47    2.14
  -1  -2  11    0.98    1.81
   1  -2 -10  124.01   13.03
   1   2 -10  121.32   17.52
   1  -2 -10  105.29   15.71
   1   2 -10  110.90   16.49
  -1   2  10  120.44    9.76
  -1  -2  10   86.37    8.44
  -1  -2  10  113.22    9.24
   1   2  -9    1.18    2.32
   1  -2  -9    0.60    2.08
   1   2  -9    3.37    3.03
  -1  -2   9    1.09    1.02
  -1   2   9   -0.76    2.06
  -1  -2   9    1.27    1.54
  -1  -2   9    1.16    0.88
   1   2  -8    6.95    4.98
   1   2  -8    7.68    4.12
   1  -2  -8    6.08    5.12
   1  -2  -8    5.08    2.74
  -1  -2   8    7.13    1.88
  -1  -2   8    5.80    1.63
  -1  -2   8    6.35    2.36
  -1   2   8    7.31    2.79
  -1  -2   8    5.16    1.42
   1  -2  -7    9.29    2.17
   1   2  -7   11.32    1.79
   1   2  -7    5.86    5.55
   1  -2  -7   11.30    5.47
   1  -2  -7   10.01    2.61
   1   2  -7   12.89    4.63
  -1  -2   7   12.60    2.13
  -1   2   7   12.15    1.90
  -1  -2   7   10.47    2.51
  -1  -2   7   10.91    1.85
  -1  -2   7   12.66    2.20
  -1  -2   7    8.70    1.65
  -1  -2   7    8.30    3.50
  -1   2   7    9.91    2.13
  -1   2   7    7.40    4.26
  -1  -2   7   12.04    1.91
   1   2  -6   16.08    4.53
   1   2  -6   15.37    1.67
   1  -2  -6   15.93    1.98
   1  -2  -6   14.88    2.47
   1  -2  -6   14.96    5.37
   1   2  -6   17.13    3.67
  -1   2   6   13.20    2.02
  -1  -2   6   12.02    2.21
  -1   2   6   14.97    1.84
  -1  -2   6   12.44    1.65
  -1   2   6   11.43    4.15
  -1  -2   6   10.10    3.34
  -1  -2   6   14.10    2.32
  -1  -2   6   17.17    1.88
  -1  -2   6   11.55    5.84
  -1  -2   6   17.18    2.64
   1  -2  -5   18.24    3.37
   1  -2  -5   19.16    2.38
   1   2  -5   29.29    6.18
   1   2  -5   27.00    5.10
   1   2  -5   20.35    1.62
   1  -2  -5   20.31    1.86
  -1   2   5   20.20    2.15
  -1  -2   5   22.63    3.06
  -1  -2   5   20.64    3.96
  -1   2   5   24.90    1.92
  -1  -2   5   19.17    2.03
  -1   2   5   17.01    2.72
  -1  -2   5   21.46    2.37
  -1  -2   5   20.82    1.77
  -1  -2   5   21.67    2.36
  -1  -2   5   21.01    2.87
   1   2  -4   59.59    6.62
   1  -2  -4   59.76    3.47
   1  -2  -4   54.40    2.81
   1   2  -4   51.69    3.05
   1  -2  -4   54.01    7.10
   1   2  -4   54.81    4.77
  -1   2   4   53.67    3.17
  -1  -2   4   50.08    4.49
  -1  -2   4   57.37    3.07
  -1  -2   4   51.00    5.60
  -1  -2   4   59.69    3.10
  -1   2   4   51.63    2.73
  -1  -2   4   56.93    5.00
  -1   2   4   55.73    3.91
  -1  -2   4   63.09    4.46
   1  -2  -3   96.06    4.55
   1   2  -3   92.92    3.63
   1   2  -3   90.58    6.17
   1   2  -3   99.69    8.53
   1  -2  -3   91.30    3.11
   1  -2  -3   96.17    4.33
   1  -2  -3   83.81    7.40
  -1   2   3  104.78    3.58
  -1   2   3   95.73    3.66
  -1  -2   3   89.15    4.18
  -1   2   3   96.69    3.86
  -1  -2   3   92.37    4.48
  -1  -2   3  101.53    4.44
  -1  -2   3   96.59    6.44
  -1   2   3   91.91    5.15
  -1  -2   3   96.39    6.68
  -1  -2   3   86.52    6.67
   1  -2  -2    8.48    0.71
   1  -2  -2    9.99    1.02
   1  -2  -2   12.21    1.38
   1   2  -2   11.32    2.60
   1  -2  -2   11.09    0.80
   1   2  -2   10.56    2.09
   1  -2  -2    9.90    0.44
   1  -2  -2   10.21    1.03
   1  -2  -2   10.35    0.88
   1   2  -2    8.54    0.99
  -1  -2   2   11.98    1.03
  -1   2   2   11.89    0.94
  -1  -2   2    9.80    1.96
  -1  -2   2   11.11    2.51
  -1  -2   2    9.37    1.15
  -1  -2   2    4.56    2.26
  -1  -2   2    9.32    1.17
  -1   2   2    9.68    1.25
   1  -2  -1    5.04    0.75
   1  -2  -1    5.33    0.60
   1  -2  -1    4.71    0.60
   1   2  -1    2.76    0.76
   1  -2  -1    5.88    1.21
   1  -2  -1    4.64    0.28
   1  -2  -1    4.81    1.38
  -1  -2   1    5.66    2.11
  -1  -2   1    5.87    1.44
  -1   2   1    5.55    0.90
  -1  -2   1    6.14    1.20
  -1   2   1    4.98    0.42
  -1  -2   1    4.70    1.16
  -1  -2   1    4.07    0.61
  -1  -2   1    4.70    1.69
   1  -2   0  430.11   22.65
   1   2   0  427.43   17.47
   1  -2   0  438.07   20.49
   1   2   0  452.11   20.02
   1  -2   0  433.42   21.03
   1  -2   0  441.82   19.04
   1  -2   0  433.38   18.55
   1   2   0  445.27   18.10
   1  -2   0  445.63   16.25
  -1  -2   0  417.11   20.34
  -1   2   0  448.73   20.19
  -1  -2   0  532.05   31.27
  -1  -2   0  475.84   20.46
  -1  -2   0  433.62   25.51
  -1  -2   0  440.16   19.92
   1   2   1    6.68    0.84
   1   2   1    6.22    0.93
   1   2   1    6.29    0.61
   1  -2   1    6.07    1.42
   1  -2   1    6.38    0.85
   1  -2   1    6.44    1.55
   1  -2   1    1.29    1.38
  -1  -2  -1    5.85    0.64
  -1   2  -1    3.09    0.63
  -1  -2  -1    6.04    1.46
  -1  -2  -1    1.76    1.00
  -1  -2  -1    5.23    1.03
  -1  -2  -1    5.25    0.98
  -1   2  -1    5.63    1.48
  -1   2  -1    5.11    1.19
  -1  -2  -1    5.76    1.99
   1   2   2   33.20    1.36
   1   2   2   37.81    2.05
   1  -2   2   29.21    1.23
   1  -2   2   31.54    2.94
   1  -2   2   33.30    1.70
   1  -2   2   33.26    3.08
   1  -2   2   31.08    3.67
  -1   2  -2   34.83    3.23
  -1  -2  -2   28.27    2.12
  -1   2  -2   36.34    1.33
  -1  -2  -2   30.98    2.24
  -1  -2  -2   35.04    1.69
  -1  -2  -2   36.70    1.80
  -1   2  -2   29.34    3.05
  -1  -2  -2   29.89    4.61
  -1   2  -2   35.91    3.39
  -1  -2  -2   32.03    1.92
   1  -2   3  246.69   12.65
   1  -2   3  238.89   13.73
   1   2   3  234.97    8.13
   1   2   3  242.61   10.04
   1  -2   3  267.09   13.18
   1  -2   3  245.79   10.80
   1  -2   3  234.20    9.29
  -1  -2  -3  244.74   10.67
  -1  -2  -3  242.72    9.45
  -1  -2  -3  250.15   16.66
  -1   2  -3  272.15   13.81
  -1  -2  -3  249.39   11.64
  -1   2  -3  254.30   11.80
  -1   2  -3  248.27    8.86
  -1  -2  -3  232.44    7.81
  -1  -2  -3  249.91    8.41
  -1  -2  -3  261.49   11.24
  -1   2  -3  245.71   13.73
   1  -2   4   16.11    1.73
   1   2   4   17.37    2.20
   1  -2   4   14.79    2.78
   1  -2   4   22.58    2.55
   1  -2   4   15.77    1.79
   1  -2   4   16.90    2.31
   1   2   4   18.13    3.07
  -1   2  -4   16.33    2.71
  -1  -2  -4   18.43    2.30
  -1   2  -4   17.24    3.50
  -1  -2  -4   20.86    2.26
  -1   2  -4   16.50    1.60
  -1  -2  -4   19.14    6.38
  -1   2  -4   19.22    3.25
   1   2   5    1.27    1.22
   1  -2   5   -0.30    0.91
   1   2   5    0.55    1.49
   1  -2   5    1.53    1.13
   1  -2   5    2.10    1.98
   1   2   5    0.65    1.10
   1  -2   5    0.94    1.20
   1  -2   5    0.76    0.87
  -1   2  -5    2.64    1.26
  -1   2  -5    0.43    1.83
  -1   2  -5    1.26    1.36
  -1   2  -5    1.95    0.68
  -1  -2  -5    1.00    1.20
  -1  -2  -5    1.55    2.59
  -1  -2  -5    0.85    0.91
   1  -2   6   63.81    4.19
   1  -2   6   69.81    5.08
   1   2   6   63.06    4.72
   1  -2   6   75.17    4.95
   1   2   6   77.75    5.25
   1  -2   6   67.10    5.22
   1   2   6   72.29    9.15
   1  -2   6   63.93    7.50
  -1  -2  -6   65.85   11.25
  -1   2  -6   69.17    6.76
  -1   2  -6   71.05    5.03
  -1   2  -6   72.32    8.30
  -1  -2  -6   71.54    4.73
  -1   2  -6   73.29    4.02
  -1  -2  -6   70.50    5.65
   1   2   7   11.50    2.42
   1   2   7    9.29    2.20
   1   2   7    8.92    2.97
   1  -2   7   10.29    2.00
   1  -2   7   11.54    1.70
   1  -2   7    8.33    3.75
   1  -2   7   11.91    2.04
   1  -2   7    8.63    3.00
   1  -2   7   10.20    1.14
  -1  -2  -7   12.70    5.70
  -1   2  -7    2.69    4.07
  -1  -2  -7    8.92    2.70
  -1   2  -7   11.61    3.25
  -1  -2  -7    8.70    2.70
  -1   2  -7   12.77    2.19
  -1   2  -7    9.91    1.66
   1   2   8   -0.22    1.20
   1  -2   8    0.34    0.91
   1  -2   8   -0.37    0.57
   1  -2   8    0.64    0.95
  -1   2  -8    0.97    1.21
  -1   2  -8    0.55    1.63
  -1  -2  -8    1.25    1.82
  -1  -2  -8    0.93    1.51
   1  -2   9   -0.18    0.89
   1  -2   9    1.15    1.06
   1   2   9    1.55    1.34
   1  -2   9   -0.94    0.93
  -1   2  -9   -2.65    1.97
  -1  -2  -9    0.72    1.68
  -1  -2  -9    1.64    2.01
  -1   2  -9    0.07    2.14
   1  -2  10    0.66    1.32
   1  -2  10   -0.16    1.41
   1   2  10    0.74    1.83
  -1   2 -10    0.07    2.97
  -1   2 -10    3.08    2.53
  -1  -2 -10    1.50    2.41
   1  -2  11    2.17    1.07
   1  -2  11    1.60    2.73
   1   2  11    3.90    2.33
  -1  -2 -11    1.01    3.31
  -1   2 -11    0.05    3.69
  -1  -2 -11    5.34    3.29
  -1   2 -11    5.03    3.69
   1   2  12   -0.32    1.53
   1  -2  12   -1.83    1.34
  -1  -2 -12    1.54    2.03
  -1   2 -12    0.04    2.51
  -1   2 -12   -0.85    2.22
  -1  -2 -12    5.63    3.19
   1   2  13    0.12    1.81
   1  -2  13    1.28    1.63
  -1  -2 -13   -3.52    2.80
  -1   2 -13    4.28    3.23
  -1   2 -13   -0.07    2.66
  -1  -2 -13    4.47    3.70
   1   2  14   -0.11    1.21
   1  -2  14    1.52    1.10
  -1   2 -14   -2.32    0.95
  -1  -2 -14    4.22    1.95
  -1   2 -14    4.76    1.76
  -1  -2 -14    0.22    2.47
   1  -3 -14    0.03    1.99
   1   3 -14    3.36    1.99
   1  -3 -14    3.09    1.71
   1   3 -13    0.07    3.27
   1   3 -13    3.58    3.44
   1  -3 -13    2.91    2.48
   1  -3 -13    0.01    4.16
  -1   3  13    3.40    1.47
   1   3 -12    5.34    3.97
   1  -3 -12    4.75    2.61
   1  -3 -12    1.56    2.46
   1   3 -12    4.34    2.27
  -1   3  12    2.13    1.65
  -1  -3  12    0.15    1.10
   1  -3 -11    2.96    3.03
   1  -3 -11   -1.12    2.99
   1   3 -11    2.53    3.90
   1   3 -11    6.03    3.04
  -1  -3  11    1.64    1.34
  -1   3  11    2.34    1.86
   1  -3 -10    2.58    3.25
   1   3 -10    2.96    3.24
   1  -3 -10    3.04    2.93
   1   3 -10    3.01    4.39
  -1  -3  10    2.01    1.82
  -1  -3  10    3.38    1.53
  -1   3  10    2.29    1.82
   1   3  -9    8.75    6.23
   1  -3  -9    0.07    3.66
   1   3  -9    6.31    5.18
   1  -3  -9    5.55    3.10
  -1  -3   9    5.92    2.83
  -1  -3   9    7.53    2.15
  -1   3   9    7.64    2.41
   1   3  -8   24.31    7.12
   1  -3  -8   25.88    4.45
   1  -3  -8   -0.11    4.45
   1   3  -8   18.13    6.47
  -1  -3   8   23.12    3.50
  -1  -3   8   21.41    3.68
  -1   3   8   17.34    2.78
   1   3  -7    2.58    3.26
   1  -3  -7    2.42    1.54
   1   3  -7    5.38    4.34
   1  -3  -7    2.27    1.52
  -1   3   7    2.22    1.23
  -1  -3   7    2.56    1.75
  -1  -3   7    1.97    1.42
   1   3  -6    0.01    2.03
   1   3  -6    0.56    2.36
   1  -3  -6    0.55    2.66
   1  -3  -6    0.40    0.82
   1  -3  -6    0.05    1.18
  -1  -3   6    2.15    0.96
  -1  -3   6    0.27    1.36
  -1  -3   6    0.73    1.09
  -1  -3   6    1.91    1.35
  -1   3   6    1.40    0.86
  -1  -3   6    1.00    1.88
   1  -3  -5    0.75    0.60
   1  -3  -5   -0.10    1.94
   1   3  -5   -0.33    1.92
   1  -3  -5    0.18    0.50
   1  -3  -5    0.59    0.80
   1   3  -5    0.46    0.53
   1   3  -5   -0.50    1.68
  -1   3   5    1.18    0.62
  -1  -3   5    0.33    1.62
  -1  -3   5    1.00    1.15
  -1  -3   5    0.48    0.79
  -1  -3   5    1.98    1.51
  -1  -3   5    1.08    1.09
  -1  -3   5    0.27    1.19
  -1  -3   5    1.10    2.39
   1   3  -4   11.84    3.74
   1  -3  -4   20.93    2.95
   1  -3  -4   13.39    1.52
   1  -3  -4   15.62    1.31
   1   3  -4    9.16    1.12
   1   3  -4   12.34    4.44
  -1  -3   4   15.31    2.39
  -1  -3   4   14.47    2.31
  -1  -3   4   14.02    1.85
  -1  -3   4   13.81    4.80
  -1   3   4   11.17    1.46
  -1  -3   4   11.57    2.55
  -1  -3   4   17.90    3.17
  -1  -3   4   10.07    1.38
   1  -3  -3   -0.06    0.29
   1  -3  -3    0.45    0.38
   1  -3  -3    0.15    0.65
   1  -3  -3    0.63    0.33
   1   3  -3   -0.44    1.33
   1   3  -3   -0.05    0.31
   1  -3  -3    0.15    0.85
  -1  -3   3    0.78    0.91
  -1  -3   3    0.06    1.08
  -1  -3   3   -0.37    0.39
  -1  -3   3   -0.08    0.78
  -1  -3   3   -0.09    0.91
  -1   3   3   -0.09    0.35
  -1  -3   3   -0.57    1.25
  -1   3   3    0.56    0.45
   1  -3  -2    6.24    0.60
   1   3  -2    6.43    0.54
   1  -3  -2    7.07    2.27
   1  -3  -2    7.65    0.78
   1  -3  -2    7.55    1.88
   1  -3  -2    8.75    0.96
   1  -3  -2    7.12    1.07
  -1  -3   2   10.66    1.76
  -1   3   2    9.36    1.33
  -1  -3   2    8.44    2.18
  -1  -3   2    2.85    1.57
  -1  -3   2    8.18    2.19
  -1  -3   2    2.67    4.10
   1  -3  -1    3.82    0.60
   1  -3  -1    3.29    0.62
   1  -3  -1    2.63    1.00
   1  -3  -1    3.16    1.45
   1  -3  -1    1.67    1.05
   1   3  -1   -0.25    0.83
   1  -3  -1    3.31    1.04
   1  -3  -1    5.16    1.36
   1   3  -1    2.68    0.28
  -1  -3   1    3.34    1.57
  -1  -3   1    1.33    2.01
  -1   3   1    2.29    1.07
  -1  -3   1    1.53    2.44
  -1  -3   1    3.85    0.70
  -1  -3   1    3.89    1.13
   1  -3   0    2.63    1.08
   1   3   0    1.92    0.30
   1  -3   0    3.72    1.25
   1  -3   0    3.21    1.03
   1  -3   0    3.12    0.47
   1  -3   0    3.98    0.43
   1  -3   0    2.27    1.40
   1  -3   0    3.46    0.93
  -1  -3   0    4.53    1.65
  -1  -3   0    3.51    1.26
  -1  -3   0    3.54    3.19
  -1   3   0    2.47    1.23
  -1  -3   0    2.60    0.66
  -1  -3   0    3.38    3.33
  -1  -3   0    2.96    1.08
   1  -3   1   17.91    3.34
   1   3   1   23.72    1.36
   1  -3   1   26.49    1.37
   1  -3   1   31.48    3.51
   1  -3   1   27.87    1.71
   1  -3   1   27.97    3.23
   1   3   1   28.45    1.31
  -1  -3  -1   31.85    2.31
  -1  -3  -1   27.25    1.71
  -1  -3  -1   27.58    1.69
  -1  -3  -1   31.01    3.37
  -1  -3  -1   25.86    3.92
  -1  -3  -1   41.65    7.14
  -1  -3  -1   32.53    2.39
  -1   3  -1   31.49    3.05
   1  -3   2    0.16    0.63
   1   3   2   -0.61    0.42
   1  -3   2   -0.89    0.70
   1  -3   2    0.05    0.71
   1   3   2   -0.13    0.36
   1  -3   2   -0.19    0.92
  -1   3  -2    0.22    0.34
  -1  -3  -2    0.87    0.38
  -1  -3  -2    0.26    0.35
  -1  -3  -2   -0.41    1.43
  -1  -3  -2    0.02    0.60
  -1   3  -2    0.71    0.90
  -1  -3  -2   -1.76    1.17
  -1  -3  -2   -0.45    0.64
   1  -3   3    0.55    2.00
   1   3   3    2.61    0.63
   1   3   3    3.35    0.78
   1  -3   3    3.73    1.70
   1  -3   3    3.28    1.19
   1  -3   3    2.37    0.72
  -1  -3  -3    3.88    0.92
  -1   3  -3    5.10    1.70
  -1   3  -3    1.73    1.44
  -1  -3  -3    1.09    0.67
  -1  -3  -3   -0.15    1.37
  -1  -3  -3    1.45    0.45
  -1  -3  -3    0.90    0.54
  -1  -3  -3    5.09    2.42
   1   3   4    2.14    0.66
   1  -3   4    2.11    1.35
   1  -3   4    1.24    1.48
   1  -3   4    1.18    0.77
   1  -3   4    1.23    0.67
  -1   3  -4    1.88    1.58
  -1   3  -4    0.61    1.33
  -1  -3  -4   -0.06    0.99
  -1  -3  -4    0.10    2.64
  -1   3  -4    1.62    0.97
  -1  -3  -4   -0.03    1.10
   1  -3   5  113.30    5.97
   1  -3   5  122.27    6.38
   1  -3   5  116.47   10.84
   1  -3   5  133.09    9.05
   1  -3   5  141.32    9.84
   1   3   5  124.00    6.90
  -1   3  -5  141.56    9.27
  -1   3  -5  124.27    9.58
  -1  -3  -5  131.34    6.58
  -1  -3  -5  149.26   14.58
  -1  -3  -5  133.84    7.86
  -1   3  -5  154.57   12.00
   1  -3   6    1.33    2.35
   1  -3   6    1.66    0.80
   1  -3   6    1.50    1.04
   1   3   6    1.23    1.06
  -1  -3  -6    1.53    1.40
  -1   3  -6    3.19    2.44
  -1  -3  -6    3.59    1.52
  -1  -3  -6    2.66    2.12
  -1   3  -6    2.18    1.64
  -1   3  -6    1.82    1.78
   1  -3   7   29.69    2.78
   1   3   7   29.19    3.84
  -1   3  -7   29.58    4.31
  -1  -3  -7   31.61    4.35
  -1  -3  -7   31.52    5.71
  -1   3  -7   23.18    8.77
  -1   3  -7   38.65    7.09
   1  -3   8    6.37    2.22
   1   3   8    5.75    2.06
   1  -3   8    2.80    2.18
  -1  -3  -8    6.77    2.60
  -1  -3  -8    0.02    5.80
  -1   3  -8    0.11    4.41
  -1   3  -8    2.27    5.28
   1   3   9   11.04    4.07
   1  -3   9   19.01    3.11
   1  -3   9   18.52    2.34
  -1  -3  -9   13.03    4.13
  -1  -3  -9   -0.18    7.86
  -1   3  -9   15.18    6.25
  -1   3  -9    0.14    3.97
   1   3  10    1.14    1.70
   1  -3  10    1.71    1.80
   1  -3  10   -0.04    1.16
  -1   3 -10    5.65    3.33
  -1   3 -10    0.03    3.03
  -1  -3 -10    0.68    2.59
  -1  -3 -10   -0.13    2.70
   1   3  11    2.68    2.44
   1  -3  11    6.43    1.56
  -1   3 -11    2.85    4.06
  -1   3 -11   -0.12    4.21
  -1  -3 -11    6.47    3.59
  -1  -3 -11    6.89    4.00
   1   3  12    3.22    1.77
   1  -3  12    1.91    1.48
  -1   3 -12   -0.05    1.49
  -1  -3 -12    2.56    2.31
  -1   3 -12   -0.29    2.18
  -1  -3 -12    1.20    4.27
   1   3  13    2.60    1.34
  -1   3 -13    0.07    1.65
  -1  -3 -13    5.03    2.57
  -1  -3 -13   -0.12    2.36
  -1  -3 -14   -1.54    1.54
  -1  -3 -14    0.19    1.46
   1  -4 -13   -0.00    1.00
   1  -4 -12    0.97    1.63
   1  -4 -12    0.02    3.59
   1   4 -12    3.51    1.76
  -1  -4  12    5.06    2.21
   1  -4 -11    2.47    2.83
   1  -4 -11    7.88    3.42
   1   4 -11    5.01    3.65
  -1  -4  11    5.09    1.96
  -1  -4  11    5.96    2.20
   1   4 -10   50.54   10.55
   1  -4 -10   67.38   13.15
  -1  -4  10   60.26    7.43
  -1  -4  10   59.60    6.47
   1  -4  -9   -0.01    5.30
   1   4  -9    6.15    4.00
  -1  -4   9    5.44    2.02
  -1  -4   9    3.40    2.30
   1   4  -8    4.22    4.22
   1  -4  -8   -0.10    5.02
  -1  -4   8    5.72    2.34
  -1  -4   8    8.32    2.27
   1   4  -7    2.61    2.98
   1  -4  -7    0.02    4.04
  -1  -4   7    3.86    2.31
  -1  -4   7    1.62    1.88
   1   4  -6    0.08    2.90
   1  -4  -6    6.28    3.66
  -1  -4   6    2.78    1.91
  -1  -4   6    4.72    1.61
   1  -4  -5   24.84    4.35
   1   4  -5   28.84    2.99
  -1  -4   5   38.50    4.67
  -1  -4   5   31.09    4.10
   1  -4  -4   13.37    5.34
  -1  -4   4   13.66    2.90
  -1  -4   4   14.47    3.14
  -1  -4   4   11.73    2.92
   1   4  -3   -0.04    0.97
   1  -4  -3    1.26    2.34
   1  -4  -3    2.89    1.98
  -1  -4   3    2.87    3.10
  -1  -4   3    3.26    1.03
  -1  -4   3    3.06    1.63
  -1  -4   3    3.32    1.57
  -1  -4   3    4.84    1.65
   1  -4  -2    2.24    1.31
   1  -4  -2    1.98    1.67
   1  -4  -2    1.15    1.02
   1   4  -2   -0.02    0.81
  -1  -4   2    0.85    0.98
  -1  -4   2    1.43    1.64
  -1  -4   2    2.09    1.28
  -1  -4   2    2.82    1.52
  -1  -4   2    2.25    1.25
  -1   4   2    0.72    0.75
   1  -4  -1    1.31    0.59
   1  -4  -1    1.11    0.95
   1  -4  -1   -0.14    0.86
   1  -4  -1    1.08    1.37
   1  -4  -1    0.44    0.38
  -1  -4   1    1.29    1.40
  -1  -4   1    0.63    0.65
  -1   4   1    0.81    0.89
  -1  -4   1    0.28    0.95
  -1  -4   1    1.98    1.12
  -1  -4   1    1.02    1.37
  -1  -4   1    0.76    0.68
  -1  -4   1    0.97    1.80
   1  -4   0  136.63    7.53
   1  -4   0  148.66    7.64
   1  -4   0  124.99    7.75
   1  -4   0  135.02    8.45
   1  -4   0  126.24    6.92
  -1  -4   0  138.18   14.16
  -1  -4   0  137.47    8.04
  -1  -4   0  140.27   10.04
  -1   4   0  149.17    8.61
  -1  -4   0  157.30    7.40
  -1  -4   0  165.04    8.22
  -1  -4   0  155.06    8.86
  -1  -4   0  157.23   13.08
  -1  -4   0  146.46    7.20
   1  -4   1   -0.06    0.96
   1  -4   1    0.67    0.85
   1  -4   1    0.32    0.38
   1  -4   1   -0.08    0.61
   1  -4   1   -0.14    1.19
  -1  -4  -1   -0.11    0.43
  -1  -4  -1   -0.39    0.51
  -1  -4  -1   -0.16    0.44
  -1  -4  -1   -0.23    0.98
  -1   4  -1   -0.33    0.86
  -1  -4  -1   -0.36    1.18
  -1  -4  -1   -0.00    0.66
  -1  -4  -1    0.05    0.71
   1  -4   2    0.34    1.11
   1  -4   2    2.30    1.22
   1  -4   2    1.45    1.64
   1  -4   2    1.26    1.09
   1  -4   2    1.59    1.83
  -1  -4  -2    2.35    0.96
  -1   4  -2    2.98    1.58
  -1  -4  -2    0.81    3.35
  -1  -4  -2    1.74    2.70
   1  -4   3   26.89    3.38
   1  -4   3   35.97    2.60
   1  -4   3   32.55    3.72
  -1  -4  -3   29.76    6.32
  -1   4  -3   32.81    4.73
  -1  -4  -3   36.32    4.88
  -1  -4  -3   26.02    2.73
   1  -4   4   11.51    1.73
  -1  -4  -4    9.72    2.04
  -1  -4  -4    7.18    3.33
  -1   4  -4   12.08    3.21
   1  -4   5    5.52    2.11
  -1  -4  -5    4.10    2.02
  -1  -4  -5   -0.07    4.29
  -1   4  -5    6.63    2.62
   1  -4   6   14.65    2.39
  -1  -4  -6   15.19    4.00
  -1  -4  -6   -0.05    7.05
  -1   4  -6   21.55    3.76
   1  -4   7    4.53    1.76
   1  -4   7    6.24    2.63
  -1  -4  -7    5.31    2.36
  -1  -4  -7    0.04    3.48
   1  -4   8    1.34    2.24
   1  -4   8    3.51    1.66
  -1  -4  -8   -0.07    3.35
  -1  -4  -8    2.90    2.19
   1  -4   9    3.65    1.73
   1  -4   9    1.72    1.86
  -1  -4  -9    0.18    5.48
  -1  -4  -9    3.18    2.63
   1  -4  10   -0.01    1.44
   1  -4  10    3.37    2.11
  -1  -4 -10    4.22    2.47
  -1  -4 -10    1.76    4.66
   1  -4  11    1.23    1.70
   1  -4  11   -0.02    1.11
  -1  -4 -11    0.47    2.38
  -1  -4 -11    2.67    1.96
   1  -4  12    0.02    0.78
  -1  -4 -12    1.71    1.64
  -1  -4 -12    0.03    2.70
  -1  -4 -13    0.01    2.34
  -1  -4 -13   -0.87    1.12
  -1  -5  12    0.09    0.70
   1  -5 -11    2.20    1.61
  -1  -5  11   -0.37    0.66
  -1  -5  11    0.09    1.38
   1  -5 -10   -0.05    1.60
  -1  -5  10   -1.22    1.28
  -1  -5  10    0.52    1.88
  -1  -5   9   10.82    4.25
  -1  -5   9   11.54    3.50
   1  -5  -8   10.26    5.06
  -1  -5   8   11.18    3.16
  -1  -5   8    4.00    3.71
  -1  -5   7    2.36    2.11
  -1  -5   7    3.84    1.94
   1  -5  -6    0.98    2.79
  -1  -5   6    0.63    1.86
  -1  -5   6    0.10    1.44
   1  -5  -5    0.94    1.51
  -1  -5   5   -0.61    1.13
  -1  -5   5   -0.32    0.88
   1  -5  -4   -1.41    1.45
  -1  -5   4    1.97    1.40
  -1  -5   4    0.95    1.74
   1  -5  -3    3.51    1.59
  -1  -5   3   -0.07    1.51
  -1  -5   3    0.22    1.17
  -1  -5   3    3.36    1.83
   1  -5  -2    0.09    4.08
  -1  -5   2   16.38    4.64
  -1  -5   2   12.96    2.98
  -1  -5   2   13.33    2.34
   1  -5  -1    0.66    1.91
  -1  -5   1    1.55    1.11
  -1  -5   1    0.03    0.95
  -1  -5   1    2.32    2.61
  -1  -5   1    2.89    1.08
   1  -5   0    0.20    1.07
   1  -5   0    0.96    1.00
  -1  -5   0    0.61    2.39
  -1  -5   0    0.60    0.84
  -1  -5   0    0.22    0.90
   1  -5   1    0.37    0.81
   1  -5   1    1.54    1.08
   1  -5   1    0.75    1.04
  -1  -5  -1    0.60    0.87
  -1  -5  -1    3.27    2.70
   1  -5   2   -0.20    0.92
   1  -5   2    0.14    1.10
   1  -5   2    2.18    1.33
  -1  -5  -2    1.35    0.98
  -1  -5  -2    3.28    2.55
   1  -5   3    1.21    0.96
   1  -5   3    0.07    1.05
   1  -5   3    0.04    1.63
  -1  -5  -3    1.19    1.72
  -1  -5  -3   -0.02    1.41
   1  -5   4    7.45    2.58
   1  -5   4    5.04    1.73
  -1  -5  -4    0.14    3.65
  -1  -5  -4    2.89    1.84
   1  -5   5   24.64    4.21
   1  -5   5   28.10    3.39
  -1  -5  -5    0.06   10.18
  -1  -5  -5   14.15    3.63
   1  -5   6   -0.39    1.10
   1  -5   6    0.58    1.43
  -1  -5  -6    0.58    1.27
  -1  -5  -6   -0.02    2.94
   1  -5   7    1.81    2.51
  -1  -5  -7    6.96    2.39
  -1  -5  -7   -0.03    5.93
   1  -5   8    0.95    1.55
   1  -5   8    4.29    1.87
  -1  -5  -8    0.73    1.83
   1  -5   9   11.20    2.45
   1  -5   9    9.45    2.60
  -1  -5  -9    8.85    3.95
  -1  -5  -9    6.82    3.14
   1  -5  10    0.44    2.03
   1  -5  10    2.31    1.50
  -1  -5 -10    1.47    1.65
   1  -5  11    2.48    1.24
   1  -5  11    8.12    1.87
  -1  -5 -11   -0.02    2.23
  -1  -5 -11   -0.24    1.40
  -1  -5 -12   -0.01    1.39
  -1  -6  10   41.18    3.37
  -1  -6  10   39.53    4.06
   1  -6  -9    1.89    1.90
  -1  -6   9    1.86    1.49
  -1  -6   9   -1.91    2.31
  -1  -6   8   -0.77    2.45
  -1  -6   8    4.45    2.13
   1  -6  -7    5.98    4.32
  -1  -6   7    8.64    2.55
  -1  -6   7    6.64    3.22
   1  -6  -6   -0.87    2.72
  -1  -6   6   -1.19    2.59
   1  -6  -5   10.05    4.71
  -1  -6   5    8.79    4.53
  -1  -6   4    6.02    2.89
  -1  -6   4    1.31    2.98
  -1  -6   3    1.21    1.71
  -1  -6   3    3.32    2.09
  -1  -6   3    0.01    2.57
  -1  -6   2    0.31    1.37
  -1  -6   2    3.22    2.00
  -1  -6   2   -0.05    1.54
  -1  -6   1    1.59    1.45
  -1  -6   1    0.23    3.10
  -1  -6   0   70.94    8.21
   1  -6   1    0.29    0.87
  -1  -6  -1    0.01    2.39
   1  -6   2   -0.22    0.94
  -1  -6  -2    0.05    2.45
   1  -6   3    8.12    2.50
  -1  -6  -3   12.37    6.79
  -1  -6  -4    3.36    5.43
  -1  -6  -5    0.78    3.21
   1  -6   6    8.38    2.74
  -1  -6  -6    5.10    5.42
   1  -6   7    9.48    2.68
   1  -6   8    0.32    1.35
  -1  -6  -8    0.55    1.64
   1  -6   9    2.27    2.69
   1  -6   9    3.22    1.88
  -1  -6  -9    7.51    3.64
   1  -6  10   -0.24    1.11
   1  -6  10    0.52    0.73
  -1  -6 -10    0.01    1.71
  -1  -7   8    0.58    0.80
  -1  -7   7    0.49    1.51
  -1  -7   6    2.25    1.53
  -1  -7   5    1.04    1.25
  -1  -7   4    2.41    2.12
  -1  -7  -1    2.26    1.90
  -1  -7  -2    4.23    4.31
  -1  -7  -3    3.75    2.19
   1  -7   4    0.46    1.29
  -1  -7  -4    1.16    1.47
   1  -7   5    0.13    1.13
  -1  -7  -5   13.51    2.12
   1  -7   6    0.39    0.96
  -1  -7  -6   -1.94    1.78
   1  -7   7    0.00    0.40
   2   0 -15    0.01    1.41
   2   0 -15   -2.04    2.16
  -2   0  15    0.38    1.31
   2   0 -14   28.09    8.64
   2   0 -14   40.76    9.62
  -2   0  14   36.04    6.25
   2   0 -13    2.85    4.21
   2   0 -13    2.17    4.62
  -2   0  13    2.02    2.73
   2   0 -12   -1.22    3.14
   2   0 -12    0.39    2.09
  -2   0  12   -0.83    1.91
   2   0 -11   22.96   11.28
   2   0 -11   26.20    8.95
  -2   0  11   32.86    5.61
   2   0 -10  245.32   27.89
   2   0 -10  241.08   23.71
  -2   0  10  229.90   17.33
   2   0  -9   -0.42    1.69
   2   0  -9    1.91    2.59
  -2   0   9   -0.13    1.34
   2   0  -8    3.39    2.83
   2   0  -8    5.45    2.02
   2   0  -8    7.57    4.21
  -2   0   8    5.16    1.99
  -2   0   8    3.92    2.26
  -2   0   8    5.40    3.01
   2   0  -7    1.87    3.68
   2   0  -7    7.77    2.77
   2   0  -7    7.74    1.70
  -2   0   7    6.14    1.77
  -2   0   7    3.07    0.89
  -2   0   7    8.75    2.70
  -2   0   7    2.96    0.83
  -2   0   7    2.60    1.06
  -2   0   7    5.89    0.67
  -2   0   7    6.54    1.88
   2   0  -6   38.20    4.90
   2   0  -6   44.70    5.31
   2   0  -6   38.61    3.29
  -2   0   6   40.38    3.45
  -2   0   6   42.42    3.74
  -2   0   6   33.78    2.30
  -2   0   6   42.22    6.88
  -2   0   6   35.60    2.59
  -2   0   6   33.98    2.15
   2   0  -5    1.43    2.37
   2   0  -5   -0.98    1.58
   2   0  -5    0.92    1.10
  -2   0   5    1.08    0.65
  -2   0   5    1.98    0.82
  -2   0   5    1.31    1.13
  -2   0   5    0.70    1.08
  -2   0   5    1.41    0.74
  -2   0   5    0.28    1.50
   2   0  -4   53.74    3.71
   2   0  -4   64.98    6.82
   2   0  -4   62.27    5.11
  -2   0   4   60.60    4.07
  -2   0   4   63.38    3.98
  -2   0   4   57.74    2.39
  -2   0   4   54.32    2.73
  -2   0   4   54.81    2.83
  -2   0   4   58.85    4.59
   2   0  -3    4.86    0.87
   2   0  -3    6.70    2.39
   2   0  -3    6.42    1.76
   2   0  -3    6.76    1.36
   2   0  -3    6.24    0.82
  -2   0   3    5.02    1.33
  -2   0   3    5.04    0.93
  -2   0   3    5.44    1.17
  -2   0   3    6.15    1.83
   2   0  -2   59.61    4.16
   2   0  -2   53.67    4.81
   2   0  -2   56.53    3.25
   2   0  -2   60.65    2.87
   2   0  -2   56.60    2.87
  -2   0   2   53.72    2.68
  -2   0   2   64.58    3.84
  -2   0   2   55.73    3.41
  -2   0   2   60.22    5.10
  -2   0   2   53.41    3.36
   2   0  -1  123.68    5.06
   2   0  -1  137.75    6.39
   2   0  -1  126.20    6.11
   2   0  -1  135.57    6.72
   2   0  -1  141.51    9.17
  -2   0   1  162.93    8.58
  -2   0   1  141.89    6.80
  -2   0   1  141.11    6.56
  -2   0   1  138.51    6.44
  -2   0   1  141.01    6.49
   2   0   0  342.29   15.81
   2   0   0  336.03   15.39
   2   0   0  339.44   13.79
   2   0   0  343.00   12.47
  -2   0   0  340.99   14.75
  -2   0   0  339.87   15.66
  -2   0   0  336.28   14.23
  -2   0   0  337.47   13.83
  -2   0   0  347.36   13.08
   2   0   1   37.96    2.43
   2   0   1   34.16    2.51
   2   0   1   31.10    2.35
   2   0   1   39.39    2.55
  -2   0  -1   32.35    2.51
  -2   0  -1   32.22    3.33
  -2   0  -1   29.76    1.58
  -2   0  -1   35.59    2.27
  -2   0  -1   32.60    1.56
   2   0   2   19.83    1.96
   2   0   2   15.51    2.91
   2   0   2   23.46    1.93
   2   0   2   20.63    1.46
   2   0   2   22.17    1.48
  -2   0  -2   25.12    2.01
  -2   0  -2   19.10    1.60
  -2   0  -2   23.06    2.03
  -2   0  -2   23.99    1.91
  -2   0  -2   20.46    1.57
   2   0   3   27.09    1.93
   2   0   3   29.14    2.19
   2   0   3   26.10    2.23
   2   0   3   25.98    3.17
   2   0   3   27.38    1.96
  -2   0  -3   21.77    1.95
  -2   0  -3   24.46    2.11
  -2   0  -3   24.24    3.27
  -2   0  -3   25.76    1.91
  -2   0  -3   27.66    2.65
   2   0   4    0.39    1.14
   2   0   4    0.79    1.57
   2   0   4    1.96    0.90
   2   0   4    1.42    0.83
   2   0   4    1.38    0.74
  -2   0  -4   -0.27    0.92
  -2   0  -4    1.09    0.67
  -2   0  -4    0.39    1.21
  -2   0  -4    0.98    0.94
   2   0   5   78.78    5.76
   2   0   5   74.09    3.49
   2   0   5   78.63    5.42
   2   0   5   77.03    4.30
   2   0   5   76.69    5.72
  -2   0  -5   80.01    5.38
  -2   0  -5   75.43    3.76
  -2   0  -5   72.81    5.52
  -2   0  -5   79.74    6.09
  -2   0  -5   80.34    5.39
   2   0   6  135.60    8.53
   2   0   6  135.66   11.61
   2   0   6  130.00    6.87
   2   0   6  134.41    5.86
   2   0   6  135.58    7.73
  -2   0  -6  118.81    6.19
  -2   0  -6  139.08    8.54
  -2   0  -6  140.25    8.07
  -2   0  -6  142.24   12.57
   2   0   7   25.50    3.45
   2   0   7   23.57    3.07
   2   0   7   26.02    2.72
   2   0   7   27.45    3.58
  -2   0  -7   27.12    3.16
  -2   0  -7   21.05    3.65
   2   0   8    4.12    1.75
   2   0   8    7.19    2.12
  -2   0  -8    7.84    3.12
  -2   0  -8    7.82    2.48
   2   0   9    1.29    1.70
  -2   0  -9    1.64    1.98
  -2   0  -9   -0.44    1.76
   2   0  10    0.30    1.15
  -2   0 -10   -0.58    1.64
  -2   0 -10   -0.08    2.06
   2   0  11    1.89    2.01
  -2   0 -11   -0.01    3.69
  -2   0 -11    1.52    2.59
   2   0  12   -0.29    1.61
  -2   0 -12    1.37    2.40
  -2   0 -12   -0.00    2.52
   2   0  13    2.55    2.23
  -2   0 -13    6.01    3.52
  -2   0 -13   -0.09    2.93
   2   0  14    0.17    1.34
  -2   0 -14   -0.66    2.16
  -2   0 -14    2.73    2.23
   2   0  15    1.27    1.22
  -2   0 -15    5.32    1.79
   2  -1 -15    0.00    1.66
   2  -1 -15    0.34    2.42
   2   1 -15    0.08    3.10
   2   1 -15    6.11    2.44
  -2  -1  15    0.68    1.34
  -2   1  15    2.03    1.70
   2  -1 -14    3.34    3.94
   2   1 -14    3.68    4.46
   2   1 -14    8.92    3.01
   2  -1 -14    0.13    4.22
  -2   1  14    1.88    2.75
  -2  -1  14    0.71    3.28
   2   1 -13   17.11    7.24
   2  -1 -13   11.51    6.05
   2   1 -13   27.72    9.06
   2  -1 -13   11.42    6.24
  -2  -1  13   11.51    3.75
  -2   1  13    8.32    4.30
   2   1 -12    2.84    3.78
   2  -1 -12    0.75    2.97
   2   1 -12    4.93    2.73
   2  -1 -12   -0.75    3.96
  -2  -1  12   -0.39    2.19
  -2   1  12   -0.37    2.10
   2   1 -11    5.60    3.43
   2  -1 -11    0.12    2.87
   2  -1 -11   -0.30    2.60
   2   1 -11    2.01    3.68
  -2   1  11    0.65    2.04
  -2  -1  11   -0.41    1.92
   2   1 -10   10.72    5.91
   2  -1 -10    7.19    5.17
   2  -1 -10   10.11    6.75
   2   1 -10   13.74    8.14
  -2   1  10   12.24    4.44
  -2  -1  10   10.35    3.43
   2  -1  -9   19.10    4.66
   2   1  -9   17.52    5.80
   2  -1  -9   12.01    5.03
   2   1  -9   16.30    4.00
  -2  -1   9   17.14    3.76
  -2   1   9   19.92    3.90
   2   1  -8    3.44    3.93
   2   1  -8    1.53    1.94
   2   1  -8    4.10    3.02
   2  -1  -8    4.77    2.24
   2  -1  -8    1.67    1.92
  -2  -1   8    3.07    1.19
  -2  -1   8    2.31    0.89
  -2   1   8    1.86    1.31
  -2   1   8    2.68    1.70
  -2  -1   8    2.13    0.92
  -2  -1   8    0.82    1.23
  -2  -1   8    4.12    1.60
   2  -1  -7    8.22    2.68
   2  -1  -7   10.23    1.98
   2   1  -7   10.64    4.01
   2   1  -7   13.07    3.31
   2  -1  -7   12.09    4.48
   2   1  -7   10.01    1.95
  -2  -1   7    7.99    1.60
  -2   1   7    9.99    2.21
  -2   1   7    7.50    1.80
  -2   1   7    8.16    3.86
  -2  -1   7   10.81    1.48
  -2  -1   7    9.76    2.20
  -2  -1   7    8.85    1.32
  -2  -1   7    7.15    2.95
  -2  -1   7    9.34    2.48
  -2  -1   7    8.51    1.15
   2  -1  -6    9.00    2.22
   2   1  -6   12.28    3.71
   2  -1  -6   12.88    1.76
   2   1  -6   10.20    1.77
   2   1  -6   10.13    3.28
  -2  -1   6    8.18    3.24
  -2   1   6    9.12    1.99
  -2  -1   6    6.80    1.73
  -2  -1   6    9.18    1.96
  -2  -1   6    5.73    1.30
  -2  -1   6   10.92    1.59
  -2   1   6    8.08    3.57
  -2  -1   6    9.28    2.25
  -2   1   6   11.13    1.62
   2  -1  -5    7.49    1.99
   2  -1  -5    7.58    3.95
   2   1  -5    8.48    3.64
   2   1  -5   12.87    2.36
   2  -1  -5   11.14    1.63
   2   1  -5    7.21    4.88
  -2  -1   5    9.07    2.36
  -2   1   5   10.19    1.48
  -2   1   5    9.83    2.31
  -2  -1   5    9.84    1.79
  -2  -1   5   11.01    2.05
  -2   1   5   10.29    0.64
  -2   1   5    8.07    0.89
  -2  -1   5   10.69    1.13
  -2   1   5   10.78    2.11
  -2  -1   5    9.79    4.25
  -2  -1   5    9.75    1.45
  -2   1   5    6.84    0.85
   2  -1  -4    7.57    1.96
   2  -1  -4    6.75    0.59
   2  -1  -4   10.23    1.57
   2   1  -4    8.41    3.05
   2  -1  -4    9.54    1.84
   2   1  -4    7.07    3.07
   2   1  -4    8.97    1.47
  -2  -1   4    8.90    1.69
  -2  -1   4    8.10    1.28
  -2   1   4    8.18    1.07
  -2  -1   4   11.75    1.51
  -2   1   4    9.13    0.97
  -2   1   4    7.22    0.68
  -2   1   4    7.27    2.64
  -2  -1   4   10.25    1.57
  -2  -1   4    8.24    2.30
  -2   1   4    8.03    1.58
   2   1  -3   34.35    2.97
   2  -1  -3   31.17    2.22
   2  -1  -3   28.14    1.48
   2  -1  -3   33.11    2.35
   2   1  -3   35.85    4.77
   2   1  -3   30.33    1.39
   2  -1  -3   30.12    1.11
   2   1  -3   33.64    5.00
   2  -1  -3   30.84    2.13
  -2  -1   3   31.29    3.82
  -2   1   3   34.20    2.32
  -2  -1   3   30.42    3.56
  -2   1   3   31.59    1.71
  -2  -1   3   33.44    2.68
  -2  -1   3   33.46    2.72
  -2   1   3   38.22    1.81
  -2  -1   3   34.02    2.38
  -2   1   3   28.07    3.18
  -2  -1   3   34.67    2.89
   2   1  -2    0.69    0.68
   2  -1  -2    0.61    0.97
   2   1  -2    0.04    0.50
   2  -1  -2    0.15    0.55
   2   1  -2    0.67    0.89
   2  -1  -2   -0.33    0.65
   2   1  -2    0.27    1.68
   2   1  -2    1.73    1.66
   2  -1  -2    0.92    0.59
   2  -1  -2    0.82    0.58
  -2  -1   2    1.08    0.79
  -2  -1   2    0.74    1.63
  -2  -1   2    0.63    0.54
  -2  -1   2    0.20    1.28
  -2   1   2   -0.27    0.55
  -2   1   2    1.03    0.63
  -2   1   2    0.71    0.70
  -2   1   2    0.72    0.71
  -2  -1   2    0.97    0.71
  -2   1   2    0.65    0.45
   2   1  -1   26.98    2.14
   2   1  -1   22.77    2.66
   2  -1  -1   23.10    1.56
   2   1  -1   16.76    1.20
   2  -1  -1   20.49    1.09
   2  -1  -1   18.43    1.99
   2  -1  -1   24.31    1.74
   2   1  -1   24.92    3.88
   2   1  -1   21.47    3.69
   2  -1  -1   20.71    1.40
  -2   1   1   21.01    1.38
  -2  -1   1   23.14    2.19
  -2  -1   1   24.22    2.41
  -2   1   1   22.20    1.32
  -2   1   1   21.23    0.76
  -2  -1   1   23.63    2.27
  -2  -1   1   22.95    3.64
  -2   1   1   21.39    2.01
  -2   1   1   22.29    1.66
  -2  -1   1   22.56    2.84
   2   1   0    6.77    1.25
   2  -1   0    7.08    1.16
   2   1   0    6.41    1.04
   2  -1   0    7.12    1.39
   2  -1   0    7.36    1.05
   2   1   0    7.56    1.50
   2   1   0    6.10    1.80
  -2   1   0    5.60    1.40
  -2  -1   0    7.81    1.10
  -2  -1   0    9.35    2.85
  -2  -1   0    4.65    2.10
  -2  -1   0    4.90    1.02
  -2   1   0    7.23    0.79
  -2   1   0    5.42    1.63
  -2  -1   0    6.98    2.64
   2  -1   1   22.16    0.74
   2   1   1   22.60    2.04
   2  -1   1   20.74    0.99
   2   1   1   19.31    1.93
   2  -1   1   24.11    2.96
   2  -1   1   26.00    1.64
   2  -1   1   26.17    2.56
   2   1   1   20.83    1.39
   2   1   1   20.02    1.85
   2  -1   1   21.04    1.64
  -2  -1  -1   18.88    1.47
  -2  -1  -1   20.96    1.85
  -2   1  -1   28.78    2.10
  -2  -1  -1   26.02    2.35
  -2   1  -1   25.86    2.47
  -2   1  -1   19.70    1.09
  -2   1  -1   21.57    0.92
  -2  -1  -1   20.86    1.88
  -2  -1  -1   22.47    3.13
   2  -1   2   28.87    1.44
   2   1   2   24.93    1.46
   2   1   2   24.70    2.00
   2   1   2   24.86    2.07
   2  -1   2   22.33    1.68
   2  -1   2   22.80    1.77
   2  -1   2   24.51    2.28
   2   1   2   25.50    2.54
   2  -1   2   25.33    2.18
  -2  -1  -2   23.56    2.13
  -2  -1  -2   22.49    1.47
  -2   1  -2   24.41    2.73
  -2  -1  -2   29.13    3.70
  -2   1  -2   24.10    2.41
  -2   1  -2   24.85    1.71
  -2  -1  -2   28.49    2.58
  -2   1  -2   23.65    1.61
  -2  -1  -2   25.69    1.99
   2   1   3    2.71    1.22
   2   1   3    2.29    1.09
   2  -1   3    2.70    0.88
   2   1   3    2.65    0.74
   2  -1   3    4.15    1.69
   2   1   3    4.61    0.68
   2  -1   3    2.05    1.19
   2  -1   3    2.63    0.94
   2   1   3    3.08    0.65
   2  -1   3    2.47    0.60
  -2   1  -3    2.55    1.21
  -2  -1  -3    2.19    0.69
  -2   1  -3    2.34    1.22
  -2  -1  -3    3.57    1.20
  -2  -1  -3    2.42    1.32
  -2   1  -3    1.82    0.90
  -2   1  -3    3.30    1.52
  -2  -1  -3    2.43    0.84
  -2   1  -3    1.89    0.85
  -2  -1  -3    1.23    1.13
   2   1   4   64.69    2.60
   2   1   4   66.18    4.24
   2   1   4   63.80    3.52
   2  -1   4   63.25    6.17
   2  -1   4   65.22    3.64
   2  -1   4   66.10    4.29
   2  -1   4   68.15    3.75
   2   1   4   64.99    4.10
   2   1   4   67.63    4.70
   2  -1   4   66.17    3.68
  -2   1  -4   78.64    4.52
  -2  -1  -4   63.63    3.00
  -2   1  -4   69.88    4.90
  -2  -1  -4   75.92    9.12
  -2  -1  -4   65.13    4.63
  -2  -1  -4   59.96    2.72
  -2   1  -4   73.52    4.86
  -2   1  -4   66.42    3.97
  -2   1  -4   75.42    4.58
  -2  -1  -4   68.13    4.73
   2   1   5   97.58    9.32
   2   1   5   89.83    6.27
   2   1   5  102.17    6.13
   2  -1   5   93.60    6.47
   2  -1   5  102.68    4.89
   2   1   5  106.43    6.04
   2  -1   5  101.29    5.44
   2  -1   5  104.68    6.68
   2  -1   5  100.35    6.32
  -2   1  -5  107.23    5.73
  -2  -1  -5   93.14    4.23
  -2   1  -5  103.26    6.09
  -2  -1  -5  101.46   11.45
  -2  -1  -5  115.88    7.33
  -2  -1  -5  128.27    7.94
  -2   1  -5  101.67    6.43
  -2   1  -5  100.10    5.99
   2   1   6    0.47    0.87
   2  -1   6    0.05    1.32
   2   1   6   -0.17    0.80
   2  -1   6    0.26    0.63
   2   1   6   -0.05    1.00
   2  -1   6    0.21    1.12
   2  -1   6   -0.20    0.69
   2  -1   6   -0.41    0.79
   2   1   6    1.07    0.86
  -2   1  -6   -0.84    0.97
  -2   1  -6   -0.19    0.70
  -2  -1  -6    1.25    0.99
  -2  -1  -6   -0.14    1.24
  -2   1  -6    0.05    1.34
  -2   1  -6    0.63    0.68
  -2  -1  -6   -0.49    1.12
   2   1   7    0.69    1.39
   2   1   7    1.71    1.26
   2  -1   7    0.03    1.76
   2  -1   7    1.11    1.04
   2  -1   7    0.97    1.05
   2  -1   7    0.85    0.89
   2   1   7    1.20    1.45
   2  -1   7    1.20    1.18
  -2   1  -7    2.13    1.49
  -2   1  -7    0.23    2.06
  -2  -1  -7    1.38    1.83
  -2  -1  -7    1.04    1.61
  -2   1  -7    1.06    1.10
  -2   1  -7    1.23    0.91
  -2  -1  -7    0.74    1.50
   2   1   8    6.86    2.27
   2  -1   8    4.56    1.96
   2  -1   8    5.60    2.00
  -2   1  -8    7.78    3.62
  -2   1  -8    2.92    2.80
  -2  -1  -8    5.89    2.92
  -2  -1  -8    5.74    2.91
   2   1   9    3.94    2.16
   2  -1   9    4.69    2.38
   2  -1   9    2.67    0.76
  -2  -1  -9    3.70    2.74
  -2   1  -9   -0.02    3.29
  -2   1  -9    3.64    2.87
   2   1  10   21.05    4.37
   2  -1  10   22.09    3.92
  -2   1 -10   17.06    6.18
  -2  -1 -10   21.89    5.47
  -2   1 -10   22.70    4.48
  -2  -1 -10   18.04    5.86
   2   1  11    3.81    2.59
   2  -1  11    2.97    2.47
  -2  -1 -11    3.60    3.51
  -2   1 -11    9.40    3.72
  -2  -1 -11    3.25    4.80
  -2   1 -11   -0.01    3.27
   2  -1  12   26.43    4.90
   2   1  12   31.05    5.50
  -2   1 -12   19.80    7.00
  -2   1 -12   30.97    4.59
  -2  -1 -12   26.45    6.69
  -2  -1 -12   35.10    9.36
   2  -1  13    9.05    3.08
   2   1  13   10.48    3.35
  -2   1 -13   -0.06    4.05
  -2   1 -13    7.33    4.43
  -2  -1 -13    7.91    5.10
  -2  -1 -13   15.91    5.32
   2   1  14    0.75    1.80
   2  -1  14    1.18    1.56
  -2  -1 -14    0.08    2.52
  -2  -1 -14    9.05    3.71
  -2   1 -14    2.53    1.20
  -2   1 -14    4.42    2.37
   2   1  15    0.04    1.22
  -2  -1 -15    2.09    1.64
   2   2 -15   -1.21    1.80
   2  -2 -15   -0.01    1.85
   2  -2 -14    0.01    5.16
   2  -2 -14    7.01    3.52
   2   2 -14    7.65    3.97
   2   2 -14   -0.00    5.09
  -2  -2  14    7.18    1.94
  -2   2  14    3.56    2.48
   2   2 -13    1.23    4.73
   2   2 -13    2.40    5.29
   2  -2 -13    2.64    3.48
   2  -2 -13    1.77    2.88
  -2   2  13    4.23    2.26
  -2  -2  13    4.27    2.45
   2  -2 -12    2.50    2.77
   2  -2 -12    1.05    2.71
   2   2 -12    4.01    3.94
   2   2 -12    1.08    4.16
  -2   2  12    0.80    1.91
  -2  -2  12   -1.08    2.71
   2  -2 -11   25.57    9.20
   2   2 -11   38.48    9.37
   2  -2 -11   29.69   10.39
   2   2 -11   39.19   13.60
  -2  -2  11   34.16    5.20
  -2   2  11   32.27    7.04
   2   2 -10  180.00   21.57
   2   2 -10  181.50   20.49
   2  -2 -10  171.94   22.19
   2  -2 -10  173.80   18.40
  -2  -2  10  169.93   16.94
  -2  -2  10  161.48   14.94
  -2   2  10  192.72   14.75
   2  -2  -9    1.98    2.37
   2  -2  -9    1.21    2.18
   2   2  -9    1.26    2.39
   2   2  -9    2.49    3.20
  -2  -2   9    1.81    0.96
  -2   2   9    0.64    1.95
  -2  -2   9   -0.03    1.23
  -2  -2   9    0.63    1.55
   2  -2  -8    3.10    2.28
   2   2  -8    2.38    3.59
   2   2  -8    4.01    4.46
  -2  -2   8    4.29    1.24
  -2  -2   8    4.85    2.35
  -2   2   8    3.28    1.93
  -2  -2   8    3.08    1.55
   2  -2  -7    2.64    1.87
   2   2  -7    3.51    2.67
   2   2  -7    4.80    1.71
   2   2  -7    4.95    3.61
   2  -2  -7    4.80    3.59
   2  -2  -7    3.76    1.38
  -2  -2   7    5.32    1.20
  -2  -2   7    4.32    2.04
  -2  -2   7    5.41    1.37
  -2  -2   7    3.53    1.40
  -2   2   7    3.18    1.97
  -2  -2   7    3.89    2.11
  -2   2   7    3.98    1.22
  -2  -2   7    3.17    1.89
  -2   2   7    4.76    2.26
   2  -2  -6   19.82    3.15
   2   2  -6   20.21    5.54
   2  -2  -6   19.69    2.60
   2  -2  -6   18.40    2.71
   2   2  -6   25.29    3.96
   2   2  -6   21.11    2.36
  -2   2   6   20.13    3.21
  -2   2   6   20.31    2.72
  -2  -2   6   18.74    2.38
  -2  -2   6   18.58    6.06
  -2   2   6   18.42    1.76
  -2  -2   6   21.08    2.73
  -2  -2   6   15.78    2.12
  -2  -2   6   24.36    3.60
  -2  -2   6   19.60    2.95
   2   2  -5    7.58    4.62
   2   2  -5    5.01    1.18
   2   2  -5    4.92    2.23
   2  -2  -5    6.55    1.57
   2  -2  -5    2.89    1.16
  -2   2   5    6.64    1.15
  -2   2   5    6.54    1.35
  -2  -2   5    5.32    1.05
  -2  -2   5    5.39    1.45
  -2  -2   5    5.51    1.95
  -2  -2   5    5.53    1.41
  -2   2   5    4.20    2.27
  -2  -2   5    6.86    2.51
   2   2  -4   38.91    2.32
   2  -2  -4   33.84    5.52
   2   2  -4   47.59    7.05
   2  -2  -4   38.85    2.63
   2   2  -4   47.06    8.15
   2  -2  -4   40.21    2.27
  -2  -2   4   37.29    3.13
  -2  -2   4   41.08    3.45
  -2   2   4   42.46    2.61
  -2  -2   4   42.67    4.76
  -2   2   4   40.48    2.29
  -2  -2   4   41.43    3.04
  -2   2   4   40.14    4.20
  -2  -2   4   34.72    5.29
  -2   2   4   31.54    1.89
  -2  -2   4   43.21    4.26
   2   2  -3    1.16    0.64
   2  -2  -3    1.11    0.75
   2   2  -3    1.64    2.29
   2  -2  -3    2.84    0.79
   2  -2  -3    2.04    0.98
   2   2  -3    1.47    2.83
   2  -2  -3    0.88    0.29
   2  -2  -3    1.55    0.56
  -2   2   3    2.46    0.54
  -2  -2   3    2.42    0.84
  -2  -2   3    1.79    1.02
  -2  -2   3    1.75    0.85
  -2   2   3    1.33    0.79
  -2  -2   3    2.66    1.77
  -2   2   3    1.37    0.77
  -2  -2   3    1.14    0.77
  -2  -2   3    2.86    2.83
  -2   2   3    2.81    0.83
   2   2  -2  162.87    9.70
   2   2  -2  167.33    7.77
   2  -2  -2  167.77    6.46
   2  -2  -2  185.42    7.43
   2   2  -2  181.23   12.50
   2  -2  -2  174.03    6.12
   2   2  -2  191.04    7.10
   2  -2  -2  166.68    9.53
   2  -2  -2  169.86    5.71
  -2  -2   2  167.56    7.97
  -2   2   2  173.10    7.20
  -2  -2   2  174.67    9.66
  -2  -2   2  174.30   11.67
  -2  -2   2  176.37    8.06
  -2  -2   2  172.19   14.93
  -2   2   2  167.17    7.21
  -2  -2   2  188.31    8.21
   2   2  -1   88.81    4.43
   2   2  -1   83.32    3.56
   2  -2  -1   85.73    3.99
   2  -2  -1   98.02    3.21
   2   2  -1   85.71    4.52
   2  -2  -1   85.39    3.63
   2  -2  -1   98.19    4.89
  -2  -2   1   82.67    4.01
  -2   2   1   82.81    3.06
  -2  -2   1   82.78    7.51
  -2   2   1   81.53    3.09
  -2  -2   1   90.41    4.18
  -2  -2   1   82.92    3.67
  -2   2   1   81.18    4.75
  -2  -2   1   96.82    9.75
  -2  -2   1   78.79    4.92
   2   2   0   19.57    1.69
   2   2   0   21.05    1.86
   2  -2   0   20.15    0.92
   2  -2   0   18.91    2.42
   2  -2   0   24.30    1.08
   2  -2   0   24.88    2.27
   2   2   0   19.49    1.72
   2  -2   0   18.60    1.75
   2   2   0   20.22    1.53
   2  -2   0   16.78    1.29
  -2  -2   0   17.63    1.75
  -2  -2   0   23.30    1.80
  -2   2   0   18.88    1.30
  -2  -2   0   19.98    4.17
  -2   2   0   22.28    2.52
  -2  -2   0   28.45    5.35
  -2  -2   0   19.01    2.11
   2   2   1   11.61    1.26
   2  -2   1   10.54    0.87
   2   2   1   13.01    1.50
   2  -2   1   12.68    1.46
   2  -2   1   12.18    1.33
   2   2   1   11.83    1.17
   2  -2   1   10.63    1.18
   2  -2   1   10.18    0.70
  -2  -2  -1   11.98    3.64
  -2  -2  -1   10.91    1.57
  -2  -2  -1   10.30    1.14
  -2  -2  -1   11.89    2.03
  -2  -2  -1   10.06    3.46
  -2  -2  -1   13.45    1.38
  -2   2  -1    9.43    2.14
   2   2   2   34.65    2.17
   2   2   2   36.74    2.96
   2   2   2   34.61    2.41
   2  -2   2   32.72    1.30
   2  -2   2   38.12    3.35
   2  -2   2   37.04    2.39
   2  -2   2   29.63    2.95
   2  -2   2   34.43    1.86
   2  -2   2   34.57    1.60
  -2  -2  -2   38.17    3.72
  -2  -2  -2   30.25    1.63
  -2  -2  -2   33.98    3.27
  -2  -2  -2   38.40    2.84
  -2   2  -2   31.70    2.20
  -2   2  -2   33.63    3.56
  -2  -2  -2   36.49    2.01
  -2  -2  -2   32.09    2.87
   2   2   3    4.63    1.38
   2   2   3    7.22    0.84
   2  -2   3    6.64    0.97
   2  -2   3    7.28    0.81
   2  -2   3    7.63    1.21
   2   2   3    6.71    1.33
   2  -2   3    7.38    1.73
   2  -2   3    6.57    0.70
  -2  -2  -3    6.55    0.93
  -2  -2  -3    0.27    1.50
  -2   2  -3    4.13    1.19
  -2  -2  -3    7.43    1.60
  -2  -2  -3    6.00    0.95
  -2  -2  -3   10.46    0.99
  -2  -2  -3    7.45    2.06
  -2   2  -3    8.95    2.20
  -2   2  -3    8.63    1.52
   2  -2   4    7.96    1.27
   2  -2   4   11.33    2.07
   2   2   4    6.38    0.85
   2  -2   4   10.22    2.08
   2  -2   4   10.33    2.07
   2   2   4   10.07    1.53
   2  -2   4   10.86    1.44
  -2  -2  -4    9.25    1.58
  -2   2  -4    7.77    1.68
  -2  -2  -4    8.77    1.18
  -2  -2  -4   13.70    2.66
  -2   2  -4    9.94    1.43
  -2  -2  -4   10.93    1.95
  -2   2  -4   10.89    2.07
  -2   2  -4   10.11    2.39
   2  -2   5   17.54    2.21
   2  -2   5   18.60    2.00
   2  -2   5   16.08    2.73
   2  -2   5   19.38    3.01
   2  -2   5   18.12    2.01
   2   2   5   20.33    2.63
  -2   2  -5   17.86    2.62
  -2  -2  -5   20.03    2.69
  -2   2  -5   21.55    1.78
  -2  -2  -5   28.64    4.41
  -2  -2  -5   21.15    2.65
  -2  -2  -5    0.54    4.42
  -2   2  -5   24.31    3.38
  -2   2  -5   17.64    2.97
   2  -2   6   60.32    4.69
   2  -2   6   61.23    7.20
   2   2   6   66.55    6.52
   2  -2   6   57.45    4.63
   2   2   6   62.88    4.89
   2  -2   6   61.11    5.01
   2  -2   6   65.50    5.11
  -2   2  -6   48.78    5.10
  -2  -2  -6   67.52    5.44
  -2  -2  -6   62.86    4.81
  -2   2  -6   70.62    4.17
  -2   2  -6   63.46    5.07
  -2  -2  -6   64.41   10.76
  -2   2  -6   63.34    4.43
  -2  -2  -6   75.73    5.24
   2  -2   7   16.12    2.34
   2   2   7   16.79    2.78
   2  -2   7   14.02    1.83
   2  -2   7   15.17    2.51
   2  -2   7   11.57    4.38
  -2  -2  -7   17.36    4.27
  -2   2  -7    9.80    3.53
  -2   2  -7   14.82    2.58
  -2  -2  -7   17.39    3.32
  -2   2  -7   17.13    2.25
  -2   2  -7   15.31    2.52
   2   2   8    4.64    1.92
   2  -2   8    3.93    1.67
   2  -2   8    2.68    0.95
  -2   2  -8    2.11    2.63
  -2   2  -8    3.29    2.72
  -2  -2  -8    9.93    4.80
  -2   2  -8    3.02    1.70
  -2  -2  -8    7.13    2.35
   2   2   9    1.18    2.13
   2  -2   9    1.14    1.64
   2  -2   9   -0.04    0.98
  -2   2  -9    1.05    1.95
  -2   2  -9   -0.01    1.42
  -2  -2  -9    2.37    3.63
  -2  -2  -9    0.82    1.87
   2  -2  10    1.26    1.23
   2  -2  10   -0.15    1.40
   2   2  10   -0.98    1.84
  -2   2 -10    3.11    2.26
  -2   2 -10    0.06    1.42
  -2  -2 -10    0.37    2.53
   2   2  11   -0.51    1.84
   2  -2  11    0.33    0.83
   2  -2  11    0.48    1.39
  -2   2 -11    0.58    2.35
  -2  -2 -11    3.02    2.26
  -2   2 -11   -0.10    1.24
  -2  -2 -11    2.80    2.45
   2   2  12    1.60    2.21
   2  -2  12    2.02    1.57
  -2   2 -12    1.13    2.60
  -2  -2 -12    6.29    4.11
  -2   2 -12    0.03    1.52
  -2  -2 -12    5.19    3.12
   2  -2  13    2.53    1.45
   2   2  13    2.68    2.09
  -2   2 -13    0.85    2.85
  -2  -2 -13    7.83    3.35
  -2  -2 -13    5.21    2.81
   2   2  14    0.31    1.14
  -2  -2 -14    1.06    1.87
  -2  -2 -14   -0.11    1.41
   2   3 -14    5.79    2.63
   2  -3 -14    0.00    3.57
   2  -3 -13    4.80    2.26
   2   3 -13    6.88    3.46
   2  -3 -13   -0.01    2.42
  -2   3  13    2.30    1.64
   2  -3 -12    3.28    2.16
   2   3 -12    2.56    3.55
   2  -3 -12    0.25    3.59
   2   3 -12    2.15    3.40
  -2   3  12   -0.25    1.67
  -2  -3  12    0.50    1.83
   2  -3 -11    1.20    2.24
   2   3 -11   -2.99    3.49
   2  -3 -11    0.04    3.47
   2   3 -11    6.30    4.28
  -2   3  11    0.64    1.71
  -2  -3  11    1.93    1.92
   2   3 -10    2.31    4.86
   2   3 -10    4.17    5.30
   2  -3 -10    3.22    2.77
   2  -3 -10    2.07    4.50
  -2  -3  10    1.73    1.67
  -2   3  10    2.07    1.90
  -2  -3  10    5.83    2.76
   2  -3  -9    6.17    3.04
   2   3  -9   11.85    6.54
   2   3  -9   10.99    7.96
   2  -3  -9   11.97    6.05
  -2  -3   9    9.91    3.21
  -2  -3   9   16.84    2.82
  -2   3   9    6.48    2.58
   2  -3  -8   -3.05    1.57
   2   3  -8    0.97    2.23
   2  -3  -8    0.08    1.26
   2   3  -8    0.88    2.82
  -2   3   8    0.35    0.99
  -2  -3   8   -1.31    1.14
  -2  -3   8    0.10    1.03
  -2  -3   8    0.83    1.38
   2  -3  -7    7.73    2.24
   2   3  -7    7.08    5.47
   2  -3  -7    2.10    2.38
   2   3  -7    3.70    1.37
   2   3  -7    3.37    4.22
   2  -3  -7    4.76    1.45
  -2  -3   7    6.64    1.85
  -2   3   7    4.43    1.50
  -2  -3   7    3.74    2.34
  -2  -3   7    2.76    1.71
   2  -3  -6    5.12    2.12
   2   3  -6    7.74    4.24
   2   3  -6   11.79    4.21
   2  -3  -6   11.59    1.68
   2   3  -6   10.17    1.47
  -2   3   6    8.01    2.11
  -2  -3   6    9.91    1.99
  -2  -3   6   17.74    2.03
  -2  -3   6   13.31    2.14
   2   3  -5   15.54    3.42
   2  -3  -5   11.59    1.82
   2  -3  -5   14.53    2.67
   2   3  -5    7.67    4.80
   2   3  -5   15.41    1.53
  -2  -3   5   15.14    2.04
  -2   3   5   11.83    1.80
  -2  -3   5   12.61    1.63
  -2  -3   5    9.91    5.63
  -2  -3   5   19.63    3.31
  -2  -3   5   19.51    3.57
  -2  -3   5   11.31    2.17
   2   3  -4    4.00    2.59
   2  -3  -4    1.41    1.03
   2   3  -4    3.06    1.90
   2  -3  -4    2.88    1.43
   2   3  -4    3.10    0.90
  -2  -3   4    6.44    1.14
  -2  -3   4    4.03    1.41
  -2  -3   4    2.52    3.42
  -2  -3   4    0.28    1.08
  -2  -3   4    4.61    1.87
  -2  -3   4    3.85    1.99
   2   3  -3    7.14    1.00
   2   3  -3    8.84    3.17
   2  -3  -3    6.34    1.17
   2  -3  -3    4.54    2.75
   2  -3  -3    4.19    1.05
   2  -3  -3    7.40    0.91
  -2  -3   3   11.80    1.67
  -2  -3   3    7.88    0.97
  -2  -3   3    4.80    4.67
  -2  -3   3    9.14    2.73
  -2  -3   3    9.97    2.11
  -2  -3   3   10.35    2.48
   2   3  -2    1.79    0.59
   2  -3  -2    2.24    0.72
   2  -3  -2    2.31    0.90
   2  -3  -2    2.65    0.85
   2  -3  -2    4.02    1.73
   2   3  -2   -0.00    1.48
   2  -3  -2    1.35    0.46
   2  -3  -2    3.02    0.38
  -2  -3   2    4.60    1.19
  -2  -3   2    1.55    2.68
  -2  -3   2    2.09    0.68
  -2  -3   2    2.99    1.56
  -2   3   2    4.90    1.16
  -2  -3   2    4.14    2.05
  -2  -3   2    5.37    1.37
   2   3  -1    0.74    0.56
   2   3  -1    1.74    0.64
   2  -3  -1    1.43    0.61
   2  -3  -1    1.50    0.62
   2  -3  -1    1.88    0.99
   2  -3  -1    0.92    1.14
   2   3  -1   -0.02    1.42
  -2  -3   1    1.79    2.06
  -2  -3   1    2.10    0.76
  -2  -3   1    1.92    0.95
  -2  -3   1    2.84    2.93
  -2  -3   1    2.72    1.29
  -2   3   1    1.99    1.03
   2   3   0    2.75    0.82
   2  -3   0    7.30    1.74
   2  -3   0    5.94    0.84
   2  -3   0    5.63    1.72
   2  -3   0    7.19    1.02
   2   3   0    5.35    0.85
  -2  -3   0    6.82    2.58
  -2  -3   0    8.94    2.11
  -2  -3   0    4.72    1.25
  -2  -3   0    8.08    3.78
  -2  -3   0    5.86    1.50
  -2   3   0    6.50    1.69
  -2  -3   0    5.48    1.52
   2  -3   1   38.21    4.67
   2  -3   1   44.44    3.99
   2   3   1   37.32    2.31
   2  -3   1   42.29    3.51
   2  -3   1   40.56    3.07
   2   3   1   39.59    2.19
  -2  -3  -1   57.38    9.23
  -2  -3  -1   47.88    2.81
  -2  -3  -1   45.07    4.51
  -2  -3  -1   46.33    6.81
  -2  -3  -1   42.32    3.00
  -2   3  -1   48.18    4.06
  -2  -3  -1   43.60    3.94
  -2  -3  -1   44.54    3.36
   2  -3   2    1.30    1.15
   2   3   2    1.15    0.94
   2  -3   2    2.21    1.41
   2  -3   2    2.13    1.88
   2   3   2    2.74    0.58
  -2  -3  -2    3.33    2.31
  -2  -3  -2    1.12    1.32
  -2  -3  -2    1.20    0.71
  -2   3  -2    2.01    1.53
  -2  -3  -2    2.31    1.52
  -2  -3  -2    1.62    1.08
  -2  -3  -2    2.70    1.07
  -2  -3  -2    1.31    1.79
   2   3   3    0.11    0.55
   2  -3   3   -0.43    1.01
   2  -3   3    0.36    1.36
   2   3   3    0.52    0.49
   2  -3   3   -0.47    0.89
  -2  -3  -3   -0.44    0.76
  -2  -3  -3    0.05    0.36
  -2   3  -3   -0.20    1.12
  -2  -3  -3    0.44    1.21
  -2  -3  -3    0.21    0.59
  -2  -3  -3    0.35    0.50
   2   3   4   40.64    2.68
   2  -3   4   47.54    4.33
   2  -3   4   40.59    4.45
   2   3   4   41.00    3.56
  -2  -3  -4   41.07    5.14
  -2  -3  -4   40.70    3.77
  -2   3  -4   45.72    5.45
   2  -3   5   37.18    4.67
   2   3   5   39.95    3.03
   2  -3   5   44.88    6.78
   2  -3   5   45.42    4.63
   2   3   5   40.11    3.26
  -2  -3  -5   40.96    8.39
  -2   3  -5   29.42    4.31
  -2   3  -5   46.13    5.11
  -2  -3  -5   46.35    4.12
   2   3   6   -0.19    0.85
   2  -3   6   -0.27    0.81
   2   3   6    0.54    1.07
  -2  -3  -6   -0.55    2.55
  -2  -3  -6   -0.65    1.27
  -2   3  -6   -0.62    1.55
  -2   3  -6   -0.64    1.27
   2   3   7    0.31    0.83
   2  -3   7   -0.27    0.60
  -2   3  -7    0.66    1.22
  -2  -3  -7    0.41    1.23
  -2  -3  -7   -3.89    2.48
   2  -3   8    4.76    2.21
   2   3   8    4.17    2.19
  -2  -3  -8    2.56    3.78
  -2  -3  -8    3.89    2.69
  -2   3  -8    5.43    2.30
   2  -3   9   10.42    2.91
   2  -3   9   12.70    2.14
   2   3   9    7.76    4.18
  -2  -3  -9   14.81    8.37
  -2  -3  -9    9.91    4.31
   2  -3  10   12.68    2.09
   2   3  10   13.46    3.05
   2  -3  10    3.23    2.18
  -2  -3 -10    8.86    4.43
  -2  -3 -10   13.66    7.59
   2   3  11    0.98    1.99
   2  -3  11    2.84    1.90
  -2  -3 -11    2.79    3.07
  -2  -3 -11    1.91    2.96
   2  -3  12   13.87    2.17
   2   3  12   21.19    4.11
  -2  -3 -12   20.38    5.36
  -2  -3 -12   28.84    7.86
   2   3  13    6.58    1.63
  -2  -3 -13    0.29    2.72
  -2  -3 -13    2.37    3.20
  -2  -3 -14    8.87    2.13
  -2  -3 -14    0.00    2.86
   2  -4 -13    1.64    1.23
   2   4 -13    0.49    0.59
   2  -4 -12    0.73    1.80
   2   4 -12   -0.13    1.12
  -2  -4  12    4.22    1.75
   2   4 -11    4.80    3.14
   2  -4 -11    5.68    4.22
   2   4 -11    6.75    4.11
  -2  -4  11    8.37    2.21
  -2  -4  11    2.13    1.76
   2  -4 -10  112.25   16.21
   2   4 -10  110.50   15.39
  -2  -4  10  127.92   12.15
  -2  -4  10  105.66    8.80
   2  -4  -9    1.43    3.68
   2   4  -9    4.60    3.71
  -2  -4   9    0.62    2.09
  -2  -4   9    2.06    2.42
   2  -4  -8    0.98    4.06
   2   4  -8    7.55    4.13
  -2  -4   8    1.01    2.90
  -2  -4   8    3.69    2.12
   2  -4  -7    5.50    4.46
   2   4  -7   11.20    4.78
  -2  -4   7    9.72    2.48
  -2  -4   7    7.57    2.91
   2   4  -6    7.07    3.96
  -2  -4   6    1.73    3.00
  -2  -4   6    7.00    2.24
   2   4  -5    0.05    2.16
   2  -4  -5    3.07    2.80
  -2  -4   5    2.84    1.68
  -2  -4   5    3.32    2.14
   2  -4  -4   37.43    6.25
   2   4  -4   37.08    3.36
  -2  -4   4   43.89    4.30
  -2  -4   4   51.84    5.43
   2  -4  -3    4.27    2.37
   2  -4  -3    6.59    2.79
   2   4  -3   -0.00    1.28
  -2  -4   3    4.76    2.61
  -2  -4   3    5.80    1.58
  -2  -4   3    6.48    1.32
   2  -4  -2   18.69    2.16
   2  -4  -2   27.10    4.08
   2  -4  -2   16.91    3.24
   2   4  -2   21.74    2.59
  -2   4   2   19.76    2.14
  -2  -4   2   20.50    2.50
  -2  -4   2   27.01    2.41
  -2  -4   2   25.26    4.02
  -2  -4   2    5.45    6.78
   2  -4  -1   20.81    2.72
   2  -4  -1   19.34    1.78
   2  -4  -1   17.80    3.34
  -2  -4   1   27.20    4.97
  -2  -4   1   10.57    4.44
  -2  -4   1   22.75    2.47
  -2  -4   1   25.04    3.39
  -2   4   1   19.39    2.39
  -2  -4   1   27.67    3.74
  -2  -4   1   17.42    1.51
   2  -4   0   16.58    1.67
   2  -4   0   15.99    2.85
   2  -4   0   16.23    2.59
   2  -4   0   23.79    2.88
  -2  -4   0   17.34    2.16
  -2  -4   0   21.56    4.39
  -2  -4   0   22.43    5.13
  -2  -4   0   19.19    2.23
  -2  -4   0   18.89    6.54
  -2   4   0   17.97    3.35
  -2  -4   0   19.89    3.12
   2  -4   1    3.85    1.71
   2  -4   1    3.71    1.73
   2  -4   1    2.29    0.57
  -2  -4  -1    1.49    1.03
  -2  -4  -1    2.28    1.20
  -2  -4  -1    3.39    1.90
  -2  -4  -1    1.93    3.75
  -2   4  -1    2.90    1.60
  -2  -4  -1    2.41    1.65
   2  -4   2    3.20    1.15
   2  -4   2    2.85    2.27
   2  -4   2    3.43    2.11
  -2  -4  -2    4.07    1.52
  -2  -4  -2    4.53    3.55
  -2   4  -2    4.28    2.02
   2  -4   3    4.30    1.40
  -2   4  -3    5.33    2.27
  -2  -4  -3    3.60    1.51
  -2  -4  -3    3.86    2.30
   2  -4   4    1.51    0.76
  -2  -4  -4    0.61    3.02
  -2   4  -4    0.98    1.84
  -2  -4  -4    0.76    1.45
   2  -4   5   13.62    2.45
  -2   4  -5   11.44    3.80
  -2  -4  -5    0.07    6.24
  -2  -4  -5   13.82    2.80
   2  -4   6   50.88    4.13
  -2  -4  -6   46.70    5.77
  -2   4  -6   49.87    7.14
  -2  -4  -6   49.20    7.87
   2  -4   7    4.29    1.71
  -2  -4  -7    4.69    2.76
  -2  -4  -7    0.05    6.18
  -2   4  -7    6.95    2.93
   2  -4   8    2.30    1.25
   2  -4   8    0.32    1.20
  -2  -4  -8    0.58    2.02
  -2  -4  -8    0.07    4.66
   2  -4   9    0.53    1.53
   2  -4   9   -0.07    1.36
  -2  -4  -9   -0.69    2.28
  -2  -4  -9    0.46    1.81
   2  -4  10    4.60    2.32
   2  -4  10    0.94    1.52
  -2  -4 -10    2.27    3.04
  -2  -4 -10    3.90    5.09
   2  -4  11    0.11    0.86
   2  -4  11   -0.05    1.30
  -2  -4 -11    0.92    1.77
  -2  -4 -11    1.73    2.04
   2  -4  12    0.03    0.59
  -2  -4 -12   -0.81    1.24
  -2  -4 -12   -0.24    2.41
  -2  -4 -13    0.07    1.72
   2   5 -11    0.93    0.56
   2  -5 -11    1.96    2.01
  -2  -5  11    1.82    1.14
  -2  -5  11   -0.22    2.09
   2  -5 -10    0.47    1.46
   2   5 -10    0.64    0.80
  -2  -5  10    2.00    1.29
  -2  -5  10    1.16    2.38
   2  -5  -9    1.62    3.08
   2   5  -9    1.07    1.26
  -2  -5   9    4.69    2.88
  -2  -5   9    4.99    2.00
   2   5  -8    0.71    1.30
  -2  -5   8    6.15    2.31
  -2  -5   8    0.67    3.34
   2  -5  -7    2.76    2.26
   2   5  -7   -1.35    0.95
  -2  -5   7    0.31    1.74
  -2  -5   7    3.00    1.54
   2   5  -6    0.73    1.39
  -2  -5   6    6.87    2.37
  -2  -5   6    4.37    3.47
   2   5  -5    0.70    1.37
  -2  -5   5    3.66    2.02
   2   5  -4    1.61    1.05
  -2  -5   4    1.25    2.69
  -2  -5   4    1.58    1.84
  -2  -5   3   -1.53    1.71
  -2  -5   3    0.20    1.19
  -2  -5   3    0.26    1.58
  -2  -5   3    0.51    0.81
  -2  -5   2   -1.09    1.51
  -2  -5   2    1.14    1.25
  -2  -5   2   -1.65    2.71
  -2  -5   2    1.45    0.99
  -2  -5   1    1.60    1.26
  -2  -5   1    5.18    3.34
  -2  -5   1    2.32    1.58
  -2  -5   1    2.96    1.37
  -2   5   1    0.91    1.38
  -2  -5   0    3.36    1.51
  -2  -5   0    5.89    2.34
  -2  -5   0    1.06    1.51
  -2  -5   0    3.24    1.33
  -2   5   0    1.23    1.66
   2  -5   1    3.05    1.02
  -2  -5  -1    6.31    2.10
  -2  -5  -1    3.72    2.74
  -2   5  -1    3.56    2.08
   2  -5   2    3.51    1.59
  -2  -5  -2    2.23    1.44
  -2  -5  -2    2.65    4.25
  -2   5  -2    2.59    2.29
   2  -5   3    1.27    1.03
  -2  -5  -3    2.09    1.43
  -2   5  -3   -0.20    2.24
  -2  -5  -3    4.95    3.54
   2  -5   4    3.77    1.51
  -2  -5  -4    0.16    6.01
  -2  -5  -4    5.64    1.94
  -2   5  -4    3.56    2.88
   2  -5   5   50.58    4.61
  -2  -5  -5   41.22    5.83
  -2  -5  -5   49.27    9.60
  -2   5  -5   38.60    6.84
   2  -5   6   -0.66    1.20
   2  -5   6    0.05    1.69
  -2  -5  -6    0.10    2.28
  -2  -5  -6   -0.71    1.50
   2  -5   7    1.08    2.36
   2  -5   7    3.80    2.10
  -2  -5  -7    1.71    2.01
  -2  -5  -7    0.85    4.57
   2  -5   8    8.19    3.17
   2  -5   8    3.41    2.35
  -2  -5  -8    3.13    2.85
  -2  -5  -8   11.01    6.12
   2  -5   9    7.59    3.15
   2  -5   9    8.33    2.40
  -2  -5  -9   12.47    3.86
  -2  -5  -9    4.97    3.12
   2  -5  10   11.64    3.12
   2  -5  10   12.26    2.29
  -2  -5 -10    9.87    6.11
  -2  -5 -10    4.65    2.95
   2  -5  11    1.11    0.81
   2  -5  11   -0.16    1.32
  -2  -5 -11    1.34    1.05
  -2  -5 -11   -0.00    1.73
  -2  -6  10   46.27    4.80
  -2  -6  10   55.10    3.83
  -2  -6   9   -0.21    1.16
  -2  -6   9    2.05    1.91
  -2  -6   8    4.63    2.22
  -2  -6   8    2.22    3.22
  -2  -6   7    1.79    1.73
  -2  -6   7    0.13    1.74
  -2  -6   6    3.56    3.60
  -2  -6   5    1.06    2.70
  -2  -6   4   12.24    3.19
  -2  -6   4   10.05    3.24
  -2  -6   3    4.64    2.85
  -2  -6   3    7.20    3.70
  -2  -6   2    8.83    2.51
  -2  -6   2   15.71    5.52
  -2  -6   2    9.44    4.42
  -2  -6   1    9.27    3.74
  -2  -6   0    6.14    5.09
  -2  -6  -1    3.01    2.57
  -2  -6  -2    2.79    2.79
  -2  -6  -3    7.19    4.46
  -2  -6  -4    0.97    2.89
  -2  -6  -5   -0.66    2.25
   2  -6   6   14.65    3.60
  -2  -6  -6   18.26    4.77
   2  -6   7    2.42    1.67
  -2  -6  -7   -0.88    2.56
   2  -6   8    1.98    1.52
  -2  -6  -8    1.60    3.91
  -2  -6  -8    2.08    1.15
   2  -6   9    0.62    0.89
   2  -6   9    0.12    1.19
  -2  -6  -9   -1.04    1.30
   2  -6  10   -0.07    0.94
  -2  -7   7    1.50    1.81
  -2  -7   7    0.65    1.14
  -2  -7   6    1.53    1.21
  -2  -7   6   -0.36    1.06
  -2  -7   5    0.56    1.34
  -2  -7   5    0.75    1.06
  -2  -7   4   -0.88    1.95
  -2  -7   4   -1.11    1.05
  -2  -7   3   -0.39    0.86
  -2  -7   2   -0.74    1.00
  -2  -7  -1   -1.24    2.32
  -2  -7  -2    0.51    3.12
  -2  -7  -3    2.95    3.41
  -2  -7  -4    4.14    3.97
  -2  -7  -5    8.51    4.79
   3   0 -15    0.21    1.80
   3   0 -15    0.00    2.03
  -3   0  15    0.92    1.67
   3   0 -14   -0.42    2.59
   3   0 -14    0.10    1.49
  -3   0  14   -0.62    1.75
   3   0 -13   10.11    5.56
   3   0 -13    6.53    4.25
  -3   0  13    9.50    3.96
   3   0 -12   11.79    5.20
   3   0 -12    2.10    5.63
  -3   0  12    3.47    3.19
   3   0 -11    8.69    6.18
   3   0 -11    7.60    6.30
  -3   0  11   12.73    4.45
   3   0 -10   60.18    9.10
   3   0 -10   57.57   10.64
  -3   0  10   58.26    7.58
   3   0  -9   18.57    7.45
   3   0  -9   21.33    6.21
  -3   0   9   22.19    4.39
   3   0  -8    0.70    1.92
   3   0  -8    0.28    2.39
  -3   0   8    0.06    1.74
   3   0  -7   16.67    3.52
   3   0  -7   16.78    3.31
   3   0  -7   14.74    2.49
  -3   0   7   17.56    2.71
  -3   0   7   12.45    1.49
  -3   0   7   17.23    2.46
  -3   0   7   13.54    5.57
  -3   0   7   11.78    1.62
  -3   0   7   10.99    1.50
   3   0  -6    1.23    1.33
   3   0  -6   -0.02    1.03
   3   0  -6   -0.06    1.27
  -3   0   6    0.58    1.05
  -3   0   6    0.61    0.90
  -3   0   6    0.28    0.47
  -3   0   6    1.05    0.95
  -3   0   6    0.37    1.09
  -3   0   6   -0.15    0.60
   3   0  -5    7.56    3.60
   3   0  -5   10.00    1.94
   3   0  -5    9.52    2.48
  -3   0   5   12.15    1.88
  -3   0   5   10.43    1.97
  -3   0   5    8.44    1.12
  -3   0   5    9.81    1.84
  -3   0   5    8.45    2.12
  -3   0   5    6.76    1.43
   3   0  -4  130.77    6.36
   3   0  -4  132.20    7.44
   3   0  -4  129.35    8.77
   3   0  -4  134.01    7.44
   3   0  -4  124.95    5.52
  -3   0   4  125.89    7.60
  -3   0   4  131.34    7.73
  -3   0   4  118.88    7.31
  -3   0   4  130.19    5.62
  -3   0   4  130.07    6.66
   3   0  -3   35.72    2.10
   3   0  -3   27.62    2.05
   3   0  -3   32.45    3.53
   3   0  -3   27.74    3.33
   3   0  -3   34.17    2.93
  -3   0   3   31.48    3.36
  -3   0   3   37.02    2.53
  -3   0   3   32.35    2.78
  -3   0   3   34.85    4.08
  -3   0   3   31.90    2.73
   3   0  -2  116.92    4.88
   3   0  -2  118.19    5.98
   3   0  -2  113.04    5.76
   3   0  -2  125.28    7.47
   3   0  -2  125.51    6.68
  -3   0   2  118.02    6.39
  -3   0   2  122.59    6.14
  -3   0   2  112.02    6.55
  -3   0   2  109.55    6.28
  -3   0   2  125.42    6.80
   3   0  -1   54.72    3.61
   3   0  -1   60.99    3.34
   3   0  -1   58.88    3.24
   3   0  -1   55.95    3.09
   3   0  -1   57.10    4.13
  -3   0   1   61.82    4.18
  -3   0   1   57.23    4.36
  -3   0   1   55.49    3.96
  -3   0   1   57.89    3.83
  -3   0   1   55.56    3.34
   3   0   0   81.96    6.44
   3   0   0   85.60    4.63
   3   0   0   76.18    4.96
   3   0   0   87.73    3.41
  -3   0   0   78.37    4.32
  -3   0   0   90.67    6.36
  -3   0   0   80.57    4.92
  -3   0   0   82.91    3.30
  -3   0   0   76.31    5.39
  -3   0   0   86.11    4.13
   3   0   1  168.45    8.10
   3   0   1  175.60    9.79
   3   0   1  182.44    7.78
   3   0   1  160.52    8.92
  -3   0  -1  176.02   10.37
  -3   0  -1  165.74    6.14
  -3   0  -1  174.97    8.73
  -3   0  -1  176.37    6.62
  -3   0  -1  170.26    6.75
  -3   0  -1  186.12    6.89
   3   0   2   45.81    3.20
   3   0   2   55.98    3.48
   3   0   2   39.88    3.04
   3   0   2   49.21    3.57
  -3   0  -2   40.39    2.97
  -3   0  -2   43.44    3.14
  -3   0  -2   43.23    2.23
  -3   0  -2   43.49    3.28
  -3   0  -2   50.32    3.59
   3   0   3    8.04    1.75
   3   0   3   12.80    1.51
   3   0   3   11.03    1.69
   3   0   3    8.72    0.79
   3   0   3   10.21    1.66
   3   0   3   10.34    1.79
  -3   0  -3    8.94    1.98
  -3   0  -3   11.38    1.54
  -3   0  -3    7.36    1.55
  -3   0  -3    9.24    1.38
   3   0   4    7.24    1.27
   3   0   4    7.68    1.94
   3   0   4    6.77    1.41
   3   0   4    5.20    1.32
   3   0   4    6.76    1.56
  -3   0  -4    6.44    2.53
  -3   0  -4    7.95    1.13
  -3   0  -4    6.62    1.39
  -3   0  -4    5.23    1.29
   3   0   5    8.13    1.25
   3   0   5    9.09    2.42
   3   0   5    7.04    1.46
   3   0   5    9.50    1.86
   3   0   5    6.57    1.52
  -3   0  -5   10.25    2.03
  -3   0  -5    8.68    1.78
  -3   0  -5    7.03    2.18
  -3   0  -5    8.04    1.69
  -3   0  -5    9.19    2.17
   3   0   6    7.40    1.58
   3   0   6    9.86    1.90
   3   0   6    3.61    2.10
   3   0   6    6.77    1.62
   3   0   6    7.73    2.64
  -3   0  -6    6.34    1.95
  -3   0  -6    5.06    1.68
  -3   0  -6   10.96    1.95
  -3   0  -6   10.87    2.03
  -3   0  -6    9.21    2.26
   3   0   7    1.04    2.21
   3   0   7    4.82    1.96
   3   0   7    1.85    2.56
   3   0   7    4.65    1.53
  -3   0  -7    4.65    2.19
  -3   0  -7   11.55    2.94
  -3   0  -7    4.97    2.20
   3   0   8    1.25    1.80
   3   0   8    4.85    2.08
  -3   0  -8    4.00    2.79
  -3   0  -8    2.09    2.27
   3   0   9    0.30    1.45
  -3   0  -9    0.04    2.08
  -3   0  -9    0.50    1.80
   3   0  10    6.29    2.52
  -3   0 -10    0.03    2.24
  -3   0 -10    2.01    2.90
   3   0  11   -0.35    2.29
  -3   0 -11    5.14    2.38
  -3   0 -11   -0.10    1.92
   3   0  12    4.12    2.69
  -3   0 -12    0.03    3.62
  -3   0 -12    5.52    3.55
   3   0  13    4.87    2.52
  -3   0 -13    6.56    3.40
  -3   0 -13    3.92    1.97
   3   0  14    1.08    1.46
  -3   0 -14    3.32    2.17
   3  -1 -15    2.17    2.03
   3   1 -15   -0.00    2.81
   3   1 -15    5.12    2.74
   3  -1 -15   -0.01    1.76
  -3  -1  15    2.46    1.57
  -3   1  15    3.08    2.04
   3   1 -14    0.01    2.63
   3  -1 -14    1.03    2.97
   3   1 -14    3.78    2.82
   3  -1 -14    0.01    1.76
  -3  -1  14    1.54    2.05
  -3   1  14   -1.45    1.80
   3  -1 -13   -0.29    2.50
   3   1 -13    2.31    3.72
   3   1 -13    0.94    3.53
   3  -1 -13    4.55    2.92
  -3   1  13   -1.12    2.82
  -3  -1  13   -0.47    2.09
   3   1 -12    0.24    3.41
   3  -1 -12   -1.79    2.85
   3   1 -12   -1.93    4.29
   3  -1 -12    1.83    3.55
  -3   1  12    0.58    1.85
  -3  -1  12    1.44    2.12
   3  -1 -11    6.88    4.66
   3   1 -11   15.62    5.31
   3  -1 -11    4.09    3.66
   3   1 -11    5.18    4.22
  -3  -1  11    4.41    3.07
  -3   1  11    6.49    3.64
   3  -1 -10    1.40    2.14
   3   1 -10   -0.95    2.85
   3  -1 -10   -0.50    2.94
   3   1 -10   -0.93    3.05
  -3  -1  10   -0.95    1.71
  -3   1  10   -0.03    1.56
   3  -1  -9    1.54    2.77
   3  -1  -9   -2.14    2.11
   3   1  -9   -1.85    2.81
   3   1  -9   -0.74    3.03
  -3   1   9    0.48    1.62
  -3  -1   9   -0.52    1.73
   3  -1  -8    2.38    1.91
   3   1  -8    2.19    2.81
   3   1  -8    2.53    2.50
   3  -1  -8    2.22    2.84
  -3   1   8    3.48    1.60
  -3  -1   8    3.63    1.60
  -3  -1   8    2.25    0.95
  -3  -1   8   -0.01    0.96
  -3  -1   8    1.35    1.15
  -3  -1   8   -0.12    0.85
   3  -1  -7    6.68    2.30
   3   1  -7    8.07    3.19
   3   1  -7    8.85    3.53
   3  -1  -7    7.29    3.53
   3  -1  -7    6.57    2.15
   3   1  -7    6.95    1.96
  -3   1   7    6.85    2.01
  -3  -1   7    6.64    2.04
  -3  -1   7    3.74    4.40
  -3  -1   7    5.55    1.20
  -3  -1   7    0.02    1.71
  -3  -1   7    6.48    2.42
  -3   1   7    4.77    1.91
  -3   1   7    8.26    1.50
  -3  -1   7    4.29    1.84
   3  -1  -6    4.64    1.89
   3   1  -6    6.81    3.26
   3   1  -6    6.57    4.31
   3  -1  -6    3.56    2.97
   3  -1  -6    5.30    2.08
   3   1  -6    5.14    1.71
  -3   1   6    5.58    2.20
  -3  -1   6    5.35    1.95
  -3  -1   6    5.31    2.04
  -3  -1   6    3.69    1.27
  -3   1   6    3.59    2.57
  -3   1   6    3.85    1.24
  -3  -1   6    5.93    1.42
   3   1  -5  209.75   12.79
   3  -1  -5  204.22   11.49
   3  -1  -5  208.27   12.76
   3  -1  -5  173.18    8.42
   3   1  -5  216.82   15.78
   3  -1  -5  224.63   11.20
   3   1  -5  222.67   13.30
  -3   1   5  200.02    9.05
  -3   1   5  187.88    8.72
  -3   1   5  211.10   11.01
  -3  -1   5  212.10   11.46
  -3  -1   5  208.41   10.39
  -3  -1   5  208.04   10.23
  -3   1   5  198.30    9.57
  -3   1   5  201.86   13.37
  -3  -1   5  190.54   16.65
  -3  -1   5  211.28   13.21
  -3  -1   5  201.31   10.70
   3  -1  -4    2.99    1.08
   3  -1  -4    2.11    0.33
   3   1  -4    3.66    1.31
   3  -1  -4    1.68    1.64
   3   1  -4    5.72    3.11
   3   1  -4    1.69    0.53
   3  -1  -4    2.05    0.67
   3  -1  -4    1.85    1.27
   3   1  -4    5.22    2.77
  -3   1   4    2.86    1.31
  -3  -1   4    2.54    1.37
  -3  -1   4    2.01    1.22
  -3   1   4    1.54    0.59
  -3  -1   4    4.12    1.50
  -3  -1   4    5.70    1.53
  -3   1   4    3.69    1.70
  -3   1   4    2.85    1.03
  -3  -1   4    3.42    1.68
   3  -1  -3    3.57    1.02
   3   1  -3    2.94    2.05
   3   1  -3    4.17    1.34
   3  -1  -3    3.17    0.51
   3  -1  -3    3.27    1.13
   3  -1  -3    2.04    1.10
   3   1  -3    3.45    1.37
   3   1  -3    5.01    2.59
   3  -1  -3    3.55    1.44
   3   1  -3    3.72    0.73
  -3  -1   3    3.44    1.94
  -3  -1   3    4.38    1.53
  -3  -1   3    4.33    1.28
  -3   1   3    3.02    0.57
  -3   1   3    3.34    0.62
  -3   1   3    4.31    1.39
  -3  -1   3    4.81    1.74
  -3  -1   3    2.92    2.57
  -3   1   3    3.52    1.17
  -3   1   3    3.23    1.29
   3   1  -2   46.53    3.41
   3  -1  -2   42.92    3.50
   3   1  -2   38.20    3.01
   3   1  -2   48.01    3.12
   3  -1  -2   47.77    2.58
   3  -1  -2   45.31    3.57
   3  -1  -2   49.62    3.09
   3   1  -2   51.16    5.80
   3  -1  -2   43.40    2.48
   3   1  -2   47.71    5.52
  -3   1   2   49.23    3.97
  -3  -1   2   43.19    5.63
  -3   1   2   41.82    3.20
  -3  -1   2   42.51    2.91
  -3  -1   2   46.74    4.71
  -3  -1   2   41.70    3.25
  -3  -1   2   41.52    3.47
  -3   1   2   44.49    1.56
  -3   1   2   42.53    3.08
  -3   1   2   41.82    1.99
   3   1  -1   14.81    2.04
   3   1  -1   13.54    1.89
   3  -1  -1   11.90    2.66
   3  -1  -1   17.75    1.88
   3   1  -1   12.20    1.60
   3  -1  -1   14.14    1.78
   3  -1  -1   13.33    0.60
   3   1  -1   12.81    2.32
   3  -1  -1   13.04    0.53
  -3   1   1   16.60    1.75
  -3  -1   1   11.04    2.91
  -3   1   1   17.40    1.92
  -3  -1   1   14.93    2.00
  -3   1   1   14.89    2.14
  -3  -1   1   15.37    3.30
  -3  -1   1   13.52    2.01
  -3   1   1   15.02    0.88
  -3  -1   1   17.58    2.24
   3  -1   0   24.55    2.75
   3   1   0   21.70    1.80
   3   1   0   21.99    2.67
   3   1   0   22.46    2.05
   3  -1   0   20.43    2.83
   3  -1   0   23.81    2.61
   3   1   0   23.63    1.95
  -3   1   0   23.74    0.94
  -3  -1   0   23.42    2.72
  -3  -1   0   24.51    4.08
  -3  -1   0   23.59    1.96
  -3   1   0   24.00    3.02
  -3  -1   0   27.50    4.18
  -3   1   0   23.80    2.75
  -3   1   0   24.19    0.61
  -3   1   0   19.88    2.12
  -3  -1   0   25.97    2.36
   3   1   1   51.88    3.06
   3   1   1   54.47    4.28
   3  -1   1   58.09    3.38
   3  -1   1   57.42    3.95
   3  -1   1   62.89    3.17
   3   1   1   69.80    4.48
   3  -1   1   60.22    3.24
   3   1   1   63.71    3.92
  -3  -1  -1   61.89    4.71
  -3   1  -1   58.66    1.85
  -3  -1  -1   59.34    3.54
  -3   1  -1   67.86    3.84
  -3  -1  -1   49.17    3.12
  -3  -1  -1   51.89    3.15
  -3   1  -1   70.34    4.48
  -3   1  -1   55.78    2.43
  -3  -1  -1   60.14    5.97
  -3  -1  -1   65.70    3.48
   3   1   2    2.97    0.92
   3  -1   2    5.02    2.06
   3  -1   2    3.64    1.17
   3  -1   2    3.76    1.35
   3  -1   2    2.67    0.93
   3   1   2    0.78    1.45
   3   1   2    4.11    1.22
   3   1   2    3.55    1.20
  -3   1  -2    5.02    1.05
  -3   1  -2    4.18    0.64
  -3  -1  -2    2.92    1.04
  -3  -1  -2    1.14    1.74
  -3  -1  -2    2.60    1.02
  -3   1  -2    6.27    1.34
  -3  -1  -2    2.71    0.96
  -3   1  -2    3.40    0.70
  -3  -1  -2    3.01    1.94
   3  -1   3   49.28    3.22
   3   1   3   48.98    3.79
   3   1   3   42.96    2.49
   3  -1   3   54.45    4.43
   3  -1   3   46.16    2.78
   3  -1   3   48.91    3.84
   3  -1   3   44.16    2.65
   3  -1   3   46.69    2.39
   3   1   3   47.91    3.25
   3   1   3   47.81    3.62
  -3  -1  -3   44.97    3.56
  -3  -1  -3   50.88    4.37
  -3  -1  -3   48.95    3.26
  -3   1  -3   49.08    3.32
  -3   1  -3   44.80    2.34
  -3   1  -3   52.13    4.67
  -3   1  -3   44.00    2.73
  -3  -1  -3   46.83    5.59
  -3  -1  -3   49.15    4.67
   3   1   4   21.63    2.90
   3   1   4   13.43    1.24
   3   1   4   19.01    2.22
   3  -1   4   15.87    1.69
   3  -1   4   16.33    2.22
   3  -1   4   19.54    2.29
   3  -1   4   16.62    4.24
   3   1   4   16.08    2.57
   3  -1   4   15.16    1.90
  -3  -1  -4   13.53    1.74
  -3  -1  -4   18.39    2.28
  -3  -1  -4   19.47    4.82
  -3  -1  -4   16.02    2.67
  -3   1  -4   18.78    3.05
  -3   1  -4   15.94    2.08
  -3  -1  -4   17.41    2.35
  -3   1  -4   16.63    2.24
  -3   1  -4   21.29    3.05
   3   1   5   14.04    1.83
   3   1   5   12.57    1.38
   3  -1   5   17.94    2.59
   3   1   5   15.06    4.01
   3  -1   5   18.93    2.21
   3  -1   5   16.95    2.74
   3  -1   5   17.16    1.58
   3  -1   5   16.01    2.03
   3   1   5   15.00    2.53
  -3  -1  -5   17.95    2.55
  -3   1  -5   21.46    2.09
  -3  -1  -5   17.50    2.52
  -3   1  -5   20.93    2.50
  -3   1  -5   20.48    2.78
  -3  -1  -5   17.58    2.91
  -3   1  -5   18.93    2.79
  -3  -1  -5   12.29    1.25
  -3   1  -5   15.74    2.16
  -3  -1  -5   17.31    2.03
  -3  -1  -5   20.71    1.79
   3   1   6   -0.40    1.01
   3   1   6    0.08    0.59
   3  -1   6    0.72    1.55
   3  -1   6    0.43    0.74
   3   1   6   -0.15    1.11
   3  -1   6   -0.24    1.21
   3  -1   6    0.14    0.68
   3   1   6    0.01    1.05
   3  -1   6    0.35    1.16
  -3  -1  -6    1.34    2.01
  -3  -1  -6    0.92    1.06
  -3  -1  -6    1.27    1.21
  -3  -1  -6    1.44    0.69
  -3   1  -6    0.29    0.83
  -3   1  -6    0.66    1.00
  -3   1  -6    0.20    1.02
  -3   1  -6    0.24    0.93
   3  -1   7   31.12    3.45
   3  -1   7   28.50    2.83
   3  -1   7   26.59    2.98
   3   1   7   35.01    4.09
   3   1   7   37.04    4.25
   3  -1   7   28.24    4.64
   3  -1   7   37.40    3.81
  -3  -1  -7   33.61    4.57
  -3  -1  -7   35.27    4.84
  -3   1  -7   31.09    3.49
  -3   1  -7   38.99    3.92
  -3   1  -7   32.28    3.49
  -3   1  -7   27.68    4.08
   3  -1   8   23.12    3.74
   3   1   8   25.28    4.49
  -3   1  -8   24.07    4.52
  -3  -1  -8   21.73    7.31
  -3  -1  -8   25.01    4.60
  -3   1  -8   24.88    3.36
   3   1   9   12.44    3.18
  -3   1  -9   10.99    3.20
  -3   1  -9    0.15    3.89
  -3  -1  -9   14.52    4.09
   3   1  10   10.08    3.31
   3  -1  10    4.94    2.83
  -3   1 -10    0.09    3.06
  -3  -1 -10    5.77    3.76
  -3   1 -10   10.83    3.69
  -3  -1 -10    0.12    4.98
   3   1  11    7.98    4.81
   3  -1  11    7.13    3.11
  -3  -1 -11    0.08    5.15
  -3  -1 -11    6.85    4.22
  -3   1 -11   11.81    4.23
   3   1  12    8.33    3.03
   3  -1  12    7.62    3.43
  -3  -1 -12    5.12    4.37
  -3  -1 -12   -0.17    3.05
  -3   1 -12    3.72    3.71
   3  -1  13    3.80    2.21
   3   1  13    3.10    2.69
  -3   1 -13    8.22    4.32
  -3  -1 -13    5.43    4.01
  -3  -1 -13   15.39    4.03
   3   1  14    0.92    1.84
   3  -1  14    1.52    1.28
  -3  -1 -14    2.77    2.50
  -3   1 -14    1.27    1.99
  -3  -1 -14    5.41    1.30
   3   2 -15    3.97    2.14
   3  -2 -14    0.55    2.53
   3   2 -14    6.89    2.99
   3  -2 -14   -0.00    2.68
   3   2 -14   -0.10    3.17
  -3   2  14    0.71    1.62
  -3  -2  14    2.53    1.30
   3   2 -13    1.06    4.78
   3  -2 -13    3.22    2.95
   3   2 -13    6.90    3.75
   3  -2 -13    2.29    2.04
  -3   2  13    0.95    2.36
  -3  -2  13    1.91    2.11
   3  -2 -12    1.95    1.94
   3   2 -12   -1.40    3.08
   3  -2 -12   -0.37    1.66
   3   2 -12   -0.23    2.77
  -3  -2  12   -0.31    1.59
  -3   2  12    0.22    1.60
   3   2 -11   16.56    8.62
   3  -2 -11    9.39    7.30
   3   2 -11    1.07    7.42
   3  -2 -11   12.44    5.38
  -3   2  11   14.70    3.78
  -3  -2  11   16.60    4.49
   3  -2 -10   38.35    8.06
   3   2 -10   50.37   12.51
   3   2 -10   55.79    8.91
   3  -2 -10   52.68   10.49
  -3   2  10   42.64    6.65
  -3  -2  10   36.21    6.27
  -3  -2  10   43.53    6.73
   3  -2  -9    6.91    3.16
   3   2  -9   16.71    6.16
   3  -2  -9   12.87    4.73
   3   2  -9   11.99    5.32
  -3   2   9    6.46    2.65
  -3  -2   9    2.92    1.73
  -3  -2   9   11.28    4.11
  -3  -2   9   11.09    2.75
   3  -2  -8    1.03    1.57
   3   2  -8    0.63    3.11
   3  -2  -8   -0.11    1.60
   3   2  -8    1.32    1.70
  -3   2   8   -0.25    1.27
  -3  -2   8   -0.05    1.62
  -3  -2   8    1.20    1.08
  -3  -2   8   -0.02    1.55
   3  -2  -7   11.28    3.23
   3  -2  -7   15.53    4.70
   3   2  -7   19.88    6.53
   3  -2  -7   19.35    2.44
   3   2  -7   17.76    5.63
   3   2  -7   16.28    2.40
  -3  -2   7   18.02    3.47
  -3   2   7   17.51    2.68
  -3  -2   7   16.14    3.82
  -3  -2   7   16.47    2.43
  -3   2   7   17.16    2.88
  -3  -2   7   15.85    4.15
  -3   2   7   14.50    1.93
   3   2  -6    1.94    1.25
   3   2  -6    3.16    3.40
   3  -2  -6    2.41    1.08
   3   2  -6    4.76    2.28
   3  -2  -6    2.06    1.73
  -3   2   6   -0.04    1.21
  -3   2   6    2.41    1.22
  -3  -2   6    1.88    1.61
  -3  -2   6    3.39    1.57
  -3  -2   6    3.21    1.44
  -3  -2   6    2.12    2.29
  -3  -2   6    1.55    1.94
  -3  -2   6    2.16    1.52
  -3   2   6    2.75    1.06
   3   2  -5    8.77    2.17
   3  -2  -5    8.15    2.43
   3   2  -5   17.92    5.66
   3  -2  -5   12.97    3.21
   3   2  -5   14.83    4.52
   3  -2  -5   13.73    1.55
  -3   2   5   14.17    2.37
  -3  -2   5   11.70    2.38
  -3  -2   5   14.08    2.33
  -3   2   5   10.05    1.38
  -3  -2   5   16.67    2.88
  -3  -2   5   14.38    3.34
  -3  -2   5   12.44    2.59
   3   2  -4  116.33    9.19
   3  -2  -4   89.06    5.54
   3  -2  -4  109.41    7.49
   3   2  -4   99.13   10.84
   3   2  -4   93.89    5.74
   3  -2  -4   95.99    5.58
  -3  -2   4  100.44    8.15
  -3  -2   4   90.40    5.72
  -3   2   4   92.04    5.28
  -3  -2   4  109.22    6.88
  -3   2   4   86.79    4.17
  -3   2   4   82.79    3.90
  -3  -2   4  101.33   12.56
  -3  -2   4   92.65    6.94
  -3  -2   4   94.20    8.30
   3  -2  -3   40.81    2.27
   3   2  -3   48.88    3.09
   3  -2  -3   48.74    3.54
   3  -2  -3   43.99    2.57
   3  -2  -3   45.31    2.93
   3   2  -3   52.57    7.29
   3   2  -3   59.29    4.98
   3  -2  -3   44.82    2.81
   3   2  -3   43.77    2.35
  -3  -2   3   57.60    5.25
  -3  -2   3   47.41    4.36
  -3   2   3   44.32    2.14
  -3   2   3   45.65    3.07
  -3   2   3   48.00    3.03
  -3  -2   3   56.91    6.39
  -3  -2   3   57.18    8.29
  -3  -2   3   58.71    4.45
  -3  -2   3   51.58    4.47
  -3   2   3   45.39    3.25
  -3   2   3   43.30    1.68
   3   2  -2    6.21    1.26
   3   2  -2   -0.02    2.22
   3  -2  -2    3.99    1.46
   3  -2  -2    2.66    1.34
   3  -2  -2    3.57    0.73
   3   2  -2    3.47    1.14
   3   2  -2    4.68    2.90
   3  -2  -2    2.77    0.97
  -3  -2   2   10.17    2.26
  -3   2   2    4.00    0.98
  -3  -2   2    6.63    1.76
  -3  -2   2    5.38    1.71
  -3  -2   2    5.54    2.73
  -3   2   2    4.65    0.73
  -3  -2   2    5.28    1.80
  -3   2   2    2.51    1.46
  -3  -2   2    3.28    2.26
   3  -2  -1   43.26    2.63
   3   2  -1   50.49    3.80
   3  -2  -1   48.70    3.84
   3   2  -1   55.33    3.54
   3  -2  -1   47.14    3.66
   3  -2  -1   50.19    1.63
   3  -2  -1   48.22    1.77
   3   2  -1   53.30    3.86
  -3  -2   1   54.04    3.80
  -3  -2   1   58.19    3.74
  -3   2   1   49.59    2.70
  -3  -2   1   49.22    7.08
  -3   2   1   52.14    2.87
  -3  -2   1   46.06    6.64
  -3  -2   1   58.08    7.45
  -3  -2   1   52.85    5.31
  -3   2   1   46.74    3.30
  -3  -2   1   54.96    4.35
   3   2   0    1.39    0.78
   3  -2   0    0.11    0.55
   3  -2   0    1.49    1.10
   3   2   0    0.26    0.82
   3  -2   0    0.27    0.58
   3   2   0   -0.27    0.94
   3  -2   0    0.53    0.38
   3   2   0   -0.01    0.88
  -3  -2   0    0.76    0.86
  -3  -2   0    0.44    0.68
  -3   2   0    0.53    0.86
  -3  -2   0    2.26    1.97
  -3   2   0   -0.70    0.94
  -3  -2   0   -0.87    1.20
  -3  -2   0    1.09    0.82
   3   2   1    1.33    0.66
   3   2   1    4.04    1.46
   3  -2   1    4.81    1.10
   3  -2   1    5.33    1.67
   3   2   1    4.23    1.36
   3   2   1    3.81    0.66
   3  -2   1    2.92    0.62
   3  -2   1    4.21    0.99
  -3  -2  -1    3.43    1.51
  -3  -2  -1    3.24    1.25
  -3  -2  -1    3.95    1.29
  -3  -2  -1    5.31    2.38
  -3  -2  -1    4.36    3.11
  -3   2  -1    5.07    1.72
  -3  -2  -1    7.85    3.25
   3   2   2   22.01    1.73
   3   2   2   22.70    2.12
   3  -2   2   19.80    1.98
   3   2   2   29.27    2.68
   3  -2   2   24.42    4.22
   3   2   2   24.88    2.10
   3  -2   2   30.81    3.63
   3  -2   2   21.39    0.94
   3  -2   2   20.52    1.67
  -3  -2  -2   21.88    1.99
  -3  -2  -2   24.58    1.97
  -3  -2  -2   23.21    2.50
  -3   2  -2   29.06    2.60
  -3  -2  -2   25.75    4.41
  -3  -2  -2   28.62    5.41
  -3   2  -2   27.87    3.77
   3   2   3   73.84    4.01
   3  -2   3   68.19    3.61
   3   2   3   67.74    5.12
   3  -2   3   75.19    5.51
   3  -2   3   77.85    6.33
   3  -2   3   64.56    3.33
   3   2   3   73.41    4.15
   3  -2   3   70.99    3.68
  -3  -2  -3   81.55    5.16
  -3  -2  -3   69.56    4.15
  -3  -2  -3   56.42    3.24
  -3  -2  -3   71.57    5.22
  -3   2  -3   72.34    4.35
  -3   2  -3   69.27    6.19
  -3   2  -3   58.10    2.78
  -3  -2  -3   71.38    5.22
   3   2   4    0.33    0.40
   3  -2   4    1.03    0.80
   3   2   4    0.68    0.82
   3   2   4   -0.30    1.14
   3  -2   4    0.58    1.08
   3  -2   4    0.12    1.16
   3  -2   4    0.23    0.69
   3  -2   4    0.42    0.43
   3  -2   4    0.23    0.78
  -3   2  -4    0.11    0.83
  -3  -2  -4   -0.01    0.46
  -3  -2  -4   -0.21    0.81
  -3  -2  -4   -0.11    0.49
  -3  -2  -4   -0.24    1.21
  -3  -2  -4    1.07    0.99
  -3   2  -4    0.49    1.13
  -3   2  -4    0.56    0.60
  -3  -2  -4    0.20    1.02
   3   2   5   -0.05    0.37
   3  -2   5    0.60    0.62
   3  -2   5   -0.07    0.55
   3  -2   5   -0.48    1.54
   3  -2   5    1.07    1.11
   3   2   5    0.66    0.87
   3   2   5    1.06    0.87
   3  -2   5    0.38    0.65
  -3   2  -5   -0.01    0.94
  -3  -2  -5    0.20    0.64
  -3  -2  -5    1.70    1.48
  -3   2  -5    0.36    1.12
  -3  -2  -5   -0.78    1.05
  -3  -2  -5   -0.12    1.06
   3   2   6    0.08    1.05
   3  -2   6    0.27    0.48
   3  -2   6   -0.84    1.05
   3   2   6   -0.07    0.91
   3  -2   6   -0.61    0.70
  -3   2  -6    0.82    1.07
  -3  -2  -6    0.53    2.09
  -3   2  -6    0.50    1.02
  -3  -2  -6    0.92    1.23
   3  -2   7    2.71    1.25
   3   2   7    3.61    1.82
   3  -2   7    1.65    1.05
  -3   2  -7    2.59    1.91
  -3  -2  -7    3.21    2.20
  -3  -2  -7    3.79    2.57
  -3   2  -7    4.49    1.65
   3  -2   8    1.97    1.84
   3   2   8    4.25    2.28
  -3  -2  -8    4.20    2.54
  -3  -2  -8   11.69    4.78
  -3   2  -8    3.53    1.73
   3  -2   9   -0.38    1.45
   3   2   9   -0.04    1.65
   3  -2   9    1.08    0.76
  -3  -2  -9    0.68    2.32
  -3  -2  -9    3.30    2.43
   3  -2  10    1.43    1.91
   3  -2  10    2.80    1.11
   3   2  10    2.14    2.25
  -3  -2 -10    2.86    3.06
   3  -2  11    2.83    1.91
   3   2  11    2.34    2.34
   3  -2  11    2.27    1.76
  -3  -2 -11    4.43    4.53
  -3  -2 -11    7.53    3.39
   3  -2  12    4.44    2.61
   3   2  12    3.57    3.36
  -3  -2 -12    3.35    3.83
  -3  -2 -12    7.19    2.90
   3   2  13    1.41    1.55
   3  -2  13    0.72    1.10
  -3  -2 -13    2.24    2.42
  -3  -2 -13    0.03    2.69
   3   2  14    0.13    0.81
  -3  -2 -14    1.03    1.60
   3   3 -14    1.76    1.56
   3   3 -13    4.91    3.66
   3  -3 -13    3.10    1.69
  -3   3  13    2.68    1.30
   3   3 -12    4.07    3.81
   3  -3 -12    1.78    3.28
   3   3 -12    1.40    2.54
  -3   3  12    1.96    1.82
   3   3 -11   -1.54    5.26
   3  -3 -11    4.34    4.48
   3   3 -11    6.68    5.15
  -3   3  11    3.45    2.95
  -3  -3  11    4.97    2.92
  -3  -3  11    3.60    2.03
   3   3 -10    2.37    3.34
   3   3 -10   -1.68    3.31
   3  -3 -10   -0.08    1.53
  -3   3  10   -0.73    1.41
  -3  -3  10   -1.22    1.36
  -3  -3  10    0.80    1.99
  -3  -3  10    0.21    1.07
   3  -3  -9    0.12    1.36
   3   3  -9   -1.02    2.40
   3   3  -9    0.30    3.22
  -3  -3   9   -0.06    0.94
  -3  -3   9    0.08    1.47
  -3  -3   9    0.20    1.06
  -3   3   9   -0.21    1.14
   3   3  -8    2.05    3.93
   3  -3  -8    2.63    3.09
   3   3  -8    3.45    5.36
  -3   3   8    1.85    1.50
  -3  -3   8    3.59    1.92
  -3  -3   8    2.00    1.73
  -3  -3   8    1.91    2.35
   3   3  -7    4.33    4.00
   3   3  -7    3.08    4.05
  -3  -3   7    0.70    1.51
  -3  -3   7    3.11    1.81
   3   3  -6    1.99    2.76
   3  -3  -6    0.16    1.71
   3   3  -6    0.77    1.83
   3   3  -6    0.38    0.90
  -3  -3   6    0.27    1.43
  -3  -3   6    0.78    1.46
  -3  -3   6    0.28    1.38
   3  -3  -5   60.63    4.05
   3   3  -5   63.94    8.90
   3   3  -5   61.08    6.79
   3   3  -5   49.86    4.25
  -3  -3   5   70.53    6.48
  -3  -3   5   50.79    5.18
  -3  -3   5   65.08    6.87
  -3  -3   5   44.85    4.52
   3   3  -4   -0.02    0.61
   3   3  -4    1.43    1.70
  -3  -3   4   -0.33    0.62
  -3  -3   4    0.30    1.36
  -3  -3   4   -0.18    2.04
  -3  -3   4    1.08    1.10
  -3  -3   4   -0.11    0.92
   3   3  -3    0.10    0.68
   3  -3  -3    0.74    0.61
   3  -3  -3    0.16    0.99
   3   3  -3   -0.04    0.99
  -3  -3   3    0.31    0.99
  -3  -3   3    0.49    0.58
  -3  -3   3    0.31    1.10
  -3  -3   3    1.14    1.65
  -3   3   3    1.14    0.86
  -3  -3   3    0.07    1.39
  -3  -3   3    1.71    1.83
   3  -3  -2   13.40    1.87
   3   3  -2   11.06    1.66
   3  -3  -2   13.73    2.21
   3  -3  -2   14.10    2.00
   3   3  -2   17.21    2.41
  -3  -3   2   18.25    4.02
  -3  -3   2   19.83    2.93
  -3  -3   2   21.07    2.66
  -3  -3   2   19.01    3.64
  -3  -3   2   14.93    1.37
  -3   3   2   13.89    1.92
   3   3  -1   34.99    2.91
   3  -3  -1   36.50    3.65
   3  -3  -1   39.43    3.25
   3   3  -1   39.50    2.87
   3   3  -1   30.41    3.40
  -3  -3   1   47.05    3.76
  -3  -3   1   42.30    6.60
  -3  -3   1   43.64    5.11
  -3   3   1   33.99    3.35
  -3  -3   1   44.69    3.91
  -3  -3   1   51.45    3.52
   3   3   0    0.43    0.52
   3  -3   0   -0.18    0.60
   3   3   0   -0.00    0.66
   3  -3   0   -0.74    0.95
   3   3   0   -0.46    0.57
  -3  -3   0    0.39    0.75
  -3   3   0    1.38    0.95
  -3  -3   0    0.25    1.78
  -3  -3   0    1.10    0.54
  -3  -3   0    1.02    1.82
  -3  -3   0    0.33    0.85
  -3  -3   0    0.05    0.83
   3  -3   1    5.24    2.21
   3   3   1    3.47    0.93
   3   3   1    4.78    1.49
   3  -3   1    7.45    2.02
  -3  -3  -1    7.03    1.51
  -3  -3  -1    4.52    1.42
  -3  -3  -1    5.16    3.13
  -3  -3  -1    9.21    2.25
  -3   3  -1    5.98    1.96
  -3  -3  -1    4.84    1.29
  -3  -3  -1    5.00    1.60
   3   3   2   23.26    1.38
   3   3   2   24.96    2.43
   3  -3   2   22.82    2.84
   3  -3   2   25.69    3.71
   3   3   2   21.66    1.93
  -3   3  -2   28.27    3.53
  -3  -3  -2   21.68    2.86
  -3  -3  -2   20.25    1.96
  -3  -3  -2   17.32    1.72
  -3  -3  -2   23.65    4.99
  -3  -3  -2   22.22    2.65
  -3  -3  -2   33.31    7.13
   3   3   3    6.41    1.10
   3  -3   3    7.80    3.26
   3   3   3    8.34    1.44
   3  -3   3    9.50    2.47
   3   3   3    7.20    2.16
  -3  -3  -3    7.67    1.88
  -3  -3  -3    5.70    1.77
  -3   3  -3   10.28    2.63
  -3  -3  -3   11.32    4.31
  -3  -3  -3   13.99    4.17
   3   3   4    6.14    1.84
   3  -3   4    3.10    3.10
   3   3   4    3.58    1.60
   3  -3   4    2.69    2.39
  -3  -3  -4    4.21    2.04
  -3  -3  -4    5.32    2.39
  -3   3  -4    3.38    2.27
   3   3   5   20.97    2.97
   3   3   5   21.65    3.02
  -3  -3  -5   21.20    6.55
  -3  -3  -5   19.76    3.76
  -3   3  -5   25.73    4.65
   3   3   6    0.77    1.07
  -3  -3  -6   -0.79    1.43
  -3  -3  -6   -2.90    2.71
  -3   3  -6    1.54    1.45
   3   3   7   20.21    3.45
  -3  -3  -7   16.96    4.42
  -3  -3  -7   23.60    7.87
  -3   3  -7   18.41    4.02
   3   3   8   16.47    3.24
   3  -3   8   15.46    2.10
  -3  -3  -8   17.19    4.84
  -3  -3  -8   22.42    5.58
  -3   3  -8   14.27    3.92
   3  -3   9    3.87    1.43
   3   3   9    2.35    2.31
  -3  -3  -9    2.17    2.89
  -3  -3  -9    7.26    5.55
  -3   3  -9    2.50    2.03
   3   3  10   12.95    2.97
   3  -3  10    1.68    2.62
   3  -3  10   13.35    2.14
  -3  -3 -10   16.08    4.91
  -3  -3 -10   13.23    4.89
   3  -3  11    4.16    1.40
   3   3  11    3.58    2.24
  -3  -3 -11    5.55    5.02
  -3  -3 -11    2.88    3.53
   3   3  12    3.08    1.34
   3  -3  12   -0.01    0.69
  -3  -3 -12   -0.10    1.92
  -3  -3 -12    3.52    2.20
   3   3  13    7.35    1.38
  -3  -3 -13    8.33    3.17
  -3  -3 -13    0.43    2.61
   3   4 -13    1.11    1.05
   3  -4 -12    3.37    1.95
   3   4 -12   -0.04    1.02
  -3  -4  12    1.28    1.20
   3  -4 -11    2.92    2.52
   3   4 -11    0.27    2.15
  -3  -4  11    0.38    1.17
  -3  -4  11    1.80    2.54
   3  -4 -10   25.39    4.64
   3   4 -10   33.88    4.92
  -3  -4  10   31.03    4.17
  -3  -4  10   30.41    4.59
   3  -4  -9    8.86    4.72
   3   4  -9   12.72    5.96
   3   4  -9   -0.11    2.98
  -3  -4   9   11.75    3.20
  -3  -4   9   11.66    3.01
   3   4  -8    0.29    3.11
   3   4  -8    0.24    1.55
  -3  -4   8    0.47    1.50
  -3  -4   8    0.90    1.44
   3   4  -7   -0.20    2.07
  -3  -4   7    3.56    3.28
  -3  -4   7    5.38    2.42
   3   4  -6    0.50    2.08
  -3  -4   6    7.76    2.43
  -3  -4   6    6.86    2.74
   3   4  -5    0.36    1.43
  -3  -4   5   -1.15    1.27
  -3  -4   5    0.53    1.47
  -3  -4   4   17.42    4.37
  -3  -4   4   19.72    3.84
   3   4  -3    0.02    2.54
  -3  -4   3    5.67    1.73
  -3  -4   3    8.24    2.27
   3  -4  -2   13.71    1.93
   3   4  -2   16.48    2.49
  -3  -4   2   17.33    2.56
  -3  -4   2   17.19    2.80
  -3   4   2    8.27    2.00
   3  -4  -1   19.16    2.54
  -3  -4   1   22.57    3.94
  -3  -4   1   14.29    2.71
  -3  -4   1   16.94    6.13
  -3  -4   1   15.01    2.53
  -3   4   1   18.61    2.97
   3  -4   0   -0.76    1.35
   3  -4   0   -0.09    1.13
   3  -4   0    0.85    0.41
  -3  -4   0    0.43    1.57
  -3  -4   0    0.46    0.90
  -3  -4   0    0.60    1.07
  -3  -4   0    0.32    1.51
  -3   4   0    0.16    1.33
   3  -4   1    6.31    1.64
  -3  -4  -1    3.67    2.46
  -3  -4  -1    3.84    1.60
  -3  -4  -1    5.38    1.84
  -3  -4  -1    8.09    2.53
  -3   4  -1    6.24    2.58
  -3  -4  -2   12.50    6.72
  -3   4  -2   23.50    4.39
  -3  -4  -2   20.06    3.02
  -3  -4  -3    3.95    1.87
  -3  -4  -3    6.36    2.56
  -3   4  -3    4.47    2.58
  -3  -4  -4    3.97    1.96
  -3  -4  -4   -0.04    4.18
  -3   4  -4    4.01    2.62
   3  -4   5    0.70    0.87
  -3  -4  -5    2.83    2.34
  -3   4  -5    2.20    2.02
  -3  -4  -5    1.44    1.65
   3  -4   6    0.06    1.34
  -3  -4  -6    0.48    1.98
  -3  -4  -6    3.56    2.34
  -3   4  -6    0.85    1.94
   3  -4   7    4.90    2.57
  -3  -4  -7    3.93    2.94
  -3   4  -7    7.58    3.19
  -3  -4  -7    5.08    6.35
   3  -4   8   -1.07    0.92
  -3  -4  -8    0.88    1.51
  -3  -4  -8   -2.12    2.05
  -3   4  -8    2.35    1.35
   3  -4   9    0.27    1.27
   3  -4   9    0.94    1.60
  -3  -4  -9    0.84    2.39
  -3  -4  -9   -0.67    2.04
   3  -4  10   -1.03    1.51
   3  -4  10    0.04    1.01
  -3  -4 -10   -0.47    1.90
  -3  -4 -10    0.15    3.30
   3  -4  11   -0.15    1.47
   3  -4  11    1.36    0.85
  -3  -4 -11    0.05    2.29
  -3  -4 -11    3.73    2.18
   3  -4  12   -0.02    0.91
  -3  -4 -12    2.95    1.41
  -3  -4 -12   -0.29    1.46
   3   5 -11   -0.17    0.95
  -3  -5  11   -0.03    2.03
  -3  -5  11    0.92    0.83
   3   5 -10    1.16    0.89
  -3  -5  10   -0.08    1.72
  -3  -5  10   -0.26    1.68
   3   5  -9   -1.65    0.87
  -3  -5   9    1.63    2.04
  -3  -5   9    2.43    1.12
   3   5  -8    0.60    2.11
  -3  -5   8    4.37    2.03
  -3  -5   8   -0.73    2.08
   3   5  -7    0.20    1.00
  -3  -5   7   -0.43    2.38
  -3  -5   7    0.19    1.47
   3   5  -6   -0.30    1.12
  -3  -5   6   -0.71    1.64
  -3  -5   6    0.10    1.76
   3   5  -5    8.95    3.53
  -3  -5   5   33.88    4.88
  -3  -5   5   28.49    4.76
   3   5  -4    2.92    1.42
  -3  -5   4    2.82    2.48
  -3  -5   4    3.15    2.77
  -3  -5   4    0.28    3.27
  -3  -5   3    6.62    2.38
  -3  -5   3    0.64    1.47
  -3  -5   3   13.93    4.60
  -3  -5   3    4.40    2.01
  -3  -5   2   -0.66    1.66
  -3  -5   2    1.67    1.08
  -3  -5   2    4.37    1.80
  -3  -5   2   -2.81    1.36
  -3  -5   1    4.58    2.83
  -3  -5   1    3.92    1.67
  -3  -5   1    5.08    2.28
  -3  -5   1   -1.82    4.16
  -3   5   1    1.49    1.76
  -3  -5   0   -0.86    1.86
  -3  -5   0    0.28    0.92
  -3  -5   0   -4.56    2.87
  -3  -5   0    1.67    1.11
  -3   5   0    0.74    1.25
   3  -5   1    3.30    1.08
  -3  -5  -1    5.40    2.05
  -3  -5  -1   11.72    4.90
  -3   5  -1    5.22    2.24
   3  -5   2   -0.05    1.31
  -3  -5  -2    3.24    1.44
  -3  -5  -2    1.56    3.99
  -3   5  -2    0.89    1.90
   3  -5   3    5.12    2.08
  -3  -5  -3    4.86    5.28
  -3  -5  -3    3.89    2.31
  -3   5  -3    7.35    3.10
   3  -5   4   10.61    2.87
  -3   5  -4   10.10    4.25
  -3  -5  -4   -0.05    8.54
  -3  -5  -4   12.38    3.17
   3  -5   5    2.00    1.28
  -3  -5  -5    1.03    1.91
  -3   5  -5    0.94    2.49
  -3  -5  -5   -0.11    3.34
   3  -5   6    5.58    2.39
  -3  -5  -6    1.37    2.57
  -3  -5  -6   -0.40    3.50
  -3   5  -6    6.42    3.05
   3  -5   7    8.20    2.09
  -3  -5  -7    3.74    3.13
  -3  -5  -7    7.06    6.21
   3  -5   8    5.61    2.73
   3  -5   8    3.64    2.32
  -3  -5  -8    5.16    2.73
   3  -5   9    1.88    1.24
   3  -5   9    1.42    1.50
  -3  -5  -9    0.04    2.05
  -3  -5  -9    1.37    2.34
   3  -5  10   11.07    2.67
   3  -5  10    7.03    1.60
  -3  -5 -10    4.16    2.76
   3  -5  11    1.61    0.70
  -3  -5 -11   -0.26    1.04
  -3  -5 -11    0.29    2.42
  -3  -6  10   20.21    2.82
  -3  -6  10   19.67    1.97
  -3  -6   9   -0.10    2.03
  -3  -6   9   -0.10    0.93
  -3  -6   8   -2.90    2.58
  -3  -6   8   -0.14    1.45
  -3  -6   7    9.30    2.69
  -3  -6   7   10.94    3.73
  -3  -6   6    0.55    1.96
  -3  -6   5    4.26    2.82
  -3  -6   4   13.55    6.01
  -3  -6   3    2.97    2.21
  -3  -6   3    3.51    4.15
  -3  -6   2    4.54    3.74
  -3  -6   2    3.20    1.93
  -3  -6   2    4.66    4.22
  -3  -6   1    6.08    2.36
  -3  -6   1    9.54    3.74
  -3  -6   0    4.91    5.42
  -3  -6  -1    3.14    2.69
  -3  -6  -2    7.42    3.80
  -3  -6  -3    2.29    1.50
  -3  -6  -3   -2.98    3.17
  -3  -6  -4    1.32    1.68
  -3  -6  -4   -1.10    4.81
  -3  -6  -5    2.52    1.80
  -3  -6  -5    1.41    2.90
   3  -6   6    0.72    1.82
  -3  -6  -6    1.74    1.44
  -3  -6  -6   -0.22    2.22
   3  -6   7    3.32    1.79
  -3  -6  -7    1.50    1.81
  -3  -6  -7    3.78    2.86
   3  -6   8    2.01    1.50
  -3  -6  -8    8.23    3.41
  -3  -6  -8    2.09    1.54
   3  -6   9    1.18    1.00
   3  -6   9   -0.12    0.82
  -3  -6  -9   -0.84    2.17
  -3  -7   7    1.05    1.44
  -3  -7   7    0.48    0.90
  -3  -7   6    0.77    1.31
  -3  -7   6   -0.22    0.75
  -3  -7   5    6.77    2.31
  -3  -7   5    0.60    1.37
  -3  -7   4    1.27    1.01
  -3  -7   4   -0.46    0.72
  -3  -7   3    0.67    0.71
  -3  -7   3    0.12    0.82
  -3  -7   2   -0.05    0.52
  -3  -7  -1   -0.24    1.86
  -3  -7  -2    6.54    5.63
  -3  -7  -3   -1.48    3.05
  -3  -7  -4    7.09    2.96
  -3  -7  -5    9.26    4.83
  -3  -7  -6    6.96    3.89
   4   0 -15    0.00    1.72
  -4   0  15   -0.15    0.89
   4   0 -14   27.52    6.35
   4   0 -14   28.23    4.67
  -4   0  14   30.06    5.06
   4   0 -13    1.44    1.80
   4   0 -13   -1.23    3.39
  -4   0  13    0.72    2.19
   4   0 -12    6.66    6.50
   4   0 -12    7.43    7.58
  -4   0  12    9.73    4.28
   4   0 -11   11.12    7.61
   4   0 -11   14.20    6.78
  -4   0  11   20.33    5.62
   4   0 -10   12.67    5.66
   4   0 -10    9.25    7.85
  -4   0  10   12.01    4.54
   4   0  -9   -1.40    4.51
   4   0  -9    5.73    4.48
  -4   0   9    2.60    2.28
   4   0  -8   31.35    6.84
   4   0  -8   29.19    4.44
  -4   0   8   31.10    4.69
   4   0  -7   26.69    3.18
   4   0  -7   22.96    4.80
  -4   0   7   23.64    3.56
  -4   0   7   22.15    2.73
  -4   0   7   16.37    2.64
  -4   0   7   13.42    2.09
  -4   0   7   28.50    5.92
   4   0  -6   64.36    4.99
   4   0  -6   64.14    7.13
   4   0  -6   61.59    4.72
  -4   0   6   63.26    6.36
  -4   0   6   61.00    6.05
  -4   0   6   47.50    4.23
  -4   0   6   62.10    4.67
  -4   0   6   69.98    5.01
  -4   0   6   58.90    4.86
   4   0  -5    7.90    0.81
   4   0  -5    6.25    2.70
   4   0  -5   10.38    2.25
   4   0  -5   10.49    2.28
  -4   0   5    8.85    2.76
  -4   0   5   13.30    2.47
  -4   0   5   11.59    2.70
  -4   0   5   10.82    1.47
  -4   0   5    7.96    1.72
   4   0  -4   27.58    1.69
   4   0  -4   25.81    2.36
   4   0  -4   31.77    4.30
   4   0  -4   27.58    3.01
   4   0  -4   28.74    3.84
  -4   0   4   33.14    4.70
  -4   0   4   33.45    3.88
  -4   0   4   25.18    2.58
  -4   0   4   34.27    4.19
  -4   0   4   26.12    2.68
   4   0  -3   23.26    2.22
   4   0  -3   22.54    2.26
   4   0  -3   19.13    2.69
   4   0  -3   17.07    3.00
   4   0  -3   16.69    1.63
  -4   0   3   17.35    3.04
  -4   0   3   19.46    2.33
  -4   0   3   22.31    3.52
  -4   0   3   19.91    3.10
  -4   0   3   22.68    2.78
   4   0  -2    2.82    1.28
   4   0  -2    3.36    1.31
   4   0  -2    4.52    1.32
   4   0  -2    1.24    1.50
   4   0  -2    3.34    1.35
  -4   0   2    3.50    1.59
  -4   0   2    2.80    1.02
  -4   0   2    0.41    1.73
  -4   0   2    2.23    1.35
  -4   0   2    2.30    1.26
   4   0  -1   11.53    2.19
   4   0  -1    8.44    1.81
   4   0  -1   13.55    1.73
   4   0  -1   10.23    1.69
  -4   0   1    8.67    1.79
  -4   0   1    8.48    1.79
  -4   0   1   10.39    1.93
  -4   0   1    9.75    2.23
  -4   0   1   12.53    1.45
   4   0   0   65.71    5.17
   4   0   0   59.47    3.91
   4   0   0   52.05    4.48
  -4   0   0   53.20    2.91
  -4   0   0   57.61    4.19
  -4   0   0   71.64    6.88
  -4   0   0   58.62    3.35
  -4   0   0   55.65    2.41
  -4   0   0   65.66    4.00
  -4   0   0   56.56    2.81
   4   0   1   11.05    2.50
   4   0   1    9.63    2.23
   4   0   1   11.32    1.87
   4   0   1   10.87    1.95
  -4   0  -1    8.38    2.87
  -4   0  -1    8.71    2.33
  -4   0  -1   10.54    1.15
  -4   0  -1   11.86    2.87
  -4   0  -1    8.37    1.23
  -4   0  -1    8.93    1.49
   4   0   2   24.87    5.07
   4   0   2   22.55    2.29
   4   0   2   21.80    3.23
   4   0   2   27.47    3.42
  -4   0  -2   21.00    1.56
  -4   0  -2   26.58    2.86
  -4   0  -2   22.37    2.94
  -4   0  -2   18.24    1.92
  -4   0  -2   24.47    1.79
  -4   0  -2   25.20    1.82
   4   0   3   -0.13    1.54
   4   0   3   -0.28    0.78
   4   0   3    0.02    0.96
   4   0   3    0.34    0.68
  -4   0  -3   -0.45    0.73
  -4   0  -3    1.34    0.72
  -4   0  -3    0.01    0.68
  -4   0  -3    0.03    0.68
  -4   0  -3   -0.41    0.49
   4   0   4    0.63    1.10
   4   0   4    1.10    1.18
   4   0   4   -0.06    0.67
   4   0   4    0.66    0.93
  -4   0  -4    0.20    1.02
  -4   0  -4   -0.71    1.34
  -4   0  -4    0.86    0.86
  -4   0  -4    0.41    0.58
  -4   0  -4   -0.35    0.79
   4   0   5    3.57    1.66
   4   0   5    4.11    1.85
   4   0   5    3.03    0.99
   4   0   5    2.68    1.06
  -4   0  -5    2.78    1.32
  -4   0  -5    3.68    1.11
  -4   0  -5    2.72    1.18
  -4   0  -5    1.88    1.25
  -4   0  -5    4.16    1.08
   4   0   6   16.74    2.65
   4   0   6    7.26    1.72
   4   0   6    7.08    2.78
   4   0   6   14.14    2.49
  -4   0  -6   10.89    1.46
  -4   0  -6   11.53    2.29
  -4   0  -6    9.47    2.47
  -4   0  -6   10.77    1.52
   4   0   7    1.30    1.89
   4   0   7    2.82    1.59
  -4   0  -7    1.04    1.76
  -4   0  -7    0.97    1.94
   4   0   8   -0.95    1.34
  -4   0  -8    1.24    1.63
  -4   0  -8    0.53    1.44
   4   0   9    1.62    2.27
  -4   0  -9    2.89    2.50
   4   0  10    4.14    2.66
  -4   0 -10    3.26    2.98
   4   0  11   -0.36    1.67
  -4   0 -11    0.69    1.60
   4   0  12    4.03    2.81
  -4   0 -12    6.87    3.11
   4   0  13    0.03    1.37
  -4   0 -13   -1.28    1.64
   4   0  14    1.04    1.00
   4   1 -15    0.12    1.48
   4   1 -15    0.01    1.65
  -4   1  15    0.08    1.02
  -4  -1  15    0.67    0.76
   4  -1 -14    2.44    2.14
   4   1 -14    1.95    2.97
   4   1 -14    0.03    2.06
   4  -1 -14    0.01    2.10
  -4   1  14    1.04    1.78
  -4  -1  14    0.88    1.91
   4  -1 -13    1.26    2.46
   4   1 -13    0.60    3.19
   4  -1 -13    1.60    2.82
   4   1 -13    0.67    2.82
  -4   1  13    0.25    1.89
  -4  -1  13   -0.39    1.85
   4  -1 -12   -0.30    3.97
   4   1 -12    0.79    4.12
   4  -1 -12    0.29    3.17
   4   1 -12    0.07    2.64
  -4  -1  12    2.46    2.54
  -4   1  12    1.49    2.44
   4   1 -11    0.15    2.21
   4  -1 -11    2.21    3.11
   4   1 -11    3.66    4.10
   4  -1 -11    0.34    2.98
  -4  -1  11    0.54    2.47
  -4   1  11    1.67    2.51
   4  -1 -10    1.90    2.46
   4   1 -10    4.32    3.45
   4  -1 -10   -0.57    1.96
   4   1 -10   -0.15    2.17
  -4   1  10    0.69    2.17
  -4  -1  10   -0.18    2.16
   4   1  -9   -0.39    4.18
   4  -1  -9    3.69    2.95
   4   1  -9    8.67    5.06
   4  -1  -9    2.86    2.24
  -4   1   9    2.88    2.24
  -4  -1   9   -0.63    2.65
   4  -1  -8    0.61    1.88
   4  -1  -8   -0.36    2.47
   4   1  -8    1.62    3.69
   4   1  -8    0.22    3.24
  -4   1   8    1.84    1.56
  -4  -1   8    2.10    1.98
  -4  -1   8    0.75    0.88
  -4  -1   8   -0.02    1.21
   4   1  -7   12.61    5.10
   4  -1  -7   11.05    3.27
   4   1  -7   16.70    6.72
   4  -1  -7   17.62    4.30
  -4   1   7   10.42    2.80
  -4  -1   7   14.69    3.43
  -4  -1   7   13.44    2.32
  -4  -1   7   11.54    1.96
  -4   1   7    0.17    3.34
  -4   1   7   13.58    1.87
  -4  -1   7   14.58    2.59
   4  -1  -6    3.84    1.86
   4   1  -6    0.95    1.78
   4  -1  -6    0.95    1.67
   4   1  -6    1.98    2.75
   4  -1  -6    2.43    2.04
   4   1  -6    4.17    1.69
  -4   1   6    3.37    1.68
  -4  -1   6    3.28    1.75
  -4  -1   6   -0.01    1.32
  -4  -1   6    2.33    1.34
  -4   1   6    0.88    1.12
  -4  -1   6    2.58    1.80
  -4  -1   6    1.54    1.22
  -4   1   6    0.13    1.64
  -4   1   6    2.76    1.14
   4  -1  -5    7.80    1.88
   4  -1  -5    7.65    0.89
   4  -1  -5    6.51    1.35
   4  -1  -5    9.08    2.23
   4   1  -5   11.72    4.09
   4  -1  -5   11.79    2.59
   4   1  -5   12.44    2.03
   4   1  -5    9.16    2.01
   4   1  -5    8.52    0.89
  -4   1   5   13.24    2.25
  -4  -1   5   10.72    2.61
  -4  -1   5    9.20    1.94
  -4  -1   5    9.31    1.70
  -4   1   5    7.04    0.84
  -4   1   5    8.34    1.49
  -4   1   5   10.02    1.40
  -4  -1   5    5.24    2.28
  -4  -1   5   11.67    2.78
  -4   1   5   11.98    1.28
  -4  -1   5    8.98    2.06
   4   1  -4    8.91    1.07
   4   1  -4    9.95    2.12
   4  -1  -4    9.22    1.34
   4  -1  -4    8.59    1.02
   4  -1  -4    9.66    2.49
   4   1  -4    6.22    3.21
   4  -1  -4    8.16    2.07
   4   1  -4    2.87    3.03
   4  -1  -4   12.02    1.89
  -4   1   4    9.32    2.21
  -4   1   4    7.56    0.94
  -4  -1   4    9.94    1.78
  -4   1   4    6.72    1.39
  -4   1   4   10.36    1.65
  -4  -1   4    9.46    2.97
  -4  -1   4    9.26    2.28
  -4   1   4   11.39    1.83
  -4  -1   4    8.14    2.45
   4   1  -3    8.93    1.25
   4  -1  -3    9.87    1.69
   4   1  -3    8.26    2.17
   4   1  -3   10.56    2.06
   4  -1  -3    8.98    1.36
   4  -1  -3    9.22    1.44
   4  -1  -3    6.43    2.10
   4   1  -3    9.22    2.19
   4   1  -3    8.12    3.21
   4  -1  -3    7.89    1.27
  -4  -1   3    9.82    2.62
  -4   1   3    8.64    2.24
  -4  -1   3   10.03    2.29
  -4  -1   3   12.46    3.41
  -4  -1   3   12.90    1.93
  -4   1   3    8.78    1.21
  -4   1   3    8.94    1.05
  -4   1   3   10.01    1.89
  -4   1   3    6.78    1.14
  -4  -1   3    9.64    3.38
   4   1  -2   55.60    3.86
   4   1  -2   49.56    4.21
   4   1  -2   49.15    3.73
   4  -1  -2   44.01    3.33
   4  -1  -2   46.49    3.29
   4  -1  -2   44.75    3.84
   4  -1  -2   47.38    2.24
   4   1  -2   55.02    3.56
   4  -1  -2   43.05    1.81
  -4  -1   2   51.40    4.40
  -4  -1   2   44.07    4.69
  -4  -1   2   49.64    5.03
  -4  -1   2   40.23    3.84
  -4   1   2   47.27    3.18
  -4   1   2   46.37    1.54
  -4   1   2   46.67    4.16
  -4   1   2   44.31    1.97
  -4  -1   2   50.07    3.88
  -4   1   2   49.69    3.97
   4   1  -1   59.94    3.65
   4   1  -1   68.60    5.15
   4   1  -1   64.31    4.11
   4  -1  -1   65.56    4.88
   4  -1  -1   65.00    3.22
   4  -1  -1   63.63    4.06
   4   1  -1   68.20    4.22
  -4   1   1   70.10    3.99
  -4  -1   1   67.29    5.91
  -4   1   1   64.27    5.58
  -4  -1   1   79.58    5.81
  -4  -1   1   64.13    6.88
  -4  -1   1   69.33    5.04
  -4   1   1   76.78    5.09
  -4  -1   1   65.69    4.30
  -4   1   1   60.31    2.74
   4  -1   0   44.35    4.67
   4   1   0   48.90    4.27
   4   1   0   45.46    4.82
   4  -1   0   58.53    6.59
   4  -1   0   58.84    3.41
   4   1   0   40.34    3.34
   4   1   0   47.62    2.92
  -4   1   0   43.37    2.11
  -4  -1   0   46.71    5.91
  -4   1   0   47.03    5.06
  -4  -1   0   52.61    3.77
  -4  -1   0   51.67    4.29
  -4   1   0   42.50    1.41
  -4  -1   0   44.34    5.92
  -4   1   0   49.99    4.52
  -4  -1   0   50.50    3.50
   4  -1   1  140.53    8.05
   4  -1   1  143.93   11.01
   4   1   1  128.79    8.21
   4  -1   1  164.24    8.76
   4   1   1  142.64    7.53
   4   1   1  150.89   10.13
   4  -1   1  139.99    7.74
  -4   1  -1  164.69    7.82
  -4  -1  -1  138.27    8.89
  -4   1  -1  151.37    8.60
  -4  -1  -1  152.67    8.01
  -4   1  -1  143.41    7.29
  -4  -1  -1  154.50    8.71
  -4   1  -1  142.28    4.98
  -4  -1  -1  144.20   11.87
  -4  -1  -1  159.13    9.14
  -4  -1  -1  139.64    6.95
   4  -1   2   21.41    3.00
   4   1   2   26.70    3.48
   4   1   2   28.81    2.24
   4   1   2   17.60    2.52
   4  -1   2   24.97    2.85
   4  -1   2   29.56    3.25
   4   1   2   21.24    3.36
   4  -1   2   22.39    2.22
  -4  -1  -2   22.95    2.33
  -4   1  -2   21.00    1.41
  -4   1  -2   23.32    2.90
  -4  -1  -2   21.91    2.49
  -4  -1  -2   19.86    2.02
  -4   1  -2   25.10    3.43
  -4  -1  -2   25.51    4.22
  -4   1  -2   18.82    2.17
  -4  -1  -2   25.09    2.11
  -4  -1  -2   22.13    2.25
   4  -1   3   11.70    2.47
   4  -1   3   14.25    2.27
   4   1   3   13.95    2.75
   4   1   3   17.14    2.78
   4   1   3   14.54    1.65
   4  -1   3   15.41    3.75
   4  -1   3   15.26    2.59
   4   1   3   15.07    2.23
  -4  -1  -3   14.10    2.09
  -4  -1  -3   13.86    1.84
  -4   1  -3   15.92    2.27
  -4  -1  -3   10.61    1.87
  -4   1  -3   10.93    1.12
  -4  -1  -3   11.26    1.78
  -4  -1  -3   19.05    3.44
  -4   1  -3   14.82    2.54
  -4   1  -3   12.65    0.99
   4  -1   4   40.73    3.10
   4   1   4   38.88    3.12
   4   1   4   32.82    2.51
   4  -1   4   37.23    4.09
   4  -1   4   42.86    3.76
   4  -1   4   39.80    4.05
   4   1   4   36.32    3.91
   4   1   4   37.39    3.83
  -4  -1  -4   41.50    4.47
  -4   1  -4   42.07    3.68
  -4  -1  -4   43.11    3.30
  -4  -1  -4   26.55    2.55
  -4   1  -4   31.63    2.56
  -4  -1  -4   36.14    3.24
  -4   1  -4   40.17    4.33
  -4  -1  -4   36.46    3.25
   4   1   5    1.24    1.38
   4   1   5    2.55    1.45
   4   1   5    0.62    0.82
   4  -1   5    0.33    0.41
   4  -1   5    0.74    1.24
   4  -1   5    2.28    1.14
   4   1   5    1.71    1.40
   4  -1   5    1.78    1.36
  -4  -1  -5    1.92    1.23
  -4  -1  -5    1.73    1.42
  -4   1  -5    2.12    1.36
  -4  -1  -5    1.63    1.08
  -4  -1  -5    0.40    0.89
  -4   1  -5    0.62    1.21
  -4   1  -5    1.96    1.35
  -4  -1  -5    1.29    0.97
  -4   1  -5    0.90    0.54
   4  -1   6   40.23    5.74
   4  -1   6   31.73    2.54
   4  -1   6   35.31    3.19
   4   1   6   30.11    3.36
   4   1   6   41.47    4.51
   4  -1   6   45.39    4.27
  -4  -1  -6   40.83    4.41
  -4  -1  -6   31.28    2.86
  -4  -1  -6   45.08    6.17
  -4   1  -6   32.02    3.83
  -4   1  -6   39.20    3.98
   4   1   7   14.40    3.39
   4  -1   7   12.67    3.48
  -4   1  -7    9.56    2.87
  -4  -1  -7   15.15    2.61
  -4  -1  -7   10.06    3.11
  -4   1  -7    6.32    2.66
   4  -1   8   18.23    3.58
   4   1   8   20.86    4.13
  -4   1  -8   11.68    3.78
  -4  -1  -8   16.35    3.72
  -4  -1  -8   16.71    3.91
   4   1   9    0.79    1.87
   4  -1   9    1.30    1.49
  -4   1  -9    0.07    1.62
  -4  -1  -9   -0.07    2.67
  -4  -1  -9    1.10    1.89
   4   1  10   28.79    5.48
   4  -1  10   25.64    3.64
   4  -1  10   11.85    1.65
  -4   1 -10   15.50    4.80
  -4  -1 -10    0.20    5.63
  -4  -1 -10   14.24    5.00
   4   1  11    0.29    1.90
   4  -1  11    0.63    2.12
  -4   1 -11    1.64    2.19
  -4  -1 -11   -0.00    1.72
  -4  -1 -11    3.24    2.34
   4   1  12    3.52    2.58
   4  -1  12    5.20    2.10
  -4  -1 -12    4.21    2.76
  -4   1 -12    3.72    2.60
  -4  -1 -12   -0.02    3.01
   4  -1  13    1.53    1.40
   4   1  13    0.77    1.97
  -4  -1 -13    7.01    2.96
  -4  -1 -13    2.02    1.35
  -4   1 -13    2.40    1.43
   4   1  14   -0.06    0.80
   4   2 -14   -0.47    3.53
   4  -2 -14    7.01    1.54
  -4   2  14    1.73    1.64
  -4  -2  14    6.07    2.09
   4  -2 -13    1.29    1.96
   4   2 -13    1.62    3.42
   4  -2 -13    0.97    3.02
   4   2 -13   -0.04    3.57
  -4   2  13    3.61    1.91
  -4  -2  13    1.16    2.35
   4   2 -12   18.16    7.36
   4  -2 -12    4.54    6.19
   4   2 -12    6.09    5.08
  -4   2  12   11.59    4.01
  -4  -2  12   13.84    4.07
   4   2 -11    5.09    4.92
   4  -2 -11    4.00    2.74
   4   2 -11    2.30    3.97
  -4   2  11    4.77    2.94
  -4  -2  11    3.66    2.93
   4   2 -10    4.46    6.11
   4   2 -10   13.12    7.15
   4  -2 -10    9.83    4.89
  -4   2  10   11.01    3.58
  -4  -2  10   10.04    4.65
  -4  -2  10    5.11    2.56
   4   2  -9   -0.39    3.94
   4  -2  -9    1.33    2.80
   4   2  -9    0.22    2.34
  -4   2   9    1.34    2.00
  -4  -2   9    1.73    2.39
  -4  -2   9    0.51    1.21
  -4  -2   9    1.65    2.02
   4   2  -8   26.60    4.85
   4   2  -8   31.37    8.35
   4  -2  -8   18.20    3.54
  -4   2   8   21.49    4.17
  -4  -2   8   16.21    4.28
  -4  -2   8   23.09    4.78
  -4  -2   8   15.26    3.13
   4   2  -7   11.34    5.86
   4  -2  -7   10.52    3.50
   4   2  -7   12.94    5.33
  -4   2   7   11.62    2.84
  -4  -2   7    9.03    3.73
  -4  -2   7    8.13    2.34
  -4  -2   7    9.84    2.31
   4   2  -6   36.76    3.92
   4   2  -6   38.18    8.00
   4   2  -6   51.54    6.33
   4  -2  -6   35.43    4.84
   4  -2  -6   39.22    3.36
  -4   2   6   41.87    4.40
  -4  -2   6   37.87    4.66
  -4  -2   6   44.31    4.20
  -4  -2   6   48.95    5.21
  -4  -2   6   39.40    3.88
  -4   2   6   32.48    3.03
   4   2  -5    2.73    1.81
   4   2  -5    1.22    1.13
   4   2  -5    3.13    3.13
   4  -2  -5    1.26    1.26
   4  -2  -5    1.56    0.93
  -4   2   5    1.01    1.18
  -4  -2   5    1.99    1.90
  -4  -2   5    0.73    1.20
  -4  -2   5    1.55    1.11
  -4   2   5   -0.09    0.67
  -4  -2   5    1.75    1.74
  -4  -2   5    0.49    1.46
   4  -2  -4   15.89    1.77
   4  -2  -4   13.95    1.50
   4   2  -4   18.06    4.85
   4   2  -4   25.07    5.40
   4  -2  -4   13.27    1.95
   4   2  -4   19.41    2.14
   4   2  -4   19.20    1.45
  -4  -2   4   13.47    3.37
  -4   2   4   16.32    2.16
  -4  -2   4   20.48    3.63
  -4  -2   4   17.76    2.47
  -4   2   4   13.33    1.77
  -4  -2   4   16.03    3.54
  -4  -2   4   18.63    3.14
  -4  -2   4   17.55    2.92
   4   2  -3    3.77    0.84
   4  -2  -3    2.20    0.89
   4   2  -3    2.91    1.67
   4  -2  -3    1.92    0.72
   4  -2  -3    5.53    1.30
   4   2  -3    4.45    2.93
  -4   2   3    2.07    1.19
  -4  -2   3    2.14    2.30
  -4  -2   3    3.77    1.40
  -4   2   3    2.74    0.72
  -4  -2   3    1.97    2.53
  -4   2   3    3.77    1.12
  -4  -2   3    3.64    2.98
  -4  -2   3    7.07    2.04
  -4  -2   3    4.57    1.47
   4   2  -2   41.21    2.57
   4  -2  -2   38.92    3.08
   4   2  -2   42.22    3.19
   4   2  -2   42.91    3.31
   4  -2  -2   36.74    4.53
   4  -2  -2   36.19    2.71
  -4  -2   2   36.56    6.22
  -4  -2   2   48.00    3.74
  -4  -2   2   39.38    6.13
  -4   2   2   36.67    2.61
  -4   2   2   33.37    3.30
  -4  -2   2   41.19    3.22
  -4  -2   2   41.22    6.79
  -4   2   2   41.03    3.36
  -4  -2   2   35.54    4.54
   4   2  -1   -0.49    0.64
   4   2  -1    0.39    0.60
   4  -2  -1    0.15    0.54
   4   2  -1    0.48    1.03
   4  -2  -1    0.79    0.90
   4  -2  -1    0.34    0.81
   4   2  -1   -0.28    1.33
  -4   2   1    0.34    0.50
  -4  -2   1    0.94    1.79
  -4  -2   1    0.33    1.01
  -4   2   1    1.51    1.00
  -4  -2   1    0.23    1.90
  -4  -2   1    0.47    0.77
  -4  -2   1    0.06    1.32
  -4   2   1    0.61    0.94
   4   2   0    1.74    1.23
   4   2   0    6.26    1.36
   4   2   0    2.68    1.60
   4  -2   0    4.36    1.86
   4  -2   0    5.23    1.75
   4   2   0    4.23    1.34
   4  -2   0    3.40    1.11
  -4  -2   0    7.78    2.74
  -4  -2   0    4.34    1.37
  -4   2   0    3.05    1.03
  -4  -2   0    0.19    2.47
  -4  -2   0    4.99    3.17
  -4   2   0    5.94    1.73
  -4  -2   0    4.51    1.72
   4   2   1   27.18    2.30
   4   2   1   28.34    2.01
   4  -2   1   29.03    2.35
   4  -2   1   25.82    4.65
   4   2   1   27.95    3.25
   4  -2   1   32.36    3.86
   4   2   1   28.85    2.76
   4  -2   1   26.54    2.26
  -4  -2  -1   29.71    3.28
  -4  -2  -1   33.22    2.96
  -4   2  -1   34.17    2.92
  -4  -2  -1   30.17    3.13
  -4  -2  -1   29.05    5.56
  -4   2  -1   29.49    4.14
  -4  -2  -1   33.92    3.24
  -4  -2  -1   28.01    2.90
   4   2   2    9.50    1.54
   4   2   2   10.98    1.36
   4  -2   2    9.68    1.87
   4   2   2    8.90    2.78
   4  -2   2   10.46    3.48
   4  -2   2   11.14    2.47
   4   2   2   10.63    2.42
   4  -2   2   11.46    1.30
  -4  -2  -2   10.89    1.88
  -4  -2  -2    9.60    1.66
  -4   2  -2    8.96    2.52
  -4  -2  -2   13.11    3.58
  -4  -2  -2   12.50    3.95
  -4  -2  -2   10.00    1.92
  -4   2  -2   11.70    1.92
  -4  -2  -2   11.37    3.40
   4   2   3   19.46    1.61
   4   2   3   21.84    1.76
   4  -2   3   22.47    2.59
   4  -2   3   27.36    3.19
   4  -2   3   29.70    3.17
   4   2   3   23.99    3.29
   4   2   3   25.63    3.66
   4  -2   3   20.30    1.92
  -4  -2  -3   20.74    2.70
  -4  -2  -3   23.13    2.90
  -4   2  -3   25.35    4.09
  -4  -2  -3   16.88    2.04
  -4  -2  -3   25.29    4.46
  -4  -2  -3   25.87    5.29
  -4   2  -3   28.17    4.08
   4   2   4    9.04    1.75
   4  -2   4    8.47    1.82
   4   2   4   10.85    2.41
   4  -2   4   13.47    2.62
   4  -2   4   11.29    1.63
   4   2   4   12.55    1.99
   4  -2   4    9.86    1.42
  -4  -2  -4   10.76    1.61
  -4   2  -4   10.61    1.84
  -4  -2  -4   11.57    4.59
  -4  -2  -4    8.02    2.23
  -4  -2  -4   11.06    3.72
  -4   2  -4   10.85    2.94
   4   2   5    6.87    1.70
   4   2   5    7.86    2.02
   4  -2   5   10.43    2.20
   4   2   5    8.85    2.04
   4  -2   5    8.02    1.67
  -4   2  -5    6.05    2.49
  -4  -2  -5    4.59    1.29
  -4  -2  -5    8.42    3.72
  -4  -2  -5    8.31    2.33
   4   2   6   -0.28    1.12
   4  -2   6    0.56    0.88
  -4  -2  -6   -0.41    2.24
  -4   2  -6    0.23    1.26
  -4  -2  -6    0.35    1.46
   4  -2   7    1.73    1.84
   4   2   7    2.67    1.93
  -4  -2  -7    1.63    2.31
  -4  -2  -7    3.82    2.51
  -4   2  -7    3.09    2.17
   4  -2   8    0.02    1.19
   4   2   8    0.99    1.66
  -4   2  -8   -0.11    1.35
  -4  -2  -8    1.89    1.79
  -4  -2  -8    0.30    1.97
   4   2   9    0.74    1.64
   4  -2   9    0.28    1.16
  -4  -2  -9    0.11    2.10
  -4  -2  -9   -0.25    2.92
   4  -2  10    0.29    1.73
   4  -2  10    2.57    0.89
   4   2  10    1.15    2.31
  -4  -2 -10   -0.07    2.37
  -4  -2 -10    0.86    2.84
   4  -2  11    0.52    0.78
   4  -2  11    1.75    1.70
   4   2  11    0.34    2.42
  -4  -2 -11    0.04    2.95
  -4  -2 -11    0.76    2.32
   4   2  12    0.58    1.90
   4  -2  12    1.34    1.47
  -4  -2 -12    3.51    2.54
  -4  -2 -12    2.36    2.82
   4   2  13    0.75    1.63
  -4  -2 -13    6.68    2.65
  -4  -2 -13    3.11    2.17
   4   3 -14   -0.01    0.45
   4   3 -13   -0.03    1.25
   4  -3 -13    1.66    1.47
   4   3 -12    3.38    2.96
   4  -3 -12   -0.54    2.41
  -4   3  12    0.44    1.22
  -4  -3  12    0.49    1.03
   4   3 -11   -1.62    3.93
   4  -3 -11    0.46    2.69
  -4   3  11    0.15    1.52
  -4  -3  11    2.94    1.79
  -4  -3  11    1.63    1.80
   4   3 -10   -0.85    2.88
   4   3 -10    1.47    1.99
  -4  -3  10   -1.23    1.51
  -4  -3  10    0.44    1.46
  -4  -3  10   -0.38    1.07
   4   3  -9    1.98    3.63
   4   3  -9   -0.79    2.41
  -4  -3   9    0.19    1.57
  -4  -3   9    2.32    1.62
  -4  -3   9    0.01    1.53
   4   3  -8    1.95    3.71
   4   3  -8    1.39    2.31
  -4  -3   8    0.61    1.51
  -4  -3   8    0.77    1.59
  -4  -3   8    0.47    1.46
   4   3  -7    3.45    5.75
   4   3  -7    1.28    3.44
  -4  -3   7    0.72    3.14
  -4  -3   7    7.15    2.21
  -4  -3   7   10.86    3.51
   4   3  -6   -0.28    2.75
  -4  -3   6    0.77    1.14
  -4  -3   6   -0.58    1.38
  -4  -3   6    1.05    2.02
   4   3  -5   17.89    2.45
   4   3  -5   32.69    6.67
  -4  -3   5   22.17    3.58
  -4  -3   5   21.12    3.70
  -4  -3   5   23.64    5.19
   4   3  -4    0.01    1.27
   4   3  -4    1.13    0.91
  -4  -3   4    0.64    0.87
  -4  -3   4    0.34    1.46
  -4  -3   4    2.00    1.30
   4   3  -3    1.03    0.67
   4  -3  -3    0.27    0.85
   4   3  -3   -0.10    0.92
  -4  -3   3   -1.37    1.75
  -4  -3   3    0.20    0.90
  -4  -3   3    0.76    1.21
  -4  -3   3   -1.61    1.91
  -4  -3   3   -0.30    2.56
  -4   3   3    0.43    0.88
  -4  -3   3    0.63    1.30
   4   3  -2   16.59    1.86
   4  -3  -2   15.13    2.51
   4  -3  -2   17.41    2.77
   4   3  -2   12.67    1.25
   4   3  -2   19.15    2.48
   4   3  -2   16.63    1.48
  -4  -3   2   20.62    2.45
  -4  -3   2   21.85    4.69
  -4  -3   2   17.83    3.11
  -4  -3   2   20.61    3.63
  -4   3   2   15.82    2.48
   4   3  -1    5.07    0.87
   4  -3  -1    8.00    1.94
   4  -3  -1    4.57    1.76
   4   3  -1    3.71    1.45
   4   3  -1    5.52    1.24
   4   3  -1   -0.01    2.31
  -4  -3   1    8.84    2.90
  -4  -3   1    7.03    1.64
  -4  -3   1    6.52    3.60
  -4  -3   1    4.37    4.30
  -4   3   1    3.85    1.87
   4   3   0   66.32    3.62
   4   3   0   64.61    4.25
   4  -3   0   69.69    4.94
   4  -3   0   70.24    5.85
   4   3   0   57.31    3.94
  -4  -3   0   88.60    8.56
  -4  -3   0   80.56    4.88
  -4  -3   0   78.38    9.47
  -4  -3   0   78.31    5.93
  -4  -3   0   64.73    5.15
  -4  -3   0   89.61    7.40
  -4   3   0   72.95    6.39
   4   3   1   39.30    2.37
   4   3   1   35.06    3.48
   4  -3   1   50.39    5.48
   4  -3   1   39.51    4.38
   4   3   1   34.50    3.00
  -4  -3  -1   33.33    3.46
  -4  -3  -1   37.71    2.87
  -4  -3  -1   39.81    6.30
  -4  -3  -1   44.88    8.10
  -4   3  -1   44.76    4.96
  -4  -3  -1   45.18    6.50
  -4  -3  -1   35.44    3.88
   4   3   2   -0.01    0.77
   4   3   2   -0.31    0.96
   4   3   2    1.04    0.89
   4  -3   2    1.69    1.76
   4  -3   2   -0.04    1.42
  -4  -3  -2    0.89    1.31
  -4  -3  -2    0.68    0.73
  -4  -3  -2    1.35    2.22
  -4  -3  -2    0.57    2.55
  -4  -3  -2    0.89    1.10
  -4   3  -2    0.13    1.45
  -4  -3  -2    1.53    2.58
   4   3   3   15.99    1.62
   4   3   3   22.64    3.97
   4   3   3   21.65    2.33
  -4  -3  -3   18.91    2.92
  -4  -3  -3   20.38    2.45
  -4  -3  -3   27.28    3.61
  -4   3  -3   26.14    3.95
   4   3   4   29.04    3.13
  -4  -3  -4   31.12    4.51
  -4  -3  -4   41.20    7.69
  -4   3  -4   29.59    5.18
   4   3   5    0.61    1.16
  -4  -3  -5    0.85    2.96
  -4  -3  -5    1.10    1.66
  -4   3  -5    1.33    1.93
   4   3   6   22.59    4.02
  -4  -3  -6   19.80    4.47
  -4  -3  -6   20.91    4.98
  -4   3  -6   23.72    5.04
   4   3   7   11.07    3.12
  -4  -3  -7   11.49    4.23
  -4  -3  -7   19.72    6.54
  -4   3  -7   13.08    3.76
   4   3   8   11.15    3.18
  -4  -3  -8   12.65    4.48
  -4   3  -8    9.99    3.27
   4   3   9    2.46    1.98
   4  -3   9    1.74    1.08
  -4  -3  -9    0.38    2.79
  -4  -3  -9    1.46    2.57
  -4   3  -9    2.16    1.85
   4  -3  10   10.18    2.01
   4   3  10   12.96    3.32
  -4  -3 -10    8.61    4.63
   4  -3  11    2.22    1.56
   4   3  11    3.88    2.26
  -4  -3 -11    1.75    2.23
  -4  -3 -11   -3.07    2.65
   4   3  12    6.36    1.79
  -4  -3 -12    7.37    3.17
  -4  -3 -12   -0.03    3.53
  -4  -3 -13    0.55    1.49
   4   4 -12    4.65    1.59
  -4  -4  12    2.76    1.42
   4   4 -11    0.61    1.68
  -4  -4  11    9.50    3.40
  -4  -4  11    4.13    1.42
   4   4 -10    0.17    1.72
  -4  -4  10    2.03    2.92
  -4  -4  10    2.04    1.52
   4   4  -9    0.56    1.83
  -4  -4   9   -1.26    3.52
  -4  -4   9    3.42    1.95
   4   4  -8    0.56    3.05
  -4  -4   8   14.51    3.45
  -4  -4   8   10.34    3.05
   4   4  -7   -0.08    3.78
  -4  -4   7    7.04    4.05
  -4  -4   7    5.44    2.41
   4   4  -6   -0.09    2.11
  -4  -4   6    7.68    2.72
  -4  -4   6    7.75    2.56
   4   4  -5   -0.04    1.97
  -4  -4   5    5.16    2.39
  -4  -4   5    3.98    2.12
   4   4  -4   41.33    4.81
  -4  -4   4   43.59    8.31
  -4  -4   4   46.08    5.76
   4   4  -3    0.69    3.25
  -4  -4   3    6.72    2.32
  -4  -4   3    5.53    3.49
   4   4  -2   -0.24    1.13
  -4  -4   2    2.54    1.25
  -4  -4   2    0.77    0.85
  -4  -4   2   -0.08    1.88
  -4  -4   2    1.78    2.47
  -4   4   2    0.71    1.14
  -4  -4   1    0.08    1.74
  -4  -4   1    1.55    1.25
  -4  -4   1   -0.23    2.86
  -4  -4   1    1.90    1.45
  -4   4   1    1.51    1.35
  -4  -4   0    8.61    3.83
  -4  -4   0    7.05    2.06
  -4  -4   0    6.28    4.50
  -4  -4   0    8.28    2.34
  -4   4   0    7.21    2.39
  -4  -4  -1    4.43    1.67
  -4  -4  -1    3.47    1.37
  -4  -4  -1    9.55    2.06
  -4  -4  -1   -0.05    2.52
  -4   4  -1    7.02    2.37
  -4  -4  -2    0.48    1.57
  -4  -4  -2    0.16    0.97
  -4  -4  -2    0.29    1.94
  -4   4  -2    5.77    1.93
  -4  -4  -3    0.88    1.47
  -4  -4  -3   -0.15    2.96
  -4   4  -3    1.59    2.33
  -4  -4  -4    0.31    2.01
  -4  -4  -4   -0.18    1.47
  -4   4  -4    1.52    1.82
  -4  -4  -5   -2.19    4.53
  -4  -4  -5    1.88    2.41
  -4   4  -5    5.63    2.74
   4  -4   6    3.36    1.25
  -4  -4  -6    1.42    2.81
  -4  -4  -6    1.43    4.93
  -4   4  -6    3.20    2.67
   4  -4   7   -0.20    0.85
  -4  -4  -7   -0.65    1.84
  -4  -4  -7   -2.17    2.17
  -4   4  -7    0.68    1.85
   4  -4   8   -1.02    0.92
  -4  -4  -8    0.53    1.77
  -4  -4  -8   -0.95    3.29
  -4   4  -8    1.90    1.55
   4  -4   9   -0.05    1.44
   4  -4   9    1.07    1.05
  -4  -4  -9   -0.29    2.10
  -4  -4  -9    0.04    2.02
   4  -4  10   -0.41    1.35
   4  -4  10    0.56    0.90
  -4  -4 -10   -0.01    2.84
  -4  -4 -10    0.32    1.84
   4  -4  11    0.06    0.67
  -4  -4 -11   -0.21    1.49
  -4  -4 -11    1.95    1.58
  -4  -4 -12    3.80    2.22
  -4  -5  11    0.18    1.62
  -4  -5  11    0.38    0.98
   4   5 -10   -1.10    0.95
  -4  -5  10   -0.02    2.39
  -4  -5  10    0.65    1.10
   4   5  -9    0.41    1.65
  -4  -5   9    2.28    2.37
  -4  -5   9    5.60    1.87
   4   5  -8   -0.42    1.79
  -4  -5   8    0.36    1.49
  -4  -5   8   -1.43    2.71
   4   5  -7    0.08    1.16
  -4  -5   7    2.10    1.37
  -4  -5   7   -3.14    1.72
   4   5  -6   -1.00    1.43
  -4  -5   6    1.02    1.56
  -4  -5   6   -3.70    3.19
   4   5  -5    0.31    2.02
  -4  -5   5    9.60    3.36
  -4  -5   5    9.42    2.58
  -4  -5   4    3.44    1.84
  -4  -5   4    0.26    0.92
  -4  -5   4    3.33    2.52
  -4  -5   4    4.33    2.41
  -4  -5   3    0.20    1.99
  -4  -5   3    1.42    1.61
  -4  -5   3   -0.42    3.61
  -4  -5   3    2.01    1.52
  -4  -5   2    2.62    2.03
  -4  -5   2    1.32    1.62
  -4  -5   2    0.95    1.59
  -4  -5   2    0.43    2.29
  -4  -5   1   13.86    4.45
  -4  -5   1    6.99    2.60
  -4  -5   1   12.11    2.64
  -4  -5   1   -0.14    5.70
  -4   5   1    7.15    2.46
  -4  -5   0   22.59    6.45
  -4  -5   0   19.49    3.22
  -4   5   0   21.43    3.88
  -4  -5   0   29.89    5.24
  -4  -5   0   22.75    3.68
  -4  -5  -1   12.82    3.08
  -4  -5  -1   -0.29    4.19
  -4   5  -1   10.78    3.04
   4  -5   2    0.30    0.98
  -4   5  -2   11.74    2.46
  -4  -5  -2    7.75    1.96
  -4  -5  -2    0.13    2.77
   4  -5   3    0.18    0.86
  -4  -5  -3    0.07    2.45
  -4  -5  -3    2.20    1.74
  -4   5  -3    4.45    2.05
   4  -5   4    0.12    1.82
  -4  -5  -4    6.45    3.74
  -4  -5  -4    5.56    3.08
  -4   5  -4    4.73    2.69
   4  -5   5    0.04    1.01
  -4  -5  -5    4.19    1.99
  -4  -5  -5    4.53    5.22
  -4   5  -5    3.39    2.52
  -4  -5  -6    2.53    2.30
  -4  -5  -6    0.16    4.80
  -4   5  -6    4.27    2.80
   4  -5   7   -1.41    1.60
  -4  -5  -7    4.78    2.66
  -4  -5  -7   11.08    5.30
  -4   5  -7    7.40    1.75
   4  -5   8    8.99    2.54
   4  -5   8   10.47    2.15
  -4  -5  -8    6.08    3.27
   4  -5   9   -0.20    1.91
   4  -5   9    1.59    1.37
  -4  -5  -9    3.83    3.73
  -4  -5  -9    3.25    1.83
   4  -5  10    6.24    1.78
   4  -5  10    4.74    1.08
  -4  -5 -10    2.32    2.16
  -4  -6   9   -0.13    1.55
  -4  -6   9    1.75    1.07
  -4  -6   8    4.78    2.49
  -4  -6   8    3.76    1.97
  -4  -6   7   -2.13    2.81
  -4  -6   7   -0.23    1.42
  -4  -6   6    5.09    6.43
  -4  -6   6   13.18    3.37
  -4  -6   5    1.73    3.46
  -4  -6   5    0.82    1.88
  -4  -6   4    5.24    3.50
  -4  -6   4   11.24    3.09
  -4  -6   3    6.52    4.57
  -4  -6   3    4.95    2.30
  -4  -6   3    5.98    3.26
  -4  -6   2    1.46    2.66
  -4  -6   2    4.20    1.91
  -4  -6   2    6.04    2.83
  -4  -6   1   -0.48    1.11
  -4  -6   1   -2.10    3.42
  -4  -6   0    4.63    3.52
  -4  -6  -1    6.56    4.82
  -4   6  -1    3.50    2.08
  -4  -6  -2    6.68    4.16
  -4   6  -2    0.86    1.93
  -4  -6  -3    3.47    4.79
  -4  -6  -3   -1.84    1.94
  -4  -6  -4    3.25    4.07
  -4  -6  -4    4.98    3.12
  -4  -6  -5   -1.25    1.58
  -4  -6  -5    1.16    3.46
   4  -6   6    3.84    1.90
  -4  -6  -6    0.10    1.65
  -4  -6  -6    0.94    3.62
   4  -6   7   -1.66    1.27
  -4  -6  -7   -0.10    1.43
   4  -6   8    2.56    1.27
  -4  -6  -8    4.74    3.11
  -4  -6  -8    2.66    1.45
  -4  -7   6    0.35    0.98
  -4  -7   5    2.32    1.12
  -4  -7   5    1.47    1.47
  -4  -7   4    1.64    0.88
  -4  -7   4   -1.10    0.77
  -4  -7   3   -0.62    0.89
  -4  -7   3   -0.13    0.71
  -4  -7   2    0.30    0.52
  -4  -7   1    0.01    0.50
  -4  -7   0   -0.25    0.58
  -4  -7  -1   -0.35    0.75
  -4  -7  -1   -2.88    3.18
  -4  -7  -2    0.92    0.79
  -4  -7  -2    9.59    2.52
  -4  -7  -3    4.54    3.90
  -4  -7  -4    4.67    3.56
  -4  -7  -5    1.59    1.77
   5   0 -14    7.58    3.36
   5   0 -14    4.95    2.72
  -5   0  14    1.70    2.51
   5   0 -13    4.88    4.58
   5   0 -13    8.72    4.10
  -5   0  13    6.97    3.90
   5   0 -12    4.46    3.08
   5   0 -12    1.34    4.73
  -5   0  12    8.40    4.47
   5   0 -11    7.48    5.77
   5   0 -11    9.09    3.08
  -5   0  11    6.61    4.20
   5   0 -10    2.63    2.57
   5   0 -10    3.00    4.21
  -5   0  10    3.33    3.11
   5   0  -9   11.58    5.73
   5   0  -9    3.41    5.47
  -5   0   9   18.21    4.73
   5   0  -8    4.25    3.96
   5   0  -8    6.01    4.11
  -5   0   8    6.45    3.49
   5   0  -7    5.93    3.32
   5   0  -7    7.36    3.31
  -5   0   7    7.04    2.67
  -5   0   7    3.11    1.53
  -5   0   7    3.13    1.85
   5   0  -6    3.22    2.40
   5   0  -6    3.28    1.34
   5   0  -6    1.95    0.52
  -5   0   6    4.00    1.93
  -5   0   6   -0.02    0.96
  -5   0   6    3.23    1.27
  -5   0   6    2.00    1.28
  -5   0   6    2.79    1.32
  -5   0   6    2.29    1.24
   5   0  -5   23.11    2.24
   5   0  -5   26.78    3.86
   5   0  -5   22.20    2.57
   5   0  -5   24.73    2.28
   5   0  -5   30.12    3.29
  -5   0   5   25.52    2.43
  -5   0   5   28.68    2.97
  -5   0   5   24.97    2.61
  -5   0   5   31.63    4.11
  -5   0   5   30.01    4.06
   5   0  -4    2.63    1.65
   5   0  -4    3.73    1.25
   5   0  -4    2.61    1.45
   5   0  -4    2.71    1.82
   5   0  -4    3.24    1.19
  -5   0   4    3.28    1.83
  -5   0   4    0.01    1.72
  -5   0   4    3.61    1.43
  -5   0   4    2.50    1.51
  -5   0   4    4.36    1.58
   5   0  -3   18.35    2.86
   5   0  -3   21.12    1.80
   5   0  -3   22.82    2.27
   5   0  -3   21.86    3.13
   5   0  -3   12.20    2.33
  -5   0   3   19.80    2.48
  -5   0   3   21.67    3.08
  -5   0   3   17.46    2.58
  -5   0   3   24.67    3.31
  -5   0   3   17.65    2.69
   5   0  -2    1.59    1.23
   5   0  -2    1.69    0.85
   5   0  -2    2.06    1.36
   5   0  -2    1.30    0.71
  -5   0   2    1.74    0.86
  -5   0   2    2.15    1.51
  -5   0   2    1.47    1.90
  -5   0   2    0.33    1.37
  -5   0   2    1.02    0.99
   5   0  -1   -0.29    0.96
   5   0  -1    0.61    0.72
   5   0  -1   -0.34    0.93
   5   0  -1    0.31    0.46
  -5   0   1    1.06    0.84
  -5   0   1    0.74    1.02
  -5   0   1    0.06    0.44
  -5   0   1   -0.00    1.09
  -5   0   1    0.34    0.58
  -5   0   1    0.99    1.27
   5   0   0    5.20    1.93
   5   0   0    5.18    1.38
   5   0   0    6.21    1.52
   5   0   0    5.72    1.51
  -5   0   0    6.27    2.40
  -5   0   0    2.90    1.45
  -5   0   0    5.64    2.00
  -5   0   0    2.10    0.76
  -5   0   0    2.32    0.80
  -5   0   0    4.15    0.78
   5   0   1  265.52   17.83
   5   0   1  293.08   14.15
   5   0   1  258.60   16.67
   5   0   1  239.21   14.16
  -5   0  -1  285.96   19.28
  -5   0  -1  250.41   14.84
  -5   0  -1  249.02   15.82
  -5   0  -1  237.72   10.57
   5   0   2    7.64    2.28
   5   0   2    7.32    1.68
   5   0   2    6.79    1.79
  -5   0  -2    8.33    1.88
  -5   0  -2    6.46    1.13
  -5   0  -2    7.36    2.17
  -5   0  -2    7.65    2.83
   5   0   3    5.51    2.20
   5   0   3    7.51    1.60
   5   0   3    5.19    1.69
  -5   0  -3    7.62    1.78
  -5   0  -3    5.39    1.83
  -5   0  -3    1.30    1.95
  -5   0  -3    5.36    1.10
   5   0   4    1.72    2.55
   5   0   4    1.09    1.10
   5   0   4    1.22    1.21
  -5   0  -4    0.52    0.91
  -5   0  -4    2.50    1.91
  -5   0  -4    1.88    1.28
  -5   0  -4    1.65    0.81
   5   0   5   -1.24    1.72
   5   0   5    0.64    0.64
   5   0   5    0.12    1.09
  -5   0  -5    0.08    1.00
  -5   0  -5    0.22    0.73
  -5   0  -5   -0.22    1.07
  -5   0  -5   -0.24    0.53
   5   0   6    0.58    0.86
   5   0   6    1.22    1.49
  -5   0  -6    0.73    1.52
  -5   0  -6    1.54    1.20
  -5   0  -6    0.51    1.23
   5   0   7   11.49    2.65
  -5   0  -7    0.40    1.37
  -5   0  -7    6.73    2.02
   5   0   8    4.55    2.61
  -5   0  -8    3.19    2.79
   5   0   9    0.94    1.57
  -5   0  -9   -0.53    1.56
   5   0  10    1.60    2.08
  -5   0 -10    0.82    2.88
   5   0  11    7.81    2.77
  -5   0 -11    3.52    3.21
   5   0  12    0.53    1.82
  -5   0 -12    2.09    1.87
   5   0  13    0.83    1.19
   5   1 -14    1.66    2.35
   5  -1 -14    4.80    1.96
   5   1 -14    0.00    2.44
  -5   1  14   -0.07    2.35
  -5  -1  14    1.23    1.67
   5  -1 -13    3.15    2.27
   5   1 -13   -1.48    4.08
   5  -1 -13    3.17    1.73
   5   1 -13    0.01    3.12
  -5   1  13    0.07    2.32
  -5  -1  13    0.71    2.04
   5  -1 -12    1.71    4.40
   5   1 -12    1.99    4.63
   5  -1 -12    3.57    3.40
   5   1 -12    2.66    3.21
  -5   1  12    5.96    3.80
  -5  -1  12    3.01    4.24
   5  -1 -11    0.52    3.32
   5   1 -11    2.95    3.69
   5  -1 -11    0.92    2.19
   5   1 -11    2.23    3.74
  -5   1  11    2.14    2.60
  -5  -1  11    2.32    2.66
   5  -1 -10    4.97    3.49
   5   1 -10    3.83    3.76
   5  -1 -10    0.80    1.72
   5   1 -10   -1.40    3.26
  -5   1  10   -0.27    2.31
  -5  -1  10    0.65    2.39
   5  -1  -9    3.95    2.71
   5   1  -9    2.65    3.85
   5  -1  -9    1.07    3.28
   5   1  -9    0.15    2.50
  -5  -1   9   -0.88    2.56
  -5   1   9    2.60    2.62
   5  -1  -8    6.34    3.56
   5   1  -8   10.41    4.13
   5  -1  -8    2.56    2.25
   5   1  -8    2.96    2.68
  -5   1   8    5.67    2.79
  -5  -1   8    3.65    2.72
  -5  -1   8    1.92    2.81
  -5  -1   8    1.40    1.56
   5  -1  -7    3.85    2.57
   5   1  -7    6.06    4.13
   5  -1  -7    2.85    3.17
   5   1  -7    9.27    3.96
  -5   1   7    4.89    2.57
  -5  -1   7    8.01    2.73
  -5  -1   7   -0.04    3.18
  -5  -1   7    6.67    1.88
  -5   1   7    0.07    2.22
  -5   1   7    4.20    1.34
   5  -1  -6    7.64    2.72
   5   1  -6   11.59    3.81
   5  -1  -6    7.47    2.86
   5   1  -6   13.12    2.31
   5  -1  -6    3.87    1.33
  -5   1   6    9.64    2.63
  -5  -1   6   12.55    2.85
  -5  -1   6   -0.02    3.58
  -5  -1   6   12.05    2.42
  -5   1   6    4.85    1.54
  -5  -1   6   18.06    2.57
  -5   1   6    4.93    1.63
  -5  -1   6    7.98    2.06
   5   1  -5   27.53    1.84
   5   1  -5   34.17    3.97
   5  -1  -5   19.09    2.22
   5  -1  -5   30.50    3.71
   5  -1  -5   20.18    3.41
   5   1  -5   35.93    6.00
   5   1  -5   35.83    5.79
  -5   1   5   25.57    2.17
  -5   1   5   31.76    4.18
  -5  -1   5   29.99    4.11
  -5  -1   5   30.07    5.63
  -5   1   5   21.91    3.03
  -5  -1   5   34.41    3.94
  -5   1   5   26.90    3.00
  -5  -1   5   34.42    3.81
  -5  -1   5   33.73    5.39
  -5  -1   5   29.40    3.55
   5   1  -4    2.03    1.45
   5   1  -4    1.51    0.77
   5  -1  -4    0.87    1.22
   5  -1  -4    1.63    0.56
   5  -1  -4    2.48    0.98
   5   1  -4    2.11    1.44
   5  -1  -4    1.28    1.30
   5   1  -4    0.90    2.32
   5   1  -4    1.69    1.17
  -5   1   4    1.22    1.37
  -5  -1   4    1.74    2.24
  -5  -1   4    1.52    1.57
  -5   1   4    1.00    0.89
  -5  -1   4    1.26    1.64
  -5   1   4    2.76    1.26
  -5  -1   4    2.51    1.99
  -5  -1   4    2.36    1.47
   5  -1  -3    2.20    1.16
   5   1  -3    0.26    1.44
   5   1  -3    1.87    1.39
   5  -1  -3    1.55    0.69
   5  -1  -3    3.52    1.16
   5   1  -3    1.39    1.22
   5   1  -3   -0.17    1.07
   5  -1  -3    0.98    0.44
  -5  -1   3    1.48    1.53
  -5   1   3    2.12    1.34
  -5  -1   3    2.11    1.50
  -5  -1   3    1.46    1.66
  -5   1   3    2.06    1.38
  -5  -1   3    3.41    1.53
  -5   1   3    1.29    1.19
  -5  -1   3    2.18    1.84
   5  -1  -2    5.17    1.47
   5   1  -2    6.64    1.15
   5   1  -2    7.96    1.92
   5  -1  -2    3.27    1.39
   5   1  -2    4.23    1.60
   5  -1  -2    3.97    1.28
   5   1  -2   -0.42    1.39
  -5  -1   2    5.50    1.71
  -5  -1   2    6.17    2.23
  -5  -1   2    4.62    2.59
  -5   1   2    4.51    1.36
  -5  -1   2    5.03    2.04
  -5   1   2    4.02    1.78
  -5   1   2    7.45    1.45
  -5  -1   2    7.78    1.37
   5   1  -1   10.61    1.71
   5   1  -1    9.88    2.66
   5   1  -1   11.95    1.98
   5  -1  -1   12.99    2.22
   5  -1  -1   13.95    1.98
   5  -1  -1   10.10    3.31
   5   1  -1   11.09    1.79
  -5  -1   1   12.88    2.19
  -5   1   1   11.44    2.87
  -5  -1   1   11.51    2.97
  -5  -1   1   11.15    2.31
  -5  -1   1   12.98    2.66
  -5   1   1   11.92    2.54
  -5  -1   1   10.88    2.72
  -5   1   1    9.58    1.86
   5  -1   0  142.93    8.06
   5   1   0  144.67    9.85
   5   1   0  141.76    7.84
   5   1   0  142.17    8.19
   5  -1   0  145.43   10.03
   5  -1   0  136.41    8.10
   5  -1   0  127.45    9.07
   5   1   0  133.84    8.81
  -5  -1   0  151.50    9.49
  -5   1   0  138.34    8.55
  -5  -1   0  136.83    8.75
  -5  -1   0  136.15   10.21
  -5  -1   0  143.81    7.75
  -5   1   0  134.30    8.84
  -5  -1   0  129.02    6.69
  -5  -1   0  141.13    6.30
   5  -1   1   16.66    2.89
   5   1   1   17.25    3.24
   5   1   1   14.21    2.41
   5   1   1   19.20    2.34
   5  -1   1   19.76    5.12
   5  -1   1   20.13    2.44
   5  -1   1   18.67    2.55
   5   1   1   16.80    3.11
  -5  -1  -1   16.62    2.90
  -5   1  -1   23.51    3.74
  -5  -1  -1   15.82    1.92
  -5  -1  -1   17.97    2.69
  -5  -1  -1   18.81    1.74
  -5  -1  -1   19.36    4.34
  -5   1  -1   13.51    3.13
  -5  -1  -1   22.19    2.84
   5  -1   2    7.14    2.55
   5   1   2   10.36    2.72
   5   1   2    2.73    1.45
   5  -1   2    9.21    2.74
   5  -1   2    2.00    1.79
   5   1   2    7.11    2.25
   5   1   2    8.15    1.93
   5  -1   2    6.01    1.62
  -5  -1  -2    9.07    1.56
  -5  -1  -2    9.67    2.82
  -5   1  -2    8.65    1.91
  -5  -1  -2    7.69    2.08
  -5  -1  -2    5.49    1.90
  -5  -1  -2    8.33    3.10
  -5   1  -2    7.88    1.54
  -5  -1  -2   10.44    1.87
   5   1   3   62.02    6.61
   5   1   3   63.46    4.14
   5  -1   3   61.52    7.50
   5  -1   3   70.84    5.80
   5   1   3   55.85    4.44
   5   1   3   48.89    4.58
   5  -1   3   55.56    4.41
  -5  -1  -3   60.30    4.77
  -5   1  -3   56.80    4.96
  -5  -1  -3   50.32    4.15
  -5  -1  -3   42.47    4.32
  -5  -1  -3   52.41    4.74
  -5   1  -3   50.37    5.23
  -5  -1  -3   58.76    8.66
  -5  -1  -3   67.19    4.90
   5   1   4    0.07    1.15
   5   1   4   -0.38    0.58
   5  -1   4    1.37    0.93
   5  -1   4    0.02    0.94
   5   1   4    0.93    1.01
   5   1   4   -1.25    0.81
   5  -1   4    0.56    0.69
  -5  -1  -4    0.10    1.10
  -5   1  -4    0.15    0.81
  -5  -1  -4    0.32    0.96
  -5  -1  -4   -0.23    0.85
  -5   1  -4    0.07    1.01
  -5  -1  -4   -0.54    0.69
  -5  -1  -4   -0.06    0.75
   5   1   5    0.25    1.20
   5   1   5    3.25    1.92
   5   1   5    4.02    1.85
   5  -1   5    3.07    1.46
  -5  -1  -5    5.55    2.17
  -5   1  -5    2.78    1.25
  -5  -1  -5    2.89    2.17
  -5  -1  -5    1.29    1.10
  -5   1  -5    4.32    1.87
  -5  -1  -5    2.53    1.51
   5  -1   6   38.00    4.02
   5   1   6   38.06    5.00
  -5  -1  -6   32.90    4.49
  -5  -1  -6   37.82    4.95
  -5   1  -6   38.31    3.73
  -5  -1  -6   37.29    4.11
  -5   1  -6   30.34    4.28
   5   1   7   15.84    3.76
   5  -1   7   10.31    2.60
  -5  -1  -7    7.60    3.08
  -5   1  -7    7.60    2.55
   5  -1   8    0.15    1.65
   5   1   8    1.85    2.53
  -5  -1  -8    1.18    1.99
   5   1   9    8.80    3.61
   5  -1   9    7.95    3.65
  -5  -1  -9    7.91    3.71
   5  -1  10   -0.18    1.36
   5   1  10    2.70    1.49
  -5  -1 -10   -3.07    1.60
   5   1  11    2.11    3.24
   5  -1  11    3.79    2.11
  -5  -1 -11    6.37    3.07
   5   1  12    0.02    2.14
   5  -1  12    2.52    1.63
  -5  -1 -12    4.55    2.32
   5   1  13    1.74    1.58
   5  -1  13    3.33    1.31
  -5  -1 -13    1.69    1.59
   5   2 -14    8.16    1.68
   5   2 -13    1.49    2.96
   5  -2 -13    3.07    1.75
  -5   2  13    0.59    1.69
  -5  -2  13    0.48    1.64
   5   2 -12    5.61    4.35
   5   2 -12   -0.15    2.57
  -5   2  12    1.59    2.53
  -5  -2  12    5.84    2.58
   5   2 -11   21.20    7.13
   5   2 -11    4.42    4.74
  -5   2  11   15.83    4.13
  -5  -2  11   17.07    4.19
   5   2 -10   -1.32    2.55
   5   2 -10    0.48    2.73
  -5  -2  10   -0.44    1.59
  -5   2  10    0.85    1.48
   5   2  -9    7.42    5.03
   5   2  -9    0.26    5.27
  -5   2   9    3.38    2.50
  -5  -2   9    4.83    3.00
  -5  -2   9    1.38    2.16
  -5  -2   9    2.16    2.80
   5   2  -8   15.35    5.96
   5   2  -8    5.36    6.40
  -5  -2   8    9.37    2.98
  -5  -2   8    5.24    2.10
  -5   2   8    6.70    2.95
  -5  -2   8    5.71    3.17
   5   2  -7    5.34    4.35
   5   2  -7    3.43    4.30
  -5   2   7    5.87    2.94
  -5  -2   7    1.88    3.97
  -5  -2   7    4.89    2.01
  -5  -2   7    2.08    3.30
   5   2  -6    3.12    4.07
   5   2  -6    1.57    3.60
  -5   2   6    3.79    2.04
  -5  -2   6    4.13    2.44
  -5  -2   6    2.58    3.40
  -5  -2   6    3.81    1.89
   5  -2  -5   11.63    1.92
   5   2  -5    8.95    4.94
   5   2  -5    7.84    4.10
  -5   2   5    7.61    2.72
  -5  -2   5   11.66    2.75
  -5  -2   5    6.05    4.74
  -5  -2   5   16.35    2.33
  -5   2   5    3.91    1.69
   5   2  -4    5.98    1.00
   5  -2  -4    3.03    1.81
   5   2  -4    4.13    1.85
   5  -2  -4    4.06    1.41
   5   2  -4    0.37    2.03
  -5  -2   4    5.13    2.70
  -5   2   4    3.84    2.05
  -5  -2   4    7.88    2.62
  -5  -2   4    6.85    1.93
  -5   2   4    5.22    1.86
  -5  -2   4    3.46    3.38
  -5  -2   4    6.73    2.02
  -5  -2   4    6.54    1.69
   5   2  -3   33.31    2.43
   5  -2  -3   27.15    3.43
   5   2  -3   32.23    3.28
   5  -2  -3   18.32    2.44
   5  -2  -3   22.35    2.57
   5   2  -3   31.22    2.93
  -5  -2   3   30.48    5.53
  -5   2   3   29.19    2.81
  -5  -2   3   28.19    3.23
  -5  -2   3   34.82    4.50
  -5  -2   3   32.13    3.64
  -5   2   3   28.50    3.48
  -5   2   3   25.84    3.02
  -5  -2   3   33.51    5.58
  -5  -2   3   34.68    4.67
   5   2  -2    5.94    1.84
   5  -2  -2    5.04    1.20
   5   2  -2    3.42    1.71
   5   2  -2   -0.11    1.53
   5  -2  -2    4.10    1.38
   5  -2  -2    4.09    1.83
  -5  -2   2    6.45    1.60
  -5   2   2    4.70    1.45
  -5  -2   2    7.98    2.36
  -5  -2   2    4.08    2.79
  -5  -2   2    6.18    1.69
  -5   2   2    7.74    1.96
  -5   2   2    4.62    1.73
  -5  -2   2    5.71    1.93
  -5  -2   2    4.45    2.13
   5   2  -1   16.71    2.48
   5   2  -1   16.02    2.35
   5  -2  -1    9.39    1.90
   5   2  -1   11.97    2.08
   5  -2  -1   13.14    3.35
   5  -2  -1   12.87    1.91
   5  -2  -1    9.57    1.42
   5   2  -1    9.88    1.38
   5   2  -1   -0.45    3.32
  -5  -2   1    9.43    3.52
  -5  -2   1   17.68    2.87
  -5  -2   1   12.17    3.99
  -5   2   1   14.72    2.52
  -5   2   1   10.06    2.51
  -5  -2   1    3.78    2.42
   5   2   0    1.71    0.98
   5   2   0    0.45    0.74
   5  -2   0    1.35    1.04
   5   2   0    0.29    1.13
   5  -2   0    1.55    1.92
   5  -2   0    1.92    1.39
   5   2   0    1.17    1.16
   5  -2   0    0.82    1.10
  -5  -2   0   -0.57    1.93
  -5  -2   0    0.62    1.27
  -5   2   0    0.62    1.26
  -5  -2   0   -0.82    2.05
  -5  -2   0    0.02    1.58
  -5  -2   0    0.90    1.04
  -5   2   0    0.88    1.36
  -5  -2   0    0.96    1.69
   5   2   1   36.96    3.59
   5   2   1   36.08    2.90
   5  -2   1   39.50    3.97
   5   2   1   50.90    4.99
   5  -2   1   48.43    4.13
   5  -2   1   47.34    4.88
   5   2   1   42.62    3.75
   5  -2   1   33.22    2.71
  -5  -2  -1   40.01    3.77
  -5  -2  -1   50.61    6.06
  -5   2  -1   50.89    5.70
  -5  -2  -1   45.25    3.97
  -5  -2  -1   48.34    3.59
  -5  -2  -1   50.79    7.89
  -5   2  -1   50.83    3.58
  -5  -2  -1   53.86    5.79
   5   2   2    0.10    0.70
   5   2   2   -0.03    0.58
   5  -2   2    0.13    0.73
   5   2   2    0.73    1.03
   5  -2   2   -0.67    1.05
   5  -2   2    0.38    0.98
   5   2   2    0.57    1.17
   5  -2   2   -0.08    0.61
  -5  -2  -2    1.20    0.91
  -5   2  -2   -1.31    1.20
  -5  -2  -2    0.29    0.78
  -5  -2  -2    0.03    0.91
  -5  -2  -2    0.98    1.63
  -5   2  -2   -0.45    1.35
  -5  -2  -2   -0.19    1.25
  -5  -2  -2    0.01    0.87
   5   2   3    2.67    0.98
   5   2   3    1.82    1.27
   5   2   3    3.79    1.85
   5  -2   3   -1.27    1.60
   5  -2   3    1.76    1.78
   5   2   3    0.71    1.50
   5  -2   3    0.83    1.14
  -5  -2  -3    1.48    1.28
  -5  -2  -3    3.48    1.19
  -5   2  -3    0.68    1.15
  -5  -2  -3    2.37    1.23
  -5  -2  -3    0.01    1.39
  -5  -2  -3    1.39    2.94
  -5   2  -3    2.57    2.15
  -5  -2  -3    3.05    2.33
   5   2   4   17.10    2.09
   5   2   4   21.49    3.40
   5  -2   4   18.19    2.33
  -5  -2  -4   22.46    2.68
  -5   2  -4   25.92    4.21
  -5  -2  -4   19.70    3.28
  -5  -2  -4   27.67    3.25
  -5   2  -4   24.68    4.60
  -5  -2  -4   28.42    3.07
   5   2   5    1.94    1.46
   5  -2   5    1.29    1.03
  -5  -2  -5    1.02    1.07
  -5  -2  -5   -0.08    1.50
  -5   2  -5    1.30    1.90
  -5  -2  -5    0.96    1.55
   5   2   6   18.20    3.46
   5  -2   6   10.12    3.36
  -5  -2  -6   18.19    4.14
  -5  -2  -6   13.55    5.10
  -5   2  -6   17.16    3.69
   5  -2   7    7.64    2.37
   5   2   7   11.92    3.49
  -5  -2  -7    4.94    3.35
  -5   2  -7    9.47    3.03
   5  -2   8   -0.22    1.47
   5   2   8    2.96    2.08
  -5  -2  -8    3.15    2.11
  -5  -2  -8    0.93    2.87
  -5   2  -8    0.85    1.68
   5   2   9    1.18    2.53
   5  -2   9    1.38    1.76
  -5  -2  -9    0.64    2.51
   5  -2  10    0.70    1.02
   5   2  10    1.36    1.65
   5  -2  10   -0.19    1.07
  -5  -2 -10    0.04    2.30
  -5  -2 -10    0.17    2.41
   5  -2  11    0.03    1.27
   5   2  11    2.92    2.10
   5  -2  11    1.28    1.20
  -5  -2 -11    8.45    2.45
  -5  -2 -11    4.01    2.54
   5   2  12    1.36    1.45
  -5  -2 -12    0.19    1.66
   5   2  13    0.25    0.75
   5   3 -13    0.46    0.85
   5   3 -12    0.20    1.65
  -5  -3  12    2.68    0.97
   5   3 -11    0.98    1.46
  -5  -3  11   -0.01    1.39
  -5  -3  11   -0.04    1.58
   5   3 -10    3.08    3.89
   5   3 -10   -0.37    3.08
  -5  -3  10    1.47    1.82
  -5  -3  10    4.94    2.94
  -5  -3  10    0.22    1.85
   5   3  -9   -0.66    3.92
  -5  -3   9    2.01    1.87
  -5  -3   9    1.57    2.32
  -5  -3   9    0.80    1.54
   5   3  -8    2.34    3.00
  -5  -3   8    0.75    1.83
  -5  -3   8   -0.88    1.57
  -5  -3   8    0.24    1.28
   5   3  -7    1.04    2.27
  -5  -3   7    2.36    2.08
  -5  -3   7    3.49    2.51
  -5  -3   7    4.38    2.10
   5   3  -6   -2.24    4.16
  -5  -3   6    5.88    2.34
  -5  -3   6    6.77    4.60
  -5  -3   6    9.48    2.73
   5   3  -5   -2.26    3.19
  -5  -3   5    1.20    1.54
  -5  -3   5    5.96    1.53
  -5  -3   5    5.14    2.47
   5   3  -4   -0.88    1.12
  -5  -3   4    0.31    0.83
  -5  -3   4    1.72    1.32
  -5  -3   4   -0.67    1.27
   5   3  -3    3.58    1.43
   5  -3  -3    3.59    1.28
   5   3  -3    0.21    1.75
  -5  -3   3    3.37    1.38
  -5  -3   3    5.59    2.56
  -5  -3   3    4.03    2.06
  -5   3   3    2.66    1.66
   5   3  -2    2.50    1.65
   5  -3  -2    2.53    1.31
   5   3  -2    3.55    1.41
   5   3  -2    0.24    1.77
  -5  -3   2    3.53    2.02
  -5  -3   2    2.82    1.66
  -5   3   2    3.49    1.77
   5   3  -1   15.46    2.46
   5  -3  -1   20.16    4.04
   5  -3  -1   24.17    3.42
   5   3  -1   17.18    2.67
  -5  -3   1   32.21    6.28
  -5  -3   1   22.06    3.11
  -5  -3   1   25.26    3.49
  -5  -3   1   16.91    1.97
  -5   3   1   20.11    3.71
   5   3   0   30.81    3.23
   5  -3   0   34.62    4.66
   5   3   0   28.38    2.99
  -5  -3   0   29.33    5.43
  -5  -3   0   36.83    4.40
  -5  -3   0   28.91    3.74
  -5  -3   0   32.06    5.88
  -5   3   0   34.51    4.79
   5   3   1    4.05    1.77
   5   3   1    7.47    1.72
  -5  -3  -1    3.74    2.78
  -5  -3  -1    5.54    2.24
  -5  -3  -1    5.73    2.06
  -5  -3  -1    8.10    2.18
  -5   3  -1    8.29    2.86
   5   3   2   19.18    2.92
  -5  -3  -2   16.75    2.78
  -5  -3  -2   15.04    2.67
  -5  -3  -2   18.42    5.88
  -5   3  -2   28.69    4.31
  -5  -3  -2   19.86    3.29
   5   3   3   13.14    2.50
  -5  -3  -3   11.47    2.98
  -5  -3  -3   10.49    2.33
  -5  -3  -3   14.63    4.87
  -5   3  -3   16.20    3.90
   5   3   4    0.05    1.07
  -5  -3  -4   -0.03    1.37
  -5  -3  -4    2.87    1.80
  -5   3  -4   -0.93    1.53
   5   3   5   12.24    3.93
  -5  -3  -5   24.02    7.72
  -5  -3  -5   16.18    3.97
  -5   3  -5   16.52    4.57
   5   3   6   40.16    5.48
  -5  -3  -6   34.48    6.48
  -5  -3  -6   36.09    6.55
  -5   3  -6   32.91    6.94
   5   3   7    3.06    2.16
  -5  -3  -7    1.59    2.79
  -5  -3  -7    4.93    4.76
  -5   3  -7    4.33    2.48
   5   3   8    2.74    1.63
  -5  -3  -8    1.08    2.16
  -5  -3  -8   -1.45    2.16
  -5   3  -8   -0.48    1.66
   5   3   9    7.74    2.86
   5  -3   9    2.66    1.85
  -5  -3  -9    3.09    3.31
  -5  -3  -9    7.36    4.63
  -5   3  -9    2.45    2.19
   5  -3  10    2.45    1.86
   5   3  10    4.87    1.87
  -5  -3 -10   -0.02    2.34
  -5  -3 -10    2.81    2.85
   5  -3  11   -0.03    1.31
   5   3  11    0.91    1.94
  -5  -3 -11    3.72    1.55
  -5  -3 -11    2.60    2.21
   5   3  12    0.17    0.61
  -5  -3 -12   -0.94    1.08
   5   4 -12    0.03    0.67
   5   4 -11    4.46    1.76
  -5  -4  11    3.04    3.10
  -5  -4  11    4.02    1.37
   5   4 -10    0.36    1.67
  -5  -4  10    1.43    2.91
  -5  -4  10    2.02    2.29
   5   4  -9    0.26    2.37
  -5  -4   9    7.15    4.41
  -5  -4   9    5.59    2.19
   5   4  -8    0.55    2.00
  -5  -4   8    5.07    3.89
  -5  -4   8    1.11    1.88
   5   4  -7   -0.53    1.97
  -5  -4   7    1.81    1.93
  -5  -4   7    3.72    2.55
   5   4  -6    0.20    2.37
  -5  -4   6    6.00    2.92
  -5  -4   6    9.47    3.18
   5   4  -5   -0.03    4.44
  -5  -4   5   15.40    3.61
  -5  -4   5    7.52    4.39
   5   4  -4    0.69    1.80
  -5  -4   4   -0.88    3.77
  -5  -4   4    2.04    1.39
   5   4  -3   16.09    3.01
  -5  -4   3   18.68    6.62
  -5  -4   3   21.82    3.76
  -5  -4   3   -0.27    4.15
  -5  -4   2   -0.13    1.48
  -5  -4   2    6.68    2.82
  -5  -4   2   -0.25    1.40
  -5  -4   2    0.11    1.86
  -5   4   2    1.18    1.71
  -5  -4   1    3.49    2.39
  -5  -4   1    3.65    1.73
  -5  -4   1    2.23    1.89
  -5  -4   1   -0.01    2.23
  -5   4   1    1.52    1.92
  -5  -4   0    1.32    1.57
  -5  -4   0    3.26    2.26
  -5  -4   0    0.40    1.61
  -5  -4   0    0.26    1.86
  -5   4   0   -0.06    1.67
  -5  -4  -1    0.47    4.93
  -5  -4  -1   19.21    2.98
  -5  -4  -1   34.20    4.85
  -5  -4  -1   25.06    3.86
  -5   4  -1   25.18    4.68
  -5  -4  -2   -0.20    1.37
  -5  -4  -2   -0.70    1.32
  -5  -4  -2    0.27    2.49
  -5   4  -2    1.44    1.51
  -5  -4  -3   -0.55    1.53
  -5  -4  -3    0.03    2.99
  -5   4  -3    3.24    2.10
  -5  -4  -4    3.69    3.27
  -5  -4  -4    1.55    2.23
  -5   4  -4    2.48    3.17
  -5  -4  -5   13.74    5.49
  -5   4  -5   -0.56    2.72
  -5  -4  -5    2.41    2.34
  -5  -4  -6    7.06    3.65
  -5  -4  -6    5.46    5.97
  -5   4  -6    6.09    3.37
   5  -4   7    3.16    2.00
  -5  -4  -7    1.56    2.69
  -5  -4  -7    2.24    3.17
  -5   4  -7    3.80    2.62
   5  -4   8    0.71    1.78
   5   4   8    2.63    1.38
  -5  -4  -8   -0.53    2.18
  -5   4  -8   -0.40    1.98
   5  -4   9    2.23    1.11
   5  -4   9    1.63    1.80
   5   4   9    1.61    1.09
  -5  -4  -9    2.29    2.61
  -5  -4  -9    4.02    2.49
   5   4  10    0.62    0.68
   5  -4  10    0.65    0.73
   5  -4  10   -0.59    1.31
  -5  -4 -10    0.34    1.56
  -5  -4 -10    2.98    2.01
   5  -4  11    1.44    0.96
  -5  -4 -11    2.47    1.75
  -5  -5  11   -0.40    1.05
  -5  -5  10   -0.21    1.78
  -5  -5  10    0.24    1.36
  -5  -5  10    4.70    1.76
   5   5  -9   -0.21    0.82
  -5  -5   9    0.31    1.49
  -5  -5   9    0.06    1.00
  -5  -5   9    0.82    1.43
   5   5  -8    0.51    1.10
  -5  -5   8    0.69    1.97
  -5  -5   8    0.65    1.50
  -5  -5   8   -0.09    2.00
   5   5  -7   -0.51    0.97
  -5  -5   7    1.44    2.60
  -5  -5   7    1.53    1.35
  -5  -5   7   -1.06    1.66
  -5  -5   6    3.40    5.06
  -5  -5   6    2.83    2.46
  -5  -5   6    3.73    3.01
  -5  -5   5    7.42    4.34
  -5  -5   5    1.56    2.18
  -5  -5   5    0.10    4.38
  -5  -5   4    5.07    1.85
  -5  -5   4   -0.66    1.04
  -5  -5   4    1.30    3.04
  -5  -5   4   -0.67    1.42
  -5  -5   3    8.08    5.55
  -5  -5   3    6.52    2.80
  -5  -5   3    8.90    2.76
  -5  -5   3   -0.53    5.59
  -5  -5   2    5.32    3.01
  -5  -5   2    4.94    2.17
  -5  -5   2   -0.25    2.92
  -5  -5   2    4.68    2.41
  -5  -5   1    3.12    1.54
  -5  -5   1    0.58    1.44
  -5  -5   1    0.16    1.73
  -5  -5   1   -0.48    3.35
  -5   5   1    0.91    1.58
  -5  -5   0   13.06    2.60
  -5  -5   0   11.56    3.02
  -5  -5   0   -0.49    4.77
  -5   5   0   14.39    3.38
  -5  -5   0   16.02    3.45
  -5  -5  -1   -0.40    1.45
  -5  -5  -1   -0.22    1.90
  -5   5  -1    0.10    1.48
  -5  -5  -2    1.13    1.51
  -5  -5  -2   -0.07    2.03
  -5   5  -2   -0.05    1.83
  -5  -5  -3    9.99    3.37
  -5  -5  -3    0.67    4.31
  -5   5  -3   14.75    3.73
  -5  -5  -4   -0.24    2.17
  -5  -5  -4   -0.16    1.84
  -5   5  -4    2.43    1.98
  -5  -5  -5    1.79    2.28
  -5  -5  -5    2.14    2.78
  -5   5  -5    2.15    2.62
  -5  -5  -6   35.16    6.16
  -5  -5  -6   42.02   11.50
  -5   5  -6   45.08    6.87
  -5  -5  -7    0.48    1.88
  -5  -5  -7   -0.76    2.14
  -5   5  -7    2.06    1.74
   5  -5   8    0.17    1.19
   5  -5   8   -1.10    1.45
  -5  -5  -8    2.08    1.61
  -5  -5  -8    5.71    2.94
   5  -5   9    1.06    1.33
   5  -5   9    0.53    0.91
  -5  -5  -9    2.88    1.50
  -5  -5  -9   -3.00    2.03
  -5  -6   9    0.02    1.15
  -5  -6   9   10.17    1.91
  -5  -6   8    3.10    1.55
  -5  -6   8    2.45    1.76
  -5  -6   8    2.83    1.80
  -5  -6   7    5.37    2.57
  -5  -6   7    0.92    2.24
  -5  -6   7    3.59    2.14
  -5  -6   6    1.13    1.77
  -5  -6   6    0.16    1.14
  -5  -6   6   -1.77    1.49
  -5  -6   5    3.75    3.01
  -5  -6   5    3.94    1.99
  -5  -6   5    3.36    4.18
  -5  -6   4    1.26    2.21
  -5  -6   4    0.46    1.34
  -5  -6   4    0.50    3.00
  -5  -6   3    7.76    3.06
  -5  -6   3    3.88    2.56
  -5  -6   3    1.55    2.79
  -5  -6   2    3.83    2.38
  -5  -6   2    1.98    1.89
  -5  -6   2    1.96    4.37
  -5  -6   1   -0.20    1.12
  -5  -6   1    1.46    1.17
  -5  -6   1    3.03    3.53
  -5  -6   0    0.77    1.64
  -5   6   0   -0.47    0.98
  -5  -6  -1    2.25    4.46
  -5   6  -1    2.74    1.87
  -5  -6  -2   -0.51    3.08
  -5   6  -2    0.51    1.42
  -5  -6  -3   -0.10    2.12
  -5  -6  -3   -1.47    1.48
  -5   6  -3   -0.38    1.64
  -5  -6  -4   -0.55    1.50
  -5  -6  -4   -0.37    1.91
  -5  -6  -5    2.46    1.87
  -5  -6  -5    2.07    4.02
   5  -6   6    9.51    2.48
  -5  -6  -6    6.36    2.27
  -5  -6  -6   10.49    5.19
   5  -6   7    0.23    1.16
  -5  -6  -7    3.20    1.34
  -5  -6  -7    1.74    1.89
  -5  -7   4    2.34    1.61
  -5  -7   3    1.68    2.62
  -5  -7   2    2.82    3.16
  -5  -7   1    1.84    2.22
  -5  -7   1    0.11    0.55
  -5  -7   0    8.82    1.87
  -5  -7   0   -0.34    0.61
  -5  -7  -1    0.03    0.86
  -5  -7  -1    3.18    2.25
  -5  -7  -2    4.85    2.28
  -5  -7  -3    2.99    2.09
  -5  -7  -4    1.12    1.47
  -6   0  14    4.50    1.82
   6   0 -13    0.80    1.49
   6   0 -13    0.49    1.16
   6   0 -13    0.16    1.01
  -6   0  13    0.59    1.66
   6   0 -12    3.51    3.92
   6   0 -12    6.44    4.23
  -6   0  12    8.75    3.75
   6   0 -11    3.19    3.41
   6   0 -11    1.84    2.61
  -6   0  11    7.39    3.99
   6   0 -10    2.57    3.59
   6   0 -10    1.29    2.97
  -6   0  10    3.01    2.81
   6   0  -9    6.54    5.66
   6   0  -9    3.35    2.41
  -6   0   9   12.97    4.10
   6   0  -8   16.25    5.75
  -6   0   8   18.94    5.40
   6   0  -7    0.46    1.76
  -6   0   7    0.52    1.71
  -6   0   7    0.15    1.11
   6   0  -6   -0.06    1.68
  -6   0   6   -0.37    1.84
  -6   0   6    1.38    1.39
  -6   0   6    0.14    1.14
   6   0  -5    0.24    0.76
   6   0  -5    0.52    1.62
  -6   0   5   -0.46    1.27
  -6   0   5   -0.85    1.05
  -6   0   5   -0.34    0.77
  -6   0   5    0.54    1.32
   6   0  -4    4.03    1.29
   6   0  -4    1.62    1.18
   6   0  -4   -0.04    0.83
  -6   0   4    3.66    2.30
  -6   0   4    1.85    1.21
  -6   0   4    2.03    1.53
  -6   0   4    1.06    0.97
   6   0  -3   10.76    3.29
   6   0  -3   13.05    2.13
   6   0  -3   11.68    1.98
   6   0  -3    7.41    1.25
  -6   0   3   12.00    3.51
  -6   0   3   12.21    2.63
  -6   0   3    7.77    2.25
  -6   0   3   11.69    2.34
   6   0  -2    4.84    2.14
   6   0  -2    4.96    1.41
   6   0  -2    7.45    1.95
  -6   0   2    4.91    1.86
  -6   0   2    8.15    2.11
  -6   0   2    7.63    2.40
  -6   0   2    9.06    2.36
   6   0  -1   37.54    4.09
   6   0  -1   34.51    3.61
   6   0  -1   40.11    4.05
  -6   0   1   28.72    3.08
  -6   0   1   27.08    3.66
  -6   0   1   36.19    4.91
  -6   0   1   30.95    2.07
   6   0   0    7.59    2.20
   6   0   0    4.87    1.91
   6   0   0    5.15    1.89
  -6   0   0    3.81    1.54
  -6   0   0    6.61    2.62
  -6   0   0    4.49    2.28
  -6   0   0    3.08    0.83
   6   0   1    2.33    1.41
   6   0   1    2.43    1.27
   6   0   1    1.79    1.75
  -6   0  -1    0.68    0.67
  -6   0  -1    2.86    1.47
  -6   0  -1    1.29    1.70
  -6   0  -1    1.69    1.61
   6   0   2    0.77    0.74
   6   0   2    2.33    1.33
   6   0   2    0.95    1.23
  -6   0  -2    0.07    1.23
  -6   0  -2    0.16    1.62
  -6   0  -2   -0.52    1.22
  -6   0  -2    0.26    0.82
   6   0   3    2.97    1.71
  -6   0  -3    1.87    1.29
  -6   0  -3    4.05    1.64
  -6   0  -3    2.44    1.90
  -6   0  -3    1.65    1.67
   6   0   4   19.00    3.30
  -6   0  -4   14.88    2.46
  -6   0  -4   31.82    3.81
  -6   0  -4   21.29    4.02
  -6   0  -4   18.95    3.50
   6   0   5   16.67    4.36
  -6   0  -5   14.80    2.55
  -6   0  -5    9.61    2.89
   6   0   6   87.86    7.75
  -6   0  -6   81.13    7.78
  -6   0  -6   50.42    6.46
   6   0   7    4.73    2.17
  -6   0  -7    0.09    1.14
   6   0   8    0.84    1.96
   6   0   9   10.94    3.73
   6   0  10    1.00    2.40
   6   0  11    1.00    1.77
   6   0  12    0.44    1.18
  -6  -1  14   -0.04    0.63
  -6   1  14    0.12    0.67
   6   1 -13    1.83    1.18
  -6   1  13   -0.58    1.74
  -6  -1  13    1.51    1.72
   6   1 -12   -0.99    2.30
   6   1 -12    1.46    1.43
  -6   1  12   -0.61    2.56
  -6  -1  12    0.18    1.89
   6   1 -11    2.74    3.49
   6   1 -11   -0.72    2.01
  -6   1  11    3.05    2.39
  -6  -1  11    2.34    2.73
   6   1 -10   38.18    8.53
   6   1 -10    1.03    9.63
  -6  -1  10   32.46    6.67
  -6   1  10   37.78    6.50
   6   1  -9    6.63    3.83
   6   1  -9    1.03    2.65
  -6   1   9    3.54    3.17
  -6  -1   9    2.29    2.88
   6   1  -8    8.79    3.89
   6   1  -8    0.85    4.31
  -6  -1   8    3.40    3.06
  -6   1   8    8.17    2.84
  -6  -1   8    4.13    2.43
  -6  -1   8    1.34    1.94
   6   1  -7    7.04    4.01
   6   1  -7    1.86    3.25
  -6   1   7    5.05    3.40
  -6  -1   7    2.81    3.27
  -6  -1   7    4.21    1.97
  -6  -1   7    4.06    2.12
   6   1  -6    5.35    2.64
   6   1  -6    0.10    2.18
  -6  -1   6    3.84    2.32
  -6   1   6    0.58    2.11
  -6  -1   6    0.05    1.60
  -6  -1   6    3.70    1.73
  -6   1   6    0.32    1.28
   6   1  -5   -0.04    1.64
  -6   1   5    7.60    2.31
  -6  -1   5    5.50    2.00
  -6  -1   5    6.08    2.24
  -6  -1   5    3.44    2.57
  -6   1   5    4.73    1.76
   6  -1  -4   11.80    1.90
   6  -1  -4   11.93    2.11
   6   1  -4    0.03    3.05
  -6   1   4   13.97    2.78
  -6  -1   4   11.70    3.22
  -6  -1   4    8.58    4.15
  -6   1   4   10.62    2.87
  -6  -1   4   18.61    3.05
  -6   1   4   15.66    2.56
  -6  -1   4    6.82    3.07
  -6  -1   4   14.47    3.37
   6  -1  -3   13.87    2.50
   6   1  -3    9.32    2.68
   6   1  -3   16.22    2.06
   6   1  -3   11.66    2.98
   6  -1  -3   10.13    1.58
   6  -1  -3   17.34    2.59
   6   1  -3   -0.09    2.93
  -6  -1   3   12.25    2.42
  -6   1   3   10.32    2.28
  -6  -1   3   12.46    2.96
  -6  -1   3   15.31    2.47
  -6   1   3   13.94    2.22
  -6  -1   3   19.16    3.20
  -6   1   3    9.82    2.80
  -6  -1   3   14.95    2.01
   6  -1  -2   26.29    4.13
   6   1  -2   28.10    3.86
   6   1  -2   27.71    3.74
   6   1  -2   29.53    3.32
   6  -1  -2   27.05    4.15
   6  -1  -2   26.71    2.34
   6   1  -2   20.96    2.73
  -6  -1   2   28.11    3.49
  -6  -1   2   26.05    3.67
  -6   1   2   25.79    4.28
  -6  -1   2   26.64    4.22
  -6  -1   2   31.16    3.97
  -6   1   2   29.74    3.95
  -6  -1   2   22.35    3.57
  -6   1   2   27.03    3.06
   6  -1  -1    5.30    1.94
   6   1  -1    7.88    2.31
   6   1  -1    8.12    2.30
   6   1  -1    7.26    1.87
   6  -1  -1    5.22    2.60
   6  -1  -1    3.77    1.86
   6  -1  -1    5.69    1.76
   6   1  -1    6.23    1.29
  -6  -1   1    7.49    2.33
  -6  -1   1    6.66    3.39
  -6   1   1    5.70    2.57
  -6  -1   1    6.39    2.53
  -6  -1   1    5.53    1.32
  -6   1   1    6.88    2.53
   6  -1   0   14.27    2.38
   6   1   0   11.67    2.88
   6   1   0   13.78    1.94
   6   1   0   12.26    2.06
   6  -1   0   11.32    4.16
   6  -1   0   12.51    2.48
   6   1   0   12.01    2.63
   6  -1   0    8.98    2.37
  -6  -1   0   12.79    2.82
  -6   1   0   10.93    3.37
  -6  -1   0   14.22    4.19
  -6  -1   0   11.11    2.78
  -6   1   0   10.95    2.82
  -6  -1   0   11.01    1.72
   6   1   1    0.83    1.40
   6   1   1    1.36    0.83
   6   1   1   -0.13    0.92
   6  -1   1    0.59    1.25
   6  -1   1   -0.11    1.11
   6  -1   1    0.17    0.90
   6   1   1   -0.08    1.05
  -6  -1  -1    0.30    1.04
  -6   1  -1    0.71    1.05
  -6  -1  -1    0.06    1.91
  -6  -1  -1    0.04    1.27
  -6   1  -1   -1.36    1.28
  -6  -1  -1   -0.07    0.68
   6   1   2   27.06    3.00
   6   1   2   26.01    3.59
   6  -1   2   21.61    3.19
  -6  -1  -2   23.36    2.56
  -6  -1  -2   26.25    3.72
  -6   1  -2   37.33    6.00
  -6  -1  -2   28.91    3.53
  -6  -1  -2   30.13    5.25
  -6   1  -2   23.79    4.57
   6   1   3    1.02    1.22
   6   1   3    3.63    1.69
   6  -1   3    2.65    2.05
  -6  -1  -3    1.96    1.62
  -6   1  -3    3.48    1.69
  -6  -1  -3    1.91    1.28
  -6  -1  -3    3.46    1.68
  -6  -1  -3    4.13    2.20
  -6   1  -3    1.81    1.91
   6   1   4   10.04    2.44
   6  -1   4    3.93    2.05
  -6  -1  -4   10.38    3.35
  -6   1  -4   10.69    2.43
  -6  -1  -4    4.13    2.49
  -6   1  -4    7.09    2.83
  -6  -1  -4    7.39    1.95
   6   1   5    5.42    2.43
   6  -1   5    2.84    1.86
  -6  -1  -5    3.83    2.01
  -6  -1  -5   -0.67    1.99
  -6   1  -5    6.55    1.69
  -6   1  -5    4.14    2.50
   6   1   6  188.22   14.35
   6  -1   6  173.51   12.36
  -6  -1  -6  170.03   12.79
  -6  -1  -6  190.85   13.44
  -6   1  -6  189.86   12.74
  -6   1  -6  148.47   12.74
   6   1   7   43.66    6.04
   6  -1   7   33.92    4.35
  -6  -1  -7   20.78    3.57
  -6  -1  -7   25.16    4.65
  -6   1  -7   23.42    5.31
   6  -1   8    0.91    1.62
   6   1   8   -0.16    1.88
  -6  -1  -8    0.37    1.57
   6   1   9    0.66    2.53
   6  -1   9    3.34    2.40
  -6  -1  -9    2.02    2.60
   6   1  10   15.94    3.90
   6  -1  10   11.45    3.42
  -6  -1 -10   12.59    3.71
   6   1  11    2.57    1.79
   6  -1  11    0.07    1.37
  -6  -1 -11    2.76    1.62
   6   1  12    0.13    2.15
   6  -1  12    2.68    1.04
   6   2 -13    8.19    1.36
  -6   2  13    5.95    1.42
  -6  -2  13    0.30    1.41
   6   2 -12    6.93    2.12
  -6   2  12    4.81    2.17
  -6  -2  12    2.79    2.48
   6   2 -11    0.01    1.40
  -6   2  11    0.93    1.48
  -6  -2  11   -0.41    1.60
   6   2 -10    9.85    5.19
  -6   2  10   -0.71    4.08
  -6  -2  10    7.65    3.44
   6   2  -9   11.93    5.52
  -6   2   9    1.90    3.40
  -6  -2   9    6.68    3.62
  -6  -2   9    7.98    2.37
  -6  -2   9    5.02    2.64
   6   2  -8    9.17    4.70
  -6   2   8   -0.64    3.51
  -6  -2   8    4.57    3.06
  -6  -2   8    5.81    4.32
  -6  -2   8    2.63    2.07
   6   2  -7    0.74    1.31
  -6   2   7   -0.08    1.39
  -6  -2   7    0.02    1.50
  -6  -2   7   -1.70    1.63
  -6  -2   7    0.81    1.37
   6   2  -6    1.35    2.20
  -6   2   6   -0.34    1.37
  -6  -2   6    1.54    1.57
  -6  -2   6   -0.69    2.87
  -6  -2   6   -0.14    1.75
   6   2  -5   -1.49    1.65
  -6  -2   5   -0.15    1.36
  -6   2   5    0.37    1.00
  -6  -2   5    0.64    1.61
  -6  -2   5    0.74    1.52
  -6   2   5    0.03    0.89
   6   2  -4   -0.11    1.06
  -6   2   4   -0.02    0.79
  -6  -2   4    0.58    1.15
  -6  -2   4    2.62    1.57
  -6  -2   4   -3.09    1.48
  -6   2   4    0.55    0.96
   6  -2  -3    1.80    1.37
   6  -2  -3    1.64    1.27
   6   2  -3    0.11    2.18
  -6  -2   3    2.22    1.62
  -6   2   3    2.29    1.16
  -6  -2   3    2.01    1.82
  -6  -2   3    4.27    2.10
  -6   2   3    2.48    1.78
  -6   2   3    2.62    1.56
  -6  -2   3    2.81    2.66
   6  -2  -2   17.62    2.52
   6  -2  -2   19.18    3.61
   6  -2  -2   15.45    1.57
   6   2  -2   -0.36    4.60
  -6  -2   2   23.69    3.83
  -6  -2   2   26.25    3.57
  -6   2   2   19.53    3.67
  -6  -2   2   25.34    2.80
  -6   2   2   18.54    3.34
  -6  -2   2   25.03    2.94
   6  -2  -1    3.44    1.39
   6  -2  -1    3.86    2.65
   6   2  -1    2.74    2.00
   6  -2  -1    4.42    1.32
  -6  -2   1    4.70    2.84
  -6   2   1    5.75    1.53
  -6  -2   1    4.03    2.31
  -6  -2   1   -0.03    2.19
  -6  -2   1    4.79    1.60
  -6   2   1    3.00    2.16
  -6  -2   1    4.75    2.75
   6  -2   0    0.76    1.12
   6   2   0    1.33    1.45
   6  -2   0    0.49    0.75
  -6  -2   0    1.94    1.34
  -6   2   0    0.47    1.39
  -6  -2   0   -0.08    1.28
  -6  -2   0    0.04    1.42
  -6   2   0   -0.85    1.42
  -6  -2   0   -0.09    1.75
  -6  -2   0    0.66    1.40
   6  -2   1   11.83    1.99
   6   2   1   11.68    2.54
   6  -2   1    6.61    2.27
  -6  -2  -1   18.47    2.88
  -6   2  -1   17.11    3.70
  -6  -2  -1    9.76    2.67
  -6  -2  -1   -0.03    3.20
  -6  -2  -1    8.99    2.18
  -6   2  -1    9.33    2.90
  -6  -2  -1   18.04    2.60
   6   2   2    1.34    1.53
   6  -2   2    1.41    1.52
  -6  -2  -2    2.25    1.57
  -6  -2  -2    1.66    1.55
  -6   2  -2    1.87    1.36
  -6  -2  -2    2.66    1.57
  -6  -2  -2   -0.13    1.96
  -6   2  -2    4.18    2.23
  -6  -2  -2    2.83    1.45
   6   2   3   13.61    3.77
   6  -2   3    5.61    2.29
  -6  -2  -3   13.25    3.74
  -6   2  -3   13.67    2.18
  -6  -2  -3    9.04    2.75
  -6  -2  -3    7.65    2.28
  -6  -2  -3   10.96    4.15
  -6   2  -3   14.99    4.33
   6   2   4    0.31    1.38
   6  -2   4    0.07    0.92
  -6  -2  -4   -1.32    1.11
  -6   2  -4    1.12    2.01
  -6  -2  -4    0.87    1.09
  -6  -2  -4    0.30    1.23
  -6   2  -4    3.03    1.81
   6   2   5   14.15    2.83
   6  -2   5    7.19    1.97
  -6  -2  -5   10.67    2.86
  -6  -2  -5    1.88    2.14
  -6   2  -5   15.15    3.29
   6   2   6   30.89    4.83
   6  -2   6   20.73    3.71
  -6  -2  -6   33.24    4.70
  -6   2  -6   33.10    5.35
   6  -2   7    0.04    1.57
   6   2   7   -0.22    1.88
  -6  -2  -7    0.37    1.74
  -6   2  -7    1.28    1.58
   6  -2   8    1.56    1.23
   6   2   8   -0.09    1.80
  -6  -2  -8    0.52    1.84
  -6   2  -8   -0.58    1.46
   6   2   9    8.13    3.96
  -6  -2  -9    5.93    3.15
   6  -2  10    3.11    1.40
   6   2  10    3.74    2.23
  -6  -2 -10    3.38    2.70
   6  -2  11   -0.01    0.50
   6   2  11    1.86    1.83
  -6  -2 -11    3.22    1.50
   6   2  12    0.16    0.80
   6   3 -13    1.78    0.77
   6   3 -12    1.44    1.92
  -6  -3  12    0.73    0.60
   6   3 -11    0.04    1.84
  -6  -3  11    0.50    0.94
  -6  -3  11    2.34    1.16
  -6  -3  11   -0.35    0.84
   6   3 -10   28.17    3.43
  -6  -3  10   14.66    3.57
  -6  -3  10   16.83    4.71
  -6  -3  10    7.12    3.61
   6   3  -9   -0.56    1.75
  -6  -3   9    1.86    1.72
  -6  -3   9    5.27    2.49
  -6  -3   9    2.08    2.04
   6   3  -8   -0.31    1.54
  -6  -3   8    0.44    1.48
  -6  -3   8    2.34    3.33
  -6  -3   8    2.50    2.09
   6   3  -7   -0.81    1.77
  -6  -3   7    1.80    1.94
  -6  -3   7    4.49    2.65
  -6  -3   7    3.74    2.58
   6   3  -6    2.22    1.98
  -6  -3   6    0.83    1.56
  -6  -3   6    1.49    2.56
  -6  -3   6    1.16    1.82
   6   3  -5    0.01    1.24
  -6  -3   5   -0.17    1.11
  -6  -3   5    1.98    1.88
  -6  -3   5    0.08    1.39
   6   3  -4    2.02    1.81
  -6  -3   4    3.97    4.23
  -6  -3   4    2.77    1.98
   6   3  -3   10.05    2.37
   6   3  -3    6.34    2.80
  -6  -3   3    6.35    3.84
  -6  -3   3    7.73    3.54
  -6   3   3    5.83    3.37
   6   3  -2   17.61    3.23
  -6  -3   2   20.07    2.46
  -6  -3   2   21.49    3.93
  -6  -3   2   26.41    4.95
  -6  -3   2   22.80    3.64
  -6   3   2   22.34    4.12
   6   3  -1    2.58    1.38
  -6  -3   1   -0.29    2.39
  -6  -3   1   -0.37    1.33
  -6  -3   1    0.33    1.38
  -6   3   1    0.36    0.79
  -6  -3   1    0.60    1.26
  -6   3   1    0.34    1.65
   6   3   0   16.87    3.21
  -6  -3   0   22.65    3.62
  -6  -3   0   25.00    3.84
  -6  -3   0   21.31    4.10
  -6   3   0   23.36    2.64
  -6  -3   0   26.25    5.31
  -6   3   0   22.11    4.68
   6   3   1   -0.65    1.26
  -6  -3  -1    2.13    1.45
  -6  -3  -1    1.69    1.52
  -6  -3  -1    1.44    1.54
  -6  -3  -1    1.27    1.45
  -6   3  -1    0.28    2.13
   6   3   2    8.66    2.79
  -6  -3  -2    7.98    2.35
  -6  -3  -2   -0.30    1.73
  -6  -3  -2    5.12    1.91
  -6  -3  -2    3.35    3.26
  -6   3  -2    7.03    3.15
   6   3   3   15.45    2.81
  -6  -3  -3    8.61    3.03
  -6  -3  -3   -0.16    3.88
  -6  -3  -3   13.72    3.33
  -6   3  -3   15.70    4.01
   6   3   4    6.51    2.22
  -6  -3  -4    0.94    2.84
  -6  -3  -4    3.37    3.85
  -6  -3  -4    5.46    2.60
  -6   3  -4    9.05    3.28
   6   3   5   -0.31    1.24
  -6  -3  -5    0.28    1.40
  -6   3  -5   -0.07    1.78
  -6  -3  -5    0.76    1.42
   6   3   6  136.84   12.85
  -6  -3  -6  137.76   13.24
  -6  -3  -6  140.22   17.67
  -6   3  -6  133.93   13.83
   6   3   7   13.83    3.81
  -6  -3  -7   16.28    4.43
  -6   3  -7   14.67    4.01
   6   3   8    0.49    1.56
  -6  -3  -8   -0.31    1.92
  -6  -3  -8    1.79    2.64
  -6   3  -8    0.74    1.50
   6   3   9    0.71    1.85
   6  -3   9    0.13    1.18
  -6  -3  -9    0.72    2.02
  -6   3  -9    0.96    1.25
   6  -3  10    3.28    1.07
   6   3  10    0.59    1.78
  -6  -3 -10    4.06    2.07
  -6  -3 -10    2.64    2.71
   6   3  11    0.48    0.72
   6  -3  11   -0.01    0.43
  -6  -3 -11    0.40    1.55
   6   4 -11   -1.37    1.13
  -6  -4  11    1.65    1.16
  -6  -4  11    1.07    0.68
   6   4 -10    2.16    1.48
  -6  -4  10   -0.06    2.40
  -6  -4  10    1.88    1.62
   6   4  -9    1.24    2.30
  -6  -4   9    8.31    5.05
  -6  -4   9    9.55    2.67
   6   4  -8    0.37    2.31
  -6  -4   8    7.09    5.17
  -6  -4   8   10.18    3.12
   6   4  -7   -0.53    1.76
  -6  -4   7    0.51    2.62
  -6  -4   7    3.40    1.80
   6   4  -6    1.14    3.11
  -6  -4   6   -0.02    2.74
  -6  -4   6   -2.97    1.95
   6   4  -5    0.14    3.22
  -6  -4   5    1.75    2.89
  -6  -4   5    2.12    1.99
  -6  -4   4   10.48    5.26
  -6  -4   4   12.51    2.37
  -6  -4   4    0.39    2.74
  -6  -4   4   -0.62    1.49
  -6  -4   3    0.76    3.11
  -6  -4   3    1.68    1.82
  -6  -4   3   -0.35    2.44
  -6  -4   3   -0.61    1.46
  -6  -4   2    1.39    2.77
  -6  -4   2    2.40    1.80
  -6  -4   2    1.28    2.20
  -6  -4   2   -0.22    1.90
  -6   4   2    1.41    1.52
  -6  -4   1    5.84    2.29
  -6  -4   1    0.25    3.06
  -6  -4   1    5.83    2.47
  -6  -4   1    0.29    2.52
  -6   4   1    3.67    2.19
  -6  -4   0    0.42    1.66
  -6  -4   0    2.63    1.85
  -6  -4   0    1.20    1.83
  -6  -4   0    0.06    3.12
  -6   4   0    1.48    1.86
  -6  -4  -1    1.19    1.51
  -6  -4  -1    0.62    1.52
  -6  -4  -1   -0.17    2.03
  -6   4  -1    0.70    2.09
  -6  -4  -1    2.15    1.84
  -6  -4  -2    0.49    1.66
  -6  -4  -2   -0.39    1.95
  -6  -4  -2    0.55    1.77
  -6   4  -2    2.68    2.07
  -6  -4  -3   -0.28    1.83
  -6  -4  -3    1.84    1.98
  -6   4  -3    0.09    2.13
  -6  -4  -4    2.31    3.80
  -6  -4  -4    2.40    2.37
  -6   4  -4    1.47    3.18
   6   4   5    3.29    1.88
  -6  -4  -5    6.46    3.07
  -6  -4  -5    7.47    3.10
  -6   4  -5    6.56    3.32
   6   4   6   11.47    3.03
  -6  -4  -6   18.40    4.36
  -6  -4  -6   18.89    4.31
  -6   4  -6   16.99    4.68
   6   4   7    1.61    1.70
   6  -4   7    1.58    1.06
  -6  -4  -7    2.60    2.36
  -6   4  -7    2.53    2.14
   6  -4   8   -0.37    0.72
   6   4   8    0.44    0.80
  -6  -4  -8    0.23    1.53
  -6  -4  -8   -0.55    1.91
  -6   4  -8    0.95    1.27
   6  -4   9    1.58    1.06
   6  -4   9    0.76    1.32
   6   4   9    0.50    0.66
  -6  -4  -9    0.26    1.64
   6  -4  10    0.74    0.64
  -6  -4 -10    0.69    1.50
  -6  -5  10   -0.34    1.95
  -6  -5  10    3.83    1.19
  -6  -5  10   13.08    1.86
  -6  -5   9   -0.41    1.38
  -6  -5   9    0.97    1.22
  -6  -5   9    3.63    2.38
  -6  -5   8    0.10    1.43
  -6  -5   8    0.35    1.53
  -6  -5   8    1.31    1.73
  -6  -5   7    4.50    4.95
  -6  -5   7    2.96    2.87
  -6  -5   7    3.57    4.10
  -6  -5   6    0.95    4.09
  -6  -5   6    1.55    2.34
  -6  -5   6    0.31    3.09
  -6  -5   5    3.16    4.89
  -6  -5   5    2.89    2.86
  -6  -5   5    1.85    3.94
  -6  -5   4    8.19    2.85
  -6  -5   4    4.44    3.54
  -6  -5   4    4.62    3.22
  -6  -5   3    0.38    2.55
  -6  -5   3   -1.31    1.90
  -6  -5   3    0.80    2.73
  -6  -5   2    9.18    4.00
  -6  -5   2    8.53    3.11
  -6  -5   2    3.47    5.16
  -6  -5   1    2.25    1.96
  -6  -5   1    0.52    1.85
  -6  -5   1    4.26    2.80
  -6  -5   1    5.48    2.21
  -6   5   1    2.65    1.97
  -6  -5   0    6.47    2.80
  -6  -5   0    3.08    3.12
  -6  -5   0    6.17    2.04
  -6  -5   0    5.21    5.06
  -6   5   0    1.17    2.45
  -6  -5  -1    0.73    3.50
  -6   5  -1    1.71    2.00
  -6  -5  -2   10.05    6.01
  -6   5  -2    9.07    3.57
  -6  -5  -3    3.91    4.67
  -6  -5  -3    1.63    2.23
  -6   5  -3    2.32    2.44
  -6  -5  -4    0.84    3.70
  -6  -5  -4    2.94    2.14
  -6   5  -4    1.22    2.36
  -6  -5  -5    1.19    1.94
  -6  -5  -5    0.03    3.01
  -6   5  -5    0.31    1.97
  -6  -5  -6   45.87    6.61
  -6  -5  -6   69.22    7.49
  -6   5  -6   57.73    7.24
   6  -5   7    1.02    1.22
  -6  -5  -7    5.59    2.11
  -6  -5  -7    9.14    3.47
  -6   5  -7    3.28    1.95
   6  -5   8    1.66    0.98
   6  -5   8    0.50    0.75
  -6  -5  -8   -1.01    1.55
  -6  -5  -8    1.35    1.99
  -6  -6   7    3.42    1.85
  -6  -6   7    0.13    1.48
  -6  -6   7    2.18    2.29
  -6  -6   6    0.93    1.21
  -6  -6   6   -0.32    1.30
  -6  -6   6    2.13    1.47
  -6  -6   5    1.60    1.37
  -6  -6   5   -0.20    1.39
  -6  -6   5    3.52    2.67
  -6  -6   4   -2.81    2.06
  -6  -6   4    1.00    1.42
  -6  -6   4    4.71    1.98
  -6  -6   3    1.17    1.30
  -6  -6   3    1.42    1.54
  -6  -6   3   -1.43    3.09
  -6  -6   2    4.46    2.01
  -6  -6   2    0.27    1.39
  -6  -6   2    0.56    2.30
  -6  -6   1    0.16    1.03
  -6  -6   1    1.47    1.05
  -6  -6   1    1.03    1.77
  -6  -6   0    0.34    3.15
  -6   6   0    1.09    1.09
  -6  -6  -1    0.87    1.86
  -6   6  -1    0.44    1.28
  -6  -6  -2   -0.15    1.75
  -6  -6  -2    0.89    1.43
  -6   6  -2    0.79    1.37
  -6  -6  -3    0.52    1.99
  -6  -6  -3   13.40    3.72
  -6   6  -3    3.30    1.89
  -6  -6  -4    5.51    2.07
  -6  -6  -4    5.97    2.70
  -6  -6  -5    3.15    1.65
  -6  -6  -5    2.20    2.13
   6  -6   6    6.06    1.69
  -6  -6  -6    3.24    1.65
  -6  -6  -6    9.44    3.26
  -6  -7   3    9.99    3.14
  -6  -7   2    1.88    2.45
  -6  -7   1    1.24    2.76
  -6  -7   0   13.63    5.30
  -6  -7  -1    1.46    2.20
  -7   0  13    3.06    1.57
   7   0 -12    0.99    0.82
  -7   0  12   -0.46    1.79
  -7   0  11    2.48    3.45
  -7   0  10    0.49    2.20
  -7   0   9   49.90    8.50
  -7   0   8    3.61    3.26
  -7   0   7    8.20    2.93
  -7   0   7    0.85    2.19
  -7   0   6    0.65    1.80
  -7   0   6    0.43    1.32
  -7   0   6   -0.14    1.48
  -7   0   5    1.10    1.56
  -7   0   5    1.11    1.79
  -7   0   5   -0.01    1.58
  -7   0   4   52.69    7.58
  -7   0   4   50.18    6.34
  -7   0   4   52.72    7.02
  -7   0   3    7.50    2.32
  -7   0   3    4.82    2.16
  -7   0   3    4.03    2.90
   7   0  -2    0.46    0.89
  -7   0   2    0.05    1.29
  -7   0   2    1.70    1.80
   7   0  -1   21.20    3.91
  -7   0   1   23.82    3.54
  -7   0   1   14.85    4.18
   7   0   0    1.42    1.98
  -7   0   0    1.69    1.52
  -7   0   0    0.83    1.27
   7   0   1    0.87    1.59
  -7   0  -1    0.75    2.60
  -7   0  -1    2.38    1.97
   7   0   2   -0.84    1.73
  -7   0  -2    3.30    1.62
  -7   0  -2    0.96    1.80
   7   0   3    2.55    1.92
  -7   0  -3    0.57    1.74
  -7   0  -3    1.06    1.85
   7   0   4    0.10    1.48
  -7   0  -4    1.02    1.34
  -7   0  -4   -0.34    1.29
   7   0   5    2.40    2.52
  -7   0  -5    4.72    2.12
  -7   0  -5    1.87    2.12
   7   0   6    2.09    2.41
  -7   0  -6    4.09    1.64
  -7   0  -6    2.07    2.04
   7   0   7    0.68    2.09
   7   0   8    0.87    1.93
   7   0   9    3.10    3.09
   7   0  10    1.57    1.93
   7   0  11   21.72    3.38
  -7  -1  13    0.37    1.25
  -7   1  13    0.14    0.84
   7   1 -12   -0.52    1.15
  -7   1  12   -0.44    1.46
  -7  -1  12   -0.36    1.31
   7   1 -11    3.21    2.35
  -7   1  11    1.15    2.43
  -7  -1  11    2.72    2.50
   7   1 -10   -0.16    1.31
  -7  -1  10    1.78    2.16
  -7   1  10    1.52    1.96
   7   1  -9    3.00    1.85
  -7  -1   9    5.49    3.19
  -7   1   9    2.33    2.97
   7   1  -8   -0.02    1.15
  -7  -1   8   -0.41    1.83
  -7   1   8   -1.09    1.70
  -7  -1   8    0.32    1.24
   7   1  -7   23.54    3.28
  -7   1   7   27.87    4.90
  -7  -1   7   17.06    5.30
  -7  -1   7   16.52    3.52
  -7  -1   7   11.91    3.82
   7   1  -6    0.03    0.94
  -7  -1   6    1.65    1.83
  -7   1   6    0.34    2.07
  -7  -1   6   -0.13    1.32
  -7  -1   6    0.95    1.43
  -7   1   6   -0.03    1.10
   7   1  -5   22.17    3.16
  -7  -1   5   20.66    4.30
  -7   1   5   23.67    4.56
  -7  -1   5   17.27    3.89
  -7  -1   5   21.16    4.60
  -7   1   5   20.43    3.93
  -7   1   4   80.56    7.43
  -7  -1   4   72.68    7.61
  -7   1   4   65.44    7.91
  -7  -1   4   84.65    7.54
  -7  -1   4   73.45    8.08
  -7   1   4   65.48    7.57
   7   1  -3   -0.01    0.97
  -7   1   3    2.36    1.84
  -7  -1   3    0.33    1.66
  -7   1   3    0.69    2.06
  -7  -1   3    2.37    1.67
  -7  -1   3    2.83    1.84
  -7   1   3    3.55    1.84
   7  -1  -2    0.18    1.51
   7   1  -2    2.69    1.18
  -7  -1   2    0.94    2.89
  -7   1   2    2.01    1.51
  -7  -1   2    0.91    1.41
  -7  -1   2    2.10    2.11
  -7   1   2    2.73    1.83
   7  -1  -1    1.57    1.60
   7   1  -1    3.57    1.86
  -7  -1   1    1.50    1.50
  -7   1   1    1.64    1.51
  -7  -1   1    0.88    2.16
  -7   1   1    4.46    2.13
  -7  -1   1    1.20    1.10
   7  -1   0    0.54    1.70
   7   1   0    6.35    2.08
  -7  -1   0   -0.12    1.62
  -7   1   0    1.48    1.52
  -7  -1   0    0.03    2.06
  -7   1   0    2.70    2.02
  -7  -1   0    0.96    1.30
   7   1   1    1.70    2.02
   7  -1   1    1.29    1.77
  -7  -1  -1    1.99    1.21
  -7  -1  -1    4.82    2.19
  -7   1  -1    5.01    1.94
  -7  -1  -1    4.78    2.20
  -7   1  -1    5.81    2.56
   7   1   2    8.41    2.75
   7  -1   2    5.69    2.23
  -7  -1  -2    8.54    3.94
  -7   1  -2   14.49    4.34
  -7  -1  -2    4.62    1.96
  -7  -1  -2    8.42    2.90
  -7   1  -2   10.59    3.21
   7   1   3    9.96    3.29
   7  -1   3    5.79    2.10
  -7  -1  -3    5.54    3.97
  -7   1  -3    9.23    2.36
  -7  -1  -3    7.10    2.51
  -7   1  -3    7.33    2.87
  -7  -1  -3    6.05    2.61
   7   1   4    3.01    2.94
   7  -1   4    1.18    1.68
  -7  -1  -4    2.24    1.66
  -7  -1  -4    2.25    1.94
  -7   1  -4    2.14    2.58
  -7  -1  -4    4.06    1.85
  -7   1  -4    2.22    2.47
   7   1   5    2.10    2.26
   7  -1   5    2.40    1.65
  -7  -1  -5    1.38    2.04
  -7  -1  -5   -0.22    1.60
  -7   1  -5    1.11    2.16
  -7   1  -5    1.19    2.16
   7   1   6   71.64    7.98
   7  -1   6   65.71    6.67
  -7  -1  -6   48.44    6.87
  -7  -1  -6   71.16    5.89
  -7   1  -6   51.45    6.97
   7   1   7   -0.27    1.93
   7  -1   7    1.71    1.36
  -7  -1  -7   -0.08    1.29
  -7  -1  -7    0.15    1.51
  -7   1  -7   -0.59    1.29
   7  -1   8    0.59    1.98
   7   1   8   -1.23    1.86
  -7  -1  -8   -0.45    1.57
   7   1   9    5.58    2.68
   7  -1   9    4.17    2.12
  -7  -1  -9    3.79    2.30
   7   1  10    3.15    1.54
   7  -1  10    2.77    1.08
   7  -1  10   -0.02    0.44
  -7  -1 -10    0.63    1.00
   7   1  11    0.50    1.36
   7  -1  11   -0.15    0.59
   7   2 -12    0.95    0.93
  -7   2  12    1.28    0.87
  -7  -2  12   -0.23    1.09
   7   2 -11   10.08    2.14
  -7   2  11    2.86    2.38
  -7  -2  11    2.47    2.55
   7   2 -10    0.01    1.13
  -7   2  10    1.38    1.46
  -7  -2  10   -0.02    1.46
   7   2  -9   30.21    3.37
  -7   2   9   25.12    4.17
  -7  -2   9    8.81    5.35
  -7  -2   9    9.11    4.86
  -7  -2   9    7.52    3.53
   7   2  -8    0.03    1.62
  -7   2   8    5.19    2.01
  -7  -2   8    0.96    2.59
  -7  -2   8    0.77    2.07
   7   2  -7    1.67    3.36
  -7  -2   7    3.69    2.45
  -7   2   7    3.39    1.98
  -7  -2   7    5.32    2.15
  -7  -2   7    2.56    2.46
   7   2  -6    1.33    1.35
  -7  -2   6   -0.36    1.67
  -7   2   6    0.19    1.27
  -7  -2   6    1.57    2.17
  -7  -2   6   -1.66    1.74
   7   2  -5   -0.32    1.39
  -7  -2   5    2.56    2.17
  -7   2   5    0.16    1.26
  -7  -2   5    1.09    1.63
  -7  -2   5    1.42    2.08
  -7   2   5    1.33    1.30
   7   2  -4   35.45    7.27
  -7  -2   4   42.86    5.34
  -7   2   4   32.19    4.02
  -7  -2   4   50.71    5.64
  -7  -2   4   57.96    7.02
  -7   2   4   32.91    5.09
   7  -2  -3    1.44    1.23
   7   2  -3    1.43    1.15
   7   2  -3    1.53    1.29
  -7  -2   3    0.29    1.94
  -7   2   3    1.26    1.77
  -7  -2   3    2.52    2.09
  -7   2   3    0.29    1.74
  -7  -2   3    1.67    0.89
   7   2  -2   -0.10    1.25
   7  -2  -2   -1.66    1.15
  -7  -2   2   -1.68    1.27
  -7   2   2    1.43    1.35
  -7  -2   2    1.26    1.58
  -7  -2   2    0.07    1.23
  -7   2   2    2.33    1.30
   7   2  -1    3.40    2.08
   7  -2  -1    1.10    1.64
  -7  -2   1    2.13    2.00
  -7   2   1    2.63    2.06
  -7  -2   1    2.12    2.16
  -7   2   1    1.18    2.14
  -7  -2   1    4.06    2.00
   7   2   0    2.00    1.80
   7  -2   0    1.74    1.66
  -7  -2   0    2.46    3.35
  -7  -2   0    3.32    1.49
  -7   2   0    2.84    2.03
  -7  -2   0    1.65    2.09
  -7   2   0   -0.09    2.06
   7   2   1    5.27    2.38
   7  -2   1    2.94    1.54
  -7  -2  -1    5.63    2.46
  -7   2  -1    5.70    2.17
  -7  -2  -1    3.94    2.70
  -7   2  -1    7.46    3.24
  -7  -2  -1    7.37    2.03
   7   2   2    1.25    2.29
   7  -2   2    3.58    1.79
  -7  -2  -2    6.23    1.70
  -7  -2  -2    2.08    2.20
  -7   2  -2    3.29    2.69
  -7  -2  -2    2.30    2.04
  -7   2  -2    2.84    3.11
   7   2   3    5.78    2.34
   7  -2   3    1.47    1.83
  -7  -2  -3    6.14    2.20
  -7   2  -3    2.37    2.72
  -7  -2  -3    7.03    2.12
  -7  -2  -3    4.45    2.27
  -7   2  -3    7.88    3.61
   7   2   4    6.43    3.43
   7  -2   4    2.78    2.39
  -7  -2  -4    1.40    3.56
  -7   2  -4    9.20    2.14
  -7   2  -4    6.37    3.61
  -7  -2  -4    6.45    2.31
   7   2   5    0.70    1.79
   7  -2   5    0.77    1.49
  -7  -2  -5    2.96    1.88
  -7  -2  -5   -0.27    2.34
  -7   2  -5    0.34    2.12
   7   2   6   -0.01    1.72
  -7  -2  -6    1.10    1.60
  -7   2  -6    0.22    1.75
   7   2   7    2.04    2.12
  -7  -2  -7    1.30    2.03
  -7   2  -7    2.12    2.11
   7   2   8    2.26    2.06
  -7  -2  -8    3.10    2.10
  -7   2  -8   -0.22    1.55
   7   2   9    1.19    1.98
  -7  -2  -9    3.70    2.37
   7  -2  10   -0.01    0.80
   7   2  10    0.54    1.49
  -7  -2 -10    3.27    1.39
   7   2  11   19.42    2.32
   7   3 -12   -0.21    1.10
   7   3 -11   -0.04    0.44
   7   3 -11    1.70    0.94
   7   3 -10    0.03    2.22
  -7  -3  10    2.76    1.21
  -7  -3  10    2.42    1.83
  -7  -3  10   -0.79    1.30
   7   3  -9   -0.79    1.65
  -7  -3   9    4.06    1.49
  -7  -3   9    0.68    2.33
  -7  -3   9    1.06    1.73
   7   3  -8    0.44    1.75
  -7  -3   8    2.22    1.63
  -7  -3   8    0.32    3.06
  -7  -3   8    1.64    2.12
   7   3  -7   -1.41    4.85
  -7  -3   7   13.04    2.98
  -7  -3   7    7.45    3.95
  -7  -3   7   17.14    3.98
   7   3  -6   -0.15    1.42
  -7  -3   6    0.79    1.75
  -7  -3   6    0.18    1.59
   7   3  -5    2.56    1.93
   7   3  -5    3.91    2.32
  -7  -3   5    1.70    2.82
  -7  -3   5    2.65    2.52
   7   3  -4   71.93    7.46
   7   3  -4   65.23    7.00
  -7  -3   4   85.38   13.02
  -7  -3   4   88.35    8.55
  -7  -3   4   83.10   10.28
  -7   3   4   41.35    7.21
   7   3  -3    1.12    1.45
  -7  -3   3    0.06    1.71
  -7  -3   3    0.17    2.02
  -7  -3   3    0.14    1.31
  -7  -3   3    0.88    1.42
  -7   3   3    0.76    1.65
   7   3  -2    0.90    2.31
  -7  -3   2    2.48    1.79
  -7  -3   2   -0.12    1.56
  -7  -3   2    0.23    2.10
  -7  -3   2    0.30    1.37
  -7   3   2    2.28    1.99
   7   3  -1    5.31    2.07
  -7  -3   1    4.34    2.21
  -7  -3   1    5.94    2.71
  -7  -3   1    1.94    2.81
  -7  -3   1    4.13    1.94
  -7   3   1    3.59    2.94
   7   3   0    0.13    1.26
  -7  -3   0    0.18    2.36
  -7  -3   0   -0.63    1.44
  -7  -3   0   -0.46    1.23
  -7  -3   0   -0.69    1.28
  -7   3   0    0.68    1.79
   7   3   1    7.98    2.46
  -7  -3  -1    5.73    2.70
  -7  -3  -1    5.93    3.41
  -7  -3  -1    6.80    2.66
  -7  -3  -1    1.66    3.30
  -7   3  -1    5.99    3.62
   7   3   2    7.91    2.38
  -7  -3  -2    7.64    2.53
  -7  -3  -2    2.37    3.82
  -7  -3  -2    5.14    2.67
  -7  -3  -2    5.37    2.52
  -7   3  -2    7.60    3.68
   7   3   3    0.23    1.70
  -7  -3  -3    0.22    1.92
  -7  -3  -3    0.05    1.53
  -7   3  -3    1.63    2.19
   7   3   4    1.47    1.89
  -7  -3  -4    0.29    2.36
  -7  -3  -4    2.81    2.19
  -7   3  -4    3.74    2.72
   7   3   5    4.78    2.68
  -7  -3  -5    7.94    2.95
  -7   3  -5    7.18    3.60
   7   3   6   41.62    6.56
  -7  -3  -6   48.33    6.51
  -7   3  -6   44.57    7.69
   7   3   7   -0.31    1.25
  -7  -3  -7   -0.02    1.40
  -7   3  -7    0.55    1.32
   7   3   8    0.17    1.51
  -7  -3  -8    0.44    1.74
  -7   3  -8    1.76    1.41
   7  -3   9    3.61    0.79
   7   3   9    0.12    1.55
  -7  -3  -9    0.93    1.94
  -7   3  -9   -0.20    0.95
   7  -3  10    0.19    0.38
   7   3  10    0.14    0.55
  -7  -3 -10   -1.29    0.85
  -7  -4  11    2.58    0.99
  -7  -4  10    1.55    0.67
  -7  -4  10    0.03    0.52
  -7  -4  10   -1.45    0.72
  -7  -4  10   -2.16    1.41
   7   4  -9   -1.07    1.37
  -7  -4   9    0.60    0.93
  -7  -4   9    5.99    1.58
   7   4  -8    0.26    1.31
  -7  -4   8    2.70    2.30
  -7  -4   8    1.69    1.86
  -7  -4   8   -0.44    1.67
   7   4  -7    0.02    1.57
  -7  -4   7    0.76    1.14
  -7  -4   7    0.81    2.24
  -7  -4   7    2.87    1.96
  -7  -4   7    9.90    3.15
  -7  -4   6    0.36    1.09
  -7  -4   6    2.69    2.16
  -7  -4   6    0.56    1.93
  -7  -4   6    2.01    2.89
  -7  -4   5    4.19    3.13
  -7  -4   5    3.59    2.94
  -7  -4   5    9.50    3.96
  -7  -4   5    3.84    2.42
  -7  -4   4   13.75    5.16
  -7  -4   4    8.99    3.60
  -7  -4   4   11.75    3.45
  -7  -4   4    9.94    4.92
  -7  -4   3    2.33    1.84
  -7  -4   3    0.07    1.78
  -7  -4   3    0.03    2.19
  -7  -4   3    1.01    1.72
  -7  -4   2    3.46    2.05
  -7  -4   2    1.06    2.18
  -7  -4   2    1.86    2.30
  -7  -4   2    1.44    3.04
  -7   4   2    1.22    1.78
  -7  -4   1    3.12    3.17
  -7  -4   1    2.14    2.06
  -7  -4   1    1.16    1.97
  -7  -4   1    1.16    2.09
  -7   4   1    2.21    1.97
  -7  -4   0   -0.47    1.44
  -7  -4   0    0.48    1.71
  -7  -4   0   -0.34    1.47
  -7   4   0   -1.10    1.62
  -7  -4   0    0.56    1.47
  -7  -4  -1   -0.04    1.79
  -7  -4  -1    0.20    2.35
  -7  -4  -1    1.81    1.58
  -7  -4  -1    2.35    1.74
  -7   4  -1    0.04    2.24
   7   4   2    1.21    1.14
  -7  -4  -2    0.29    1.23
  -7  -4  -2   -0.10    1.86
  -7  -4  -2    0.40    1.70
  -7   4  -2   -0.48    2.00
   7   4   3    1.28    1.16
  -7  -4  -3   -0.75    2.41
  -7  -4  -3   -0.02    1.67
  -7   4  -3   -0.87    2.10
   7   4   4    1.47    1.74
  -7  -4  -4    3.85    3.11
  -7   4  -4    1.58    3.03
  -7  -4  -4    1.86    2.13
   7   4   5    2.50    1.38
  -7  -4  -5    0.64    2.25
  -7  -4  -5    0.08    1.68
  -7   4  -5    0.37    2.20
   7   4   6    1.78    1.28
  -7  -4  -6    1.14    2.03
  -7   4  -6    0.32    1.96
   7  -4   7    0.80    0.97
   7   4   7   -0.39    0.79
  -7  -4  -7    1.20    1.50
  -7  -4  -7   -0.26    1.77
  -7   4  -7    0.71    1.44
   7  -4   8    3.86    1.31
   7   4   8    0.84    0.75
  -7  -4  -8    0.97    1.83
  -7   4  -8    0.36    1.35
   7  -4   9    2.74    1.08
  -7  -4  -9   -0.67    1.73
  -7  -5   9    1.63    1.66
  -7  -5   9    0.63    1.12
  -7  -5   9    3.04    1.08
  -7  -5   8    2.11    1.40
  -7  -5   8   -0.06    1.45
  -7  -5   8    1.35    1.46
  -7  -5   8    2.11    1.31
  -7  -5   7    2.77    2.52
  -7  -5   7    5.51    3.56
  -7  -5   7    7.14    2.11
  -7  -5   6   -0.72    2.12
  -7  -5   6   -2.28    1.65
  -7  -5   6    2.71    1.44
  -7  -5   6    0.72    1.37
  -7  -5   5   -2.09    1.84
  -7  -5   5    0.53    1.43
  -7  -5   5   -0.40    2.04
  -7  -5   5    0.50    1.23
  -7  -5   4   44.18    5.43
  -7  -5   4   35.62    9.05
  -7  -5   4   43.76    6.79
  -7  -5   4   51.10    8.82
  -7  -5   3    1.96    2.82
  -7  -5   3    2.20    1.89
  -7  -5   3    0.85    1.90
  -7  -5   3    0.21    3.26
  -7  -5   2    0.25    1.89
  -7  -5   2   -1.11    1.25
  -7  -5   2    0.13    1.47
  -7  -5   2    1.33    1.30
  -7  -5   1   -0.40    1.77
  -7  -5   1   -3.67    2.32
  -7  -5   1    1.57    1.44
  -7  -5   1    2.54    2.99
  -7   5   1    1.59    1.35
  -7  -5   0    0.99    2.01
  -7  -5   0    1.85    2.03
  -7  -5   0    1.43    1.57
  -7  -5   0    3.63    2.03
  -7   5   0    2.66    1.92
  -7  -5  -1    1.03    2.26
  -7  -5  -1    4.07    2.50
  -7  -5  -1    5.06    3.83
  -7   5  -1    3.17    2.29
  -7  -5  -2   -0.52    2.25
  -7  -5  -2    0.04    1.50
  -7   5  -2    0.82    1.54
  -7   5  -3    2.63    2.57
  -7  -5  -3    0.68    2.37
  -7  -5  -3   13.15    3.52
  -7  -5  -4    0.89    1.52
  -7  -5  -4   -0.29    2.28
  -7   5  -4   -0.02    1.56
  -7  -5  -5    0.23    1.75
  -7  -5  -5    0.56    1.58
  -7   5  -5    2.22    1.82
  -7  -5  -6   34.33    4.73
  -7  -5  -6   35.97    4.10
  -7   5  -6   31.22    4.61
   7  -5   7    2.36    0.83
  -7  -5  -7    0.82    1.55
  -7  -6   6   -0.06    1.47
  -7  -6   6    0.09    1.00
  -7  -6   6    5.53    1.88
  -7  -6   5    0.30    1.56
  -7  -6   5   -0.09    1.06
  -7  -6   5    4.64    2.17
  -7  -6   4    0.10    2.24
  -7  -6   4    2.50    1.49
  -7  -6   4   10.14    3.17
  -7  -6   3   -0.82    1.41
  -7  -6   3    0.16    0.87
  -7  -6   3   -0.88    1.26
  -7  -6   2    0.74    1.30
  -7  -6   2   -0.04    0.91
  -7  -6   2    2.69    1.45
  -7  -6   1    2.68    1.30
  -7  -6   1    3.46    3.09
  -7  -6   0    0.35    2.60
  -7  -6  -1   -0.06    1.87
  -7  -6  -1    1.21    1.12
  -7   6  -1   -0.30    0.76
  -7  -6  -2    0.34    1.12
  -7  -6  -2    2.36    1.87
  -7   6  -2   -0.28    0.87
  -7  -6  -3    1.99    1.49
  -7  -6  -3    3.70    2.67
  -7  -6  -4    2.71    1.41
  -8   0  12    2.92    1.60
  -8   0  11    2.60    2.16
  -8   0  10    0.41    1.73
  -8   0   9   -0.23    1.57
  -8   0   8    2.29    2.67
  -8   0   7   -1.52    2.05
  -8   0   7    2.04    1.59
  -8   0   6    7.06    2.77
  -8   0   6    4.25    2.93
  -8   0   6    4.10    2.55
  -8   0   5   21.31    4.11
  -8   0   5   17.19    3.35
  -8   0   5   14.52    4.19
  -8   0   4   19.68    4.14
  -8   0   4   20.19    3.81
  -8   0   4   21.23    4.46
   8   0  -3   22.91    4.44
  -8   0   3   22.38    6.26
  -8   0   3   25.51    5.01
   8   0  -2    0.55    2.32
  -8   0   2    3.98    2.00
  -8   0   2    3.62    2.70
   8   0  -1    4.35    3.45
  -8   0   1   13.34    3.01
  -8   0   1    9.75    3.99
   8   0   0   -0.82    1.22
  -8   0   0    0.18    1.21
  -8   0   0    0.84    1.34
   8   0   1   35.35    5.43
  -8   0  -1   36.13    7.73
  -8   0  -1   31.51    5.94
   8   0   2    1.93    1.68
  -8   0  -2   -0.50    2.63
  -8   0  -2   -0.45    1.90
   8   0   3    8.78    2.96
  -8   0  -3   12.42    5.34
  -8   0  -3    6.98    3.36
   8   0   4    2.81    2.26
  -8   0  -4    2.79    1.93
  -8   0  -4    2.50    2.36
   8   0   5    1.10    1.98
  -8   0  -5    2.17    1.58
  -8   0  -5    0.22    2.07
   8   0   6    2.24    1.99
  -8   0  -6   -0.25    2.57
   8   0   7    8.38    3.10
   8   0   8    1.73    2.05
   8   0   9    0.42    1.26
   8   0  10    1.72    1.62
  -8  -1  12    1.70    1.48
  -8   1  12    0.73    0.96
   8   1 -11    0.11    0.64
  -8  -1  11    0.63    1.31
  -8   1  11    1.39    1.20
   8   1 -10    2.59    1.13
  -8  -1  10    4.69    2.46
  -8   1  10    1.75    2.20
   8   1  -9   -0.69    1.49
  -8  -1   9   -1.10    1.89
  -8   1   9    0.22    1.69
   8   1  -8    4.29    2.97
  -8  -1   8   14.66    3.73
  -8   1   8   10.76    4.27
  -8  -1   8    4.65    3.04
   8   1  -7    2.18    1.21
  -8   1   7    0.15    2.05
  -8  -1   7   -0.03    2.12
  -8  -1   7    0.42    1.98
  -8  -1   7    1.58    2.11
   8   1  -6    0.12    0.95
  -8  -1   6   -2.49    1.54
  -8   1   6    0.36    1.66
  -8  -1   6    0.83    1.07
  -8  -1   6   -0.18    1.50
  -8   1   6   -0.36    1.16
  -8   1   5   12.74    4.14
  -8  -1   5   15.72    4.41
  -8  -1   5   12.24    4.24
  -8   1   5   11.97    4.42
  -8  -1   5   10.86    3.79
  -8  -1   4  207.91   15.34
  -8   1   4  189.45   16.96
  -8  -1   4  215.36   18.60
  -8   1   4  194.86   16.28
   8  -1  -3    3.41    2.75
   8   1  -3    7.55    3.13
  -8  -1   3    4.66    3.80
  -8   1   3    6.51    3.51
  -8  -1   3    9.16    3.94
  -8   1   3    9.80    3.14
   8  -1  -2    3.82    2.23
   8   1  -2    0.92    2.60
  -8  -1   2    6.41    2.50
  -8   1   2    6.15    2.09
  -8  -1   2    3.84    3.38
  -8   1   2    1.04    2.80
   8  -1  -1    1.71    2.39
   8   1  -1    4.09    2.83
  -8  -1   1    3.67    2.40
  -8   1   1    2.59    3.11
  -8  -1   1    4.00    2.78
  -8   1   1    1.13    2.53
   8  -1   0   11.70    3.00
   8   1   0    9.86    3.44
  -8  -1   0   14.74    5.34
  -8   1   0   13.37    5.03
  -8  -1   0   13.68    4.07
  -8   1   0   15.63    4.22
   8   1   1   11.64    3.93
   8  -1   1   11.71    2.91
  -8  -1  -1   11.72    3.55
  -8   1  -1   16.75    5.58
  -8  -1  -1   12.51    4.17
  -8   1  -1   12.51    4.42
   8   1   2    8.22    3.40
   8  -1   2    8.84    2.95
  -8  -1  -2    0.17    4.72
  -8   1  -2   11.02    3.88
  -8  -1  -2    9.20    3.31
  -8   1  -2    9.36    3.47
   8   1   3    4.22    2.36
   8  -1   3    3.21    2.07
  -8  -1  -3    2.56    3.46
  -8   1  -3    1.82    2.35
  -8  -1  -3    2.54    2.27
  -8   1  -3    2.92    2.83
   8   1   4    9.26    3.01
   8  -1   4    6.79    2.77
  -8  -1  -4    5.75    4.68
  -8   1  -4    8.76    3.55
  -8  -1  -4    3.13    2.48
  -8   1  -4    8.13    3.76
   8   1   5    5.22    2.76
   8  -1   5    3.74    2.24
  -8  -1  -5    6.11    3.34
  -8   1  -5    1.17    3.62
  -8   1  -5    3.90    2.86
   8   1   6   -0.17    1.54
   8  -1   6    3.69    1.44
  -8  -1  -6   -0.70    0.88
  -8   1  -6   -0.65    1.21
   8   1   7    0.01    1.43
   8  -1   7    0.53    1.21
  -8   1  -7   -0.23    1.03
   8  -1   8    1.93    1.67
   8   1   8    2.49    2.25
   8   1   9    2.14    1.75
   8  -1   9    2.37    1.82
   8   1  10    0.95    1.17
   8   2 -11    0.57    1.01
   8   2 -10    0.76    1.29
  -8  -2  10   -0.51    1.56
  -8   2  10    2.44    1.08
  -8  -2  10    1.47    0.97
   8   2  -9    4.80    1.95
  -8  -2   9    0.33    1.80
  -8   2   9    1.93    1.35
  -8  -2   9    0.05    1.02
  -8  -2   9    2.01    1.75
   8   2  -8    0.38    2.04
  -8  -2   8    1.26    1.75
  -8   2   8    0.85    1.35
  -8  -2   8    1.22    2.35
  -8  -2   8    0.52    1.68
   8   2  -7   -1.37    1.41
  -8  -2   7    1.51    1.69
  -8   2   7    1.71    1.31
  -8  -2   7    2.85    1.58
  -8  -2   7   -2.23    1.75
   8   2  -6    0.92    2.66
  -8  -2   6   -0.20    2.05
  -8   2   6    0.59    1.56
  -8  -2   6    4.33    3.22
  -8  -2   6    5.75    2.31
   8  -2  -5    5.73    2.08
   8   2  -5    8.97    1.85
  -8  -2   5    9.37    4.32
  -8  -2   5   10.06    3.34
  -8   2   5    1.56    2.12
  -8  -2   5    3.36    1.35
   8  -2  -4    8.59    2.60
   8   2  -4   11.42    3.51
  -8  -2   4   11.81    3.46
  -8  -2   4    9.55    2.46
  -8  -2   4   11.42    3.94
  -8   2   4    3.42    2.72
   8   2  -3   11.66    4.66
   8  -2  -3    9.60    2.82
  -8  -2   3   13.37    2.62
  -8  -2   3   18.86    6.11
  -8  -2   3   10.33    4.46
  -8   2   3    8.43    3.39
   8   2  -2    3.51    2.91
   8  -2  -2    4.55    1.86
  -8  -2   2    7.41    1.99
  -8  -2   2    5.54    4.75
  -8   2   2    6.20    3.04
  -8  -2   2    7.33    3.29
  -8   2   2    0.89    2.68
   8   2  -1    3.34    1.62
   8  -2  -1    1.48    1.19
  -8  -2   1    0.57    2.79
  -8   2   1   -1.02    1.42
  -8  -2   1    1.02    2.11
  -8  -2   1    1.48    1.22
  -8   2   1   -1.20    1.20
   8   2   0   -0.18    1.50
   8  -2   0   -0.02    0.98
  -8  -2   0    0.78    1.14
  -8  -2   0   -3.09    1.59
  -8   2   0   -0.87    1.97
  -8  -2   0    0.42    1.78
  -8   2   0    0.03    1.92
   8   2   1    7.20    2.69
   8  -2   1    3.96    2.73
  -8  -2  -1    7.28    2.02
  -8  -2  -1    4.84    4.56
  -8   2  -1    6.48    2.29
  -8  -2  -1    3.35    2.91
  -8   2  -1    9.14    3.89
   8   2   2    4.31    3.04
   8  -2   2    4.14    1.95
  -8  -2  -2    6.86    2.59
  -8   2  -2    6.57    2.07
  -8  -2  -2    5.68    2.16
  -8  -2  -2    3.88    2.86
  -8   2  -2   11.17    4.31
   8   2   3    7.63    3.11
  -8  -2  -3    5.41    2.82
  -8   2  -3    9.80    4.20
  -8  -2  -3    6.88    2.61
  -8   2  -3    6.44    4.22
  -8  -2  -3    6.41    2.47
   8   2   4   -0.79    2.92
  -8  -2  -4   -2.12    1.95
  -8  -2  -4   -2.18    2.83
  -8   2  -4   -1.92    2.53
   8   2   5    1.53    1.74
  -8  -2  -5    2.58    1.95
  -8  -2  -5   -0.43    1.11
  -8   2  -5    0.84    1.75
   8   2   6   -0.08    1.39
  -8  -2  -6    0.24    1.32
  -8  -2  -6    0.13    0.71
  -8   2  -6    0.62    1.45
   8   2   7    2.12    2.33
  -8  -2  -7    4.39    2.08
  -8   2  -7    2.63    2.31
   8   2   8    0.77    1.84
  -8  -2  -8   -0.47    1.33
  -8   2  -8    0.56    0.82
   8   2   9    0.75    1.00
   8  -2   9   -0.18    0.42
  -8  -2  -9    0.49    0.68
   8   2  10    0.80    0.97
   8   3 -10    2.23    1.17
  -8  -3  10    0.55    0.65
  -8  -3  10    1.79    0.68
  -8  -3  10    0.07    1.01
   8   3  -9    0.68    1.10
   8   3  -9    0.92    0.93
  -8  -3   9   -0.29    0.68
  -8  -3   9    0.51    1.10
  -8  -3   9    0.44    0.95
  -8  -3   9    0.53    1.23
   8   3  -8    3.13    2.43
   8   3  -8   -0.58    1.55
  -8  -3   8    8.74    2.85
  -8  -3   8    7.68    2.06
  -8  -3   8    4.41    2.40
  -8  -3   8    0.53    1.06
   8   3  -7    0.91    1.17
  -8  -3   7   -0.23    1.29
  -8  -3   7   -0.58    0.68
  -8  -3   7    1.64    1.36
   8   3  -6    0.92    1.89
  -8  -3   6    3.77    2.26
  -8  -3   6    0.97    1.11
  -8  -3   6    4.86    2.43
   8   3  -5    1.61    2.54
  -8  -3   5    8.26    3.09
  -8  -3   5    5.17    2.34
  -8  -3   5    6.41    3.39
   8   3  -4   97.02   10.43
  -8  -3   4  121.63    9.63
  -8  -3   4  106.35   12.12
  -8  -3   4  127.99   13.38
   8   3  -3    2.59    1.80
  -8  -3   3    1.80    2.27
  -8  -3   3    2.80    2.44
  -8  -3   3    1.52    1.85
  -8   3   3   -0.16    2.10
   8   3  -2    3.00    2.70
  -8  -3   2    5.82    4.35
  -8  -3   2    2.17    2.08
  -8  -3   2    3.95    2.71
  -8   3   2    2.98    2.64
   8   3  -1    0.86    1.33
  -8  -3   1   -1.51    1.31
  -8  -3   1    0.66    1.64
  -8  -3   1   -0.25    1.24
  -8   3   1   -0.33    1.75
   8   3   0   10.27    2.94
  -8  -3   0    7.49    3.12
  -8  -3   0   14.64    3.48
  -8  -3   0   10.19    4.00
  -8   3   0    7.61    4.21
   8   3   1    4.57    2.64
  -8  -3  -1    2.83    2.22
  -8  -3  -1    4.84    2.51
  -8  -3  -1    6.75    2.68
  -8   3  -1    2.90    3.45
   8   3   2    6.74    3.53
  -8  -3  -2    6.57    3.65
  -8  -3  -2    6.62    2.52
  -8  -3  -2    1.47    2.56
  -8   3  -2    9.94    3.55
   8   3   3    3.78    3.40
  -8  -3  -3    4.03    2.21
  -8  -3  -3    6.05    2.58
  -8   3  -3    5.69    3.21
   8   3   4    3.49    2.95
  -8  -3  -4    2.93    2.40
  -8  -3  -4    6.27    3.01
  -8   3  -4    3.22    3.37
   8   3   5   -0.18    1.18
  -8  -3  -5    0.40    1.20
  -8   3  -5    0.09    1.63
   8   3   6    0.77    1.75
  -8  -3  -6    4.17    1.95
  -8   3  -6    1.44    2.52
   8   3   7   -0.03    1.42
  -8  -3  -7    3.01    1.49
  -8   3  -7   -0.30    1.40
   8   3   8   -0.54    1.04
   8  -3   8    1.30    0.64
  -8  -3  -8    1.56    1.29
  -8   3  -8    0.04    0.95
   8  -3   9    0.28    0.69
  -8  -4   9    1.48    1.13
  -8  -4   9    4.30    1.71
  -8  -4   9    0.16    1.27
  -8  -4   8    0.80    1.06
  -8  -4   8    0.38    1.15
  -8  -4   8   -0.03    1.27
  -8  -4   8   -0.30    1.47
  -8  -4   7    0.59    1.53
  -8  -4   7    3.44    2.79
  -8  -4   7    2.87    1.86
  -8  -4   7    0.50    2.18
  -8  -4   6    2.93    1.84
  -8  -4   6    2.34    2.22
  -8  -4   6    5.64    2.44
  -8  -4   6    0.20    1.64
  -8  -4   5    2.67    2.14
  -8  -4   5   -1.00    2.45
  -8  -4   5    1.11    2.54
  -8  -4   5    2.79    1.84
  -8  -4   4   15.62    3.34
  -8  -4   4    9.67    6.04
  -8  -4   4   16.30    4.40
  -8  -4   4   10.80    4.35
  -8  -4   3    0.06    1.49
  -8  -4   3    0.34    1.31
  -8  -4   3   -1.31    1.58
  -8  -4   3    1.07    1.24
  -8  -4   2    0.34    1.93
  -8  -4   2   -0.65    1.71
  -8  -4   2    4.74    2.33
  -8  -4   2    0.44    1.57
  -8   4   2    0.47    1.53
   8   4  -1    1.09    1.20
  -8  -4   1    0.98    1.91
  -8  -4   1    0.57    1.51
  -8  -4   1    1.76    1.88
  -8  -4   1    1.93    2.20
  -8   4   1    0.38    2.46
   8   4   0   -1.21    1.32
  -8  -4   0    0.56    1.65
  -8  -4   0    0.75    2.44
  -8  -4   0    4.46    1.77
  -8  -4   0    2.24    1.46
  -8   4   0   -0.03    1.98
   8   4   1    8.71    3.32
  -8  -4  -1   15.97    4.11
  -8  -4  -1   21.26    3.62
  -8  -4  -1    3.93    2.68
  -8   4  -1   10.52    3.75
   8   4   2    1.23    1.34
  -8  -4  -2    0.01    2.09
  -8  -4  -2    2.23    1.86
  -8   4  -2    1.94    2.26
   8   4   3    1.74    1.32
  -8   4  -3    1.96    2.54
  -8  -4  -3    1.82    1.90
   8   4   4   -0.06    0.88
  -8  -4  -4    1.08    1.54
  -8   4  -4    0.11    1.59
   8   4   5    1.61    1.28
  -8  -4  -5    0.08    1.63
  -8   4  -5    0.21    1.86
   8   4   6    0.99    0.67
  -8  -4  -6   -0.48    1.44
  -8   4  -6   -0.01    1.41
   8  -4   7    1.99    0.73
  -8  -4  -7    0.71    1.50
  -8   4  -7   -0.18    1.35
  -8  -5   7    1.74    1.10
  -8  -5   7   -0.19    0.98
  -8  -5   7    0.54    1.55
  -8  -5   6    0.24    2.08
  -8  -5   6    1.26    1.10
  -8  -5   6    0.30    1.32
  -8  -5   6   -0.19    1.78
  -8  -5   5   -0.56    2.31
  -8  -5   5    0.40    1.44
  -8  -5   5    0.37    1.25
  -8  -5   5    1.30    1.21
  -8  -5   4   59.38    7.06
  -8  -5   4   57.02    6.52
  -8  -5   4   59.95    8.57
  -8  -5   4   67.95    6.03
  -8  -5   3    0.59    2.31
  -8  -5   3    1.33    1.83
  -8  -5   3    2.85    2.42
  -8  -5   3    3.75    1.84
  -8  -5   2    2.39    1.77
  -8  -5   2    1.62    2.56
  -8  -5   2    2.65    1.78
  -8  -5   2    1.98    2.61
  -8  -5   1    1.89    1.73
  -8  -5   1    2.37    1.54
  -8  -5   1    4.46    1.71
  -8  -5   1    1.45    2.63
  -8   5   1    1.36    1.35
  -8  -5   0    2.73    1.68
  -8  -5   0    0.83    1.73
  -8  -5   0   -0.44    1.72
  -8   5   0    0.87    1.40
  -8  -5  -1    0.28    0.76
  -8  -5  -1   -0.34    2.44
  -8  -5  -1    1.98    1.52
  -8   5  -1    1.24    1.39
  -8  -5  -2   -0.91    2.69
  -8  -5  -2    5.19    2.14
  -8   5  -2    5.90    2.21
  -8  -5  -3    0.74    1.15
  -8  -5  -3    0.04    0.79
  -8   5  -3   -1.32    1.18
  -8  -5  -4    0.88    1.58
  -8   5  -4    3.69    1.84
  -8  -5  -5    1.34    1.50
  -8   5  -5    2.54    1.51
  -8  -6   3    2.33    1.08
  -8  -6   2   -0.06    0.73
  -8  -6   1    0.89    1.07
  -8  -6   0    0.11    0.77
  -8  -6  -1    4.42    1.48
  -9   0   9    0.23    1.32
  -9   0   8    2.31    2.11
  -9   0   7    1.89    1.77
  -9   0   6    0.05    1.24
   9   0  -5    5.15    2.46
  -9   0   5    2.72    3.12
  -9   0   5    3.53    2.89
   9   0  -4   -1.67    1.55
  -9   0   4    0.95    1.90
  -9   0   4    0.88    1.68
   9   0  -3   -0.38    2.07
  -9   0   3    1.33    1.82
  -9   0   3    2.43    2.22
   9   0  -2   -0.57    2.22
  -9   0   2   -0.27    2.74
  -9   0   2    2.66    2.06
   9   0  -1    1.47    1.82
  -9   0   1    0.12    1.82
  -9   0   1    2.30    2.40
   9   0   0    0.60    1.88
  -9   0   0   -1.60    1.84
  -9   0   0   -1.62    2.12
   9   0   1    8.53    3.20
  -9   0  -1    7.04    3.33
  -9   0  -1    9.52    3.87
   9   0   2    1.99    2.35
  -9   0  -2    0.90    3.25
  -9   0  -2    2.17    2.33
  -9   0  -3    2.78    1.57
  -9   0  -3   -1.47    1.81
   9   0   4    4.96    2.57
  -9   0  -4    4.36    2.08
   9   0   5   18.46    3.76
  -9   0  -5   18.27    5.00
  -9   0  -5    6.54    3.57
   9   0   6   11.87    3.74
   9   0   7    1.67    1.82
   9   0   8    1.77    1.45
   9   0   9    0.59    0.90
   9   1 -11    2.87    1.26
   9   1 -10    1.03    0.91
   9   1  -9    3.49    1.22
  -9  -1   9    1.45    1.12
   9   1  -8   -0.60    1.06
  -9  -1   8    2.49    1.39
   9   1  -7    4.31    1.90
  -9  -1   7    6.71    3.07
  -9  -1   7   10.01    2.83
   9   1  -6    4.10    2.75
  -9  -1   6    3.09    2.22
  -9  -1   6    7.42    2.69
  -9   1   6    4.06    2.36
   9   1  -5   12.55    3.61
  -9  -1   5    5.06    4.29
  -9  -1   5    8.96    3.47
  -9   1   5    4.24    2.98
   9   1  -4   19.10    4.46
  -9  -1   4   20.67    4.00
  -9   1   4    9.24    4.70
  -9  -1   4   14.34    4.63
  -9   1   4   12.26    4.32
   9  -1  -3    1.84    2.07
   9   1  -3    4.14    3.29
  -9  -1   3    2.71    2.26
  -9   1   3    1.12    2.79
  -9  -1   3    1.69    2.69
  -9   1   3    0.75    2.49
   9   1  -2    0.51    2.26
   9  -1  -2    2.52    1.87
  -9  -1   2    1.02    1.83
  -9   1   2   -0.93    1.67
  -9  -1   2   -0.71    2.21
  -9   1   2    1.49    2.11
   9   1  -1    2.95    3.24
   9  -1  -1    2.87    2.21
  -9  -1   1    5.42    3.90
  -9   1   1    3.55    3.91
  -9  -1   1    5.37    3.15
  -9   1   1    2.89    3.06
   9   1   0    1.41    1.72
   9  -1   0   -0.04    1.27
  -9  -1   0    1.40    1.55
  -9   1   0   -0.73    1.39
  -9  -1   0   -0.61    1.72
  -9   1   0    0.36    1.84
   9   1   1    3.67    2.63
   9  -1   1    4.48    2.45
  -9  -1  -1    1.86    2.61
  -9   1  -1    5.03    2.12
  -9  -1  -1    3.31    2.91
  -9   1  -1    4.94    2.86
   9   1   2   12.07    4.06
  -9  -1  -2    6.27    5.24
  -9   1  -2   12.26    3.36
  -9  -1  -2    7.80    3.67
  -9   1  -2   10.23    4.25
   9   1   3    5.97    2.97
   9  -1   3    6.08    2.52
  -9  -1  -3    5.32    4.25
  -9   1  -3    4.73    3.20
  -9  -1  -3    2.33    2.55
  -9   1  -3    5.11    3.53
   9   1   4    6.11    2.30
   9  -1   4    4.16    2.34
  -9  -1  -4   -0.19    1.64
  -9   1  -4    2.19    1.91
  -9  -1  -4    1.10    1.82
  -9   1  -4   -0.43    2.53
   9   1   5    6.49    2.70
   9  -1   5    4.32    2.00
  -9  -1  -5    6.41    2.67
  -9   1  -5   -0.61    2.50
   9   1   6    0.92    2.19
   9  -1   6    2.08    1.49
  -9  -1  -6    1.17    1.06
  -9   1  -6    1.11    1.55
   9  -1   7    3.38    1.64
   9   1   7    4.55    2.35
   9   1   8    1.46    1.55
   9  -1   8    1.49    0.91
   9   1   9    0.01    0.71
   9   2 -10    1.37    1.21
   9   2  -9    2.56    2.06
  -9  -2   9    1.60    0.98
  -9  -2   9    1.23    1.06
  -9  -2   9    1.08    1.18
   9   2  -8   -2.24    1.82
  -9  -2   8    1.40    0.96
  -9  -2   8    1.86    1.79
  -9  -2   8    2.30    1.54
   9   2  -7   -2.22    1.57
  -9  -2   7   -0.00    0.88
  -9  -2   7    1.83    1.86
  -9  -2   7   -0.40    1.56
   9   2  -6    2.19    2.18
  -9  -2   6    0.57    1.35
  -9  -2   6    1.38    1.97
  -9  -2   6    7.47    2.52
   9   2  -5    2.58    1.88
  -9  -2   5    0.67    1.84
  -9  -2   5    2.27    2.41
  -9  -2   5    1.32    1.23
  -9   2   5   -1.69    1.55
   9   2  -4    0.11    1.80
  -9  -2   4    0.20    1.12
  -9  -2   4    2.90    1.74
  -9  -2   4   -3.78    2.30
  -9   2   4    1.19    1.59
   9   2  -3    0.72    2.46
  -9  -2   3    1.13    3.13
  -9  -2   3    1.88    2.66
  -9  -2   3    0.71    1.25
  -9   2   3    2.71    2.04
   9   2  -2    2.54    2.03
  -9  -2   2    3.75    2.30
  -9   2   2    1.71    1.98
  -9  -2   2    1.47    2.87
  -9   2   2    2.56    2.36
  -9  -2   2    0.45    1.43
   9   2  -1   -0.12    1.82
  -9  -2   1   -0.41    1.53
  -9  -2   1   -0.16    1.97
  -9   2   1    0.86    1.77
  -9  -2   1    2.10    2.14
  -9   2   1    4.47    2.19
   9   2   0   -1.21    1.39
  -9  -2   0    0.51    2.37
  -9  -2   0    0.23    1.11
  -9   2   0   -1.11    0.96
  -9  -2   0    4.03    1.68
  -9   2   0    2.50    1.91
   9   2   1   23.54    5.06
  -9  -2  -1   25.18    4.82
  -9   2  -1   31.16    5.98
  -9  -2  -1   16.45    4.51
  -9  -2  -1   15.71    3.29
  -9   2  -1   31.77    6.59
   9   2   2   13.14    2.98
  -9  -2  -2   12.91    4.46
  -9   2  -2   10.94    3.56
  -9  -2  -2    2.40    2.98
  -9   2  -2    9.01    4.67
  -9  -2  -2    6.05    2.84
   9   2   3    1.21    1.56
  -9  -2  -3   -1.44    2.24
  -9  -2  -3   -1.98    1.42
  -9   2  -3    0.55    2.27
   9   2   4    0.47    1.79
  -9  -2  -4    2.65    2.18
  -9   2  -4   -0.06    2.08
   9   2   5    2.38    2.22
  -9  -2  -5    3.83    1.39
  -9   2  -5    2.99    2.51
   9   2   6    2.16    1.79
  -9   2  -6    2.40    1.88
   9   2   7    7.22    2.04
  -9   2  -7    1.81    1.37
   9   2   8    1.87    1.19
  -9  -3   9    0.29    1.03
  -9  -3   9    2.25    0.77
   9   3  -8    3.85    1.62
  -9  -3   8    2.59    2.18
  -9  -3   8    0.35    2.01
  -9  -3   8    4.27    1.68
   9   3  -7    3.19    2.31
  -9  -3   7    3.91    2.62
  -9  -3   7    8.77    2.77
  -9  -3   7    3.48    2.19
   9   3  -6    1.35    2.05
  -9  -3   6    1.62    1.66
  -9  -3   6    1.12    2.30
  -9  -3   6    2.84    1.48
   9   3  -5    1.29    2.34
  -9  -3   5    3.90    2.10
  -9  -3   5    1.43    1.99
  -9  -3   5    4.60    2.61
   9   3  -4   20.70    3.66
  -9  -3   4   22.32    5.91
  -9  -3   4   25.78    3.45
  -9  -3   4   23.79    5.01
  -9   3   4    4.64    4.24
   9   3  -3    0.18    1.29
  -9  -3   3   -0.86    1.54
  -9  -3   3    2.38    1.97
  -9  -3   3    0.52    1.11
  -9   3   3   -0.35    1.44
   9   3  -2   -1.28    1.53
  -9  -3   2    3.67    2.54
  -9  -3   2    0.48    2.11
  -9   3   2    0.42    1.82
  -9  -3   2    1.10    1.34
   9   3  -1    2.71    2.32
  -9  -3   1    5.03    2.60
  -9  -3   1    8.98    4.14
  -9  -3   1    6.88    3.14
  -9   3   1    3.45    3.05
   9   3   0    2.22    1.58
  -9  -3   0   -0.96    1.58
  -9  -3   0    0.71    1.39
  -9  -3   0    0.52    1.64
  -9   3   0   -0.49    1.88
   9   3   1    2.84    2.29
  -9  -3  -1    3.19    3.37
  -9  -3  -1    5.00    2.01
  -9  -3  -1    3.39    2.08
  -9   3  -1    3.70    3.08
   9   3   2    6.08    2.62
  -9  -3  -2   10.66    3.62
  -9  -3  -2    3.15    2.16
  -9  -3  -2    8.41    2.37
  -9   3  -2    8.88    3.31
   9   3   3    0.35    1.72
  -9  -3  -3    1.49    1.58
  -9  -3  -3    3.16    2.26
  -9   3  -3    2.80    2.52
   9   3   4    1.47    1.75
  -9  -3  -4    2.71    1.78
  -9  -3  -4    2.83    1.03
  -9   3  -4    2.23    2.32
   9   3   5    8.32    2.06
  -9  -3  -5    5.75    2.10
  -9   3  -5    2.10    3.14
   9   3   6    0.32    1.23
  -9  -3  -6    0.61    0.86
  -9   3  -6   -0.75    1.08
   9   3   7    1.49    0.91
   9  -3   7    2.02    0.59
  -9   3  -7   -1.34    1.10
  -9  -4   8   -0.01    0.73
  -9  -4   7    1.30    1.15
  -9  -4   7    1.10    1.00
  -9  -4   7    0.91    1.58
  -9  -4   6    2.29    1.74
  -9  -4   6    0.14    1.09
   9   4  -5   -0.47    0.74
  -9  -4   5    1.61    1.61
  -9  -4   5   -0.16    1.42
  -9  -4   5   -0.41    0.97
   9   4  -4    1.41    0.91
  -9  -4   4   -1.92    2.42
  -9  -4   4    1.01    1.38
   9   4  -3    1.35    1.09
  -9  -4   3    0.43    1.59
  -9  -4   3    0.67    1.67
  -9  -4   3    5.92    2.06
  -9   4   3    0.66    1.13
   9   4  -2   -0.17    0.74
  -9  -4   2    0.66    1.12
  -9  -4   2   -1.19    1.33
  -9  -4   2   -0.21    1.51
  -9   4   2   -0.56    1.11
   9   4  -1    0.55    0.67
  -9  -4   1   -0.48    0.96
  -9  -4   1   -0.77    1.07
  -9  -4   1   -0.02    1.07
  -9   4   1   -0.25    1.07
   9   4   0    1.68    1.05
  -9  -4   0   -0.99    1.94
  -9  -4   0    0.90    1.44
  -9  -4   0    0.38    1.37
  -9   4   0    0.67    1.66
   9   4   1    3.74    1.28
  -9  -4  -1    5.29    2.47
  -9  -4  -1    0.93    1.28
  -9  -4  -1    3.38    1.91
  -9   4  -1    6.67    2.42
   9   4   2    0.94    0.88
  -9  -4  -2    2.29    1.45
  -9   4  -2    0.33    2.15
  -9  -4  -2    0.35    1.43
   9   4   3    1.54    0.89
  -9  -4  -3    0.92    1.68
  -9  -4  -3    1.77    0.87
  -9   4  -3    3.15    1.91
   9   4   4   -0.67    0.81
  -9  -4  -4    0.06    1.07
  -9   4  -4   -0.14    1.37
  -9  -4  -5    1.90    1.15
  -9   4  -5    0.57    1.43
  -9  -5   5    0.99    0.83
  -9  -5   5    1.42    1.43
  -9  -5   5    0.67    1.11
  -9  -5   4   20.81    2.22
  -9  -5   4   20.15    3.56
  -9  -5   4    8.89    2.76
  -9  -5   3    0.48    0.97
  -9  -5   3    0.90    0.97
  -9  -5   3    0.65    0.98
  -9  -5   2    0.31    0.86
  -9  -5   2    0.94    1.14
  -9  -5   2    0.60    1.10
  -9  -5   1    3.28    1.52
  -9  -5   1    1.33    1.45
  -9  -5   0    1.25    1.81
  -9   5   0    1.74    0.98
  -9  -5  -1   -0.07    1.31
  -9   5  -1    2.57    1.09
  -9  -5  -2    0.89    1.02
  -9   5  -2   -0.13    0.96
  -9  -5  -3    2.41    0.84
  -9   5  -3   -0.36    0.99
 -10   0   7    2.75    1.60
 -10   0   6   -1.81    1.85
 -10   0   5    1.11    1.25
 -10   0   5    1.48    1.86
 -10   0   4    0.94    2.56
 -10   0   4    2.85    2.28
 -10   0   3    6.66    3.85
 -10   0   3    7.14    3.37
 -10   0   2    2.15    2.03
 -10   0   2    2.19    2.71
 -10   0   1    0.96    4.30
 -10   0   1    7.42    3.34
 -10   0   0    3.20    3.53
 -10   0   0    1.73    2.76
 -10   0  -1   14.30    5.38
 -10   0  -1   14.33    4.25
  10   0   2    1.84    1.62
 -10   0  -2   -1.01    2.68
 -10   0  -2    0.74    2.08
  10   0   3    0.74    1.72
 -10   0  -3    1.81    1.42
 -10   0  -3    0.55    2.16
  10   0   4    6.05    2.08
 -10   0  -4    2.62    2.06
 -10   0  -4    2.96    2.34
  10   0   5    0.31    1.43
 -10   0  -5   -0.56    0.87
  10   0   6    0.68    1.19
  10   0   7    0.36    1.04
  10   1  -9    2.13    1.51
  10   1  -8    7.00    2.02
 -10  -1   8    1.48    1.20
  10   1  -7    4.44    1.80
 -10  -1   7    0.88    1.24
 -10  -1   7   -0.62    1.46
  10   1  -6    6.95    2.79
 -10  -1   6    5.92    2.70
 -10  -1   6    3.21    2.36
 -10   1   6    4.29    1.74
  10   1  -5    7.98    2.99
 -10  -1   5    1.74    2.20
 -10  -1   5    6.66    2.60
 -10   1   5    4.48    2.24
  10   1  -4    8.80    2.72
 -10  -1   4    3.06    2.56
 -10   1   4    5.40    2.14
 -10  -1   4    3.95    3.02
 -10   1   4    6.00    2.69
  10   1  -3    3.80    1.94
 -10  -1   3    0.50    1.96
 -10   1   3    1.82    1.24
 -10  -1   3    0.37    2.32
 -10   1   3    0.30    2.03
  10   1  -2   12.15    4.21
 -10  -1   2    8.15    4.88
 -10   1   2    6.32    2.27
 -10  -1   2   13.20    3.63
 -10   1   2   11.19    3.54
  10   1  -1    3.48    2.12
 -10  -1   1   -0.26    3.03
 -10   1   1    1.77    2.62
 -10  -1   1    4.04    2.34
 -10   1   1    0.04    1.40
  10   1   0    5.17    2.92
 -10  -1   0    2.15    3.36
 -10   1   0   -0.84    1.98
 -10  -1   0    4.88    2.50
 -10   1   0    4.23    2.72
  10   1   1    3.09    1.95
 -10  -1  -1   -0.08    2.97
 -10   1  -1    1.02    1.56
 -10  -1  -1    1.80    2.27
 -10   1  -1    2.19    2.53
  10   1   2   10.01    3.01
  10  -1   2    6.59    3.02
 -10  -1  -2    3.75    2.67
 -10   1  -2    8.02    2.04
 -10  -1  -2    4.91    2.75
 -10   1  -2    4.80    3.95
  10   1   3   -1.10    1.90
  10  -1   3    3.24    1.71
 -10  -1  -3    4.57    2.33
 -10   1  -3    1.59    2.33
 -10  -1  -3   -1.43    1.58
 -10   1  -3    0.58    2.17
  10   1   4    5.17    1.86
  10  -1   4    3.12    1.37
 -10  -1  -4    0.99    2.11
 -10  -1  -4   -2.17    1.97
 -10   1  -4    0.74    2.00
  10   1   5    0.98    1.72
  10  -1   5    1.26    1.01
 -10  -1  -5   -0.06    0.89
 -10   1  -5    1.71    1.31
  10  -1   6    1.43    0.69
  10   1   6    2.95    1.51
 -10   1  -6   -1.44    0.73
  10   1   7   -0.39    0.89
  10   2  -8    2.57    1.61
 -10  -2   8    1.43    1.06
  10   2  -7   -0.78    1.88
 -10  -2   7    0.06    1.60
 -10  -2   7    5.03    1.61
  10   2  -6   -1.61    1.27
 -10  -2   6    2.67    1.80
 -10  -2   6    1.47    1.48
  10   2  -5    4.15    1.56
 -10  -2   5    0.75    1.54
 -10  -2   5    0.58    1.96
 -10   2   5   -1.24    1.35
  10   2  -4    2.32    2.23
 -10  -2   4    2.55    1.72
 -10  -2   4    1.53    2.25
 -10   2   4   -1.17    1.91
  10   2  -3    2.05    2.39
 -10  -2   3    0.26    2.95
 -10  -2   3    0.88    2.43
 -10   2   3    2.62    2.28
  10   2  -2    1.20    1.36
 -10  -2   2   -1.62    1.35
 -10   2   2   -0.02    1.01
 -10  -2   2    2.19    1.69
 -10   2   2   -0.49    1.65
  10   2  -1   -0.15    1.33
 -10  -2   1    0.39    1.46
 -10   2   1    1.74    1.24
 -10  -2   1   -2.08    1.50
 -10   2   1   -2.29    1.84
  10   2   0    3.41    2.23
 -10  -2   0    1.65    2.06
 -10   2   0    2.15    1.36
 -10  -2   0    2.81    2.31
 -10   2   0    3.32    2.91
  10   2   1    4.22    2.65
 -10  -2  -1    3.91    3.81
 -10  -2  -1    3.48    2.50
 -10   2  -1    9.89    3.51
  10   2   2    1.65    1.82
 -10  -2  -2    2.15    1.92
 -10  -2  -2    2.78    1.68
 -10   2  -2    1.14    2.48
  10   2   3   -0.62    1.40
 -10  -2  -3    0.07    1.08
 -10  -2  -3    2.09    1.05
 -10   2  -3   -0.10    1.81
  10   2   4    0.78    1.55
 -10  -2  -4    1.39    0.95
 -10   2  -4    1.43    1.79
  10   2   5    5.28    1.27
 -10  -2  -5    0.16    0.60
 -10   2  -5   -0.01    1.40
  10   2   6    3.73    2.01
 -10  -3   7    0.83    1.37
 -10  -3   7    1.75    1.32
  10   3  -6    5.12    1.37
 -10  -3   6    1.58    1.74
 -10  -3   6    6.14    2.16
  10   3  -5    4.87    2.06
 -10  -3   5    2.63    1.10
 -10  -3   5    8.68    2.94
 -10  -3   5    2.55    2.20
  10   3  -4    0.26    1.26
 -10  -3   4    0.89    0.90
 -10  -3   4    7.45    2.59
 -10  -3   4    6.32    1.82
 -10   3   4    0.01    0.96
  10   3  -3    4.12    1.68
 -10  -3   3    0.98    1.13
 -10  -3   3    3.88    2.00
 -10  -3   3    1.19    2.26
 -10   3   3    5.17    1.68
  10   3  -2    5.08    2.22
 -10  -3   2    4.83    3.36
 -10  -3   2    4.87    1.67
 -10  -3   2    5.60    2.82
 -10   3   2    4.80    2.32
  10   3  -1   -0.85    1.24
 -10  -3   1    2.81    1.75
 -10  -3   1   -1.12    1.16
 -10  -3   1   -0.10    0.77
 -10   3   1    0.62    1.25
  10   3   0    2.18    1.71
 -10  -3   0    1.97    1.68
 -10  -3   0    0.44    1.77
 -10  -3   0    2.44    1.27
 -10   3   0    4.87    2.01
  10   3   1   -0.21    1.10
 -10  -3  -1   -0.04    1.57
 -10  -3  -1   -0.33    0.97
 -10   3  -1   -0.63    1.34
 -10  -3  -1    0.86    0.75
  10   3   2    5.76    1.62
 -10  -3  -2    2.67    1.06
 -10  -3  -2    1.67    2.41
 -10  -3  -2    1.24    0.90
 -10   3  -2    6.29    2.28
  10   3   3    0.55    1.18
 -10  -3  -3    1.45    0.79
 -10  -3  -3    1.40    1.29
 -10   3  -3    0.77    1.80
  10   3   4    1.96    1.04
 -10   3  -4    0.32    1.82
  10   3   5   -0.02    0.52
 -10   3  -5    0.08    0.74
 -10  -4   5    0.51    1.49
 -10  -4   5    1.04    1.19
 -10  -4   4    0.60    1.61
 -10  -4   4   -0.82    0.68
 -10  -4   4   -0.70    1.18
 -10  -4   3    2.17    1.47
 -10  -4   3    3.52    1.07
 -10  -4   3    2.50    1.68
 -10  -4   2    0.56    1.69
 -10  -4   2    0.78    1.02
 -10  -4   2    0.50    0.81
 -10  -4   1   -0.09    1.28
 -10  -4   1   -0.37    1.01
 -10  -4   1    0.27    0.74
 -10   4   1    0.73    0.97
 -10  -4   0    0.79    1.67
 -10   4   0    3.19    1.71
 -10  -4   0    2.50    0.98
 -10  -4  -1    8.56    1.73
 -10  -4  -1    9.92    2.13
 -10   4  -1   11.88    2.31
 -10   4  -2    2.46    1.52
 -10   4  -3   -2.46    1.30
 -11   0   6    1.33    1.02
 -11   0   5    1.18    0.66
 -11   0   5    1.39    1.41
 -11   0   4    0.97    0.87
 -11   0   4    3.23    1.69
 -11   0   3    1.44    1.06
 -11   0   3   -1.77    1.19
 -11   0   2   -0.80    1.02
 -11   0   2    3.55    1.60
 -11   0   1    6.09    2.96
 -11   0   1    6.20    2.71
 -11   0   0   -0.23    1.52
 -11   0   0    4.24    2.03
  11   0   1    1.30    1.32
 -11   0  -1    0.63    1.24
 -11   0  -1    2.27    1.93
  11   0   2    0.20    0.97
 -11   0  -2   -1.70    1.30
 -11   0  -2    0.84    1.36
  11   0   3    2.91    1.13
 -11   0  -3   -0.11    1.00
 -11   0  -3    0.35    1.29
  11   0   4    3.12    1.20
  11   1  -7    4.53    1.48
  11   1  -6    0.59    1.29
 -11  -1   6    1.62    1.25
  11   1  -5    3.29    1.79
 -11  -1   5    1.60    1.94
 -11  -1   5    6.17    1.96
 -11   1   5    1.94    1.76
  11   1  -4    0.29    1.39
 -11  -1   4   -2.21    1.80
 -11  -1   4    2.76    1.66
 -11   1   4    2.32    1.86
  11   1  -3    3.01    1.66
 -11  -1   3    4.00    2.52
 -11   1   3    1.16    1.15
 -11  -1   3    4.18    2.11
 -11   1   3    1.51    2.05
  11   1  -2    2.63    1.81
 -11  -1   2    5.84    2.84
 -11   1   2    0.32    1.46
 -11  -1   2    2.77    2.20
 -11   1   2    2.37    2.17
  11   1  -1    2.88    2.16
 -11  -1   1    7.45    3.42
 -11   1   1    3.05    1.93
 -11  -1   1    4.22    2.52
  11   1   0    5.25    2.10
  11  -1   0    2.57    1.36
 -11  -1   0    4.78    2.90
 -11   1   0    5.00    1.68
 -11  -1   0    2.87    2.19
 -11   1   0    0.26    2.86
  11   1   1    4.78    1.86
  11  -1   1    2.91    1.28
 -11  -1  -1    3.88    2.41
 -11   1  -1    4.30    2.16
 -11  -1  -1    5.86    2.12
 -11   1  -1    0.10    2.71
  11   1   2    1.43    1.08
  11  -1   2    0.31    0.67
 -11  -1  -2   -1.09    0.86
 -11   1  -2    0.98    1.34
  11   1   3    1.71    1.37
  11  -1   3    0.13    0.69
 -11  -1  -3    1.28    1.38
 -11  -1  -3   -0.96    1.10
 -11   1  -3    0.33    1.19
  11   1   4    0.89    1.11
 -11   1  -4    0.24    0.83
  11   1   5    1.32    0.78
  11   2  -6    2.09    1.24
 -11  -2   6    4.16    1.36
  11   2  -5    2.42    1.22
 -11  -2   5    1.47    1.06
 -11  -2   5    1.44    1.45
  11   2  -4    1.77    1.01
 -11  -2   4   -0.63    1.06
 -11  -2   4    2.20    1.27
 -11   2   4   -0.79    0.87
  11   2  -3    0.27    1.46
 -11  -2   3    4.15    1.42
 -11  -2   3    0.20    1.73
 -11   2   3    0.85    1.58
  11   2  -2    2.60    1.56
 -11  -2   2   -1.90    2.33
 -11  -2   2    1.46    1.66
 -11   2   2    1.72    1.77
  11   2  -1    2.45    1.20
 -11  -2   1    0.66    1.91
 -11  -2   1    0.27    1.52
 -11   2   1   -1.29    1.60
  11   2   0    2.14    1.44
 -11  -2   0    0.31    2.55
 -11  -2   0    1.07    1.57
 -11   2   0    4.38    1.89
  11   2   1    4.17    1.61
 -11  -2  -1    1.41    1.87
 -11  -2  -1    0.71    1.27
 -11   2  -1    4.49    1.96
  11   2   2    0.80    1.03
 -11  -2  -2    0.70    1.31
 -11   2  -2   -0.35    1.18
  11   2   3    4.53    1.16
 -11  -2  -3    1.03    1.10
 -11   2  -3    0.48    1.47
  11   2   4    7.34    1.25
 -11  -3   4    0.85    1.20
 -11  -3   4    0.07    0.95
 -11  -3   3    0.81    1.07
 -11  -3   3    2.15    1.20
  11   3  -2    2.69    0.96
 -11  -3   2    2.46    2.01
 -11  -3   2    3.42    1.45
  11   3  -1    2.40    0.96
 -11  -3   1    1.37    1.67
 -11  -3   1    1.04    1.10
 -11   3   1    0.77    1.21
  11   3   0   -0.37    0.57
 -11  -3   0    0.26    0.96
 -11   3   0    0.46    0.84
 -11   3  -1    2.64    1.46
 -12   0   3    7.68    2.08
 -12   0   2    6.76    2.26
 -12   0   1   -0.29    0.95
 -12   0   1   -1.72    1.40
 -12   0   0    3.03    0.80
 -12   0   0    0.14    1.55
  12   1  -2    1.80    0.91
 -12  -1   2    3.56    1.27
 -12   1   2    0.53    1.03
  12   1  -1    3.18    1.28
 -12  -1   1   -0.23    1.07
 -12  -1   1    2.56    1.11
 -12   1   1    1.20    1.62
   0   0   0    0.00    0.00
;
_shelx_hkl_checksum              85557
_shelx_shelxl_version_number     2014/7
_olex2_submission_special_instructions 'No special instructions were received'
loop_
_space_group_symop_operation_xyz
'x, y, z'
'-x, y+1/2, -z'
'-x, -y, -z'
'x, -y-1/2, z'
loop_
_atom_site_label
_atom_site_type_symbol
_atom_site_fract_x
_atom_site_fract_y
_atom_site_fract_z
_atom_site_U_iso_or_equiv
_atom_site_adp_type
_atom_site_occupancy
_atom_site_site_symmetry_order
_atom_site_calc_flag
_atom_site_refinement_flags_posn
_atom_site_refinement_flags_adp
_atom_site_refinement_flags_occupancy
_atom_site_disorder_assembly
_atom_site_disorder_group
Cl1 Cl 0.46639(16) 0.7500 -0.01428(12) 0.0342(5) Uani 1 2 d S T P . .
O1 O 0.3646(4) 0.7500 0.7640(3) 0.0362(12) Uani 1 2 d S T P . .
O2 O 0.0238(5) 0.7500 0.1487(4) 0.087(2) Uani 1 2 d S T P A 1
O3 O 0.0368(8) 0.9772(12) 0.2934(6) 0.037(2) Uani 0.5 1 d . . . A 1
O4 O 0.0183(8) 0.5657(13) 0.3558(6) 0.041(2) Uani 0.5 1 d . . . B 2
O5 O -0.0323(5) 0.7500 0.4926(4) 0.0492(15) Uani 1 2 d S T P B 2
N1 N 0.6438(5) 0.7500 0.3250(4) 0.0270(13) Uani 1 2 d S T P . .
N1AC N 0.8441(7) 0.7500 0.9115(5) 0.071(2) Uani 1 2 d S T P . .
N12 N 0.6131(5) 0.7500 0.5264(4) 0.0269(14) Uani 1 2 d S T P . .
N23 N 0.0852(8) 0.8559(12) 0.2324(6) 0.035(2) Uani 0.5 1 d . . . A 1
N26 N 0.0496(8) 0.6796(11) 0.4323(6) 0.034(2) Uani 0.5 1 d . . . B 2
C2 C 0.7221(6) 0.7500 0.2447(5) 0.0295(16) Uani 1 2 d S T P . .
H2 H 0.8164 0.7500 0.2605 0.035 Uiso 1 2 calc RS T P . .
C2AC C 0.9571(9) 0.7500 0.9011(6) 0.062(3) Uani 1 2 d S T P . .
C3 C 0.6723(7) 0.7500 0.1397(5) 0.0313(17) Uani 1 2 d S T P . .
H3 H 0.7314 0.7500 0.0867 0.038 Uiso 1 2 calc RS T P . .
C3AC C 1.1005(8) 0.7500 0.8873(7) 0.106(4) Uani 1 2 d S T P . .
H3AA H 1.1465 0.6542 0.9348 0.159 Uiso 0.5 1 calc GR . . C -1
H3AB H 1.1374 0.8823 0.9019 0.159 Uiso 0.5 1 calc GR . . C -1
H3AC H 1.1135 0.7135 0.8159 0.159 Uiso 0.5 1 calc GR . . C -1
C4 C 0.5336(7) 0.7500 0.1153(5) 0.0298(16) Uani 1 2 d S T P A .
C5 C 0.3041(7) 0.7500 0.1780(5) 0.045(2) Uani 1 2 d S T P A .
H5 H 0.2641 0.7500 0.1089 0.054 Uiso 1 2 calc RS T P . .
C6 C 0.2256(7) 0.7500 0.2587(6) 0.048(2) Uani 1 2 d S T P . .
C7 C 0.1946(6) 0.7500 0.4519(5) 0.0320(18) Uani 1 2 d S T P . .
C8 C 0.2458(6) 0.7500 0.5554(5) 0.0326(17) Uani 1 2 d S T P A .
H8 H 0.1869 0.7500 0.6086 0.039 Uiso 1 2 calc RS T P . .
C9 C 0.4432(7) 0.7500 0.6931(5) 0.0266(16) Uani 1 2 d S T P A .
C10 C 0.5876(6) 0.7500 0.7114(5) 0.0305(17) Uani 1 2 d S T P . .
H10 H 0.6285 0.7500 0.7803 0.037 Uiso 1 2 calc RS T P . .
C11 C 0.6669(6) 0.7500 0.6293(5) 0.0278(16) Uani 1 2 d S T P . .
H11 H 0.7613 0.7500 0.6437 0.033 Uiso 1 2 calc RS T P . .
C13 C 0.4756(6) 0.7500 0.4990(5) 0.0231(15) Uani 1 2 d S T P A .
C14 C 0.3878(6) 0.7500 0.5812(5) 0.0258(16) Uani 1 2 d S T P . .
C15 C 0.4198(6) 0.7500 0.3903(5) 0.0246(15) Uani 1 2 d S T P . .
C16 C 0.2769(6) 0.7500 0.3670(5) 0.0238(15) Uani 1 2 d S T P A .
C17 C 0.5070(6) 0.7500 0.3025(5) 0.0224(15) Uani 1 2 d S T P A .
C18 C 0.4462(6) 0.7500 0.1979(5) 0.0233(15) Uani 1 2 d S T P . .
H12 H 0.665(6) 0.7500 0.471(5) 0.04(2) Uiso 1 2 d S T P . .
loop_
_atom_site_aniso_label
_atom_site_aniso_U_11
_atom_site_aniso_U_22
_atom_site_aniso_U_33
_atom_site_aniso_U_23
_atom_site_aniso_U_13
_atom_site_aniso_U_12
Cl1 0.0401(10) 0.0375(12) 0.0247(9) 0.000 0.0013(7) 0.000
O1 0.041(3) 0.042(3) 0.026(3) 0.000 0.005(2) 0.000
O2 0.032(3) 0.192(8) 0.035(3) 0.000 -0.004(3) 0.000
O3 0.031(4) 0.042(6) 0.037(5) -0.004(4) 0.002(4) 0.002(3)
O4 0.036(4) 0.047(6) 0.040(5) 0.001(5) -0.002(4) -0.009(4)
O5 0.028(3) 0.084(4) 0.037(3) 0.000 0.012(2) 0.000
N1 0.029(3) 0.025(3) 0.027(3) 0.000 0.002(2) 0.000
N1AC 0.043(4) 0.129(7) 0.041(4) 0.000 0.003(3) 0.000
N12 0.030(3) 0.031(4) 0.019(3) 0.000 0.001(2) 0.000
N23 0.026(4) 0.042(6) 0.037(5) 0.006(4) 0.002(4) 0.003(4)
N26 0.035(5) 0.029(7) 0.036(5) 0.012(4) -0.001(4) 0.005(3)
C2 0.021(3) 0.041(5) 0.027(4) 0.000 0.001(3) 0.000
C2AC 0.049(5) 0.092(8) 0.043(5) 0.000 0.000(4) 0.000
C3 0.036(4) 0.035(5) 0.023(4) 0.000 0.006(3) 0.000
C3AC 0.039(5) 0.218(13) 0.063(7) 0.000 0.016(5) 0.000
C4 0.035(4) 0.030(5) 0.025(4) 0.000 0.006(3) 0.000
C5 0.032(4) 0.082(6) 0.019(4) 0.000 -0.006(3) 0.000
C6 0.030(4) 0.085(7) 0.028(4) 0.000 -0.001(3) 0.000
C7 0.022(4) 0.045(5) 0.029(4) 0.000 0.004(3) 0.000
C8 0.026(4) 0.041(5) 0.032(4) 0.000 0.015(3) 0.000
C9 0.037(4) 0.015(4) 0.027(4) 0.000 -0.001(3) 0.000
C10 0.038(4) 0.029(4) 0.022(4) 0.000 -0.008(3) 0.000
C11 0.030(4) 0.024(4) 0.028(4) 0.000 -0.007(3) 0.000
C13 0.028(3) 0.015(4) 0.026(4) 0.000 -0.001(3) 0.000
C14 0.032(4) 0.028(4) 0.018(3) 0.000 0.001(3) 0.000
C15 0.031(4) 0.023(4) 0.020(3) 0.000 0.002(3) 0.000
C16 0.028(4) 0.020(4) 0.025(3) 0.000 0.010(3) 0.000
C17 0.027(3) 0.020(4) 0.020(3) 0.000 0.002(3) 0.000
C18 0.036(4) 0.010(4) 0.025(3) 0.000 0.009(3) 0.000
loop_
_atom_type_symbol
_atom_type_description
_atom_type_scat_dispersion_real
_atom_type_scat_dispersion_imag
_atom_type_scat_source
C C 0.0181 0.0091 'International Tables Vol C Tables 4.2.6.8 and 6.1.1.4'
H H 0.0000 0.0000 'International Tables Vol C Tables 4.2.6.8 and 6.1.1.4'
N N 0.0311 0.0180 'International Tables Vol C Tables 4.2.6.8 and 6.1.1.4'
O O 0.0492 0.0322 'International Tables Vol C Tables 4.2.6.8 and 6.1.1.4'
Cl Cl 0.3639 0.7018 'International Tables Vol C Tables 4.2.6.8 and 6.1.1.4'
loop_
_geom_angle_atom_site_label_1
_geom_angle_atom_site_label_2
_geom_angle_atom_site_label_3
_geom_angle
_geom_angle_site_symmetry_1
_geom_angle_site_symmetry_3
_geom_angle_publ_flag
N23 O2 N23 61.7(7) 4_575 . ?
N26 O5 N26 43.8(6) 4_575 . ?
C2 N1 C17 118.1(5) . . ?
C11 N12 H12 123(4) . . ?
C13 N12 C11 122.1(5) . . ?
C13 N12 H12 114(4) . . ?
O2 N23 N23 59.2(3) . 4_575 ?
O2 N23 C6 104.8(6) . . ?
O3 N23 O2 130.6(7) . . ?
O3 N23 N23 130.3(5) . 4_575 ?
O3 N23 C6 122.7(7) . . ?
N23 N23 C6 63.2(3) 4_575 . ?
O4 N26 O5 125.2(8) . . ?
O4 N26 C7 118.7(7) . . ?
O5 N26 C7 115.9(6) . . ?
N26 N26 O4 127.2(5) 4_575 . ?
N26 N26 O5 68.1(3) 4_575 . ?
N26 N26 C7 71.9(3) 4_575 . ?
N1 C2 H2 117.9 . . ?
N1 C2 C3 124.2(6) . . ?
C3 C2 H2 117.9 . . ?
N1AC C2AC C3AC 179.7(9) . . ?
C2 C3 H3 120.8 . . ?
C4 C3 C2 118.5(6) . . ?
C4 C3 H3 120.8 . . ?
C2AC C3AC H3AA 109.5 . . ?
C2AC C3AC H3AB 109.5 . . ?
C2AC C3AC H3AC 109.5 . . ?
H3AA C3AC H3AB 109.5 . . ?
H3AA C3AC H3AC 109.5 . . ?
H3AB C3AC H3AC 109.5 . . ?
C3 C4 Cl1 120.3(5) . . ?
C3 C4 C18 119.4(6) . . ?
C18 C4 Cl1 120.4(5) . . ?
C6 C5 H5 120.1 . . ?
C6 C5 C18 119.9(6) . . ?
C18 C5 H5 120.1 . . ?
N23 C6 N23 53.5(6) 4_575 . ?
C5 C6 N23 113.4(6) . . ?
C5 C6 N23 113.4(6) . 4_575 ?
C5 C6 C16 124.4(7) . . ?
C16 C6 N23 115.9(6) . . ?
C16 C6 N23 115.9(6) . 4_575 ?
N26 C7 N26 36.3(6) . 4_575 ?
C8 C7 N26 114.9(6) . 4_575 ?
C8 C7 N26 114.9(6) . . ?
C8 C7 C16 123.6(6) . . ?
C16 C7 N26 118.5(6) . 4_575 ?
C16 C7 N26 118.5(6) . . ?
C7 C8 H8 120.1 . . ?
C7 C8 C14 119.7(6) . . ?
C14 C8 H8 120.1 . . ?
O1 C9 C10 124.2(6) . . ?
O1 C9 C14 120.1(6) . . ?
C10 C9 C14 115.7(6) . . ?
C9 C10 H10 119.7 . . ?
C11 C10 C9 120.6(6) . . ?
C11 C10 H10 119.7 . . ?
N12 C11 H11 118.7 . . ?
C10 C11 N12 122.5(6) . . ?
C10 C11 H11 118.7 . . ?
N12 C13 C14 117.9(6) . . ?
N12 C13 C15 121.8(6) . . ?
C14 C13 C15 120.3(6) . . ?
C8 C14 C9 119.7(5) . . ?
C8 C14 C13 119.2(5) . . ?
C13 C14 C9 121.1(6) . . ?
C13 C15 C17 122.1(6) . . ?
C16 C15 C13 119.2(6) . . ?
C16 C15 C17 118.7(5) . . ?
C7 C16 C6 124.4(6) . . ?
C7 C16 C15 118.1(6) . . ?
C15 C16 C6 117.5(6) . . ?
N1 C17 C15 118.6(6) . . ?
N1 C17 C18 122.0(6) . . ?
C18 C17 C15 119.4(6) . . ?
C5 C18 C4 122.0(6) . . ?
C5 C18 C17 120.2(6) . . ?
C17 C18 C4 117.8(6) . . ?
loop_
_geom_bond_atom_site_label_1
_geom_bond_atom_site_label_2
_geom_bond_distance
_geom_bond_site_symmetry_2
_geom_bond_publ_flag
Cl1 C4 1.719(6) . ?
O1 C9 1.240(6) . ?
O2 N23 1.368(8) . ?
O2 N23 1.368(8) 4_575 ?
O3 N23 1.242(10) . ?
O4 N26 1.248(9) . ?
O5 N26 1.252(7) 4_575 ?
O5 N26 1.252(7) . ?
N1 C2 1.335(6) . ?
N1 C17 1.348(7) . ?
N1AC C2AC 1.131(9) . ?
N12 C11 1.366(7) . ?
N12 C13 1.364(7) . ?
N12 H12 0.90(6) . ?
N23 N23 1.403(16) 4_575 ?
N23 C6 1.557(9) . ?
N26 N26 0.933(14) 4_575 ?
N26 C7 1.498(8) . ?
C2 H2 0.9300 . ?
C2 C3 1.380(8) . ?
C2AC C3AC 1.437(11) . ?
C3 H3 0.9300 . ?
C3 C4 1.370(8) . ?
C3AC H3AA 0.9600 . ?
C3AC H3AB 0.9600 . ?
C3AC H3AC 0.9600 . ?
C4 C18 1.417(8) . ?
C5 H5 0.9300 . ?
C5 C6 1.339(8) . ?
C5 C18 1.396(8) . ?
C6 N23 1.557(9) 4_575 ?
C6 C16 1.423(8) . ?
C7 N26 1.499(8) 4_575 ?
C7 C8 1.366(8) . ?
C7 C16 1.407(8) . ?
C8 H8 0.9300 . ?
C8 C14 1.405(8) . ?
C9 C10 1.418(8) . ?
C9 C14 1.476(8) . ?
C10 H10 0.9300 . ?
C10 C11 1.359(8) . ?
C11 H11 0.9300 . ?
C13 C14 1.416(8) . ?
C13 C15 1.440(8) . ?
C15 C16 1.409(8) . ?
C15 C17 1.469(8) . ?
C17 C18 1.408(8) . ?
loop_
_geom_torsion_atom_site_label_1
_geom_torsion_atom_site_label_2
_geom_torsion_atom_site_label_3
_geom_torsion_atom_site_label_4
_geom_torsion
_geom_torsion_site_symmetry_1
_geom_torsion_site_symmetry_2
_geom_torsion_site_symmetry_3
_geom_torsion_site_symmetry_4
_geom_torsion_publ_flag
Cl1 C4 C18 C5 0.000(1) . . . . ?
Cl1 C4 C18 C17 180.000(1) . . . . ?
O1 C9 C10 C11 180.000(2) . . . . ?
O1 C9 C14 C8 0.000(2) . . . . ?
O1 C9 C14 C13 180.000(2) . . . . ?
O2 N23 C6 N23 -43.3(6) . . . 4_575 ?
O2 N23 C6 C5 59.3(6) . . . . ?
O2 N23 C6 C16 -147.5(4) . . . . ?
O3 N23 C6 N23 122.5(7) . . . 4_575 ?
O3 N23 C6 C5 -134.9(7) . . . . ?
O3 N23 C6 C16 18.3(9) . . . . ?
O4 N26 C7 N26 123.1(6) . . . 4_575 ?
O4 N26 C7 C8 -138.2(6) . . . . ?
O4 N26 C7 C16 22.8(8) . . . . ?
O5 N26 C7 N26 -53.4(6) . . . 4_575 ?
O5 N26 C7 C8 45.3(6) . . . . ?
O5 N26 C7 C16 -153.7(4) . . . . ?
N1 C2 C3 C4 0.000(1) . . . . ?
N1 C17 C18 C4 0.000(1) . . . . ?
N1 C17 C18 C5 180.000(1) . . . . ?
N12 C13 C14 C8 180.000(1) . . . . ?
N12 C13 C14 C9 0.000(2) . . . . ?
N12 C13 C15 C16 180.000(1) . . . . ?
N12 C13 C15 C17 0.000(1) . . . . ?
N23 O2 N23 O3 -118.7(8) 4_575 . . . ?
N23 O2 N23 C6 45.5(6) 4_575 . . . ?
N23 N23 C6 C5 102.6(4) 4_575 . . . ?
N23 N23 C6 C16 -104.2(4) 4_575 . . . ?
N23 C6 C16 C7 30.0(4) . . . . ?
N23 C6 C16 C7 -30.0(4) 4_575 . . . ?
N23 C6 C16 C15 150.0(4) 4_575 . . . ?
N23 C6 C16 C15 -150.0(4) . . . . ?
N26 O5 N26 O4 -120.9(7) 4_575 . . . ?
N26 O5 N26 C7 55.3(6) 4_575 . . . ?
N26 N26 C7 C8 98.7(3) 4_575 . . . ?
N26 N26 C7 C16 -100.3(3) 4_575 . . . ?
N26 C7 C8 C14 -159.9(3) 4_575 . . . ?
N26 C7 C8 C14 159.9(3) . . . . ?
N26 C7 C16 C6 -20.8(3) 4_575 . . . ?
N26 C7 C16 C6 20.8(3) . . . . ?
N26 C7 C16 C15 159.2(3) 4_575 . . . ?
N26 C7 C16 C15 -159.2(3) . . . . ?
C2 N1 C17 C15 180.000(1) . . . . ?
C2 N1 C17 C18 0.000(1) . . . . ?
C2 C3 C4 Cl1 180.000(1) . . . . ?
C2 C3 C4 C18 0.000(1) . . . . ?
C3 C4 C18 C5 180.000(0) . . . . ?
C3 C4 C18 C17 0.000(1) . . . . ?
C5 C6 C16 C7 180.000(1) . . . . ?
C5 C6 C16 C15 0.000(1) . . . . ?
C6 C5 C18 C4 180.000(1) . . . . ?
C6 C5 C18 C17 0.000(1) . . . . ?
C7 C8 C14 C9 180.000(1) . . . . ?
C7 C8 C14 C13 0.000(2) . . . . ?
C8 C7 C16 C6 180.000(1) . . . . ?
C8 C7 C16 C15 0.000(1) . . . . ?
C9 C10 C11 N12 0.000(2) . . . . ?
C10 C9 C14 C8 180.000(2) . . . . ?
C10 C9 C14 C13 0.000(2) . . . . ?
C11 N12 C13 C14 0.000(2) . . . . ?
C11 N12 C13 C15 180.000(1) . . . . ?
C13 N12 C11 C10 0.000(2) . . . . ?
C13 C15 C16 C6 180.000(1) . . . . ?
C13 C15 C16 C7 0.000(1) . . . . ?
C13 C15 C17 N1 0.000(1) . . . . ?
C13 C15 C17 C18 180.000(1) . . . . ?
C14 C9 C10 C11 0.000(2) . . . . ?
C14 C13 C15 C16 0.000(1) . . . . ?
C14 C13 C15 C17 180.000(1) . . . . ?
C15 C13 C14 C8 0.000(2) . . . . ?
C15 C13 C14 C9 180.000(1) . . . . ?
C15 C17 C18 C4 180.000(1) . . . . ?
C15 C17 C18 C5 0.000(1) . . . . ?
C16 C7 C8 C14 0.000(2) . . . . ?
C16 C15 C17 N1 180.000(1) . . . . ?
C16 C15 C17 C18 0.000(1) . . . . ?
C17 N1 C2 C3 0.000(1) . . . . ?
C17 C15 C16 C6 0.000(1) . . . . ?
C17 C15 C16 C7 180.000(1) . . . . ?
C18 C5 C6 N23 150.6(4) . . . . ?
C18 C5 C6 N23 -150.6(4) . . . 4_575 ?
C18 C5 C6 C16 0.000(1) . . . . ?
