#------------------------------------------------------------------------------
#$Date: 2020-05-17 02:33:33 +0300 (Sun, 17 May 2020) $
#$Revision: 252123 $
#$URL: file:///home/coder/svn-repositories/cod/cif/4/03/83/4038381.cif $
#------------------------------------------------------------------------------
#
# This file is available in the Crystallography Open Database (COD),
# http://www.crystallography.net/
#
# All data on this site have been placed in the public domain by the
# contributors.
#
data_4038381
loop_
_publ_author_name
'Chang, Meng-Yang'
'Tsai, Yu-Lin'
'Chen, Hsing-Yin'
_publ_section_title
;
 CuBr<sub>2</sub>-Mediated One-Pot Synthesis of Sulfonyl
 9-Fluorenylidenes.
;
_journal_name_full               'The Journal of organic chemistry'
_journal_paper_doi               10.1021/acs.joc.0c00035
_journal_year                    2020
_chemical_formula_sum            'C17 H16 O4 S'
_chemical_formula_weight         316.36
_space_group_crystal_system      triclinic
_space_group_IT_number           2
_space_group_name_Hall           '-P 1'
_space_group_name_H-M_alt        'P -1'
_atom_sites_solution_hydrogens   geom
_audit_creation_method           SHELXL-2014/6
_cell_angle_alpha                85.8850(10)
_cell_angle_beta                 73.7530(10)
_cell_angle_gamma                86.5520(10)
_cell_formula_units_Z            2
_cell_length_a                   8.5546(2)
_cell_length_b                   9.0687(2)
_cell_length_c                   9.9760(2)
_cell_measurement_reflns_used    8575
_cell_measurement_temperature    100(2)
_cell_measurement_theta_max      26.3675
_cell_measurement_theta_min      2.2535
_cell_volume                     740.46(3)
_computing_cell_refinement       'SAINT V8.34A (Bruker AXS Inc., 2013)'
_computing_data_collection       'Bruker APEX2'
_computing_data_reduction        'SAINT V8.34A (Bruker AXS Inc., 2013)'
_computing_molecular_graphics    'Bruker SHELXTL'
_computing_publication_material  'Bruker SHELXTL'
_computing_structure_refinement  'SHELXL-2014/6 (Sheldrick, 2014)'
_diffrn_ambient_temperature      100(2)
_diffrn_detector_area_resol_mean 8.3333
_diffrn_measured_fraction_theta_full 0.995
_diffrn_measured_fraction_theta_max 0.995
_diffrn_measurement_device_type  'Bruker APEX-II CCD'
_diffrn_measurement_method       '\f and \w scans'
_diffrn_radiation_type           MoK\a
_diffrn_radiation_wavelength     0.71073
_diffrn_reflns_av_R_equivalents  0.0205
_diffrn_reflns_av_unetI/netI     0.0166
_diffrn_reflns_Laue_measured_fraction_full 0.995
_diffrn_reflns_Laue_measured_fraction_max 0.995
_diffrn_reflns_limit_h_max       10
_diffrn_reflns_limit_h_min       -10
_diffrn_reflns_limit_k_max       11
_diffrn_reflns_limit_k_min       -11
_diffrn_reflns_limit_l_max       12
_diffrn_reflns_limit_l_min       -12
_diffrn_reflns_number            15867
_diffrn_reflns_point_group_measured_fraction_full 0.995
_diffrn_reflns_point_group_measured_fraction_max 0.995
_diffrn_reflns_theta_full        25.242
_diffrn_reflns_theta_max         26.410
_diffrn_reflns_theta_min         2.254
_exptl_absorpt_coefficient_mu    0.234
_exptl_absorpt_correction_T_max  0.7454
_exptl_absorpt_correction_T_min  0.6954
_exptl_absorpt_correction_type   multi-scan
_exptl_absorpt_process_details   'SADABS V2014/4 (Bruker AXS Inc.)'
_exptl_crystal_colour            Red
_exptl_crystal_density_diffrn    1.419
_exptl_crystal_density_meas      ?
_exptl_crystal_density_method    'not measured'
_exptl_crystal_description       Lump
_exptl_crystal_F_000             332
_exptl_crystal_size_max          0.18
_exptl_crystal_size_mid          0.15
_exptl_crystal_size_min          0.12
_refine_diff_density_max         0.577
_refine_diff_density_min         -0.368
_refine_diff_density_rms         0.053
_refine_ls_extinction_method     none
_refine_ls_goodness_of_fit_ref   1.059
_refine_ls_hydrogen_treatment    constr
_refine_ls_matrix_type           full
_refine_ls_number_parameters     202
_refine_ls_number_reflns         3025
_refine_ls_number_restraints     0
_refine_ls_restrained_S_all      1.059
_refine_ls_R_factor_all          0.0348
_refine_ls_R_factor_gt           0.0312
_refine_ls_shift/su_max          0.000
_refine_ls_shift/su_mean         0.000
_refine_ls_structure_factor_coef Fsqd
_refine_ls_weighting_details
'w=1/[\s^2^(Fo^2^)+(0.0431P)^2^+0.4445P] where P=(Fo^2^+2Fc^2^)/3'
_refine_ls_weighting_scheme      calc
_refine_ls_wR_factor_gt          0.0833
_refine_ls_wR_factor_ref         0.0860
_reflns_Friedel_coverage         0.000
_reflns_number_gt                2743
_reflns_number_total             3025
_reflns_threshold_expression     'I > 2\s(I)'
_cod_data_source_file            jo0c00035_si_001.cif
_cod_data_source_block           mo_180844LT_0m
_cod_depositor_comments
;
The following automatic conversions were performed:

data item '_exptl_crystal_density_meas' value 'not measured' was
changed to '?' -- the value is perceived as not measured.

Automatic conversion script
Id: cif_fix_values 7556 2019-12-06 15:28:31Z antanas 
;
_cod_database_code               4038381
_shelx_space_group_comment
;
The symmetry employed for this shelxl refinement is uniquely defined
by the following loop, which should always be used as a source of
symmetry information in preference to the above space-group names.
They are only intended as comments.
;
_shelxl_version_number           2014/6
_shelx_res_file
;
TITL mo_180844LT_0m in P-1
CELL 0.71073 8.5546 9.0687 9.9760 85.885 73.753 86.552
ZERR 2.00 0.0002 0.0002 0.0002 0.001 0.001 0.001
LATT 1
SFAC C H O S
UNIT 34 32 8 2
TEMP -173.420
ACTA
L.S. 4
FMAP 2
PLAN 5
BOND $H

WGHT    0.043100    0.444500
FVAR       1.59327
S1    4    0.555378    0.673995    0.772293    11.00000    0.01129    0.01788 =
         0.01315    0.00165   -0.00160    0.00006
O1    3   -0.400661    0.708933    1.248244    11.00000    0.01141    0.02244 =
         0.02327    0.00195    0.00040    0.00159
O2    3   -0.177950    0.540377    1.312125    11.00000    0.01423    0.02191 =
         0.01557    0.00301    0.00034    0.00096
O3    3    0.654437    0.564061    0.826189    11.00000    0.01462    0.02790 =
         0.02260    0.00697   -0.00280    0.00344
O4    3    0.607950    0.824044    0.750378    11.00000    0.01873    0.02125 =
         0.02111    0.00145   -0.00570   -0.00483
C1    1    0.537925    0.614191    0.613259    11.00000    0.02049    0.02018 =
         0.01340   -0.00207    0.00003   -0.00129
AFIX 137
H1    2    0.644660    0.615722    0.543772    11.00000   -1.50000
H3    2    0.460330    0.680331    0.579670    11.00000   -1.50000
H16   2    0.499070    0.513229    0.627806    11.00000   -1.50000
AFIX   0
C2    1    0.360253    0.666203    0.888444    11.00000    0.01409    0.01697 =
         0.01010    0.00092   -0.00071   -0.00100
AFIX  43
H15   2    0.347392    0.593838    0.964022    11.00000   -1.20000
AFIX   0
C3    1    0.226227    0.749378    0.884542    11.00000    0.01488    0.01450 =
         0.01137   -0.00233   -0.00286   -0.00165
C4    1    0.068480    0.726114    0.990191    11.00000    0.01314    0.01547 =
         0.01277   -0.00341   -0.00214    0.00015
C5    1    0.032816    0.629368    1.108716    11.00000    0.01380    0.01662 =
         0.01339   -0.00259   -0.00340    0.00183
AFIX  43
H4    2    0.115381    0.566082    1.131529    11.00000   -1.20000
AFIX   0
C6    1   -0.126318    0.628222    1.192129    11.00000    0.01624    0.01596 =
         0.01194   -0.00120   -0.00217   -0.00126
C7    1   -0.249373    0.721462    1.156905    11.00000    0.01169    0.01739 =
         0.01747   -0.00388   -0.00080   -0.00081
C8    1   -0.531152    0.796283    1.215480    11.00000    0.01168    0.02541 =
         0.03155    0.00050   -0.00281    0.00317
AFIX 137
H9    2   -0.508338    0.901386    1.211277    11.00000   -1.50000
H8    2   -0.633011    0.776915    1.287941    11.00000   -1.50000
H2    2   -0.541618    0.770466    1.124748    11.00000   -1.50000
AFIX   0
C9    1   -0.058078    0.440870    1.347244    11.00000    0.01904    0.02208 =
         0.01514    0.00238   -0.00408    0.00034
AFIX 137
H6    2   -0.009461    0.377772    1.269221    11.00000   -1.50000
H7    2   -0.109365    0.379038    1.430860    11.00000   -1.50000
H5    2    0.026982    0.497406    1.365789    11.00000   -1.50000
AFIX   0
C10   1   -0.212791    0.816061    1.038160    11.00000    0.01382    0.01649 =
         0.01910   -0.00249   -0.00570    0.00191
AFIX  43
H14   2   -0.295237    0.878151    1.013743    11.00000   -1.20000
AFIX   0
C11   1   -0.052059    0.817838    0.955464    11.00000    0.01559    0.01418 =
         0.01465   -0.00306   -0.00440    0.00015
C12   1    0.022884    0.905823    0.826772    11.00000    0.01610    0.01455 =
         0.01515   -0.00284   -0.00471   -0.00094
C13   1    0.191798    0.867849    0.784026    11.00000    0.01621    0.01377 =
         0.01394   -0.00259   -0.00584    0.00016
C14   1    0.289769    0.937875    0.664384    11.00000    0.01700    0.01736 =
         0.01549   -0.00068   -0.00312   -0.00106
AFIX  43
H13   2    0.403722    0.915262    0.635702    11.00000   -1.20000
AFIX   0
C15   1    0.218888    1.041906    0.586712    11.00000    0.02318    0.01855 =
         0.01672    0.00331   -0.00440   -0.00369
AFIX  43
H12   2    0.284900    1.089081    0.503838    11.00000   -1.20000
AFIX   0
C16   1    0.053001    1.077110    0.629320    11.00000    0.02488    0.01752 =
         0.02236    0.00336   -0.01074   -0.00009
AFIX  43
H11   2    0.006767    1.148317    0.575295    11.00000   -1.20000
AFIX   0
C17   1   -0.046488    1.009626    0.749970    11.00000    0.01710    0.01814 =
         0.02222   -0.00097   -0.00761    0.00154
AFIX  43
H10   2   -0.159967    1.034379    0.779069    11.00000   -1.20000
AFIX   0
HKLF 4 1 1 0 0 0 1 0 0 0 1

REM  mo_180844LT_0m in P-1
REM R1 =  0.0312 for    2743 Fo > 4sig(Fo)  and  0.0348 for all    3025 data
REM    202 parameters refined using      0 restraints

END

WGHT      0.0431      0.4453

REM Highest difference peak  0.577,  deepest hole -0.368,  1-sigma level  0.053
Q1    1   0.2581  1.1122  0.4683  11.00000  0.05    0.58
Q2    1   0.5507  0.6444  0.6834  11.00000  0.05    0.40
Q3    1   0.1046  0.8895  0.7966  11.00000  0.05    0.36
Q4    1   0.1510  0.7290  0.9380  11.00000  0.05    0.35
Q5    1   0.4487  0.6749  0.8314  11.00000  0.05    0.33
;
_shelx_res_checksum              12355
_shelx_hkl_file
;
  -1   0   0 5.73810 1.07707   9
  -1   0   0 7.55392 1.25366  10
  -1   0   0 11.0087 1.35016  13
  -1   0   0 9.24389 1.28700   6
  -1   0   0 10.4591 1.23794   1
   1   0   0 15.1775 1.63654  12
   1   0   0 10.4734 1.21302   1
   1   0   0 7.90107 1.32432   2
   1   0   0 7.04473 1.10438   9
   1   0   0 6.74651 1.18997  13
  -2   0   0 3656.15 71.1683  10
  -2   0   0 3606.77 70.5304   1
  -2   0   0 3650.07 71.0707  13
   2   0   0 3641.73 70.5671   1
   2   0   0 3670.35 70.9569   9
   2   0   0 3667.39 71.1731   2
  -3   0   0 109.125 5.43714  10
  -3   0   0 79.8861 4.78347  13
   3   0   0 115.396 5.30367   9
   3   0   0 101.460 4.78781   1
   3   0   0 102.234 6.26191   2
  -4   0   0 336.561 11.6187  12
  -4   0   0 325.153 10.8443  13
  -4   0   0 315.853 10.8643  10
   4   0   0 326.701 9.94772   1
   4   0   0 327.529 11.3357   2
   4   0   0 323.851 10.6080   9
  -5   0   0 2154.23 48.1075  12
  -5   0   0 2175.13 47.5036  10
  -5   0   0 2155.02 47.1643  13
   5   0   0 2200.24 47.0499   9
   5   0   0 2151.08 45.8690   1
   5   0   0 2151.23 47.3779   2
  -6   0   0 275.950 12.3448  13
  -6   0   0 260.575 11.8335  10
   6   0   0 276.288 11.6570   9
   6   0   0 271.359 10.5308   1
  -7   0   0 177.471 12.6395  12
  -7   0   0 190.641 11.0594  13
  -7   0   0 166.381 10.7097  10
   7   0   0 168.199 11.2706   2
   7   0   0 169.094 9.25385   1
   7   0   0 163.846 9.97210   9
  -8   0   0 683.632 22.7866  10
  -8   0   0 659.710 24.0615  12
  -8   0   0 618.562 21.9653  13
   8   0   0 630.317 22.1664   2
   8   0   0 672.743 20.2253   1
   8   0   0 620.680 21.4587   9
  -9   0   0 20.5124 6.66828   7
  -9   0   0 19.4921 6.97274  13
  -9   0   0 9.32071 7.61143  12
  -9   0   0 19.2868 6.32016  10
   9   0   0 19.4979 5.20302   1
   9   0   0 27.3079 6.33065   9
   9   0   0 27.6311 7.34112   2
 -10   0   0 616.767 24.8088  10
 -10   0   0 654.934 25.0871  13
 -10   0   0 617.604 26.5889  12
  10   0   0 597.189 21.1889   1
  10   0   0 599.974 23.8685   2
  10   0   0 639.349 23.9177   9
  10  -1   0 665.512 22.1445   1
  10  -1   0 682.041 24.6199   9
  10  -1   0 628.945 24.8406   2
 -10   1   0 621.660 24.9761  10
 -10   1   0 630.368 25.6511  13
 -10   1   0 614.484 27.2863  12
   9  -1   0 224.491 13.0502   9
   9  -1   0 206.737 11.4374   1
   9  -1   0 171.258 13.2260   2
  -9   1   0 190.422 14.2013  13
  -9   1   0 192.960 13.3863  10
  -9   1   0 216.891 16.3545  12
   8  -1   0 60.4720 7.39434   9
   8  -1   0 77.9506 9.07131   2
   8  -1   0 63.7148 7.11209   1
  -8   1   0 60.4020 8.69290  13
  -8   1   0 54.1522 7.59897  10
  -8   1   0 66.5041 6.01591   7
  -8   1   0 76.1103 10.3438  12
   7  -1   0 200.318 10.7137   9
   7  -1   0 198.530 9.89391   1
   7  -1   0 204.124 12.2356   2
  -7   1   0 218.938 12.8390  13
  -7   1   0 211.864 13.5823  12
  -7   1   0 198.866 8.65871   7
  -7   1   0 196.417 11.8111  10
   6  -1   0 586.932 17.6671   9
   6  -1   0 560.939 18.6124   2
   6  -1   0 535.857 16.4193   1
  -6   1   0 575.984 18.5105  10
  -6   1   0 589.063 18.6777  13
   5  -1   0 453.160 14.7496   2
   5  -1   0 429.220 13.6106   9
   5  -1   0 420.431 12.9594   1
  -5   1   0 437.394 14.3309  10
  -5   1   0 462.279 15.5352  12
  -5   1   0 403.930 14.4300  13
   4  -1   0 52.0002 4.46147   9
   4  -1   0 45.8209 4.06511   1
   4  -1   0 53.8348 5.53618   2
  -4   1   0 57.2695 5.02807  13
  -4   1   0 50.1362 5.63842  12
  -4   1   0 49.1656 4.86009  10
   3  -1   0 2814.08 56.3709   9
   3  -1   0 2749.61 55.8300   1
   3  -1   0 2783.39 56.6878   2
  -3   1   0 2797.20 57.2022  12
  -3   1   0 2819.74 56.9372  10
   2  -1   0 4983.62 97.8240   9
   2  -1   0 5040.74 98.0957   2
   2  -1   0 5043.57 97.6768   1
  -2   1   0 5126.81 98.4469  12
  -2   1   0 5166.13 97.7155   3
   0  -1   0 479.256 10.1268   5
   0  -1   0 491.156 10.4005   8
   0  -1   0 503.091 10.2080  13
   0  -1   0 493.397 9.58534   2
   0   1   0 484.765 10.1647  13
   0   1   0 498.062 10.3389   3
   0   1   0 493.204 10.1362   5
  -1  -1   0 9.76221 1.34958  12
  -1  -1   0 9.73671 1.28083   6
  -1  -1   0 7.94904 1.42057   9
  -1  -1   0 7.54147 1.34529   8
   1   1   0 12.2678 1.42008  12
   1   1   0 6.73425 1.31531   8
   1   1   0 8.36172 1.22200   6
   1   1   0 13.3358 1.45761   2
  -2  -1   0 874.455 18.7207  13
  -2  -1   0 904.032 19.3881  10
  -2  -1   0 852.887 19.0840  12
   2   1   0 852.324 18.7259   8
   2   1   0 865.187 18.9382   2
   2   1   0 848.518 18.7915   1
   2   1   0 865.750 18.7424   6
  -3  -1   0 332.057 9.68149  13
   3   1   0 339.201 9.54412   8
   3   1   0 329.649 10.0212   2
   3   1   0 326.593 9.88928   9
   3   1   0 322.954 9.40145   1
   3   1   0 341.258 9.69668   6
  -4  -1   0 7222.33 142.532  10
  -4  -1   0 7355.63 142.681  12
  -4  -1   0 7368.81 142.010  13
   4   1   0 7169.13 142.090   2
   4   1   0 7312.97 141.475   1
   4   1   0 7336.79 142.308   9
  -5  -1   0 63.3620 6.20494  10
  -5  -1   0 64.1651 5.77672  13
  -5  -1   0 50.7556 5.93737  12
   5   1   0 54.2079 5.83077   2
   5   1   0 51.6053 4.82476   1
   5   1   0 57.2678 5.62247   9
  -6  -1   0 5.12966 4.08287  13
  -6  -1   0 13.9425 5.48568  12
  -6  -1   0 8.23552 3.70280  10
   6   1   0 8.33650 3.88253   9
   6   1   0 3.24539 3.14174   1
   6   1   0 14.1081 5.00268   2
  -7  -1   0 16.6021 4.99789  10
  -7  -1   0 37.7866 6.56053  13
  -7  -1   0 20.2602 6.87159  12
   7   1   0 32.9206 6.10541   9
   7   1   0 31.1630 4.94311   1
   7   1   0 20.4922 5.96323   2
  -8  -1   0 -2.4110 4.47851  13
  -8  -1   0 4.74426 6.42653  12
  -8  -1   0 1.32882 4.43177  10
   8   1   0 1.60334 3.65911   1
   8   1   0 1.32190 4.31735   9
   8   1   0 4.79354 5.43185   2
  -9  -1   0 57.1896 8.19988  10
  -9  -1   0 72.6996 9.22423  13
  -9  -1   0 85.2713 11.2765  12
   9   1   0 75.0307 7.82830   1
   9   1   0 86.6229 9.53984   9
   9   1   0 80.3773 9.29885   2
 -10  -1   0 64.1313 9.77579  13
 -10  -1   0 68.3363 11.7868  12
 -10  -1   0 46.9380 8.91039  10
  10   1   0 37.0811 7.58102   9
  10   1   0 51.4444 7.41444   1
  10   1   0 72.4818 9.77990   2
  10  -2   0 2.70763 5.18251   9
  10  -2   0 1.34890 4.74735   1
  10  -2   0 3.60138 6.42577   2
 -10   2   0 -0.9935 5.50128  10
 -10   2   0 -2.5532 8.15279  12
 -10   2   0 5.04046 6.93688  13
   9  -2   0 168.752 11.1641   1
   9  -2   0 178.624 12.1631   9
   9  -2   0 171.417 13.6314   2
  -9   2   0 181.047 14.7497  13
  -9   2   0 164.955 14.6804  12
  -9   2   0 168.460 12.6586  10
   8  -2   0 19.2357 5.17648   9
   8  -2   0 21.1066 6.48865   2
   8  -2   0 23.9266 5.27408   1
  -8   2   0 24.9331 7.12374  13
  -8   2   0 17.3934 7.61615  12
  -8   2   0 29.5863 6.59069  10
   7  -2   0 430.598 15.9290   9
   7  -2   0 425.219 15.0017   1
   7  -2   0 425.552 16.9894   2
  -7   2   0 436.154 16.8868  10
  -7   2   0 424.446 17.2896  13
  -7   2   0 396.573 18.3767  12
  -7   2   0 423.642 11.6538   7
   6  -2   0 6495.00 130.277   9
   6  -2   0 6574.85 131.026   2
   6  -2   0 6496.70 129.292   1
  -6   2   0 6511.57 132.236  12
  -6   2   0 6573.92 131.622  10
  -6   2   0 6498.09 125.241   7
  -6   2   0 6435.30 131.541  13
   5  -2   0 301.783 12.5433   2
   5  -2   0 318.031 10.9639   1
   5  -2   0 285.389 10.9161   9
  -5   2   0 299.509 7.91851   7
  -5   2   0 304.868 13.0656  12
  -5   2   0 294.381 11.8460  10
   4  -2   0 3264.15 66.2358   9
   4  -2   0 3236.59 66.6344   2
   4  -2   0 3211.86 65.7648   1
  -4   2   0 3259.00 62.3927   7
  -4   2   0 3246.80 66.9703  10
  -4   2   0 3248.45 67.4280  12
   3  -2   0 140.936 6.09562   9
   3  -2   0 131.798 6.01433   1
   3  -2   0 128.260 6.61615   2
  -3   2   0 127.887 6.74131  13
  -3   2   0 131.417 7.19160  12
  -3   2   0 131.898 5.78231   3
  -3   2   0 132.753 6.40834  10
   2  -2   0 122.964 5.40404   1
   2  -2   0 103.718 5.61108   2
  -2   2   0 124.619 5.43108  10
  -2   2   0 125.970 6.01765  12
  -2   2   0 117.526 5.82062  13
  -2   2   0 106.894 4.69036   3
   1  -2   0 2204.04 44.4068   1
   1  -2   0 2235.52 43.4709   2
   1  -2   0 2206.59 43.4729   5
   1  -2   0 2200.99 43.7401  12
  -1   2   0 2249.95 44.5153  10
  -1   2   0 2265.66 44.0936   3
  -1   2   0 2194.21 44.4362  13
  -1   2   0 2207.24 43.8369  12
   0  -2   0 1366.24 26.0194   2
   0  -2   0 1337.69 27.2301  13
   0  -2   0 1348.50 27.1866   5
   0   2   0 1361.48 27.5668   3
   0   2   0 1346.99 27.1337   5
   0   2   0 1352.78 27.7696   8
   0   2   0 1340.55 27.2090  13
  -2  -2   0 2577.17 51.2886  12
   2   2   0 2570.89 51.1479   6
   2   2   0 2623.62 51.1795   2
   2   2   0 2591.32 51.7585   8
  -3  -2   0 545.519 14.7608  12
  -3  -2   0 609.089 14.6441  13
   3   2   0 603.220 14.6994   6
   3   2   0 610.214 14.9640   2
   3   2   0 597.983 14.9507   8
   3   2   0 601.634 15.1162   1
  -4  -2   0 3153.08 63.1370  13
  -4  -2   0 3145.06 63.8767  12
   4   2   0 3009.30 63.7265   9
   4   2   0 3072.55 63.2002   1
   4   2   0 3091.89 63.1676   6
   4   2   0 3115.11 63.4030   2
   4   2   0 3137.05 63.3058   8
  -5  -2   0 224.756 10.5662  12
  -5  -2   0 202.938 8.98195  13
   5   2   0 213.197 9.04306   6
   5   2   0 189.979 8.69457   8
   5   2   0 201.021 8.76479   1
   5   2   0 190.479 9.41827   9
   5   2   0 206.013 9.62725   2
  -6  -2   0 163.539 9.29084  13
  -6  -2   0 169.802 11.0184  12
   6   2   0 139.078 8.31831   1
   6   2   0 158.477 9.65467   9
   6   2   0 156.581 10.1741   2
  -7  -2   0 200.496 13.1980  12
  -7  -2   0 213.376 11.4191  13
   7   2   0 210.079 11.7390   9
   7   2   0 225.501 12.3345   2
   7   2   0 233.711 10.8764   1
  -8  -2   0 166.618 13.4291  12
  -8  -2   0 152.497 11.2277  13
   8   2   0 184.716 11.8226   2
   8   2   0 150.258 9.73731   1
   8   2   0 170.466 11.7159   9
  -9  -2   0 93.3580 9.85995  13
  -9  -2   0 85.6598 11.5580  12
   9   2   0 114.204 9.72700   1
   9   2   0 100.787 10.0110   9
   9   2   0 97.1582 10.3048   2
 -10  -2   0 32.7064 10.1328  12
 -10  -2   0 47.8911 8.71635  13
  10   2   0 49.7827 7.46263   1
  10   2   0 47.7280 8.65042   9
  10   2   0 52.2491 8.86021   2
   9  -3   0 449.308 19.7580   2
   9  -3   0 465.131 18.0038   1
  -9   3   0 459.958 21.3252  13
  -9   3   0 428.056 21.9725  12
  -9   3   0 472.574 20.3589  10
   8  -3   0 916.629 26.3720   1
   8  -3   0 950.036 28.4900   2
  -8   3   0 916.374 29.4151  13
  -8   3   0 943.491 28.9380  10
  -8   3   0 913.379 30.3361  12
   7  -3   0 908.115 26.8191   2
   7  -3   0 934.136 25.3933   1
  -7   3   0 922.453 27.3540  10
  -7   3   0 919.171 28.7788  12
  -7   3   0 915.190 28.1004  13
   6  -3   0 764.543 21.6066   1
   6  -3   0 799.578 22.9791   2
  -6   3   0 759.045 23.8432  13
  -6   3   0 760.059 24.3267  12
  -6   3   0 763.815 23.0143  10
   5  -3   0 571.646 17.9034   2
   5  -3   0 564.071 16.7518   1
  -5   3   0 557.437 17.7254  10
  -5   3   0 571.221 18.8721  12
   4  -3   0 19.4249 4.42806   2
   4  -3   0 16.8462 3.61806   1
  -4   3   0 18.0658 4.37937  13
  -4   3   0 15.1915 3.60521  10
  -4   3   0 17.0748 4.54332  12
  -4   3   0 22.5562 3.46281   3
   3  -3   0 8.03211 2.91134   1
   3  -3   0 17.1547 3.57706   2
  -3   3   0 12.1552 2.59340   3
  -3   3   0 15.2772 3.84422  13
  -3   3   0 9.32810 3.55037  12
  -3   3   0 12.2450 3.02552  10
   2  -3   0 2001.02 41.3499   1
   2  -3   0 1967.33 40.2513   2
  -2   3   0 1959.27 40.9121  12
  -2   3   0 1978.55 40.8269   3
  -2   3   0 1988.13 41.5601  10
  -2   3   0 1947.03 41.5894  13
   1  -3   0 207.466 7.74271   1
   1  -3   0 210.771 6.32451   2
   1  -3   0 204.197 6.47363   5
   1  -3   0 214.118 7.19495  12
  -1   3   0 194.345 6.57022  12
  -1   3   0 203.630 7.33387  10
  -1   3   0 219.228 7.62499  13
  -1   3   0 208.620 7.00241   3
   0  -3   0 1139.79 22.2294   2
   0  -3   0 1131.06 24.0097   5
   0   3   0 1145.73 24.5126   3
   0   3   0 1136.19 24.8747   8
   0   3   0 1128.59 23.9721  13
   0   3   0 1111.06 24.1710   6
  -1  -3   0 1662.58 32.5780  12
   1   3   0 1677.74 34.6710   8
   1   3   0 1652.20 33.5993   6
   1   3   0 1635.73 34.5558   3
   1   3   0 1646.98 34.6163   9
  -2  -3   0 569.953 13.1807  12
   2   3   0 562.219 14.3840   3
   2   3   0 566.518 13.3757   6
   2   3   0 551.744 12.8506   2
   2   3   0 552.366 14.2091   8
  -3  -3   0 68.3820 4.63531  12
   3   3   0 67.7638 4.31207   6
   3   3   0 75.5389 5.53511   9
   3   3   0 71.4838 4.81469   2
   3   3   0 71.5319 4.87316   8
  -4  -3   0 149.014 7.76156  12
  -4  -3   0 161.716 7.02374  13
   4   3   0 154.393 7.02735   6
   4   3   0 165.596 7.95025   1
   4   3   0 165.387 7.61342   8
   4   3   0 150.608 7.29940   2
  -5  -3   0 25.5275 5.23522  12
  -5  -3   0 30.2918 4.37643  13
   5   3   0 26.7611 4.44060   1
   5   3   0 29.3393 4.11601   6
   5   3   0 23.1682 3.97718   8
   5   3   0 27.3000 4.70114   2
  -6  -3   0 251.082 11.0111  13
  -6  -3   0 254.481 12.6159  12
   6   3   0 249.575 12.1702   9
   6   3   0 245.323 11.0329   1
   6   3   0 251.609 11.0721   8
   6   3   0 246.366 11.6920   2
  -7  -3   0 223.863 13.0526  12
  -7  -3   0 233.273 11.6443  13
   7   3   0 219.135 12.2820   9
   7   3   0 222.065 11.8663   2
   7   3   0 215.720 11.1632   1
  -8  -3   0 398.846 18.5124  12
  -8  -3   0 385.309 16.2677  13
   8   3   0 426.620 17.9106   9
   8   3   0 445.267 17.2937   2
   8   3   0 413.813 16.1040   1
  -9  -3   0 205.821 15.8693  12
  -9  -3   0 201.855 13.2532  13
   9   3   0 233.973 13.8019   2
   9   3   0 223.674 14.3081   9
   9   3   0 235.848 12.8088   1
  10   3   0 292.030 15.1100   1
  10   3   0 320.118 17.1593   2
  10   3   0 260.523 16.7041   9
   9  -4   0 85.9741 10.4335   2
   9  -4   0 91.6991 9.39626   1
  -9   4   0 95.4457 12.6320  12
  -9   4   0 87.3445 10.8754  10
  -9   4   0 80.3776 11.4934  13
   8  -4   0 28.6529 5.91792   1
   8  -4   0 31.2234 7.12639   2
  -8   4   0 27.9553 7.64727  13
  -8   4   0 21.6790 6.43432  10
  -8   4   0 30.9490 8.49898  12
   7  -4   0 233.620 13.0931   2
   7  -4   0 207.193 11.4443   1
  -7   4   0 197.659 12.6137  10
  -7   4   0 228.938 14.6975  12
  -7   4   0 213.433 13.5906  13
   6  -4   0 1826.11 42.4425   1
   6  -4   0 1788.63 42.8403   2
  -6   4   0 1827.40 44.8417  12
  -6   4   0 1854.54 44.9906  13
  -6   4   0 1789.03 43.8207  10
   5  -4   0 1777.76 41.0707   2
   5  -4   0 1839.81 41.4211   1
  -5   4   0 1818.96 42.7416  12
  -5   4   0 1779.11 42.3237  10
  -5   4   0 1810.67 43.1197  13
  -5   4   0 1771.33 40.6440   3
   4  -4   0 649.640 18.3878   2
   4  -4   0 663.843 18.7366   1
  -4   4   0 644.736 19.2023  10
  -4   4   0 666.285 19.9022  13
  -4   4   0 662.625 19.4701  12
  -4   4   0 661.219 18.0217   3
   3  -4   0 169.260 8.43192   1
   3  -4   0 175.356 8.02289   2
  -3   4   0 174.708 8.25155  10
  -3   4   0 170.967 8.89841  13
  -3   4   0 173.229 8.51068  12
  -3   4   0 162.218 7.37064   3
   2  -4   0 1142.26 26.9030   1
   2  -4   0 1158.96 25.1582   5
   2  -4   0 1129.68 24.9485   2
  -2   4   0 1157.57 27.0275  10
  -2   4   0 1141.49 26.9624  13
  -2   4   0 1172.73 26.2927   3
  -2   4   0 1129.92 25.7418  12
   1  -4   0 276.753 7.62074   2
   1  -4   0 281.949 8.56570   5
  -1   4   0 286.655 9.72163  10
  -1   4   0 284.932 9.54933  13
  -1   4   0 270.206 9.15412   3
   0  -4   0 298.017 7.62194  12
   0  -4   0 297.073 6.96878   2
   0   4   0 300.132 9.47849   3
   0   4   0 295.475 9.95966   8
   0   4   0 289.375 8.89919  13
   0   4   0 306.323 9.25842   6
  -1  -4   0 859.633 18.0761  12
   1   4   0 860.832 19.6781   6
   1   4   0 876.211 20.8181   3
   1   4   0 893.856 21.0248   9
   1   4   0 880.671 21.0421   8
  -2  -4   0 773.543 17.0667  12
   2   4   0 781.631 19.5039   9
   2   4   0 759.017 17.8303   6
   2   4   0 759.840 19.1163   8
   2   4   0 771.236 19.2624   3
  -3  -4   0 466.362 12.6356  12
   3   4   0 474.812 14.5238   9
   3   4   0 479.265 14.1816   3
   3   4   0 473.391 12.8426   6
   3   4   0 483.737 12.4458   2
   3   4   0 503.292 14.1653   8
  -4  -4   0 1758.11 37.8892  12
   4   4   0 1737.74 37.5742   6
   4   4   0 1702.69 38.5895   8
   4   4   0 1692.29 37.2710   2
   4   4   0 1754.08 39.6310   9
  -5  -4   0 1587.37 35.9725  13
  -5  -4   0 1651.53 37.1152  12
   5   4   0 1595.63 37.4739   1
   5   4   0 1589.41 36.1215   6
   5   4   0 1572.20 37.0154   8
   5   4   0 1581.22 36.1764   2
  -6  -4   0 211.129 11.6658  12
  -6  -4   0 208.626 10.2541  13
   6   4   0 239.906 11.2379   2
   6   4   0 210.565 10.2579   6
   6   4   0 234.954 12.1534   9
   6   4   0 229.273 10.8463   8
   6   4   0 232.883 11.3871   1
  -7  -4   0 210.281 11.4538  13
  -7  -4   0 233.792 13.2880  12
   7   4   0 213.855 11.4771   8
   7   4   0 228.790 11.9855   2
   7   4   0 236.910 13.1438   9
   7   4   0 227.310 11.7448   1
  -8  -4   0 92.9478 10.4723  12
  -8  -4   0 91.5038 8.98848  13
   8   4   0 75.6092 9.17087   9
   8   4   0 95.1739 9.26133   1
   8   4   0 105.114 9.52837   2
  -9  -4   0 101.948 9.99169  13
  -9  -4   0 77.8720 10.8605  12
   9   4   0 86.1594 10.2171   9
   9   4   0 84.6541 9.78561   2
   9   4   0 91.4308 9.36262   1
   9  -5   0 5.34632 6.19576   2
   9  -5   0 13.5873 5.90490   1
  -9   5   0 3.69775 8.09507  12
  -9   5   0 4.38181 5.78818  10
   8  -5   0 76.8190 8.65799   1
   8  -5   0 76.8949 9.36935   2
  -8   5   0 56.6373 10.0407  12
  -8   5   0 81.0074 10.5948  13
  -8   5   0 61.2257 8.72664  10
   7  -5   0 239.517 12.9175   1
   7  -5   0 238.696 13.3042   2
  -7   5   0 236.796 13.8918  10
  -7   5   0 259.098 15.3962  13
  -7   5   0 258.219 15.6758  12
   6  -5   0 1301.51 33.7677   1
   6  -5   0 1315.27 33.4328   2
  -6   5   0 1293.18 34.9918  10
  -6   5   0 1288.23 32.8153   3
  -6   5   0 1324.49 35.9729  13
  -6   5   0 1337.09 35.5636  12
   5  -5   0 1830.04 41.9223   2
   5  -5   0 1809.87 42.8452   1
  -5   5   0 1841.63 44.9063  13
  -5   5   0 1832.08 42.1191   3
  -5   5   0 1867.14 43.9809  12
  -5   5   0 1829.27 44.0228  10
   4  -5   0 1.85045 4.03463   1
   4  -5   0 -3.3723 3.86913   2
  -4   5   0 2.49254 4.83150  13
  -4   5   0 0.55238 3.58622  10
  -4   5   0 3.44355 2.99625   3
  -4   5   0 7.17718 4.89053  12
   3  -5   0 862.332 20.7210   2
   3  -5   0 821.759 20.2848   5
   3  -5   0 842.805 22.7681   1
  -3   5   0 836.303 22.8302  10
  -3   5   0 843.604 21.7903  12
  -3   5   0 844.271 21.7508   3
  -3   5   0 811.860 22.9001  13
   2  -5   0 51.2320 4.26947   2
   2  -5   0 53.4784 4.57233   5
  -2   5   0 64.2404 5.53289   3
  -2   5   0 50.6516 5.39101  13
  -2   5   0 56.3595 5.80213  10
   1  -5   0 232.751 6.95246   2
   1  -5   0 244.884 8.55240   5
  -1   5   0 233.514 9.14845   3
  -1   5   0 235.925 9.97543   8
  -1   5   0 243.966 9.31186  13
  -1   5   0 227.930 9.45297  10
   0  -5   0 66.7222 3.82119  12
   0   5   0 68.1604 5.66047   8
   0   5   0 59.5169 4.98662   6
   0   5   0 63.5341 4.82881  13
   0   5   0 52.2433 4.83965   3
   0   5   0 71.9799 5.72529   9
  -1  -5   0 126.138 4.31808  12
   1   5   0 123.138 7.19996   8
   1   5   0 128.696 7.14767   9
   1   5   0 134.368 5.99588   6
   1   5   0 121.500 6.75888   3
  -2  -5   0 21.9133 2.68950  12
   2   5   0 22.7563 4.05231   9
   2   5   0 14.1606 3.46082   8
   2   5   0 16.5069 3.36878   3
   2   5   0 19.1355 2.95880   6
  -3  -5   0 894.633 21.0144  12
   3   5   0 922.460 21.8363   6
   3   5   0 923.680 23.6576   3
   3   5   0 952.210 24.3008   9
   3   5   0 924.135 23.5330   8
  -4  -5   0 68.3803 5.87917  12
   4   5   0 55.5154 6.06312   3
   4   5   0 56.1740 4.95306   6
   4   5   0 64.5380 6.84123   9
   4   5   0 55.6869 5.74939   8
  -5  -5   0 709.632 20.0342  12
  -5  -5   0 714.669 19.2628  13
   5   5   0 663.776 20.3267   8
   5   5   0 712.035 21.7668   9
   5   5   0 708.524 20.9784   3
   5   5   0 692.478 19.2481   6
   5   5   0 716.598 19.1812   2
  -6  -5   0 205.210 10.1153  13
  -6  -5   0 230.283 11.7790  12
   6   5   0 195.052 9.87270   6
   6   5   0 205.837 10.4103   2
   6   5   0 187.793 11.8418   9
   6   5   0 202.466 11.0794   3
   6   5   0 208.140 11.4291   1
   6   5   0 200.775 10.7149   8
  -7  -5   0 312.877 14.6090  12
  -7  -5   0 324.691 13.2302  13
   7   5   0 313.764 14.1150   1
   7   5   0 259.037 12.4930   6
   7   5   0 269.449 12.8195   2
   7   5   0 296.561 13.5018   8
   7   5   0 303.357 15.3771   9
  -8  -5   0 84.0608 8.50717  13
  -8  -5   0 66.3063 9.49211  12
   8   5   0 67.1871 8.06074   8
   8   5   0 75.4084 8.47415   2
   8   5   0 80.6131 8.77283   1
   8   5   0 61.6062 8.43943   9
  -9  -5   0 48.1324 7.53026  13
  -9  -5   0 43.3626 9.29789  12
   9   5   0 41.1168 7.26122   2
   9   5   0 37.2283 7.24582   1
   9   5   0 36.7953 7.88630   9
   8  -6   0 437.062 18.6867   2
   8  -6   0 431.423 18.7010   1
  -8   6   0 438.186 21.3659  12
  -8   6   0 460.633 21.9488  13
  -8   6   0 440.883 20.3504  10
   7  -6   0 28.6578 6.61472   1
   7  -6   0 32.1474 6.50445   2
  -7   6   0 24.5580 6.60290  10
  -7   6   0 33.8748 8.34917  13
  -7   6   0 25.7169 7.84545  12
   6  -6   0 9.88344 5.29270   1
   6  -6   0 8.28924 5.03991   2
  -6   6   0 6.45639 6.06283  13
  -6   6   0 8.88970 4.90733  10
  -6   6   0 9.39244 4.46808   3
  -6   6   0 5.04964 6.07566  12
   5  -6   0 268.852 13.0808   1
   5  -6   0 245.904 10.6965   5
   5  -6   0 276.043 12.1896   2
  -5   6   0 267.190 14.8254  13
  -5   6   0 239.775 13.2377  10
  -5   6   0 283.997 12.3493   3
  -5   6   0 256.054 13.5575  12
   4  -6   0 15.2404 5.30829   1
   4  -6   0 10.1028 4.38747   2
   4  -6   0 14.1897 3.89166   5
  -4   6   0 12.9929 4.64655  10
  -4   6   0 9.98139 4.82799   8
  -4   6   0 15.7144 5.05623  12
  -4   6   0 13.3272 4.12117   3
  -4   6   0 -0.5167 5.13564  13
   3  -6   0 235.736 9.69349   5
   3  -6   0 245.489 9.66590   2
  -3   6   0 247.807 10.7356   3
  -3   6   0 264.050 11.9538  10
  -3   6   0 236.966 11.8729  13
   2  -6   0 2593.96 52.7617   2
   2  -6   0 2599.91 54.4738   5
  -2   6   0 2634.45 56.7537  13
  -2   6   0 2614.92 56.2771   3
  -2   6   0 2671.37 57.5598  10
   1  -6   0 1225.58 25.1010   2
   1  -6   0 1203.51 27.9980   5
  -1   6   0 1237.51 30.3034  10
  -1   6   0 1201.67 28.9207  13
  -1   6   0 1200.36 29.4028   3
   0   6   0 205.624 10.1526   8
   0   6   0 208.190 9.43513   3
   0   6   0 202.619 9.62252   9
   0   6   0 204.305 8.80343   6
  -1  -6   0 542.105 12.1145  12
   1   6   0 544.693 16.8338   8
   1   6   0 514.974 16.4367   9
   1   6   0 546.560 16.3672   3
   1   6   0 520.895 14.7347   6
  -2  -6   0 54.5927 3.93825  12
   2   6   0 60.3749 4.90962   6
   2   6   0 51.4676 5.76362   8
   2   6   0 59.3307 5.98121   3
   2   6   0 58.3071 6.36063   9
  -3  -6   0 318.834 9.65588  12
   3   6   0 294.991 10.3275   6
   3   6   0 319.494 12.4582   8
   3   6   0 299.770 13.2544   9
   3   6   0 317.915 12.4260   3
  -4  -6   0 237.863 9.74119  12
   4   6   0 247.008 9.65119   6
   4   6   0 265.137 11.7374   8
   4   6   0 249.319 11.7497   3
   4   6   0 271.066 12.9750   9
  -5  -6   0 196.410 10.0927  12
   5   6   0 195.402 9.29097   6
   5   6   0 206.555 11.0180   3
   5   6   0 196.223 10.7945   8
   5   6   0 207.472 12.5465   9
  -6  -6   0 239.316 10.9751  13
  -6  -6   0 251.309 12.2162  12
   6   6   0 237.234 14.0559   9
   6   6   0 270.859 11.3101   6
   6   6   0 238.797 12.3864   8
   6   6   0 259.915 13.1140   3
   6   6   0 242.844 13.2198   1
  -7  -6   0 131.394 9.23816  13
  -7  -6   0 152.302 11.3550  12
   7   6   0 116.925 10.3367   1
   7   6   0 140.996 10.4134   8
   7   6   0 127.385 10.2416   3
   7   6   0 130.315 9.19523   6
   7   6   0 126.280 11.1029   9
  -8  -6   0 -3.3540 5.99929  12
  -8  -6   0 6.11961 4.66540  13
   8   6   0 -4.6389 3.94048   8
   8   6   0 -4.6764 5.15410   9
   8   6   0 2.06653 5.03957   1
   8   6   0 -0.2684 4.36214   3
   7  -7   0 14.2438 4.70463   5
   7  -7   0 -6.4330 5.18015   1
   7  -7   0 6.11691 4.90225   2
  -7   7   0 -2.5984 6.35631  12
  -7   7   0 2.08932 4.37455   3
  -7   7   0 -4.4066 6.80733  13
  -7   7   0 8.55233 5.68567  10
   6  -7   0 48.3800 8.19912   1
   6  -7   0 71.4405 6.98581   5
   6  -7   0 65.7548 7.19958   2
  -6   7   0 52.1892 8.20303   8
  -6   7   0 51.6802 9.09298  13
  -6   7   0 46.4408 7.98561  12
  -6   7   0 46.4940 7.80727  10
  -6   7   0 56.9542 7.29464   3
   5  -7   0 811.692 25.5196   1
   5  -7   0 818.477 22.6654   2
   5  -7   0 816.584 22.3138   5
  -5   7   0 785.551 23.9915   3
  -5   7   0 819.404 26.6868  13
  -5   7   0 837.594 24.6936  12
  -5   7   0 799.163 25.8071  10
  -5   7   0 819.473 26.1359   8
   4  -7   0 1553.69 35.9842   2
   4  -7   0 1585.03 36.5285   5
  -4   7   0 1588.98 40.5354  10
  -4   7   0 1616.74 39.0293   3
  -4   7   0 1644.03 40.8683  13
  -4   7   0 1563.82 40.2485   8
   3  -7   0 287.531 10.1095   2
   3  -7   0 269.859 11.0600   5
  -3   7   0 277.963 13.6737   8
  -3   7   0 292.114 14.0323  13
  -3   7   0 272.204 13.0923  10
  -3   7   0 279.941 12.2128   3
   2  -7   0 188.175 9.30568   5
   2  -7   0 196.307 7.50371   2
  -2   7   0 211.613 11.0327  13
  -2   7   0 212.009 10.4136   3
  -2   7   0 188.690 11.2595   8
  -2   7   0 188.878 10.7856  10
   1  -7   0 979.164 20.5234   2
  -1   7   0 998.112 27.1448  10
  -1   7   0 975.462 25.8268   6
  -1   7   0 1014.27 25.7157  13
  -1   7   0 959.251 26.8787   8
  -1   7   0 993.806 26.2856   3
   0   7   0 -3.0899 3.53672   9
   0   7   0 -1.1788 3.79988   8
   0   7   0 -3.2765 2.94965   3
   0   7   0 1.83979 3.14003   6
   0   7   0 -3.0935 3.46420  10
   1   7   0 679.491 20.8927   9
   1   7   0 694.270 19.0150   6
   1   7   0 731.302 21.5756   8
   1   7   0 730.032 20.9618   3
  -2  -7   0 140.804 5.52680  12
   2   7   0 157.888 10.0147   8
   2   7   0 142.211 9.90979   9
   2   7   0 156.171 9.28947   3
   2   7   0 131.531 7.21477   6
  -3  -7   0 44.4733 4.24300  12
   3   7   0 44.7313 4.90459   6
   3   7   0 43.0558 6.06328   3
   3   7   0 32.9443 5.77362   8
   3   7   0 47.6457 6.89164   9
  -4  -7   0 341.296 11.3573  12
   4   7   0 311.423 14.0070   3
   4   7   0 347.641 12.0341   6
   4   7   0 327.765 15.1272   9
   4   7   0 317.157 13.7566   8
  -5  -7   0 147.099 8.89585  12
   5   7   0 150.549 10.4058   8
   5   7   0 123.721 9.54757   3
   5   7   0 143.094 8.17142   6
   5   7   0 147.241 11.7459   9
  -6  -7   0 516.152 17.5906  12
  -6  -7   0 537.659 17.0354  13
   6   7   0 518.587 16.9951   6
   6   7   0 546.056 21.0120   9
   6   7   0 504.391 19.1067   8
   6   7   0 541.155 19.8726   3
  -7  -7   0 485.874 17.0725  13
  -7  -7   0 482.945 18.2521  12
   7   7   0 499.513 21.2824   9
   7   7   0 498.538 17.4155   6
   7   7   0 524.985 19.6289   8
   7   7   0 497.537 19.9270   3
   7   7   0 501.194 20.0878   1
  -8  -7   0 6.22170 6.36670  12
   8   7   0 -1.3960 4.86739   3
   8   7   0 -7.3950 5.99689   9
   8   7   0 -0.9872 4.21824   8
   8   7   0 1.89386 5.51379   1
   6  -8   0 305.448 13.6345   2
   6  -8   0 300.389 13.0902   5
  -6   8   0 303.323 17.0870   8
  -6   8   0 281.973 14.4093   3
  -6   8   0 294.757 18.0362  13
  -6   8   0 320.371 16.8375  10
   5  -8   0 46.5444 5.95529   2
   5  -8   0 41.4326 5.88881   5
  -5   8   0 38.0472 6.46483   3
  -5   8   0 53.0144 9.01955  13
  -5   8   0 28.7156 7.40708   8
  -5   8   0 28.2446 6.85799  10
   4  -8   0 113.787 7.48313   2
   4  -8   0 92.5372 7.68881   5
  -4   8   0 103.397 10.2048   8
  -4   8   0 91.6634 9.94908  13
  -4   8   0 89.6549 8.80855   3
  -4   8   0 81.4706 9.09522  10
   3  -8   0 171.001 9.44479   2
   3  -8   0 160.563 9.23472   5
  -3   8   0 176.955 11.3228  10
  -3   8   0 155.167 10.9351  13
  -3   8   0 174.955 12.2123   8
  -3   8   0 156.524 10.0831   3
   2  -8   0 458.230 15.3105   5
  -2   8   0 445.157 17.9064   8
  -2   8   0 464.385 17.6930  10
  -2   8   0 431.887 16.3804  13
  -2   8   0 445.132 16.5454   3
  -1   8   0 923.920 27.5079  10
  -1   8   0 953.189 26.1403   6
  -1   8   0 966.816 25.7855  13
  -1   8   0 971.715 26.9946   9
  -1   8   0 974.731 26.8362   3
  -1   8   0 946.912 27.6122   8
   0   8   0 766.015 22.2623   6
   0   8   0 826.107 24.6494   8
   0   8   0 806.293 24.5004  10
   0   8   0 835.704 24.0412   3
   0   8   0 843.871 24.3075   9
   1   8   0 423.452 16.6457   8
   1   8   0 422.721 14.2749   6
   1   8   0 439.401 16.1721   3
   1   8   0 422.333 16.4509   9
   2   8   0 76.3653 8.27278   8
   2   8   0 67.9993 7.47213   3
   2   8   0 68.5296 7.70306   9
   2   8   0 64.0216 5.88628   6
   3   8   0 -1.5384 3.60955   3
   3   8   0 2.22482 2.59191   6
   3   8   0 -0.1699 4.83435   9
   3   8   0 -3.7148 3.81719   8
   4   8   0 13.5024 5.15684   8
   4   8   0 5.19854 5.36628   9
   4   8   0 6.14511 4.45390   3
   4   8   0 8.30662 3.20259   6
   5   8   0 2.49569 4.40931   8
   5   8   0 -1.9002 3.97562   3
   5   8   0 2.60174 5.60215   9
   5   8   0 4.92564 3.15727   6
   6   8   0 16.8761 5.91424   3
   6   8   0 19.7005 5.69982   8
   6   8   0 32.7490 7.76690   9
   7   8   0 178.862 13.1146   3
   7   8   0 151.895 13.0939   1
   7   8   0 189.863 12.8991   8
   7   8   0 169.369 14.4707   9
   5  -9   0 114.844 9.45975   5
  -5   9   0 92.5719 10.8944   8
  -5   9   0 119.795 12.3458  10
  -5   9   0 113.340 12.0546  13
  -5   9   0 117.609 10.8020   3
   4  -9   0 -1.5409 4.34897   5
  -4   9   0 1.31081 4.14131   3
  -4   9   0 4.00634 5.75408   8
  -4   9   0 12.9868 6.35782  13
  -4   9   0 2.58319 5.02246  10
   3  -9   0 159.105 9.94616   5
  -3   9   0 163.026 11.8736  10
  -3   9   0 166.163 13.1689   8
  -3   9   0 171.433 11.3199   3
  -3   9   0 166.996 12.0140  13
  -2   9   0 349.546 16.6519   8
  -2   9   0 319.582 14.7884   3
  -2   9   0 325.667 15.0886   6
  -2   9   0 332.079 15.8198  10
  -2   9   0 344.493 14.8592  13
  -1   9   0 517.931 19.7907   8
  -1   9   0 506.089 19.5054  10
  -1   9   0 492.900 18.3770   3
  -1   9   0 494.045 17.8130   6
  -1   9   0 501.961 18.7422   9
   0   9   0 0.41773 4.57546   9
   0   9   0 10.3114 4.87084  10
   0   9   0 8.07710 4.02824   6
   0   9   0 2.86274 4.80919   8
   0   9   0 4.75138 4.33293   3
   1   9   0 -1.6483 4.54959   8
   1   9   0 -0.7025 3.59527   3
   1   9   0 -0.0662 4.47137   9
   1   9   0 5.05040 3.41692   6
   2   9   0 77.2802 8.58643   8
   2   9   0 80.0067 6.96780   6
   2   9   0 76.2976 8.88652   9
   2   9   0 84.1507 8.58688   3
   3   9   0 40.5937 6.80024   3
   3   9   0 25.2149 6.62634   9
   3   9   0 32.0213 4.95001   6
   3   9   0 30.7008 6.59615   8
   4   9   0 17.0051 6.67208   9
   4   9   0 15.1733 5.58716   8
   4   9   0 11.3167 5.42551   3
   5   9   0 249.512 15.7502   9
   5   9   0 256.814 14.6861   3
   5   9   0 243.144 14.4647   8
   6   9   0 715.000 25.2735   8
   6   9   0 720.489 25.8736   3
   6   9   0 751.054 27.2646   9
  -4  10   0 6.69640 5.89914  10
  -4  10   0 1.24579 4.88483   3
  -4  10   0 -4.9211 6.05460   8
  -4  10   0 1.45358 6.09407  13
  -3  10   0 36.2028 7.38843   6
  -3  10   0 54.0047 8.83258   8
  -3  10   0 31.5365 7.34496  10
  -3  10   0 41.5434 7.39505   3
  -3  10   0 40.3511 7.72220  13
  -2  10   0 36.0849 8.01038   8
  -2  10   0 44.9429 7.54040   9
  -2  10   0 28.7066 7.03742  10
  -2  10   0 51.2576 7.66118   3
  -2  10   0 20.2543 5.87631   6
  -2  10   0 49.6529 7.45580  13
  -1  10   0 142.926 10.6897   6
  -1  10   0 138.105 12.3632   8
  -1  10   0 156.303 12.1769   9
  -1  10   0 172.712 12.3590  10
  -1  10   0 164.428 11.6512   3
   0  10   0 18.2017 6.16979  10
   0  10   0 17.2403 5.73955   3
   0  10   0 17.0015 6.05997   9
   0  10   0 12.0407 4.63339   6
   0  10   0 8.15846 5.91449   8
   1  10   0 49.1685 7.63665   3
   1  10   0 60.3284 6.69810   6
   1  10   0 71.0885 9.07046   9
   1  10   0 62.3697 8.63895  10
   1  10   0 53.4066 8.27853   8
   2  10   0 870.433 27.8581   3
   2  10   0 867.832 28.1525   9
   2  10   0 888.301 28.4418   8
   3  10   0 4.35074 4.90844   3
   3  10   0 -2.8022 4.77426   8
   3  10   0 -4.5651 5.65744   9
   4  10   0 27.2044 7.68694   9
   4  10   0 30.2909 7.08856   8
   4  10   0 25.4099 6.80987   3
   5  10   0 129.452 12.4001   8
   5  10   0 122.322 12.0969   3
   5  10   0 120.341 12.5349   9
  -2  11   0 41.3183 7.78213   6
  -2  11   0 43.0448 8.78318  10
  -1  11   0 1112.70 34.9415  10
  -1  11   0 1081.74 31.4326   6
  -1  11   0 1104.49 33.4848   3
  -1  11   0 1119.72 33.7667   9
  -1  11   0 1112.92 34.7882   8
   0  11   0 242.048 15.7502   9
   0  11   0 212.061 15.5856   8
   0  11   0 203.226 13.5299   3
   0  11   0 210.272 14.7465  10
   1  11   0 322.218 17.0805   3
   1  11   0 332.545 18.2146   8
   1  11   0 328.304 17.7051   9
   1  11   0 351.514 18.4340  10
   2  11   0 14.4462 6.97234  10
   2  11   0 9.76253 6.74207   9
   2  11   0 25.3181 7.00981   3
   2  11   0 4.11347 6.34468   8
   2  11  -1 23.0083 6.93715   3
   2  11  -1 21.2856 7.46962   8
   2  11  -1 9.41414 6.84477   9
   1  11  -1 241.126 15.0982   3
   1  11  -1 242.205 15.5608   9
   1  11  -1 265.927 16.6146  10
   1  11  -1 247.061 15.9354   8
   0  11  -1 150.610 12.7428   9
   0  11  -1 156.731 13.5894   8
   0  11  -1 196.714 14.3177  10
   0  11  -1 162.865 11.4910   6
   0  11  -1 173.296 12.8148   3
  -1  11  -1 567.494 23.5902  10
  -1  11  -1 540.696 23.2494   8
  -1  11  -1 575.336 22.1153   9
  -1  11  -1 526.726 21.7255   3
  -1  11  -1 537.747 20.7338   6
   4  10  -1 5.73217 6.48166   9
   4  10  -1 26.9305 7.07720   3
   4  10  -1 11.7861 6.20725   8
   3  10  -1 642.350 23.9203   9
   3  10  -1 655.718 24.1668   8
   3  10  -1 652.873 23.6743   3
   2  10  -1 121.629 9.22810   6
   2  10  -1 116.626 11.0295   3
   2  10  -1 141.584 12.5607   8
   2  10  -1 122.991 11.2857   9
   1  10  -1 176.228 12.4430   3
   1  10  -1 192.114 13.6856   8
   1  10  -1 198.313 13.0197   9
   1  10  -1 160.429 12.4312  10
   1  10  -1 170.682 10.4003   6
   0  10  -1 721.717 23.2193   6
   0  10  -1 750.142 26.0452  10
   0  10  -1 748.069 26.0689   8
   0  10  -1 748.817 25.3325   3
   0  10  -1 761.783 24.8835   9
  -1  10  -1 151.790 11.2581   6
  -1  10  -1 170.272 12.7815  10
  -1  10  -1 164.079 12.4527   9
  -1  10  -1 160.122 12.8642   8
  -1  10  -1 172.696 11.7102   3
  -2  10  -1 8.92329 5.83112  10
  -2  10  -1 17.1029 5.84934   9
  -2  10  -1 10.5778 6.51866   8
  -2  10  -1 27.1506 6.45633   6
  -2  10  -1 12.1736 5.73016   3
  -3  10  -1 30.5514 7.89888   8
  -3  10  -1 30.9596 6.62954   9
  -3  10  -1 21.6654 6.68332  13
  -3  10  -1 26.7101 7.11720  10
  -3  10  -1 18.6080 6.36973   6
  -3  10  -1 29.2083 6.96130   3
  -4  10  -1 93.8612 11.2161  10
  -4  10  -1 101.978 11.3272  13
  -4  10  -1 81.6308 9.74185   3
  -4  10  -1 93.6040 11.6088   8
  -4  10  -1 66.3377 9.56624   6
   6   9  -1 29.2437 6.99361   3
   6   9  -1 8.31466 7.16794   9
   6   9  -1 25.6118 7.98338   1
   6   9  -1 18.7647 6.45787   8
   5   9  -1 527.334 21.1472   3
   5   9  -1 516.806 20.8496   8
   5   9  -1 526.142 21.9859   9
   4   9  -1 113.012 10.5114   3
   4   9  -1 123.528 11.0785   8
   4   9  -1 135.765 12.0425   9
   4   9  -1 124.443 8.55541   6
   3   9  -1 24.2529 4.85297   6
   3   9  -1 12.3736 5.73607   8
   3   9  -1 20.0419 5.73193   3
   3   9  -1 14.6940 6.08397   9
   2   9  -1 265.460 14.5616   8
   2   9  -1 262.005 14.0273   9
   2   9  -1 276.159 12.2549   6
   2   9  -1 263.138 13.8531   3
   1   9  -1 5.53974 4.69768   9
   1   9  -1 12.2753 5.56853   8
   1   9  -1 10.7557 4.94020   3
   1   9  -1 0.60634 3.51009   6
   0   9  -1 116.602 10.5391   8
   0   9  -1 111.165 9.76248   3
   0   9  -1 107.570 9.38690   9
   0   9  -1 116.437 10.4325  10
   0   9  -1 121.929 9.00161   6
  -1   9  -1 1794.17 44.0611   6
  -1   9  -1 1837.61 45.7138   8
  -1   9  -1 1816.40 43.9895   9
  -1   9  -1 1785.75 44.6262   3
  -1   9  -1 1806.25 45.8855  10
  -2   9  -1 1.93571 4.68615  10
  -2   9  -1 5.68646 4.30658   3
  -2   9  -1 -2.0023 5.10180   8
  -2   9  -1 -3.9258 4.25809  13
  -2   9  -1 -5.4875 4.12447   6
  -2   9  -1 8.42012 4.67987   9
  -3   9  -1 36.7634 6.70606   3
  -3   9  -1 42.4627 7.45794  13
  -3   9  -1 26.3914 6.68674  10
  -3   9  -1 28.0111 6.70956   6
  -3   9  -1 29.5943 7.13418   8
  -4   9  -1 152.662 12.1962  10
  -4   9  -1 166.660 13.1782  13
  -4   9  -1 160.548 11.5154   3
  -4   9  -1 142.938 12.6427   8
  -5   9  -1 388.138 19.4720   8
  -5   9  -1 398.754 17.7066   3
  -5   9  -1 384.095 18.8042  10
  -5   9  -1 414.922 19.8745  13
   7   8  -1 0.94409 4.87052   8
   7   8  -1 16.6550 7.54113   9
   7   8  -1 19.3794 7.02616   1
   7   8  -1 14.0569 5.96034   3
  -7  -8   1 20.5851 7.52433  13
   6   8  -1 238.098 15.5833   9
   6   8  -1 233.771 11.9552   6
   6   8  -1 249.336 14.1582   8
   6   8  -1 247.328 14.4160   3
   6   8  -1 260.206 15.7402   1
  -6  -8   1 260.294 12.3587  13
   5   8  -1 -2.5704 4.17909   3
   5   8  -1 -0.1632 4.44677   8
   5   8  -1 5.60310 3.66804   6
   5   8  -1 -0.8957 5.46183   9
   4   8  -1 276.411 14.2116   8
   4   8  -1 284.190 15.0131   9
   4   8  -1 309.438 14.4605   3
   4   8  -1 293.605 12.3512   6
   3   8  -1 147.377 11.1260   9
   3   8  -1 132.362 10.2351   8
   3   8  -1 128.754 9.92883   3
   3   8  -1 151.067 8.74499   6
   2   8  -1 6.08588 3.43854   6
   2   8  -1 3.23757 4.55651   8
   2   8  -1 6.96723 4.21661   3
   2   8  -1 10.6888 5.08867   9
   1   8  -1 126.432 8.32345   6
   1   8  -1 119.931 9.40615   3
   1   8  -1 139.410 9.89719   9
   1   8  -1 144.380 10.5233   8
  -1  -8   1 127.325 5.47468  12
   0   8  -1 107.486 8.27142   6
   0   8  -1 123.882 9.53336  10
   0   8  -1 128.556 10.3354   8
   0   8  -1 100.688 8.49252   9
   0   8  -1 112.414 9.38576   3
  -1   8  -1 1040.47 29.1786   8
  -1   8  -1 1050.05 28.2432   6
  -1   8  -1 1027.25 28.3341   3
  -1   8  -1 1029.11 27.5776   9
  -1   8  -1 972.240 28.7859  10
  -2   8  -1 637.438 20.5041   3
  -2   8  -1 589.411 20.3585   6
  -2   8  -1 614.317 21.2113   8
  -2   8  -1 588.300 20.7521  10
  -2   8  -1 608.587 20.0644  13
   2  -8   1 603.637 16.1967   2
  -3   8  -1 -6.5489 3.22903   3
  -3   8  -1 1.38479 5.00055   8
  -3   8  -1 -3.7017 3.76121  10
  -3   8  -1 5.71265 5.21957  13
   3  -8   1 0.16113 3.61906   2
   3  -8   1 -1.5822 3.90072   5
  -4   8  -1 400.648 18.0005  13
  -4   8  -1 408.863 17.4923  10
  -4   8  -1 397.441 17.9431   8
  -4   8  -1 401.411 16.3618   3
   4  -8   1 396.191 13.8657   2
   4  -8   1 399.925 13.6861   5
  -5   8  -1 121.721 11.4642   8
  -5   8  -1 126.206 12.0366  13
  -5   8  -1 120.849 10.6852   3
  -5   8  -1 150.651 11.6424  10
   5  -8   1 141.306 9.64120   2
   5  -8   1 122.941 8.26485   5
  -6   8  -1 0.83575 5.41468   8
  -6   8  -1 2.23493 5.28422  10
  -6   8  -1 5.54954 4.65990   3
  -6   8  -1 -2.3424 6.41130  13
   6  -8   1 8.59989 4.83499   2
  -7   8  -1 15.3246 7.19708   8
  -7   8  -1 17.7803 6.89681  10
  -7   8  -1 14.1267 6.11775   3
  -7   8  -1 14.1406 8.47341  13
   7  -8   1 29.9283 6.67930   2
   8   7  -1 28.3204 6.58387   6
   8   7  -1 21.4163 6.84753   1
   8   7  -1 41.8959 7.90964   3
   7   7  -1 -0.3021 3.72956   6
   7   7  -1 -2.4362 5.64119   9
   7   7  -1 -0.2816 4.41049   8
   7   7  -1 3.37195 4.65542   3
   7   7  -1 -4.0441 4.99134   1
  -7  -7   1 2.89023 5.71965  12
  -7  -7   1 -1.8942 3.93064  13
   6   7  -1 523.805 20.9542   9
   6   7  -1 523.170 19.5791   3
   6   7  -1 554.590 20.9277   1
   6   7  -1 514.589 19.7802   8
   6   7  -1 506.675 17.8524   6
  -6  -7   1 478.785 17.9099  12
  -6  -7   1 533.310 17.9837  13
   5   7  -1 1796.47 44.5355   8
   5   7  -1 1823.13 42.5746   6
   5   7  -1 1766.19 44.8420   9
   5   7  -1 1852.20 44.7832   3
  -5  -7   1 1805.00 41.4683  12
   4   7  -1 56.4424 6.97153   3
   4   7  -1 40.2127 5.30114   6
   4   7  -1 39.3964 6.51471   8
   4   7  -1 40.7611 6.90362   9
  -4  -7   1 52.7806 5.73400  12
   3   7  -1 1.47126 2.76633   6
   3   7  -1 3.71795 4.70871   9
   3   7  -1 -0.7316 3.81468   8
   3   7  -1 7.65669 4.21375   3
  -3  -7   1 -0.3483 2.92309  12
   2   7  -1 165.337 10.4310   9
   2   7  -1 166.840 8.76939   6
   2   7  -1 181.228 10.5123   8
   1   7  -1 1320.68 33.0255   3
   1   7  -1 1307.88 31.6922   6
   1   7  -1 1302.49 32.5892   9
   1   7  -1 1364.17 33.5171   8
  -1  -7   1 1327.91 28.3799  12
  -1  -7   1 1307.94 27.4603   2
   0   7  -1 491.652 16.8685   8
   0   7  -1 490.778 15.8806   6
   0   7  -1 478.657 16.4147   3
   0   7  -1 453.826 15.8239   9
   0   7  -1 485.820 16.9738  10
   0  -7   1 480.892 12.0736   2
  -1   7  -1 464.026 15.7562   9
  -1   7  -1 463.410 16.1066   6
  -1   7  -1 484.727 15.9265  13
  -1   7  -1 472.745 16.1459   3
  -1   7  -1 472.379 16.9384   8
  -1   7  -1 473.507 16.8202  10
   1  -7   1 467.413 12.5584   2
  -2   7  -1 170.827 10.2929  10
  -2   7  -1 170.102 10.6036   6
  -2   7  -1 163.779 10.3079  13
  -2   7  -1 142.282 10.3248   8
  -2   7  -1 166.924 9.61667   3
   2  -7   1 170.203 8.04807   2
  -3   7  -1 461.938 17.6013  13
  -3   7  -1 480.774 17.4941  10
  -3   7  -1 469.752 16.7617   3
  -3   7  -1 459.583 17.7959   8
   3  -7   1 472.676 14.4440   2
   3  -7   1 466.347 14.2331   5
  -4   7  -1 858.627 26.4676  10
  -4   7  -1 858.107 26.3676   8
  -4   7  -1 898.751 26.9962  13
  -4   7  -1 897.015 25.6071   3
   4  -7   1 910.455 22.3913   5
   4  -7   1 855.070 23.0383   2
  -5   7  -1 334.835 15.9645  10
  -5   7  -1 355.684 15.0330   3
  -5   7  -1 371.632 16.5900   8
  -5   7  -1 345.368 16.7885  13
   5  -7   1 364.103 12.5154   5
   5  -7   1 343.377 14.0025   2
  -6   7  -1 203.440 13.6019   8
  -6   7  -1 212.509 12.1914   3
  -6   7  -1 196.918 14.3609  13
  -6   7  -1 198.209 12.9580  10
   6  -7   1 209.847 9.89661   5
   6  -7   1 201.169 11.6769   2
  -7   7  -1 319.051 15.4136   3
  -7   7  -1 310.882 16.7642  10
  -7   7  -1 328.734 16.6592  12
  -7   7  -1 300.655 16.5692   8
  -7   7  -1 321.786 18.4265  13
   7  -7   1 330.380 15.1881   2
   8   6  -1 16.3753 6.31133   1
   8   6  -1 20.9605 5.90117   3
   8   6  -1 6.88727 6.35593   9
   8   6  -1 10.5293 5.31321   6
   8   6  -1 16.5338 5.45405   8
  -8  -6   1 18.7998 5.72734  13
  -8  -6   1 9.76381 7.21743  12
   7   6  -1 244.505 12.5930   6
   7   6  -1 252.746 14.8445   9
   7   6  -1 241.996 13.3731   8
   7   6  -1 224.763 13.5307   1
   7   6  -1 235.437 13.1929   3
  -7  -6   1 236.570 13.7141  12
  -7  -6   1 239.498 12.6203  13
   6   6  -1 116.543 9.87677   8
   6   6  -1 124.864 10.3887   1
   6   6  -1 127.542 10.9627   9
   6   6  -1 123.623 8.88108   6
   6   6  -1 120.905 9.88220   3
  -6  -6   1 119.684 8.97562  13
  -6  -6   1 132.708 10.3378  12
   5   6  -1 2719.14 59.1202   6
   5   6  -1 2717.56 61.1890   9
   5   6  -1 2728.78 60.7221   8
   5   6  -1 2677.42 60.4616   3
  -5  -6   1 2724.79 58.6797  12
   4   6  -1 350.317 14.9702   9
   4   6  -1 344.649 14.1476   8
   4   6  -1 356.809 12.9094   6
   4   6  -1 383.740 14.4851   3
  -4  -6   1 345.517 12.5038  12
   3   6  -1 938.084 25.4512   8
   3   6  -1 945.873 25.4052   3
   3   6  -1 962.850 25.6393   9
   3   6  -1 927.957 23.9003   6
  -3  -6   1 940.943 22.5588  12
   2   6  -1 778.051 21.4593   9
   2   6  -1 753.050 21.5137   8
   2   6  -1 766.650 20.1475   6
   2   6  -1 747.029 21.2220   3
   1   6  -1 -1.1870 3.18072   9
   1   6  -1 0.67661 3.16678   8
   1   6  -1 1.69405 2.56770   6
   1   6  -1 -0.5815 2.93250   3
  -1  -6   1 1.70232 1.97471  12
   0   6  -1 3.08116 2.87297   3
   0   6  -1 3.09223 2.95728   6
   0   6  -1 -3.4141 2.81198   9
   0   6  -1 -1.0755 0.81643   8
   0  -6   1 -0.1337 2.26493   2
  -1   6  -1 946.855 24.7599  13
  -1   6  -1 982.852 25.2206   3
  -1   6  -1 986.190 25.7905  10
  -1   6  -1 1009.69 25.5555   6
   1  -6   1 973.371 21.8298   2
  -2   6  -1 86.4407 6.94054   3
  -2   6  -1 89.9269 7.60121  13
  -2   6  -1 63.5458 6.58419   8
  -2   6  -1 73.5017 6.96396  10
   2  -6   1 72.1674 5.53600   5
   2  -6   1 82.6528 6.38671   2
  -3   6  -1 561.465 18.1495  10
  -3   6  -1 555.360 18.1529   8
  -3   6  -1 512.352 17.8544  13
  -3   6  -1 539.676 17.1658   3
   3  -6   1 522.056 14.6792   5
   3  -6   1 536.828 15.6748   2
  -4   6  -1 10.9123 5.65154  13
  -4   6  -1 13.7924 4.87847  10
  -4   6  -1 10.8705 3.94707   3
  -4   6  -1 11.0029 4.83075   8
   4  -6   1 14.4581 5.12506   2
   4  -6   1 11.3651 3.47003   5
  -5   6  -1 1733.86 41.2761   3
  -5   6  -1 1734.34 43.5858  13
  -5   6  -1 1709.18 41.4924  12
  -5   6  -1 1682.42 42.4290  10
  -5   6  -1 1699.38 42.1689   8
   5  -6   1 1661.47 39.8571   2
   5  -6   1 1730.75 41.2250   1
   5  -6   1 1734.95 37.8980   5
  -6   6  -1 6.41002 6.02448  13
  -6   6  -1 9.97515 5.23431  10
  -6   6  -1 22.0637 6.67011  12
  -6   6  -1 6.79334 4.36072   3
   6  -6   1 17.1623 5.93869   2
   6  -6   1 18.3991 4.06959   5
   6  -6   1 14.8946 5.44373   1
  -7   6  -1 62.3599 10.0409  13
  -7   6  -1 56.6917 7.60973   3
  -7   6  -1 58.9502 9.19075  12
  -7   6  -1 56.9904 8.24969  10
   7  -6   1 59.1087 7.96680   2
   7  -6   1 73.0767 8.47580   1
  -8   6  -1 37.5959 7.95399  10
  -8   6  -1 36.5560 9.29192  13
  -8   6  -1 55.4732 9.80514  12
   8  -6   1 51.3597 8.39707   2
   8  -6   1 51.5667 8.05264   1
   9   5  -1 28.4263 7.13543   1
   9   5  -1 18.4264 6.88583   9
   9   5  -1 17.4572 6.24655   3
  -9  -5   1 23.3770 8.42525  12
  -9  -5   1 22.1194 6.63719  13
   8   5  -1 358.297 15.8261   8
   8   5  -1 295.633 15.5482   1
   8   5  -1 345.320 15.7727   3
   8   5  -1 313.998 16.8013   9
  -8  -5   1 304.764 14.8424  13
  -8  -5   1 306.046 16.7173  12
   7   5  -1 47.1040 6.63513   6
   7   5  -1 65.4161 7.87757   8
   7   5  -1 65.3861 8.27182   1
   7   5  -1 40.2991 7.31395   9
   7   5  -1 57.0620 7.18906   3
  -7  -5   1 43.0825 7.75610  12
  -7  -5   1 69.1474 7.86216  13
   6   5  -1 1745.67 41.5961   6
   6   5  -1 1761.88 43.1301   1
   6   5  -1 1763.17 42.6267   8
   6   5  -1 1763.38 42.2658   3
   6   5  -1 1757.25 43.2166   9
  -6  -5   1 1717.43 41.9170  12
  -6  -5   1 1748.67 41.2781  13
   5   5  -1 95.9416 8.37978   8
   5   5  -1 80.6903 8.02444   1
   5   5  -1 67.9032 6.95858   3
   5   5  -1 95.2228 7.35542   6
   5   5  -1 77.2169 7.91318   9
  -5  -5   1 105.944 8.42149  12
   4   5  -1 7.37156 3.87605   8
   4   5  -1 8.87806 4.52361   9
   4   5  -1 8.34955 3.16146   6
   4   5  -1 8.72829 3.84190   3
  -4  -5   1 11.1131 4.00564  12
   3   5  -1 1497.88 34.9613   8
   3   5  -1 1502.36 34.8215   3
   3   5  -1 1453.13 34.8476   9
   3   5  -1 1510.34 33.8358   6
  -3  -5   1 1499.61 32.8872  12
   2   5  -1 2.01985 2.95670   8
   2   5  -1 2.14772 2.83460   3
   2   5  -1 0.83263 3.30744   9
   2   5  -1 -0.0896 2.11509   6
  -2  -5   1 0.79330 1.61113  12
   1   5  -1 5751.01 113.571   6
   1   5  -1 5750.05 114.552   8
   1   5  -1 5765.80 114.470   3
   1   5  -1 5809.77 113.961   9
  -1  -5   1 5745.13 111.386  12
   0   5  -1 900.499 21.9463   9
   0   5  -1 884.201 22.1403   6
   0   5  -1 906.457 22.5778   3
   0  -5   1 908.711 19.4192   2
  -1   5  -1 2.81508 2.89571   8
  -1   5  -1 0.18582 2.66784  13
  -1   5  -1 4.84756 2.51516   3
  -1   5  -1 0.88027 2.89405   6
  -1   5  -1 -0.0209 2.43116  10
   1  -5   1 0.40560 2.54672   2
  -2   5  -1 764.773 20.6038  13
  -2   5  -1 763.051 20.6558  10
  -2   5  -1 759.383 20.0769   3
  -2   5  -1 749.597 20.6157   8
   2  -5   1 764.099 18.5093   2
   2  -5   1 749.175 17.9414   5
  -3   5  -1 374.149 14.0703  13
  -3   5  -1 380.943 13.7609   8
  -3   5  -1 404.902 13.8751  10
  -3   5  -1 386.938 13.0870   3
   3  -5   1 387.523 10.9981   5
   3  -5   1 371.474 12.5433   2
  -4   5  -1 -0.3094 4.35517  12
  -4   5  -1 0.02462 3.24545  10
  -4   5  -1 -1.1398 3.68975   8
  -4   5  -1 4.64221 3.18639   3
  -4   5  -1 1.72165 4.60503  13
   4  -5   1 6.88666 4.27239   1
   4  -5   1 1.90678 2.57762   5
   4  -5   1 -2.0227 4.41691   2
  -5   5  -1 1043.61 27.4568   3
  -5   5  -1 1045.71 28.9109  12
  -5   5  -1 1066.47 28.8342  10
  -5   5  -1 1038.28 29.7694  13
   5  -5   1 1050.06 27.5025   2
   5  -5   1 1045.42 27.3474   1
  -6   5  -1 412.366 15.5896   3
  -6   5  -1 435.822 18.1499  13
  -6   5  -1 397.177 16.4603  10
  -6   5  -1 389.395 17.3901  12
   6  -5   1 427.047 15.7570   1
   6  -5   1 399.525 16.1090   2
  -7   5  -1 97.0025 10.8764  13
  -7   5  -1 126.278 11.1500  10
  -7   5  -1 84.5025 10.2437  12
   7  -5   1 103.505 9.01452   1
   7  -5   1 100.054 9.60300   2
  -8   5  -1 17.7459 6.48451  10
  -8   5  -1 20.6205 7.68900  12
  -8   5  -1 6.75848 6.86801  13
   8  -5   1 19.3211 6.55867   2
   8  -5   1 17.3760 5.30719   1
  -9   5  -1 25.3143 8.74928  13
  -9   5  -1 13.8341 8.68710  12
  -9   5  -1 19.1641 6.95514  10
   9  -5   1 22.2964 7.29782   2
   9  -5   1 16.9923 5.85274   1
   9   4  -1 473.962 20.8219   9
   9   4  -1 504.459 20.4072   2
   9   4  -1 469.075 19.6754   1
  -9  -4   1 499.279 22.2209  12
  -9  -4   1 487.279 19.9566  13
   8   4  -1 422.600 18.6607   9
   8   4  -1 424.297 17.6435   2
   8   4  -1 439.683 17.8511   1
  -8  -4   1 446.042 19.7353  12
  -8  -4   1 426.951 17.7117  13
   7   4  -1 808.577 24.1682   2
   7   4  -1 818.377 24.8047   8
   7   4  -1 779.902 24.5341   1
   7   4  -1 821.526 24.5133   6
   7   4  -1 798.243 25.4658   9
  -7  -4   1 809.568 24.1416  13
  -7  -4   1 837.310 25.6842  12
   6   4  -1 836.920 24.5912   1
   6   4  -1 829.033 23.7918   6
   6   4  -1 861.633 25.0576   9
   6   4  -1 860.384 23.6402   2
   6   4  -1 787.505 23.8337   8
  -6  -4   1 845.169 23.7427  13
  -6  -4   1 890.630 25.0814  12
   5   4  -1 587.461 17.8652   3
   5   4  -1 587.388 18.1530   8
   5   4  -1 564.144 18.3801   1
   5   4  -1 598.143 17.7958   6
   5   4  -1 569.047 17.2464   2
   5   4  -1 599.037 19.0147   9
  -5  -4   1 600.327 18.3284  12
  -5  -4   1 560.963 17.3927  13
   4   4  -1 4942.06 99.8587   3
   4   4  -1 4961.43 99.5492   6
   4   4  -1 5035.01 100.676   9
   4   4  -1 4968.95 100.240   8
   4   4  -1 4904.28 100.543   1
  -4  -4   1 4940.75 99.2821  12
   3   4  -1 656.947 18.2416   3
   3   4  -1 688.449 18.7120   8
   3   4  -1 713.644 19.0368   9
   3   4  -1 689.640 17.8827   6
  -3  -4   1 707.821 17.6546  12
   2   4  -1 2347.85 50.6860   8
   2   4  -1 2418.38 50.6398   3
   2   4  -1 2438.42 50.6316   9
   2   4  -1 2459.40 50.1146   6
  -2  -4   1 2418.64 49.0414  12
   1   4  -1 307.103 9.99350   3
   1   4  -1 286.766 10.0349   8
   1   4  -1 307.651 9.59211   6
   1   4  -1 298.732 9.82421   9
  -1  -4   1 300.267 8.33216  12
   0   4  -1 6.07539 2.37539   6
   0   4  -1 8.88092 2.44721   3
   0   4  -1 1.44238 1.12760   9
   0  -4   1 9.61728 1.91171   2
  -1   4  -1 1405.25 31.3104  13
  -1   4  -1 1404.26 31.5755  10
  -1   4  -1 1432.27 31.7089   8
  -1   4  -1 1418.20 31.2651   3
   1  -4   1 1415.83 29.4303   2
   1  -4   1 1395.25 29.4680   5
  -2   4  -1 969.751 23.8817   3
  -2   4  -1 1017.03 24.5227  10
  -2   4  -1 1006.98 24.3228   8
  -2   4  -1 1033.27 24.7887  13
   2  -4   1 1039.30 23.0591   2
   2  -4   1 1021.62 21.9173   5
  -3   4  -1 3808.65 79.1616   8
  -3   4  -1 4001.23 79.1677   3
  -3   4  -1 3885.87 79.7937  10
  -3   4  -1 3943.77 80.2741  13
  -3   4  -1 3909.72 79.1163  12
   3  -4   1 3908.68 76.4753   5
   3  -4   1 3823.75 78.0916   2
   3  -4   1 3901.00 78.8229   1
   3  -4   1 3890.75 74.8596   7
  -4   4  -1 197.519 10.8697  13
  -4   4  -1 213.364 10.3902  12
  -4   4  -1 210.660 9.26909   3
  -4   4  -1 203.646 9.66474  10
   4  -4   1 192.385 9.16382   1
   4  -4   1 204.278 10.0424   2
  -5   4  -1 130.794 8.60352  10
  -5   4  -1 112.147 9.30772  13
  -5   4  -1 116.034 7.79441   3
  -5   4  -1 113.970 9.68148  12
   5  -4   1 112.195 7.90615   1
   5  -4   1 114.769 8.81532   2
  -6   4  -1 1223.22 32.9056  10
  -6   4  -1 1303.18 34.1546  12
  -6   4  -1 1237.03 31.6466   3
  -6   4  -1 1215.81 33.7180  13
   6  -4   1 1237.60 32.2408   2
   6  -4   1 1300.76 31.2366   1
  -7   4  -1 98.0838 10.5645  12
  -7   4  -1 99.5092 10.3909  13
  -7   4  -1 102.624 9.81220  10
   7  -4   1 100.778 8.48787   1
   7  -4   1 100.875 9.80440   2
  -8   4  -1 234.356 15.6191  12
  -8   4  -1 216.879 14.7925  13
  -8   4  -1 219.699 13.6479  10
   8  -4   1 231.319 11.8643   1
   8  -4   1 205.223 13.3637   2
  -9   4  -1 245.457 15.2638  10
  -9   4  -1 244.647 17.0658  13
  -9   4  -1 231.469 17.5883  12
   9  -4   1 236.739 12.7274   1
   9  -4   1 257.475 15.3744   2
   9   3  -1 33.4796 7.30822   9
   9   3  -1 24.5426 6.17573   1
   9   3  -1 32.6294 7.29094   2
  -9  -3   1 25.4025 8.53289  12
  -9  -3   1 33.0668 7.38687  13
   8   3  -1 56.7334 7.44571   1
   8   3  -1 47.9986 7.60868   2
   8   3  -1 59.7140 7.98954   9
  -8  -3   1 63.6089 9.56042  12
  -8  -3   1 52.4547 7.79458  13
   7   3  -1 2506.99 56.5710   9
   7   3  -1 2423.97 55.3876   2
   7   3  -1 2386.53 55.1737   1
  -7  -3   1 2355.56 56.2316  12
  -7  -3   1 2452.38 55.3126  13
   6   3  -1 6.16104 4.57185   9
   6   3  -1 9.06779 3.97529   8
   6   3  -1 10.0691 4.50559   1
   6   3  -1 3.75069 3.67086   6
   6   3  -1 11.4916 4.79750   2
  -6  -3   1 13.7622 4.53306  13
  -6  -3   1 17.6782 6.04754  12
   5   3  -1 1208.27 29.4676   2
   5   3  -1 1193.56 30.0987   1
   5   3  -1 1208.19 29.7406   6
   5   3  -1 1214.76 29.9281   8
  -5  -3   1 1277.77 30.7294  12
  -5  -3   1 1205.27 29.5657  13
   4   3  -1 1930.70 42.5996   9
   4   3  -1 1933.57 42.3746   8
   4   3  -1 1915.48 42.5576   1
   4   3  -1 1914.08 41.5637   2
   4   3  -1 1889.78 41.9618   6
  -4  -3   1 1954.59 42.2220  12
   3   3  -1 1451.74 31.9419   3
   3   3  -1 1454.88 32.2822   8
   3   3  -1 1413.28 32.2928   9
   3   3  -1 1457.15 31.8001   6
  -3  -3   1 1431.92 31.6622  12
   2   3  -1 3501.07 71.0725   8
   2   3  -1 3593.84 70.8323   6
   2   3  -1 3479.44 70.8822   9
   2   3  -1 3544.03 70.8739   3
  -2  -3   1 3632.27 70.2403  12
   1   3  -1 1677.89 35.4087   9
   1   3  -1 1709.98 35.7368   3
   1   3  -1 1702.15 35.4585   6
  -1  -3   1 1725.38 34.6018  12
   0   3  -1 807.686 18.6800   3
   0   3  -1 802.490 18.1543   9
   0   3  -1 809.465 18.7479   6
  -1   3  -1 685.308 16.8326  10
  -1   3  -1 690.982 16.8628  13
  -1   3  -1 679.458 16.4730   3
   1  -3   1 692.436 15.0972   5
   1  -3   1 697.045 15.5901   2
  -2   3  -1 679.362 16.8956   8
  -2   3  -1 663.694 16.9679  10
  -2   3  -1 697.817 16.8446   3
  -2   3  -1 689.923 16.7158  12
  -2   3  -1 667.824 17.4352  13
   2  -3   1 685.509 14.8584   5
   2  -3   1 670.906 16.5525   1
   2  -3   1 667.599 16.3536   2
  -3   3  -1 1846.37 40.3435  10
  -3   3  -1 1873.15 40.8665  13
  -3   3  -1 1807.52 39.6559   3
  -3   3  -1 1890.34 40.5473  12
   3  -3   1 1854.03 36.2953   7
   3  -3   1 1865.21 39.7502   2
   3  -3   1 1892.56 39.3813   1
  -4   3  -1 812.357 21.4537  10
  -4   3  -1 831.552 20.7854   3
  -4   3  -1 790.321 21.8564  12
  -4   3  -1 845.722 22.1956  13
   4  -3   1 805.873 20.1280   1
   4  -3   1 800.546 21.2203   2
  -5   3  -1 1966.03 45.7058  12
  -5   3  -1 1954.06 43.8943   3
  -5   3  -1 2042.81 45.2840  10
   5  -3   1 1977.71 44.6157   2
   5  -3   1 1993.54 43.0696   1
  -6   3  -1 64.9238 7.97586  13
  -6   3  -1 54.3549 6.51468  10
  -6   3  -1 53.2921 7.84720  12
   6  -3   1 55.1866 7.59801   2
   6  -3   1 67.3021 6.34241   1
  -7   3  -1 1498.16 38.1720  10
  -7   3  -1 1464.74 38.6303  13
  -7   3  -1 1478.47 39.3956  12
   7  -3   1 1496.58 37.9712   2
   7  -3   1 1451.42 35.1043   1
   7  -3   1 1442.32 35.9480   9
  -8   3  -1 39.2203 8.30114  13
  -8   3  -1 39.3120 8.74972  12
  -8   3  -1 23.9690 6.33688  10
   8  -3   1 46.2225 8.08364   2
   8  -3   1 38.9000 5.99476   9
   8  -3   1 28.5842 5.36795   1
  -9   3  -1 30.8878 8.29620  13
  -9   3  -1 20.0476 8.44446  12
  -9   3  -1 27.5353 7.10403  10
   9  -3   1 30.9879 5.86110   1
   9  -3   1 31.7592 7.73980   2
   9   2  -1 243.146 14.9700   2
   9   2  -1 226.912 12.9639   1
   9   2  -1 199.067 13.3633   9
  -9  -2   1 246.665 14.8709  13
  -9  -2   1 234.764 16.7270  12
   8   2  -1 591.152 21.6634   2
   8   2  -1 623.118 20.7896   1
   8   2  -1 623.087 21.9948   9
  -8  -2   1 632.423 21.5162  13
  -8  -2   1 601.610 23.2092  12
   7   2  -1 35.6607 6.12810   9
   7   2  -1 35.0004 6.20544   2
   7   2  -1 23.0560 5.14092   1
  -7  -2   1 25.6197 6.93881  12
  -7  -2   1 36.3500 6.54359  13
   6   2  -1 805.597 25.0744   9
   6   2  -1 996.781 25.8108   1
   6   2  -1 979.813 25.9362   2
   6   2  -1 968.316 26.0585   6
  -6  -2   1 1009.24 26.0372  13
  -6  -2   1 979.616 27.3530  12
   5   2  -1 26.4663 4.32044   1
   5   2  -1 15.5837 3.78602   6
   5   2  -1 22.3947 4.30134   8
   5   2  -1 20.1307 4.52446   2
  -5  -2   1 11.5684 4.92993  12
  -5  -2   1 24.5943 4.60597  13
   4   2  -1 224.711 9.14036   6
   4   2  -1 231.766 9.04533   8
   4   2  -1 242.145 9.58292   1
   4   2  -1 230.387 9.17768   2
   4   2  -1 240.091 9.73391   9
  -4  -2   1 221.058 8.91376  13
  -4  -2   1 231.641 9.79394  12
   3   2  -1 30.5227 3.92642   1
   3   2  -1 25.1621 3.49066   2
   3   2  -1 32.8691 3.71955   6
   3   2  -1 20.3850 3.41369   9
   3   2  -1 26.9697 3.48503   8
  -3  -2   1 24.9635 3.66050  12
   2   2  -1 694.945 16.0289   3
   2   2  -1 675.097 16.3350   8
   2   2  -1 659.219 16.2508   9
   2   2  -1 679.387 16.1840   6
  -2  -2   1 694.015 16.2024  12
   1   2  -1 348.365 9.05418   3
   1   2  -1 335.698 9.12248   9
   1   2  -1 335.355 9.10816   6
  -1  -2   1 347.400 8.76650  12
  -1   2  -1 1404.62 29.8924   8
  -1   2  -1 1473.56 30.3389  13
  -1   2  -1 1422.03 29.8674   3
  -1   2  -1 1468.20 30.0687  10
   1  -2   1 1441.44 28.3933   5
   1  -2   1 1475.80 29.4710   2
  -2   2  -1 1106.75 24.6118  12
  -2   2  -1 1105.20 24.3913  10
  -2   2  -1 1101.71 24.1140   3
  -2   2  -1 1098.41 24.7975  13
   2  -2   1 1101.18 23.6123   1
   2  -2   1 1112.08 24.2716   2
   2  -2   1 1123.24 22.2773   7
  -3   2  -1 1656.50 35.8794  10
  -3   2  -1 1649.50 35.3751   3
  -3   2  -1 1679.67 32.8564   7
  -3   2  -1 1696.59 36.4110  12
   3  -2   1 1662.84 35.8725   2
   3  -2   1 1661.63 34.6191   1
   3  -2   1 1664.46 34.7177   9
   3  -2   1 1686.73 32.2601   4
   3  -2   1 1659.31 32.8479   7
  -4   2  -1 3504.61 70.4277   3
  -4   2  -1 3442.55 67.1323   7
  -4   2  -1 3412.99 71.0513  10
  -4   2  -1 3421.98 71.5925  12
  -4   2  -1 3490.79 71.3899  13
   4  -2   1 3506.85 69.8527   9
   4  -2   1 3547.19 71.1146   2
   4  -2   1 3451.17 69.2484   1
  -5   2  -1 1032.45 26.5066  13
  -5   2  -1 991.110 25.9711  10
  -5   2  -1 1036.27 27.1361  12
  -5   2  -1 1026.19 21.8825   7
   5  -2   1 1022.41 26.2584   2
   5  -2   1 1057.86 24.2819   1
   5  -2   1 1022.12 24.8466   9
  -6   2  -1 25.7769 5.81655  13
  -6   2  -1 24.5775 5.17733  10
  -6   2  -1 18.4671 6.11476  12
  -6   2  -1 29.2749 3.16649   7
   6  -2   1 27.4404 4.52451   9
   6  -2   1 35.4991 6.97554   2
   6  -2   1 25.3123 4.12828   1
  -7   2  -1 2398.41 54.6891  13
  -7   2  -1 2315.11 55.5514  12
  -7   2  -1 2337.31 47.9779   7
  -7   2  -1 2315.83 54.2336  10
   7  -2   1 2375.11 51.2625   1
   7  -2   1 2356.25 54.2286   2
   7  -2   1 2325.27 52.5645   9
  -8   2  -1 880.609 27.6455  13
  -8   2  -1 880.171 28.8817  12
  -8   2  -1 862.160 27.2110  10
   8  -2   1 904.497 25.9090   9
   8  -2   1 920.727 27.5883   2
   8  -2   1 857.085 24.1275   1
  -9   2  -1 572.229 22.8624  13
  -9   2  -1 535.997 21.9103  10
  -9   2  -1 558.449 23.7374  12
   9  -2   1 549.426 21.8531   2
   9  -2   1 568.810 18.7450   1
   9  -2   1 580.311 20.6722   9
 -10   2  -1 398.537 19.5490  10
 -10   2  -1 455.550 23.2763  12
 -10   2  -1 427.357 20.7798  13
  10  -2   1 388.938 18.1635   9
  10  -2   1 376.503 19.4152   2
   9   1  -1 218.205 12.4552   1
   9   1  -1 199.675 13.4981   2
   9   1  -1 203.936 13.4849   9
  -9  -1   1 173.458 13.6936  10
  -9  -1   1 179.191 15.4476  12
  -9  -1   1 200.755 13.4665  13
   8   1  -1 299.118 14.8339   2
   8   1  -1 245.669 12.7469   1
   8   1  -1 276.718 14.1912   9
  -8  -1   1 267.324 14.2026  13
  -8  -1   1 262.495 14.2293  10
  -8  -1   1 291.235 16.5705  12
   7   1  -1 2.47815 3.76121   1
   7   1  -1 2.15458 4.07500   9
   7   1  -1 5.60570 4.86363   2
  -7  -1   1 7.43742 4.80953  13
  -7  -1   1 2.51312 5.77632  12
  -7  -1   1 5.50207 4.31415  10
   6   1  -1 368.658 14.4271   2
   6   1  -1 379.199 13.7195   1
  -6  -1   1 382.758 14.5660  10
  -6  -1   1 366.006 14.2741  13
  -6  -1   1 368.460 15.8206  12
   5   1  -1 5.08095 3.04629   1
   5   1  -1 -4.4057 3.35005   2
   5   1  -1 3.15053 2.82732   9
   5   1  -1 3.84498 3.21362   6
  -5  -1   1 7.93041 3.64735  13
  -5  -1   1 2.93656 4.52013  12
  -5  -1   1 3.33881 3.28093  10
   4   1  -1 59.7343 5.45815   2
   4   1  -1 42.7497 4.67859   6
   4   1  -1 48.9188 4.62405   1
  -4  -1   1 47.5714 4.86002  13
  -4  -1   1 56.2057 5.73550  12
  -4  -1   1 41.0938 4.43950  10
   3   1  -1 140.340 6.26629   8
   3   1  -1 135.857 6.58441   2
   3   1  -1 143.738 6.33654   1
   3   1  -1 155.068 6.63583   6
  -3  -1   1 156.610 6.79336  10
  -3  -1   1 139.565 6.81482  12
   2   1  -1 4597.43 89.8783   6
   2   1  -1 4554.70 89.8778   1
   2   1  -1 4631.57 89.6695   2
   2   1  -1 4590.97 89.7303   9
   2   1  -1 4607.30 89.7359   8
  -2  -1   1 4679.09 89.9793  12
   1   1  -1 1478.34 30.5758   6
   1   1  -1 1491.78 30.4459  12
   1   1  -1 1522.99 30.0319   3
   1   1  -1 1484.89 30.3036   9
  -1  -1   1 1485.58 30.2649   9
  -1  -1   1 1515.03 30.4639  12
  -1  -1   1 1552.28 31.3618   6
   0   1  -1 646.087 13.7070   8
   0   1  -1 659.020 14.0222   6
   0   1  -1 665.424 13.6790   3
   0   1  -1 636.773 13.1532   9
   0  -1   1 662.609 14.0165   6
   0  -1   1 638.831 13.6699   8
   0  -1   1 652.150 13.1703   9
  -1   1  -1 691.332 14.0098   9
  -1   1  -1 677.258 14.3909   1
  -1   1  -1 675.915 14.6375   8
  -1   1  -1 696.573 14.8966  10
  -1   1  -1 698.347 14.9486   3
  -1   1  -1 696.919 13.9115  11
   1  -1   1 708.843 15.3042  13
   1  -1   1 690.608 14.9628   2
   1  -1   1 707.630 13.9319  11
   1  -1   1 683.759 15.1216  12
   1  -1   1 702.141 14.4164   7
  -2   1  -1 1.28215 2.08827  13
  -2   1  -1 0.15465 1.68923   3
  -2   1  -1 -0.4894 1.20123   7
  -2   1  -1 1.75613 1.67568  10
  -2   1  -1 0.65003 1.31454   9
  -2   1  -1 2.52594 2.48507  12
  -2   1  -1 -1.6645 1.16618   1
   2  -1   1 1.62156 1.44304   1
   2  -1   1 1.07819 0.92511   4
   2  -1   1 2.53771 1.38361   9
   2  -1   1 0.93313 2.64579   2
  -3   1  -1 2013.58 38.8282   4
  -3   1  -1 2015.95 41.8641  10
  -3   1  -1 2064.01 39.8915   7
  -3   1  -1 2012.67 42.3732  12
   3  -1   1 2004.38 40.8612   9
   3  -1   1 2000.14 41.9832   2
   3  -1   1 1946.18 40.2083   1
  -4   1  -1 33.3989 2.96669   7
  -4   1  -1 27.8005 1.99203   4
  -4   1  -1 27.1825 3.89062  10
  -4   1  -1 23.6077 4.30527  12
  -4   1  -1 41.1368 4.53435  13
   4  -1   1 31.4450 3.13549   1
   4  -1   1 26.6806 4.53594   2
   4  -1   1 28.6484 3.36910   9
  -5   1  -1 795.187 22.2730  12
  -5   1  -1 800.603 16.7426   4
  -5   1  -1 826.803 21.6457  10
  -5   1  -1 807.130 18.6654   7
  -5   1  -1 815.985 21.5547  13
   5  -1   1 804.480 19.4970   1
   5  -1   1 805.792 20.5422   9
   5  -1   1 814.985 21.9335   2
  -6   1  -1 310.406 7.66978   4
  -6   1  -1 319.039 12.7621  10
  -6   1  -1 334.826 13.5275  13
  -6   1  -1 300.500 9.84338   7
   6  -1   1 299.015 10.6679   1
   6  -1   1 319.766 11.9093   9
   6  -1   1 292.568 13.4929   2
  -7   1  -1 177.625 7.98051   7
  -7   1  -1 194.683 13.3493  12
  -7   1  -1 169.201 11.2996  13
  -7   1  -1 181.160 11.0617  10
   7  -1   1 180.907 8.89014   1
   7  -1   1 179.975 10.0907   9
   7  -1   1 173.314 12.2387   2
  -8   1  -1 1121.63 31.9882  10
  -8   1  -1 1086.01 26.8918   7
  -8   1  -1 1176.89 34.0380  12
  -8   1  -1 1125.72 31.9572  13
   8  -1   1 1160.20 30.8955   9
   8  -1   1 1153.63 28.7316   1
   8  -1   1 1132.04 32.2592   2
  -9   1  -1 95.7459 10.2139  10
  -9   1  -1 101.733 10.8519  13
  -9   1  -1 125.571 13.2770  12
   9  -1   1 94.9059 10.4812   2
   9  -1   1 134.511 10.9435   9
   9  -1   1 107.524 8.48954   1
 -10   1  -1 37.8655 7.97734  10
 -10   1  -1 42.2595 9.28911  13
 -10   1  -1 40.3059 10.4566  12
  10  -1   1 36.4602 6.59633   1
  10  -1   1 39.3928 7.37719   9
  10  -1   1 40.3034 8.67946   2
 -10   0   1 46.7280 9.07190  10
   9   0  -1 323.642 16.4296   2
   9   0  -1 335.144 15.3328   1
   9   0  -1 343.333 16.7265   9
  -9   0   1 317.959 16.7960  10
  -9   0   1 336.608 17.5997  13
  -9   0   1 369.139 19.5378  12
   8   0  -1 176.203 11.9886   2
   8   0  -1 172.837 10.7249   1
   8   0  -1 150.105 11.1300   9
  -8   0   1 178.601 12.0236  10
  -8   0   1 158.874 11.8381  13
  -8   0   1 136.422 12.4435  12
   7   0  -1 90.0876 8.20175   9
   7   0  -1 113.966 9.81616   2
   7   0  -1 121.728 8.61215   1
  -7   0   1 98.3502 9.08634  10
  -7   0   1 112.900 9.74472  13
  -7   0   1 109.986 10.4283  12
   6   0  -1 1184.38 29.6184   9
   6   0  -1 1145.88 28.7549   1
   6   0  -1 1109.32 29.6827   2
  -6   0   1 1200.14 30.1849  13
  -6   0   1 1109.35 29.7159  10
   5   0  -1 974.499 24.3029   1
   5   0  -1 996.857 24.9854   9
  -5   0   1 1000.82 25.3311  10
  -5   0   1 998.500 25.4850  13
  -5   0   1 912.286 25.1996  12
   4   0  -1 111.041 6.46398   9
   4   0  -1 141.570 6.83087   1
  -4   0   1 123.774 6.83431  10
  -4   0   1 132.327 7.24205  13
   3   0  -1 7718.29 149.223   2
   3   0  -1 7812.90 149.575   6
   3   0  -1 7614.33 148.901   1
  -3   0   1 7724.14 149.249  10
   2   0  -1 7067.40 135.936   1
  -2   0   1 7089.34 135.897  10
   1   0  -1 1515.83 30.5828   2
   1   0  -1 1519.05 30.5199   9
   1   0  -1 1556.07 30.7707  12
  -1   0   1 1513.88 30.7025   6
  -1   0   1 1562.21 30.7601   1
  -1   0   1 1532.57 30.3780  10
  -1   0   1 1529.10 30.5250   8
   2   0   1 8383.37 160.220  13
  -3   0  -1 2419.99 49.8980  13
  -3   0  -1 2506.45 50.3086  10
  -3   0  -1 2480.55 49.3610   7
  -3   0  -1 2531.11 49.5020   1
   3   0   1 2504.30 49.7422   9
   3   0   1 2428.64 48.6343   1
   3   0   1 2476.50 50.5763   2
  -4   0  -1 52.1250 4.62394  10
  -4   0  -1 72.6587 6.22497  12
  -4   0  -1 63.8810 5.06713  13
   4   0   1 70.7022 5.75810   2
   4   0   1 63.6441 4.87979   9
   4   0   1 63.4605 3.90178   1
  -5   0  -1 182.914 8.88744  10
  -5   0  -1 183.603 8.80313  13
  -5   0  -1 197.778 10.0563  12
   5   0   1 194.593 8.47977   9
   5   0   1 171.524 7.00741   1
   5   0   1 186.651 9.72307   2
  -6   0  -1 920.024 24.4140  13
  -6   0  -1 910.617 22.5882   7
  -6   0  -1 915.645 25.7825  12
  -6   0  -1 880.750 24.5486  10
   6   0   1 917.720 25.1499   2
   6   0   1 942.925 24.0991   9
   6   0   1 907.638 22.2769   1
  -7   0  -1 1401.45 36.0864  10
  -7   0  -1 1424.51 37.5789  12
  -7   0  -1 1445.91 35.7600  13
  -7   0  -1 1439.27 33.0826   7
   7   0   1 1385.91 32.9694   1
   7   0   1 1435.86 36.1291   2
   7   0   1 1425.39 34.9858   9
  -8   0  -1 408.632 14.1066   7
  -8   0  -1 418.409 18.6566  12
  -8   0  -1 388.729 16.4874  13
  -8   0  -1 347.429 16.1574  10
   8   0   1 425.099 16.2232   9
   8   0   1 382.702 16.9543   2
   8   0   1 379.764 13.8037   1
  -9   0  -1 27.1886 6.88764  13
  -9   0  -1 21.7190 5.09027   7
  -9   0  -1 27.7869 8.44719  12
  -9   0  -1 31.6381 6.90327  10
   9   0   1 32.3961 6.23604   9
   9   0   1 22.6759 4.85493   1
   9   0   1 24.3290 6.84857   2
 -10   0  -1 84.8539 12.0379  12
 -10   0  -1 95.1483 11.1872  13
 -10   0  -1 78.1522 10.2671  10
  10   0   1 107.939 8.94822   1
  10   0   1 109.867 10.6015   9
  10   0   1 109.475 11.7382   2
   9  -1  -1 546.779 21.2317   9
   9  -1  -1 536.726 21.8415   2
   9  -1  -1 521.178 19.7585   1
  -9   1   1 554.292 22.1843  10
  -9   1   1 581.811 22.7225  13
  -9   1   1 535.912 23.8256  12
   8  -1  -1 776.068 23.5380   1
   8  -1  -1 788.064 25.2044   2
   8  -1  -1 749.062 24.5744   9
  -8   1   1 780.754 25.7470  13
  -8   1   1 789.527 27.3419  12
  -8   1   1 795.661 25.5815  10
   7  -1  -1 370.681 15.4208   9
   7  -1  -1 408.491 15.0757   1
   7  -1  -1 399.319 16.3927   2
  -7   1   1 411.912 16.9877  13
  -7   1   1 402.570 16.2508  10
  -7   1   1 414.393 17.9535  12
   6  -1  -1 96.6712 7.82242   9
   6  -1  -1 85.4975 8.10061   2
   6  -1  -1 90.3134 7.43397   1
  -6   1   1 91.4739 8.67249  13
  -6   1   1 88.3259 9.22959  12
  -6   1   1 88.2706 7.84647  10
   5  -1  -1 586.952 17.2386   9
   5  -1  -1 571.841 16.8223   1
   5  -1  -1 586.508 17.7744   2
  -5   1   1 589.195 17.6529  10
  -5   1   1 595.842 17.9497  13
   4  -1  -1 0.05022 2.20723   1
   4  -1  -1 1.23869 3.15448   2
   4  -1  -1 -0.8246 2.04482   9
  -4   1   1 -1.3935 1.95176  13
  -4   1   1 -3.6398 2.27720  10
  -4   1   1 1.04899 3.53315  12
   3  -1  -1 1147.50 25.9405   2
   3  -1  -1 1140.44 25.8711   9
   3  -1  -1 1154.93 25.8296   1
  -3   1   1 1176.42 26.0884  10
  -3   1   1 1142.96 26.3973  12
   2  -1  -1 1599.32 32.5337   2
   2  -1  -1 1360.10 32.1727   9
   2  -1  -1 1605.80 32.6687   1
  -2   1   1 1597.21 32.8925  13
  -2   1   1 1623.53 32.9002  12
  -2   1   1 1607.74 32.5614  10
  -2   1   1 1537.26 30.1781   4
   1  -1  -1 889.025 18.3630  13
   1  -1  -1 854.191 17.0181   4
   1  -1  -1 875.674 18.0071   2
   1  -1  -1 896.379 18.2248  12
   1  -1  -1 724.534 18.0960   1
  -1   1   1 857.399 17.1237   7
  -1   1   1 858.281 17.0114   4
  -1   1   1 881.567 18.0948  10
  -1   1   1 864.010 18.3781   6
  -1   1   1 884.783 18.2896  12
  -1   1   1 870.717 17.2527   3
  -1   1   1 865.834 18.3479  13
   0  -1  -1 3515.19 67.0680   7
   0  -1  -1 3574.53 66.7359  13
   0   1   1 3488.98 66.7312   6
   0   1   1 3427.89 67.2960   1
   0   1   1 3536.97 66.9781  11
   0   1   1 3512.07 66.7257  13
   0   1   1 3490.55 67.0414   7
  -1  -1  -1 2999.46 56.1009   8
  -1  -1  -1 2955.52 55.5607   6
  -1  -1  -1 2929.13 56.3348  12
  -1  -1  -1 2918.46 55.5489  13
  -1  -1  -1 2930.54 56.7260   9
   1   1   1 2874.47 56.2743  12
   1   1   1 2795.31 56.6522   5
   1   1   1 2978.91 56.4544   2
   1   1   1 2923.93 56.7702   9
   1   1   1 3008.67 55.5551  13
  -2  -1  -1 1002.88 20.5025   6
  -2  -1  -1 988.549 20.4872  13
  -2  -1  -1 976.953 21.3152  12
  -2  -1  -1 1013.30 21.3791  10
  -2  -1  -1 991.051 20.4602   8
   2   1   1 1005.28 21.3813   2
   2   1   1 1000.72 21.2844   9
   2   1   1 1024.47 20.5251  13
   2   1   1 994.044 20.4985   8
  -3  -1  -1 1360.28 29.6635  12
  -3  -1  -1 1394.92 29.6333  10
  -3  -1  -1 1359.09 28.7247  13
   3   1   1 1388.26 29.6233   2
   3   1   1 1354.09 28.2609   1
   3   1   1 1397.43 29.4428   9
   3   1   1 1351.76 28.5319   8
  -4  -1  -1 297.475 10.7432  12
  -4  -1  -1 302.077 10.2189  10
   4   1   1 289.895 10.4371   2
   4   1   1 292.238 8.78419   1
   4   1   1 294.460 9.88848   9
  -5  -1  -1 133.571 7.28387  13
  -5  -1  -1 126.246 7.44513  10
  -5  -1  -1 109.512 8.25253  12
   5   1   1 126.879 7.48598   9
   5   1   1 129.767 8.60293   2
   5   1   1 115.754 5.93783   1
  -6  -1  -1 0.52458 4.90672  12
  -6  -1  -1 4.63392 3.67636  10
  -6  -1  -1 -0.4065 3.60391  13
   6   1   1 -2.8091 4.53339   2
   6   1   1 2.09706 3.59091   9
   6   1   1 6.07860 2.79471   1
  -7  -1  -1 257.191 14.5211  12
  -7  -1  -1 272.300 12.8102  10
  -7  -1  -1 257.711 12.4866  13
   7   1   1 252.206 12.0953   9
   7   1   1 261.768 10.5664   1
   7   1   1 265.509 13.8820   2
  -8  -1  -1 -4.1224 6.19194  12
  -8  -1  -1 -6.6921 3.65091  10
  -8  -1  -1 1.33877 4.90483  13
  -8  -1  -1 -9.0061 3.77646   7
   8   1   1 3.56503 4.16381   9
   8   1   1 4.43558 3.31227   1
   8   1   1 2.48051 5.39866   2
  -9  -1  -1 238.206 15.9396  12
  -9  -1  -1 234.968 14.2130  10
  -9  -1  -1 208.587 11.7740   7
  -9  -1  -1 224.078 13.5455  13
   9   1   1 216.259 11.1061   1
   9   1   1 230.019 13.3556   9
   9   1   1 216.087 13.9134   2
 -10  -1  -1 322.853 16.1795   7
 -10  -1  -1 326.533 20.0261  12
 -10  -1  -1 312.868 17.5594  10
 -10  -1  -1 358.905 17.7801  13
  10   1   1 336.615 18.1446   2
  10   1   1 329.095 14.3446   1
  10   1   1 363.624 17.5944   9
   9  -2  -1 823.585 26.9019   9
   9  -2  -1 796.384 25.1817   1
   9  -2  -1 768.560 26.7549   2
  -9   2   1 805.675 28.3512  13
  -9   2   1 781.940 29.4669  12
  -9   2   1 789.510 27.3890  10
   8  -2  -1 83.3931 9.17613   2
   8  -2  -1 89.4790 8.52457   1
   8  -2  -1 79.1326 8.41135   9
  -8   2   1 69.6242 9.52530  13
  -8   2   1 93.8446 10.1171  10
  -8   2   1 86.9536 11.1544  12
   7  -2  -1 48.9603 6.42517   9
   7  -2  -1 52.3821 6.44176   1
   7  -2  -1 60.5066 8.03689   2
  -7   2   1 73.6314 8.42104  10
  -7   2   1 48.5683 8.44796  12
  -7   2   1 38.0927 7.34837  13
   6  -2  -1 1270.70 32.0696   9
   6  -2  -1 1277.83 32.5284   2
   6  -2  -1 1258.86 31.3839   1
  -6   2   1 1264.25 32.6726  10
  -6   2   1 1290.11 33.3152  13
  -6   2   1 1259.80 33.8704  12
   5  -2  -1 1541.44 36.1418   2
   5  -2  -1 1521.42 35.3914   1
   5  -2  -1 1518.94 35.8044   9
  -5   2   1 1553.20 36.4147  10
  -5   2   1 1553.37 37.1690  12
   4  -2  -1 300.347 10.9510   2
   4  -2  -1 303.273 10.8582   9
   4  -2  -1 299.936 10.6422   1
  -4   2   1 296.365 11.6248  12
  -4   2   1 292.189 10.8470  10
  -4   2   1 301.914 11.3322  13
   3  -2  -1 119.281 6.33337   2
   3  -2  -1 140.055 6.52443   9
   3  -2  -1 122.224 6.34242   1
  -3   2   1 130.078 6.79104  13
  -3   2   1 125.314 6.26642  10
  -3   2   1 120.737 5.33616   3
  -3   2   1 128.211 6.93259  12
   2  -2  -1 1241.20 27.4447   1
   2  -2  -1 1277.07 26.8040   2
   2  -2  -1 1264.01 24.5279   4
  -2   2   1 1256.27 26.1936   3
  -2   2   1 1279.67 27.3945  10
  -2   2   1 1265.29 27.3263  12
  -2   2   1 1234.71 27.4303  13
   1  -2  -1 6014.35 112.693  12
   1  -2  -1 5912.66 111.645   7
   1  -2  -1 5901.49 112.409   2
   1  -2  -1 5828.87 113.673   1
  -1   2   1 5876.49 112.736  12
  -1   2   1 5756.19 113.251  10
  -1   2   1 5873.15 113.217  13
  -1   2   1 5960.15 111.837  11
  -2  -2  -1 4824.44 92.3114   6
  -2  -2  -1 4822.73 92.3168  13
  -2  -2  -1 4794.36 93.0051  12
   2   2   1 4847.92 93.0693   2
   2   2   1 4815.24 92.8600  12
   2   2   1 4883.59 94.1422   9
   2   2   1 4814.68 92.3613   6
   2   2   1 4900.24 93.2903   8
  -3  -2  -1 497.099 12.0350  13
  -3  -2  -1 500.475 13.0488  12
   3   2   1 502.338 12.1100   6
   3   2   1 503.044 12.9873   2
   3   2   1 493.076 13.3857   9
   3   2   1 508.175 12.5262   8
  -4  -2  -1 1223.02 28.0675  12
   4   2   1 1216.03 28.1722   9
   4   2   1 1228.45 27.0723   8
   4   2   1 1238.45 27.0382   1
   4   2   1 1196.20 27.7301   2
  -5  -2  -1 233.096 9.30185  13
  -5  -2  -1 264.946 11.1207  12
   5   2   1 251.707 10.5132   9
   5   2   1 251.092 10.3617   2
   5   2   1 237.240 8.97573   1
  -6  -2  -1 199.560 9.63544  13
  -6  -2  -1 200.363 10.4376  10
  -6  -2  -1 196.828 11.4732  12
   6   2   1 192.868 8.75671   1
   6   2   1 203.799 10.7908   2
   6   2   1 205.083 10.4628   9
  -7  -2  -1 665.487 22.2165  12
  -7  -2  -1 646.638 21.2148  10
  -7  -2  -1 627.727 19.7148  13
   7   2   1 656.226 18.7871   1
   7   2   1 651.796 21.1233   2
   7   2   1 665.406 20.9549   9
  -8  -2  -1 73.9738 7.93465  13
  -8  -2  -1 85.8274 10.0546  12
   8   2   1 82.2342 8.81644   2
   8   2   1 80.8797 7.08580   1
   8   2   1 73.1506 8.27374   9
  -9  -2  -1 357.179 16.3429   7
  -9  -2  -1 379.751 16.6913  13
  -9  -2  -1 419.365 19.9891  12
   9   2   1 348.829 14.4402   1
   9   2   1 367.961 17.2138   2
   9   2   1 404.275 17.6694   9
 -10  -2  -1 567.626 22.1698  13
 -10  -2  -1 561.900 20.7746   7
 -10  -2  -1 531.280 24.5507  12
  10   2   1 527.961 19.1257   1
  10   2   1 587.347 23.0208   2
  10   2   1 526.648 21.7638   9
   9  -3  -1 189.341 12.2527   1
   9  -3  -1 174.638 13.7717   2
  -9   3   1 157.818 14.2125  13
  -9   3   1 160.731 15.4963  12
  -9   3   1 164.675 13.6486  10
   8  -3  -1 63.5130 8.25866   2
   8  -3  -1 56.5416 7.41864   1
  -8   3   1 44.3336 9.37352  12
  -8   3   1 53.1436 8.91308  13
  -8   3   1 70.3229 8.96729  10
   7  -3  -1 1253.76 33.7067   2
   7  -3  -1 1248.62 32.8237   1
  -7   3   1 1277.38 34.8702  13
  -7   3   1 1260.97 34.2371  10
  -7   3   1 1248.59 35.2305  12
   6  -3  -1 286.174 13.1422   2
   6  -3  -1 279.711 12.5969   1
  -6   3   1 268.583 12.9747  10
  -6   3   1 282.764 14.1455  13
  -6   3   1 291.720 15.2449  12
   5  -3  -1 472.484 16.0651   2
   5  -3  -1 501.916 16.1258   1
  -5   3   1 478.853 16.2506  10
  -5   3   1 484.881 17.1642  13
  -5   3   1 494.372 17.3131  12
   4  -3  -1 607.021 17.5111   1
   4  -3  -1 620.952 17.4284   2
  -4   3   1 626.584 18.5503  13
  -4   3   1 628.381 17.9511  10
  -4   3   1 626.071 16.3407   3
  -4   3   1 618.137 18.2183  12
   3  -3  -1 133.117 6.95580   1
   3  -3  -1 131.818 6.70738   2
  -3   3   1 129.636 4.11707  11
  -3   3   1 134.831 6.82005  10
  -3   3   1 135.590 7.63604  13
  -3   3   1 123.352 7.38826  12
  -3   3   1 130.679 5.88143   3
   2  -3  -1 1244.22 27.9189   1
   2  -3  -1 1246.53 26.4732   2
  -2   3   1 1268.45 26.7003   3
  -2   3   1 1216.35 27.6378  10
  -2   3   1 1234.80 24.5809  11
  -2   3   1 1235.60 27.7399  13
  -2   3   1 1224.48 27.1040  12
   1  -3  -1 698.249 15.2789   2
   1  -3  -1 713.185 15.1752   7
   1  -3  -1 711.281 15.7237  12
   1  -3  -1 735.360 14.9819  11
   1  -3  -1 709.267 16.4809   5
   1  -3  -1 726.596 17.5745   1
  -1   3   1 723.635 17.0827  10
  -1   3   1 724.021 16.3889   3
  -1   3   1 704.415 15.8801  12
  -1   3   1 699.895 16.7581  13
   0  -3  -1 1637.39 33.3275   5
   0  -3  -1 1602.76 32.4368  13
   0   3   1 1559.38 33.5113   8
   0   3   1 1610.40 32.5682  13
   0   3   1 1621.89 33.1623   3
  -1  -3  -1 3130.04 60.3070  13
   1   3   1 3139.06 60.3351   6
   1   3   1 3120.35 61.9558   8
   1   3   1 3115.57 62.0075   3
  -2  -3  -1 585.906 13.2363  12
  -2  -3  -1 598.123 13.0262   6
   2   3   1 616.797 13.1194  12
   2   3   1 585.036 12.9863   6
   2   3   1 598.779 14.5109   8
   2   3   1 595.277 13.2759   2
  -3  -3  -1 660.628 15.0292  13
  -3  -3  -1 650.177 15.7721  12
   3   3   1 660.116 16.2049   8
   3   3   1 661.141 15.0824   6
   3   3   1 647.575 17.1479   9
   3   3   1 649.084 15.5960   2
  -4  -3  -1 35.4668 3.30282  13
  -4  -3  -1 51.2520 4.92175  12
   4   3   1 46.9574 4.32035   8
   4   3   1 52.9405 4.11255   6
   4   3   1 53.5829 5.27459   9
   4   3   1 47.3183 4.64330   2
  -5  -3  -1 499.290 14.2583  13
  -5  -3  -1 490.436 15.5999  12
   5   3   1 495.759 15.1627   2
   5   3   1 490.630 14.4570   8
   5   3   1 469.445 14.3952   1
   5   3   1 518.660 16.1765   9
  -6  -3  -1 355.033 12.6784  13
  -6  -3  -1 364.582 14.5220  12
   6   3   1 347.166 13.7481   2
   6   3   1 362.780 12.8282   8
   6   3   1 381.453 14.3943   9
   6   3   1 354.223 12.7230   1
  -7  -3  -1 646.570 19.4669  13
  -7  -3  -1 666.261 21.8747  12
   7   3   1 650.209 20.7268   2
   7   3   1 637.451 20.9322   9
   7   3   1 621.619 18.9868   1
  -8  -3  -1 56.2371 7.16169  13
  -8  -3  -1 59.8860 8.83608  12
   8   3   1 71.0644 7.08347   1
   8   3   1 62.3605 7.97206   2
   8   3   1 53.2444 7.34146   9
  -9  -3  -1 146.203 13.3744  12
  -9  -3  -1 133.857 10.9678  13
   9   3   1 147.761 12.0379   9
   9   3   1 158.621 12.4218   2
   9   3   1 140.786 9.78274   1
 -10  -3  -1 91.1330 10.4756   7
 -10  -3  -1 90.0141 12.2306  12
 -10  -3  -1 105.129 11.0325  13
  10   3   1 90.6753 10.3778   2
  10   3   1 78.2442 10.1200   9
  10   3   1 93.0847 9.14916   1
   9  -4  -1 307.129 16.5675   2
   9  -4  -1 300.776 15.7641   1
  -9   4   1 316.987 19.0460  13
  -9   4   1 304.127 17.5098  10
  -9   4   1 312.177 19.9243  12
   8  -4  -1 493.318 19.6100   2
   8  -4  -1 499.934 19.1231   1
  -8   4   1 518.263 22.0992  13
  -8   4   1 499.762 22.3713  12
  -8   4   1 468.863 20.0123  10
   7  -4  -1 710.429 23.3420   2
   7  -4  -1 751.264 23.2045   1
  -7   4   1 713.661 24.0492  10
  -7   4   1 729.856 25.3031  12
  -7   4   1 757.157 25.3683  13
   6  -4  -1 1860.28 43.6927   1
   6  -4  -1 1833.68 43.4702   2
  -6   4   1 1874.04 45.5261  13
  -6   4   1 1791.77 44.9661  12
  -6   4   1 1814.41 44.5816  10
   5  -4  -1 378.756 14.4747   1
   5  -4  -1 374.844 14.2152   2
  -5   4   1 396.742 15.9878  13
  -5   4   1 397.578 16.0008  12
  -5   4   1 396.569 13.1554   3
  -5   4   1 408.145 15.2078  10
   4  -4  -1 265.734 11.3961   1
   4  -4  -1 251.045 10.4463   2
  -4   4   1 244.660 11.7664  13
  -4   4   1 255.351 9.64143   3
  -4   4   1 267.600 11.1182  10
  -4   4   1 257.558 11.7283  12
  -4   4   1 258.860 6.52678  11
   3  -4  -1 464.786 10.2756   4
   3  -4  -1 467.513 13.2819   2
   3  -4  -1 465.454 14.7308   1
  -3   4   1 473.334 14.2834  12
  -3   4   1 455.873 14.8716  13
  -3   4   1 447.771 13.0744   3
  -3   4   1 462.891 14.4430  10
   2  -4  -1 -0.1482 2.18101   5
   2  -4  -1 -1.5707 2.13740   2
   2  -4  -1 3.01297 2.91869   1
   2  -4  -1 0.28333 1.07615   7
  -2   4   1 2.07384 2.91095  13
  -2   4   1 0.69345 2.84469  12
  -2   4   1 5.02246 2.62359  10
  -2   4   1 -1.8649 1.79447   3
   1  -4  -1 416.113 9.71392   2
   1  -4  -1 415.813 9.67024  11
   1  -4  -1 426.738 11.6939   5
   1  -4  -1 422.419 12.9417   1
  -1   4   1 392.031 11.7564  13
  -1   4   1 428.803 12.5094   8
  -1   4   1 407.401 11.5256   3
  -1   4   1 410.442 12.2106  10
  -1   4   1 395.057 10.4024  12
   0  -4  -1 12.2191 2.98888   5
   0   4   1 6.38115 2.68780   8
   0   4   1 5.40614 2.19760   3
   0   4   1 4.79843 2.16583  13
   1   4   1 1573.21 33.8318   3
   1   4   1 1543.42 33.7929   8
   1   4   1 1570.07 32.0124   6
   1   4   1 1591.50 34.3321   9
  -2  -4  -1 495.756 11.0652  12
   2   4   1 497.683 10.9734   2
   2   4   1 498.256 13.4555   8
   2   4   1 488.560 11.5595   6
   2   4   1 452.561 13.7061   9
   2   4   1 494.715 10.7546  12
   2   4   1 487.020 13.6930   3
  -3  -4  -1 1444.14 30.8417  12
   3   4   1 1473.90 30.7338   2
   3   4   1 1489.48 32.4802   8
   3   4   1 1475.21 33.1111   3
   3   4   1 1473.16 30.6420   6
  -4  -4  -1 306.193 10.5929  12
   4   4   1 338.385 10.5539   2
   4   4   1 303.224 11.8089   9
   4   4   1 331.517 9.78364   6
   4   4   1 320.839 10.9835   8
  -5  -4  -1 585.457 17.1455  12
  -5  -4  -1 588.911 15.8343  13
   5   4   1 564.619 16.7589   8
   5   4   1 579.194 15.7965   6
   5   4   1 574.452 16.5869   2
  -6  -4  -1 17.9881 5.54289  12
  -6  -4  -1 10.4876 3.86279  13
   6   4   1 8.62201 5.05142   9
   6   4   1 10.7274 4.06033   1
   6   4   1 12.4345 3.67031   8
   6   4   1 11.6251 4.80069   2
  -7  -4  -1 1028.82 25.9880  13
  -7  -4  -1 987.370 27.9085  12
   7   4   1 952.471 26.5733   2
   7   4   1 953.651 27.8062   9
   7   4   1 949.769 26.2980   8
   7   4   1 931.708 26.0748   1
  -8  -4  -1 55.4391 7.09003  13
  -8  -4  -1 50.0992 8.27601  12
   8   4   1 56.8821 7.69633   2
   8   4   1 55.6796 8.11880   9
   8   4   1 62.4180 7.09580   1
  -9  -4  -1 413.876 20.0720  12
  -9  -4  -1 410.356 16.8220  13
   9   4   1 412.194 18.9051   9
   9   4   1 431.664 18.1194   2
   9   4   1 401.054 16.5486   1
   8  -5  -1 -0.4636 4.89413   1
   8  -5  -1 3.78696 5.28311   2
  -8   5   1 4.03140 5.42536  10
  -8   5   1 0.72446 7.11928  12
  -8   5   1 6.60311 7.37005  13
   7  -5  -1 40.6278 7.01057   2
   7  -5  -1 32.5683 6.54183   1
  -7   5   1 16.7639 7.46012  13
  -7   5   1 28.6657 8.12893  12
  -7   5   1 25.3551 6.43872  10
   6  -5  -1 272.499 13.5168   1
   6  -5  -1 280.518 13.1751   2
  -6   5   1 283.050 13.9491  10
  -6   5   1 257.442 14.7173  12
  -6   5   1 289.023 15.2568  13
   5  -5  -1 272.261 13.0503   1
   5  -5  -1 239.532 11.5290   2
  -5   5   1 261.043 11.0181   3
  -5   5   1 259.122 13.6065  12
  -5   5   1 270.723 14.0242  13
  -5   5   1 275.963 12.8760  10
   4  -5  -1 563.088 16.5142   2
   4  -5  -1 556.700 18.2481   1
  -4   5   1 556.709 18.9202  13
  -4   5   1 556.831 18.0413  12
  -4   5   1 545.773 16.2791   3
  -4   5   1 556.794 18.0515  10
   3  -5  -1 118.824 8.48411   1
   3  -5  -1 113.099 6.76693   2
   3  -5  -1 116.139 6.89468   5
  -3   5   1 122.043 6.78653   3
  -3   5   1 120.264 8.09506  12
  -3   5   1 111.476 7.75680  10
  -3   5   1 122.386 8.86888  13
   2  -5  -1 658.617 13.9622  11
   2  -5  -1 667.935 15.7632   2
   2  -5  -1 655.981 19.1699   1
   2  -5  -1 653.352 14.6157   7
   2  -5  -1 645.238 17.2222   5
  -2   5   1 645.924 18.4717  10
  -2   5   1 688.951 19.0787   8
  -2   5   1 660.569 16.8863  12
  -2   5   1 675.972 17.6133   3
  -2   5   1 666.351 18.5046  13
   1  -5  -1 14.2269 3.19870   5
   1  -5  -1 11.3767 1.80104   2
   1  -5  -1 10.0207 1.92808  11
  -1   5   1 15.9208 3.58035  10
  -1   5   1 8.58627 3.21323  13
  -1   5   1 8.26874 3.10886   8
  -1   5   1 14.6494 2.96644   3
   0  -5  -1 1643.00 36.0341   5
   0   5   1 1651.07 37.0495   8
   0   5   1 1675.47 35.2297  13
   0   5   1 1670.11 37.1003  10
   0   5   1 1647.35 36.2293   3
   1   5   1 1316.26 30.0329   8
   1   5   1 1280.30 30.1920   9
   1   5   1 1280.08 27.7302   6
   1   5   1 1307.30 29.7909   3
   2   5   1 2124.07 45.2141   8
   2   5   1 2100.08 45.3475   3
   2   5   1 2060.07 45.8101   9
   2   5   1 2113.77 42.6233   6
  -3  -5  -1 1794.97 36.9117  12
   3   5   1 1823.31 36.7054   2
   3   5   1 1802.83 40.7786   9
   3   5   1 1775.57 40.3022   3
   3   5   1 1800.47 39.7931   8
   3   5   1 1816.41 37.3131   6
   4   5   1 744.667 18.3529   2
   4   5   1 761.916 20.4632   8
   4   5   1 750.967 20.9556   3
   4   5   1 753.669 18.3206   6
  -5  -5  -1 1261.99 29.5136  12
  -5  -5  -1 1214.10 28.1448  13
   5   5   1 1211.72 28.5713   2
   5   5   1 1224.97 30.1514   8
   5   5   1 1242.38 28.3903   6
  -6  -5  -1 717.545 19.5191  13
  -6  -5  -1 727.904 21.3065  12
   6   5   1 740.949 23.0618   9
   6   5   1 753.736 21.3155   8
   6   5   1 699.401 21.4500   1
   6   5   1 712.159 19.7087   6
   6   5   1 717.227 20.2716   2
  -7  -5  -1 0.82414 3.75180  13
  -7  -5  -1 8.76159 5.55309  12
   7   5   1 3.18678 4.87297   9
   7   5   1 4.28125 3.77239   8
   7   5   1 -2.7410 3.67518   1
   7   5   1 4.44682 4.23028   2
  -8  -5  -1 1148.02 32.7784  12
  -8  -5  -1 1173.21 30.5507  13
   8   5   1 1190.46 33.8399   9
   8   5   1 1162.29 31.6496   1
   8   5   1 1163.30 31.7609   8
   8   5   1 1136.51 31.3313   2
  -9  -5  -1 234.693 12.8741  13
  -9  -5  -1 241.583 16.0709  12
   9   5   1 234.500 13.2092   1
   9   5   1 215.634 15.0432   9
   9   5   1 244.497 13.9655   2
   8  -6  -1 -1.2128 5.14276   2
   8  -6  -1 3.19001 5.72611   1
  -8   6   1 -0.1441 6.91445  13
  -8   6   1 3.24255 5.34307  10
  -8   6   1 -1.0406 7.09427  12
   7  -6  -1 -1.1407 5.05323   1
   7  -6  -1 1.66236 4.58335   2
  -7   6   1 2.00497 4.87410  10
  -7   6   1 -2.4675 6.32833  12
  -7   6   1 -0.7378 6.31398  13
   6  -6  -1 6.02010 5.49592   1
   6  -6  -1 6.15579 4.82720   2
  -6   6   1 3.93638 5.96387  12
  -6   6   1 2.69571 6.21770  13
  -6   6   1 6.57931 4.87796  10
  -6   6   1 5.19370 3.88037   3
   5  -6  -1 777.626 21.6213   5
   5  -6  -1 769.964 21.7088   2
   5  -6  -1 732.970 23.6284   1
  -5   6   1 783.027 22.1829   3
  -5   6   1 769.640 24.2178  10
  -5   6   1 756.249 23.7182  12
  -5   6   1 795.194 25.1588  13
   4  -6  -1 4.54467 3.44098   5
   4  -6  -1 5.03727 3.75446   2
   4  -6  -1 2.79459 4.95448   1
   4  -6  -1 1.60547 1.73806   4
  -4   6   1 7.94284 5.57206  13
  -4   6   1 6.54187 4.30836  10
  -4   6   1 -0.8720 3.07041   3
  -4   6   1 0.73971 4.79033  12
   3  -6  -1 601.865 16.1071   2
   3  -6  -1 635.335 20.1559   1
   3  -6  -1 628.779 17.5422   5
  -3   6   1 606.388 17.7691  12
  -3   6   1 592.654 19.1488  10
  -3   6   1 611.759 17.8791   3
  -3   6   1 589.382 19.3988  13
  -3   6   1 599.070 19.3868   8
   2  -6  -1 853.479 23.9511   1
   2  -6  -1 857.499 19.1759   2
   2  -6  -1 824.115 17.5960  11
   2  -6  -1 829.071 21.4737   5
   2  -6  -1 873.717 19.0459   7
  -2   6   1 828.629 20.3744  12
  -2   6   1 855.100 23.6274   8
  -2   6   1 821.289 23.2223  10
  -2   6   1 859.711 23.0804  13
  -2   6   1 842.012 22.0761   3
   1  -6  -1 998.871 20.4921   2
   1  -6  -1 980.497 24.4332   5
  -1   6   1 1021.97 26.3778   8
  -1   6   1 1009.48 25.1544   3
  -1   6   1 1006.38 24.7149  13
  -1   6   1 1027.30 26.0861  10
   0  -6  -1 601.148 16.8143   5
   0   6   1 567.264 15.4299  13
   0   6   1 556.823 17.2583  10
   0   6   1 576.428 17.5531   8
   0   6   1 570.210 16.7253   3
   0   6   1 585.882 15.7984   6
   1   6   1 11.8887 3.87568   8
   1   6   1 18.4970 3.03623   6
   1   6   1 12.7046 3.35091   3
   1   6   1 11.7548 4.22160   9
   2   6   1 187.925 7.01922   6
   2   6   1 175.707 9.94209   9
   2   6   1 199.075 9.44161   3
   2   6   1 187.045 9.37838   8
  -3  -6  -1 912.959 20.0122  12
   3   6   1 934.065 25.1188   9
   3   6   1 899.347 24.2214   3
   3   6   1 932.561 24.1868   8
   3   6   1 897.258 21.0651   6
   4   6   1 112.874 8.04506   8
   4   6   1 87.6024 8.40820   9
   4   6   1 118.869 8.45876   3
   4   6   1 106.398 5.89493   6
  -5  -6  -1 1586.02 34.7596  13
  -5  -6  -1 1582.16 35.4967  12
   5   6   1 1571.48 34.7907   2
   5   6   1 1552.95 34.8495   6
   5   6   1 1562.06 37.5497   8
   5   6   1 1549.17 38.4965   3
   5   6   1 1549.26 38.9178   9
  -6  -6  -1 79.4991 7.70525  12
  -6  -6  -1 84.6846 6.66370  13
   6   6   1 78.2762 8.76156   9
   6   6   1 79.6871 7.54669   8
   6   6   1 67.7553 6.15145   6
   6   6   1 66.3960 7.62105   3
   6   6   1 75.7057 6.58075   2
  -7  -6  -1 268.991 11.7492  13
  -7  -6  -1 264.609 13.4306  12
   7   6   1 280.347 15.1800   9
   7   6   1 278.646 13.2119   8
   7   6   1 282.036 12.3751   2
   7   6   1 268.188 13.8418   3
   7   6   1 268.193 13.5940   1
  -8  -6  -1 773.153 24.8215  12
  -8  -6  -1 749.980 22.3111  13
   8   6   1 725.576 24.2904   1
   8   6   1 785.673 25.6333   3
   8   6   1 758.840 26.3183   9
   8   6   1 725.621 23.8741   8
   8   6   1 757.569 23.3074   2
  -9  -6  -1 259.197 16.3852  12
   9   6   1 250.751 16.3089   9
   9   6   1 266.571 14.2324   2
   9   6   1 257.846 14.4978   1
   9   6   1 244.078 15.1010   3
   7  -7  -1 32.6756 6.20470   5
   7  -7  -1 33.9136 7.50855   1
   7  -7  -1 47.9254 6.89754   2
  -7   7   1 22.7642 8.47893  13
  -7   7   1 34.3608 8.60676  12
  -7   7   1 33.8071 7.71512  10
   6  -7  -1 204.712 13.6478   1
   6  -7  -1 215.868 11.5514   5
   6  -7  -1 219.702 11.5294   2
  -6   7   1 209.459 15.1884  13
  -6   7   1 218.650 13.7072  10
  -6   7   1 207.870 13.9202  12
  -6   7   1 214.754 11.8872   3
   5  -7  -1 65.4422 6.77617   2
   5  -7  -1 70.4940 8.87501   1
   5  -7  -1 80.0066 7.90890   5
  -5   7   1 63.1165 7.04350   3
  -5   7   1 69.2554 8.92990  10
  -5   7   1 72.4283 8.44328  12
  -5   7   1 58.9762 8.36056   8
  -5   7   1 60.1857 8.95505  13
   4  -7  -1 1518.83 39.3219   1
   4  -7  -1 1484.59 34.5132   2
   4  -7  -1 1516.83 35.9569   5
  -4   7   1 1556.24 37.1443   3
  -4   7   1 1543.62 36.9089  12
  -4   7   1 1483.40 39.2686  13
  -4   7   1 1515.33 39.2189   8
  -4   7   1 1522.15 39.2150  10
   3  -7  -1 5.54671 3.96664   5
   3  -7  -1 -0.8091 2.76852   2
  -3   7   1 -1.2694 4.88082  13
  -3   7   1 -2.3039 3.58249  10
  -3   7   1 2.90486 3.53250   3
  -3   7   1 7.71180 4.81087   8
   2  -7  -1 322.514 8.18094  11
   2  -7  -1 323.101 12.4982   5
   2  -7  -1 334.915 9.24190   2
  -2   7   1 325.804 13.6503  13
  -2   7   1 323.128 14.3820   8
  -2   7   1 321.432 12.6026   3
  -2   7   1 346.378 14.0168  10
   1  -7  -1 870.852 22.9207   5
  -1   7   1 859.443 22.9250  13
  -1   7   1 852.562 23.4710   3
  -1   7   1 888.532 24.9869   8
  -1   7   1 848.783 24.3403  10
   0   7   1 58.9321 6.89635   9
   0   7   1 61.4974 6.21988   3
   0   7   1 71.8733 5.90809  13
   0   7   1 71.1360 6.08174   6
   0   7   1 52.8915 6.59569   8
   0   7   1 71.1262 7.18155  10
   1   7   1 378.590 13.8639   3
   1   7   1 370.839 11.7988   6
   1   7   1 332.172 14.2112   9
   1   7   1 375.923 14.3950   8
   2   7   1 1359.96 34.7095   9
   2   7   1 1398.35 34.1203   8
   2   7   1 1361.73 33.9942   3
   2   7   1 1408.20 30.7965   6
   3   7   1 219.628 8.25872   6
   3   7   1 200.894 11.9397   9
   3   7   1 214.470 11.1364   8
   3   7   1 224.349 11.1185   3
  -4  -7  -1 206.881 8.17335  12
   4   7   1 226.341 12.9657   9
   4   7   1 225.494 11.4219   8
   4   7   1 221.890 8.49219   6
   4   7   1 222.117 11.5527   3
  -5  -7  -1 53.3937 5.11370  13
  -5  -7  -1 51.9961 5.61470  12
   5   7   1 54.3155 7.76253   9
   5   7   1 45.5595 6.39384   8
   5   7   1 55.8588 6.95381   3
   5   7   1 56.6917 5.22249   6
  -6  -7  -1 9.99438 4.89352  12
  -6  -7  -1 7.76863 3.48061  13
   6   7   1 14.3454 4.92768   8
   6   7   1 1.50933 4.03299   3
   6   7   1 10.0208 6.02710   9
   6   7   1 4.62177 3.37144   6
  -7  -7  -1 598.953 20.0301  12
   7   7   1 604.551 22.0095   1
   7   7   1 612.584 21.1049   8
   7   7   1 636.972 22.4433   3
   7   7   1 631.817 23.7637   9
  -8  -7  -1 0.66093 6.35954  12
   8   7   1 5.21777 4.57492   8
   8   7   1 -3.3786 5.66380   9
   8   7   1 2.84442 5.13922   1
   8   7   1 3.56556 5.33209   3
   6  -8  -1 14.5595 7.06384   1
   6  -8  -1 12.5324 4.86895   2
   6  -8  -1 21.2892 5.66586   5
  -6   8   1 19.3151 6.60329  12
  -6   8   1 16.9532 5.28348   3
  -6   8   1 12.1004 7.75217  13
  -6   8   1 8.54611 6.34471   8
  -6   8   1 17.7386 6.52970  10
   5  -8  -1 22.9108 7.02058   1
   5  -8  -1 23.1957 5.60253   2
   5  -8  -1 18.2168 5.24114   5
  -5   8   1 22.1286 7.49449  13
  -5   8   1 16.5734 6.20150   8
  -5   8   1 9.90406 4.57765   3
  -5   8   1 20.9738 5.78325  12
  -5   8   1 15.3854 5.84873  10
   4  -8  -1 1059.38 28.4026   5
  -4   8   1 1128.67 32.1607  13
  -4   8   1 1090.76 31.8833  10
  -4   8   1 1101.97 32.2067   8
  -4   8   1 1089.30 29.9512   3
   3  -8  -1 0.65347 4.09930   5
  -3   8   1 -5.2792 3.26495   3
  -3   8   1 -0.8429 4.00174  10
  -3   8   1 -4.3304 4.40499   8
  -3   8   1 5.89965 5.33275  13
   2  -8  -1 179.892 8.03342   7
   2  -8  -1 207.103 10.6130   5
  -2   8   1 184.859 10.8023  13
  -2   8   1 186.369 12.3436   8
  -2   8   1 184.908 10.3991   3
  -2   8   1 176.307 10.9767  10
   1  -8  -1 0.56776 2.48554  11
   1  -8  -1 0.83040 4.27080   5
  -1   8   1 7.44094 3.96191   3
  -1   8   1 2.89116 3.90551  13
  -1   8   1 -0.2744 3.77051   6
  -1   8   1 1.81983 4.50746   8
  -1   8   1 7.82237 4.48011  10
   0   8   1 242.621 10.6626   6
   0   8   1 271.344 12.7658  10
   0   8   1 257.910 12.8524   8
   0   8   1 251.057 12.8898   9
   0   8   1 229.940 11.4276   3
   1   8   1 83.4003 8.48627   9
   1   8   1 121.074 8.52035   3
   1   8   1 104.448 6.65960   6
   1   8   1 77.8681 8.17969   8
   2   8   1 54.8138 7.12773   8
   2   8   1 46.9920 6.36375   3
   2   8   1 41.4921 6.85220   9
   2   8   1 42.9418 4.60646   6
   3   8   1 386.292 16.4744   9
   3   8   1 353.571 15.0639   3
   3   8   1 366.948 11.8882   6
   3   8   1 380.497 15.4151   8
   4   8   1 299.952 14.2866   3
   4   8   1 290.176 13.8605   8
   4   8   1 324.204 12.4780   6
   4   8   1 328.292 15.7008   9
   5   8   1 27.2747 5.97616   3
   5   8   1 38.9412 7.54798   9
   5   8   1 46.0294 6.94836   8
   6   8   1 1004.68 29.2606   8
   6   8   1 980.778 30.0034   3
   6   8   1 973.481 31.0421   9
   7   8   1 28.8986 7.89299   9
   7   8   1 36.6993 6.66126   8
   7   8   1 35.0400 7.58879   1
   7   8   1 21.1007 6.53905   3
   5  -9  -1 70.1873 7.82395   5
  -5   9   1 64.7584 10.0693  13
  -5   9   1 53.3725 7.57525   3
  -5   9   1 50.4746 8.88900   8
  -5   9   1 56.3626 8.78995  10
   4  -9  -1 88.7534 8.41370   5
  -4   9   1 57.4269 7.69295   3
  -4   9   1 63.1093 9.20833   8
  -4   9   1 77.7208 9.69479  10
  -4   9   1 74.4118 9.68904  13
   3  -9  -1 265.416 12.8295   5
  -3   9   1 281.116 15.9757   8
  -3   9   1 282.162 14.9377  10
  -3   9   1 251.598 14.3776  13
  -3   9   1 293.081 13.8917   3
   2  -9  -1 75.2919 8.08173   5
  -2   9   1 68.6000 7.84295   3
  -2   9   1 67.2944 9.08683   8
  -2   9   1 57.6862 7.88093  10
  -2   9   1 62.7946 7.66641  13
  -1   9   1 180.247 12.3126   8
  -1   9   1 199.363 12.0904  10
  -1   9   1 185.376 10.9100   3
  -1   9   1 173.949 10.4309   6
  -1   9   1 188.986 12.4229   9
  -1   9   1 197.610 10.7006  13
   0   9   1 116.350 10.2888   8
   0   9   1 116.923 9.77038  10
   0   9   1 146.130 11.2575   9
   0   9   1 140.340 9.93393   3
   0   9   1 132.199 8.60445   6
   1   9   1 103.024 9.29310   3
   1   9   1 97.6489 7.02555   6
   1   9   1 102.120 9.68345  10
   1   9   1 88.8058 9.11688   8
   1   9   1 100.085 9.44122   9
   2   9   1 450.981 14.8089   6
   2   9   1 408.351 16.9668   3
   2   9   1 428.078 18.0300   9
   2   9   1 422.927 17.4956   8
   3   9   1 8.30182 5.77340   9
   3   9   1 8.84193 5.22176   8
   3   9   1 17.4152 5.16866   3
   4   9   1 -4.2685 4.03316   3
   4   9   1 7.82681 5.93850   9
   4   9   1 7.86459 5.03937   8
   5   9   1 79.7202 9.19836   8
   5   9   1 72.5879 9.81431   9
   5   9   1 74.2165 9.22047   3
   6   9   1 1238.52 36.7371   3
   6   9   1 1317.70 38.1270   9
   6   9   1 1270.31 35.9071   8
   4 -10  -1 54.0611 8.04037   5
  -4  10   1 59.0508 9.46612  13
  -4  10   1 53.1941 9.30564  10
  -4  10   1 46.5494 9.43494   8
  -4  10   1 49.5440 7.79515   3
   3 -10  -1 282.808 14.4584   5
  -3  10   1 293.387 15.5485  13
  -3  10   1 253.770 14.2236   3
  -3  10   1 278.653 15.9430  10
  -3  10   1 297.755 17.3904   8
  -2  10   1 26.2713 6.22365  13
  -2  10   1 19.2678 5.93259   6
  -2  10   1 20.2603 7.02355   8
  -2  10   1 14.1444 5.97652  10
  -2  10   1 10.2697 5.30896   3
  -1  10   1 197.532 13.3569   9
  -1  10   1 213.408 12.5600   3
  -1  10   1 209.481 13.3952  10
  -1  10   1 199.058 11.7213   6
  -1  10   1 207.362 13.9799   8
   0  10   1 424.347 18.8281   8
   0  10   1 439.166 18.9461  10
   0  10   1 425.213 18.7317   9
   0  10   1 402.795 17.5329   3
   0  10   1 421.569 15.6561   6
   1  10   1 70.4989 8.54211   3
   1  10   1 59.6028 8.63520  10
   1  10   1 72.0454 9.18015   9
   1  10   1 53.4086 8.13758   8
   2  10   1 165.190 11.7125   3
   2  10   1 180.278 13.4225   9
   2  10   1 163.373 12.3256   8
   3  10   1 6.63432 5.09448   3
   3  10   1 4.09947 5.82846   9
   3  10   1 1.58630 5.08445   8
   4  10   1 13.1737 5.95670   8
   4  10   1 8.93481 5.60278   3
   4  10   1 7.41745 6.61500   9
   5  10   1 195.767 13.9724   3
   5  10   1 157.056 12.9009   8
   5  10   1 125.548 12.5686   9
  -1  11   1 9.42501 6.13531  10
  -1  11   1 2.70582 5.13094   3
  -1  11   1 -1.1267 6.49445   8
  -1  11   1 15.8162 6.86057   9
   0  11   1 1363.51 39.3344   8
   0  11   1 1307.25 37.9894   3
   0  11   1 1398.13 39.4058   9
   0  11   1 1388.90 39.6510  10
   1  11   1 14.9871 6.43949  10
   1  11   1 6.66885 6.11259   8
   1  11   1 8.94853 6.46182   9
   1  11   1 14.3103 5.81979   3
   2  11   1 -0.2787 5.97165   9
   2  11   1 4.41960 6.28982   8
   2  11   1 -2.4447 5.18329   3
   2  11   1 1.60826 5.38742  10
   3  11   1 235.465 15.6067   8
   3  11   1 248.727 16.3520   9
   3  11   1 236.905 15.2237   3
   0  11  -2 36.2290 7.58808   9
   0  11  -2 26.2511 7.05136   3
   0  11  -2 35.0576 6.72943   6
   0  11  -2 32.5215 7.87468   8
   0  11  -2 34.1545 8.15094  10
   4  10  -2 101.159 11.5758   8
   4  10  -2 93.4724 10.9940   9
   4  10  -2 112.857 11.5877   3
   3  10  -2 15.6761 6.24065   3
   3  10  -2 25.0842 7.24732   9
   3  10  -2 19.0164 5.28630   6
   3  10  -2 14.0215 6.21444   8
   2  10  -2 785.628 27.0587   8
   2  10  -2 764.066 25.7118   9
   2  10  -2 788.957 26.5725   3
   2  10  -2 750.429 24.1978   6
   1  10  -2 365.746 15.9350   6
   1  10  -2 346.497 17.3810  10
   1  10  -2 336.263 16.6022   3
   1  10  -2 363.455 17.9196   8
   1  10  -2 339.383 16.3418   9
   0  10  -2 220.953 13.1604   9
   0  10  -2 192.662 12.6839   3
   0  10  -2 212.689 13.7136  10
   0  10  -2 208.583 12.3479   6
   0  10  -2 185.678 13.5278   8
  -1  10  -2 10.6434 5.38435   9
  -1  10  -2 1.71122 4.48701   3
  -1  10  -2 2.59832 5.75664   8
  -1  10  -2 2.32143 4.61198   6
  -1  10  -2 1.55740 4.99738  10
  -2  10  -2 0.72681 4.89201   6
  -2  10  -2 6.54304 4.85568   9
  -2  10  -2 6.18010 5.89944   8
  -2  10  -2 0.23262 4.63849  10
  -2  10  -2 -0.5316 4.60618   3
  -3  10  -2 64.3542 9.48230  10
  -3  10  -2 52.3383 9.06545   8
  -3  10  -2 57.1050 7.77660   9
  -3  10  -2 57.9636 8.73617   6
  -3  10  -2 56.4268 8.59783   3
  -4  10  -2 80.1793 10.7571   8
  -4  10  -2 99.6829 11.3923  10
  -4  10  -2 63.5572 9.75040   6
  -4  10  -2 80.8661 9.81771   3
  -4  10  -2 99.2343 11.4387  13
   5   9  -2 52.2308 8.69508   8
   5   9  -2 74.4442 9.28936   3
   5   9  -2 75.3696 10.2168   9
   5   9  -2 76.0700 8.04012   6
   4   9  -2 91.8677 9.95539   3
   4   9  -2 96.2248 10.7098   8
   4   9  -2 92.9130 8.73136   6
   4   9  -2 96.0465 10.5534   9
   3   9  -2 13.6995 4.81623   6
   3   9  -2 12.5917 5.20897   3
   3   9  -2 10.7825 5.76528   9
   3   9  -2 17.2299 5.91739   8
   2   9  -2 480.261 17.9145   6
   2   9  -2 525.584 20.0080   3
   2   9  -2 527.930 19.6200   9
   2   9  -2 523.830 20.3080   8
   1   9  -2 43.7075 6.40881   6
   1   9  -2 35.1665 6.40087   3
   1   9  -2 48.7010 6.99032   9
   1   9  -2 51.2730 7.71661   8
   0   9  -2 679.138 23.4319  10
   0   9  -2 662.107 21.7989   9
   0   9  -2 721.799 23.9401   8
   0   9  -2 682.241 22.9658   3
   0   9  -2 662.423 21.8336   6
  -1   9  -2 127.385 10.1291   6
  -1   9  -2 129.280 10.7023   3
  -1   9  -2 117.711 10.7582   8
  -1   9  -2 92.4215 9.67239  10
  -1   9  -2 128.304 10.0385   9
  -2   9  -2 2346.54 56.8229   3
  -2   9  -2 2397.05 57.0077   6
  -2   9  -2 2442.12 58.1605  10
  -2   9  -2 2430.25 54.9129   9
  -2   9  -2 2407.64 57.6450   8
  -3   9  -2 8.65115 5.27302  10
  -3   9  -2 6.34467 4.77539   9
  -3   9  -2 11.8107 6.09480  13
  -3   9  -2 17.6416 5.96913   6
  -3   9  -2 7.84393 5.71960   8
  -3   9  -2 1.84299 4.82714   3
  -4   9  -2 28.7697 7.20065  10
  -4   9  -2 31.9287 7.70910   6
  -4   9  -2 34.2762 6.68327   3
  -4   9  -2 34.4291 7.49931   8
  -4   9  -2 36.6640 7.92124  13
  -5   9  -2 -5.7713 4.41283  10
  -5   9  -2 0.20893 6.01887  13
  -5   9  -2 5.17843 5.21148   3
  -5   9  -2 0.53776 6.08158   8
   6   8  -2 16.5962 6.80020   9
   6   8  -2 10.2341 5.18741   3
   6   8  -2 21.2876 6.32431   8
   6   8  -2 16.9034 6.89998   1
   6   8  -2 21.2061 5.42940   6
  -6  -8   2 17.2847 7.48826  12
   5   8  -2 310.687 15.7140   8
   5   8  -2 266.699 15.5560   9
   5   8  -2 278.471 13.2618   6
   5   8  -2 263.560 14.6013   3
  -5  -8   2 287.238 12.7732  12
   4   8  -2 100.653 10.2097   8
   4   8  -2 88.4036 8.33306   6
   4   8  -2 87.0342 9.44266   9
   4   8  -2 73.4340 8.68365   3
  -4  -8   2 91.9456 7.58672  12
   3   8  -2 15.1688 5.52782   8
   3   8  -2 22.7865 5.52842   3
   3   8  -2 15.1659 5.54646   9
   3   8  -2 14.7543 4.54636   6
  -3  -8   2 16.2604 3.91629  12
   2   8  -2 13.3866 4.70469   3
   2   8  -2 6.06566 4.64514   9
   2   8  -2 10.5841 3.99033   6
   2   8  -2 13.2392 5.07632   8
  -2  -8   2 11.3658 3.31414  12
   1   8  -2 2690.04 58.8611   9
   1   8  -2 2640.55 59.8574   3
   1   8  -2 2609.98 58.5515   6
   1   8  -2 2710.55 60.4374   8
  -1  -8   2 2610.89 53.7829   2
  -1  -8   2 2592.31 54.6493  12
   0   8  -2 9.84033 5.10347   8
   0   8  -2 7.40900 4.26138   3
   0   8  -2 6.83243 4.56027  10
   0   8  -2 10.3554 4.57232   9
   0   8  -2 6.68057 3.99260   6
   0  -8   2 -1.8112 3.19638   2
  -1   8  -2 38.1877 6.04250   3
  -1   8  -2 28.5638 6.11887   8
  -1   8  -2 25.2846 5.55217   6
  -1   8  -2 34.8281 5.61969   9
  -1   8  -2 37.7699 6.54639  10
   1  -8   2 36.2760 4.78973   2
  -2   8  -2 323.964 14.9274   6
  -2   8  -2 320.082 13.3568   9
  -2   8  -2 325.944 14.5378   3
  -2   8  -2 312.198 14.9890  10
  -2   8  -2 344.168 15.5421   8
   2  -8   2 330.462 11.7124   2
  -3   8  -2 1.40867 4.97702  13
  -3   8  -2 8.23307 5.37792   6
  -3   8  -2 1.22751 5.20849   8
  -3   8  -2 7.63561 4.40536   3
  -3   8  -2 1.78139 4.21740  10
   3  -8   2 4.96291 4.48904   2
  -4   8  -2 349.148 16.6383  10
  -4   8  -2 349.032 15.5229   3
  -4   8  -2 360.620 16.9894   8
  -4   8  -2 349.212 16.8861  13
   4  -8   2 351.869 13.7643   2
  -5   8  -2 94.0416 9.62841   3
  -5   8  -2 90.3541 10.4193  13
  -5   8  -2 82.5563 9.70446  10
  -5   8  -2 86.2852 10.2164   8
   5  -8   2 93.0505 8.46838   2
  -6   8  -2 297.772 15.3140   3
  -6   8  -2 306.743 16.3916   8
  -6   8  -2 275.168 15.9951  10
  -6   8  -2 275.608 17.4055  13
   6  -8   2 296.550 14.3866   2
  -7   8  -2 842.929 29.0411   8
  -7   8  -2 831.554 28.0848   3
  -7   8  -2 878.668 31.3534  13
  -7   8  -2 834.181 29.6940  10
   7  -8   2 841.047 26.3028   2
   7   7  -2 197.131 12.4307   6
   7   7  -2 218.137 14.8388   1
   7   7  -2 191.564 12.9280   3
   7   7  -2 196.187 13.5621   8
   7   7  -2 182.191 14.2106   9
  -7  -7   2 184.037 13.3719  12
  -7  -7   2 196.674 12.5225  13
   6   7  -2 45.3240 7.07811   3
   6   7  -2 45.0739 7.96255   9
   6   7  -2 54.9944 7.19823   6
   6   7  -2 49.3332 8.22447   1
   6   7  -2 57.4034 8.08215   8
  -6  -7   2 58.0492 7.59611  13
  -6  -7   2 56.6627 7.72732  12
   5   7  -2 673.735 23.6331   9
   5   7  -2 742.111 23.4845   3
   5   7  -2 712.634 24.7993   1
   5   7  -2 763.856 22.7153   6
   5   7  -2 691.124 23.5368   8
  -5  -7   2 717.778 21.5282  12
   4   7  -2 791.166 23.9085   3
   4   7  -2 752.147 24.0687   8
   4   7  -2 736.891 23.8050   9
   4   7  -2 788.099 22.8759   6
  -4  -7   2 784.070 21.6354  12
   3   7  -2 186.843 10.0749   6
   3   7  -2 174.496 10.9000   8
   3   7  -2 173.024 10.5397   3
   3   7  -2 202.631 11.5901   9
  -3  -7   2 175.760 8.71681  12
   2   7  -2 286.210 12.8660   3
   2   7  -2 302.091 12.1481   6
   2   7  -2 285.390 12.9407   9
   2   7  -2 282.584 13.2512   8
  -2  -7   2 259.658 9.97124  12
   1   7  -2 45.2563 6.55076   8
   1   7  -2 43.2067 6.07146   9
   1   7  -2 70.0441 7.33048   3
   1   7  -2 70.9241 6.83613   6
  -1  -7   2 62.9885 5.09275  12
   0   7  -2 60.5852 6.39876   6
   0   7  -2 69.2576 7.26842   3
   0   7  -2 66.0508 6.54055   9
   0   7  -2 67.7598 7.49876   8
   0  -7   2 71.3056 5.24826   2
  -1   7  -2 242.589 12.5290   8
  -1   7  -2 255.051 12.2046  10
  -1   7  -2 268.042 11.3617   9
  -1   7  -2 262.948 11.7996   3
  -1   7  -2 233.674 11.9124   6
   1  -7   2 260.263 9.78166   2
  -2   7  -2 2037.75 47.1475  13
  -2   7  -2 2020.88 47.7593   6
  -2   7  -2 2038.17 47.6664   8
  -2   7  -2 1998.69 46.9094   3
  -2   7  -2 2035.34 47.8008  10
   2  -7   2 2020.71 43.4189   2
  -3   7  -2 1414.85 36.9843   8
  -3   7  -2 1490.03 36.8155   3
  -3   7  -2 1472.42 37.0821  13
  -3   7  -2 1453.73 37.2723  10
   3  -7   2 1436.63 33.5308   2
  -4   7  -2 582.418 19.8033   3
  -4   7  -2 599.658 21.1831  13
  -4   7  -2 601.167 20.7479  10
  -4   7  -2 548.132 20.1515   8
   4  -7   2 577.850 18.1846   2
   4  -7   2 599.199 15.9726   5
  -5   7  -2 -0.7574 3.53498   3
  -5   7  -2 0.10875 4.30535  10
  -5   7  -2 4.70578 5.75114  13
  -5   7  -2 6.54483 5.03325   8
   5  -7   2 2.21562 5.10219   2
   5  -7   2 6.07251 3.19199   5
  -6   7  -2 174.240 14.4212  13
  -6   7  -2 197.936 11.9468   3
  -6   7  -2 180.376 12.8698   8
  -6   7  -2 175.338 12.2757  10
   6  -7   2 196.482 12.3878   2
  -7   7  -2 19.1531 6.55613   8
  -7   7  -2 18.2887 6.41467  10
  -7   7  -2 22.6348 8.08748  13
  -7   7  -2 12.1405 5.36632   3
   7  -7   2 19.6587 6.51267   2
  -8   7  -2 -4.0817 5.12777  10
   8  -7   2 11.7082 6.52004   2
   8   6  -2 401.477 17.7592   3
   8   6  -2 393.984 19.3300   9
   8   6  -2 378.934 17.7724   6
   8   6  -2 393.935 18.3111   8
   8   6  -2 421.115 19.4504   1
  -8  -6   2 399.848 17.7291  13
  -8  -6   2 384.139 19.0956  12
   7   6  -2 598.056 21.8668   8
   7   6  -2 594.757 22.6611   9
   7   6  -2 610.616 21.0688   6
   7   6  -2 545.753 20.5297   3
   7   6  -2 598.641 22.8009   1
  -7  -6   2 543.264 20.1951  13
  -7  -6   2 587.988 21.7758  12
   6   6  -2 88.5624 8.72528   8
   6   6  -2 83.2241 8.45964   3
   6   6  -2 77.9207 9.00638   9
   6   6  -2 101.565 10.1238   1
   6   6  -2 91.3922 8.69677   6
  -6  -6   2 92.5648 8.80684  13
  -6  -6   2 86.7990 8.97209  12
   5   6  -2 5.76261 4.13384   3
   5   6  -2 15.6122 4.89621   8
   5   6  -2 5.06948 5.17232   1
   5   6  -2 5.42051 3.77117   6
   5   6  -2 4.56398 5.22961   9
  -5  -6   2 14.1724 5.06163  12
   4   6  -2 2.03218 3.76194   3
   4   6  -2 -0.9204 2.95976   6
   4   6  -2 2.48793 4.10745   8
   4   6  -2 0.11340 4.28573   9
  -4  -6   2 -0.7379 3.76415  12
   3   6  -2 31.9711 5.16146   3
   3   6  -2 25.9046 5.01501   8
   3   6  -2 17.3616 5.04821   9
   3   6  -2 31.0650 4.89323   6
  -3  -6   2 24.0516 4.46410  12
   2   6  -2 187.558 9.22987   6
   2   6  -2 182.515 9.94797   9
  -2  -6   2 176.153 7.86589  12
   1   6  -2 15.0800 3.75810   6
   1   6  -2 12.0810 3.79800   3
   1   6  -2 12.7546 3.94643   9
  -1  -6   2 13.6124 3.10175  12
   0   6  -2 2130.39 46.8344   6
   0   6  -2 2127.16 45.6194   9
   0   6  -2 2085.72 46.7562   3
   0  -6   2 2040.04 43.0803   2
  -1   6  -2 2724.11 59.2656   6
  -1   6  -2 2755.43 59.5281  10
  -1   6  -2 2764.14 59.3386   8
  -1   6  -2 2705.89 58.7927   3
  -1   6  -2 2749.59 57.3383   9
   1  -6   2 2719.51 55.6545   2
  -2   6  -2 1962.33 44.8449  13
  -2   6  -2 1973.81 45.5200   6
  -2   6  -2 2001.57 45.1393   8
  -2   6  -2 1917.91 45.0149  10
  -2   6  -2 1942.10 44.6159   3
   2  -6   2 1982.74 42.1650   2
  -3   6  -2 1084.97 27.9560   3
  -3   6  -2 1056.88 28.3264   8
  -3   6  -2 1097.09 28.6401  10
  -3   6  -2 1042.08 28.6057  13
   3  -6   2 1059.54 24.0397   5
   3  -6   2 1050.25 26.2193   2
  -4   6  -2 216.273 11.6953   8
  -4   6  -2 250.077 13.0109  13
  -4   6  -2 220.961 11.7179  10
  -4   6  -2 224.840 11.3876   3
   4  -6   2 229.334 11.5838   2
   4  -6   2 229.276 8.42980   5
  -5   6  -2 57.6364 8.30741  13
  -5   6  -2 59.3614 7.47287   8
  -5   6  -2 57.8869 7.62817  10
  -5   6  -2 56.6804 6.90281   3
   5  -6   2 48.0402 4.61395   5
   5  -6   2 57.7587 7.36530   2
  -6   6  -2 39.9283 6.95257   8
  -6   6  -2 36.4948 7.95229  13
  -6   6  -2 38.6797 6.67401  10
  -6   6  -2 55.0031 7.27695   3
   6  -6   2 54.7700 5.04253   5
   6  -6   2 47.5530 7.45066   2
  -7   6  -2 190.918 14.8546  13
  -7   6  -2 172.116 12.2964   8
  -7   6  -2 200.465 12.1930   3
  -7   6  -2 172.449 12.3527  10
   7  -6   2 210.417 13.2391   2
  -8   6  -2 147.995 14.4077  13
  -8   6  -2 185.379 14.2222  12
  -8   6  -2 155.971 12.6622  10
   8  -6   2 169.119 13.1428   2
   8  -6   2 147.702 11.5429   1
   8   5  -2 53.3153 7.74959   3
   8   5  -2 36.7831 7.20132   6
   8   5  -2 40.7869 8.03414   9
   8   5  -2 45.6203 7.88987   1
  -8  -5   2 37.7453 7.16702  13
  -8  -5   2 48.2639 9.04191  12
   7   5  -2 -0.6805 3.90300   3
   7   5  -2 3.80516 4.81282   1
   7   5  -2 3.07145 5.47104   9
   7   5  -2 -1.2780 4.02302   8
   7   5  -2 -3.1172 3.80656   6
  -7  -5   2 11.4945 5.10464  13
  -7  -5   2 8.22792 6.21754  12
   6   5  -2 1148.64 32.3398   1
   6   5  -2 1180.59 31.5879   6
   6   5  -2 1194.83 32.3304   9
   6   5  -2 1177.90 32.0443   8
   6   5  -2 1141.26 30.8212   3
  -6  -5   2 1162.60 31.1066  13
  -6  -5   2 1151.24 31.4056  12
   5   5  -2 149.850 10.8891   1
   5   5  -2 143.833 9.25743   3
   5   5  -2 131.067 9.61977   8
   5   5  -2 167.491 9.70919   6
   5   5  -2 175.365 11.0961   9
  -5  -5   2 160.660 10.2978  12
   4   5  -2 1189.95 30.1618   3
   4   5  -2 1221.79 31.0726   8
   4   5  -2 1233.21 30.3239   6
   4   5  -2 1202.93 31.5987   1
   4   5  -2 1219.39 30.9924   9
  -4  -5   2 1189.83 29.6193  12
   3   5  -2 1988.35 44.2361   9
   3   5  -2 1929.04 43.8341   3
   3   5  -2 1960.33 43.8495   6
  -3  -5   2 1970.23 42.8169  12
   2   5  -2 160.779 8.08529   6
   2   5  -2 169.853 8.72766   9
   2   5  -2 166.516 8.41352   3
  -2  -5   2 164.290 7.39807  12
   1   5  -2 117.982 6.93580   3
   1   5  -2 122.086 6.97564   9
   1   5  -2 114.644 6.99234   8
   1   5  -2 114.506 6.75303   6
  -1  -5   2 108.553 5.64252  12
   0   5  -2 1345.96 31.6278   8
   0   5  -2 1313.31 31.1824   3
   0   5  -2 1360.06 30.2511   9
   0   5  -2 1364.01 31.5767   6
  -1   5  -2 47.7405 5.15702  10
  -1   5  -2 66.9540 5.70486   3
  -1   5  -2 56.0669 4.69063   9
  -1   5  -2 42.7878 5.14737   6
  -1   5  -2 51.5305 5.48461   8
   1  -5   2 58.5130 4.61531   2
  -2   5  -2 909.889 23.7996   8
  -2   5  -2 928.538 23.9267  13
  -2   5  -2 946.089 23.9787  10
  -2   5  -2 901.126 23.3758   3
   2  -5   2 886.394 22.0102   2
  -3   5  -2 7.14358 3.20972   3
  -3   5  -2 2.88060 3.56214   8
  -3   5  -2 11.7462 4.55389  13
  -3   5  -2 4.42218 3.36973  10
   3  -5   2 3.33000 2.34071   5
   3  -5   2 4.16015 4.09631   2
  -4   5  -2 202.897 11.7206  13
  -4   5  -2 211.802 10.1556   3
  -4   5  -2 204.872 10.4231  10
  -4   5  -2 204.879 10.5359   8
   4  -5   2 203.025 7.25346   5
   4  -5   2 201.831 10.7741   2
  -5   5  -2 2117.13 49.1093   8
  -5   5  -2 2172.56 51.2260  13
  -5   5  -2 2163.97 50.1526  10
  -5   5  -2 2145.21 49.0792   3
   5  -5   2 2160.55 48.9037   2
   5  -5   2 2191.69 44.8808   5
  -6   5  -2 1090.24 30.9383  12
  -6   5  -2 1124.68 31.9861  13
  -6   5  -2 1096.93 29.6258   3
  -6   5  -2 1085.02 30.5928  10
   6  -5   2 1075.98 28.2093   1
   6  -5   2 1078.06 29.9371   2
  -7   5  -2 8.84789 6.11251  13
  -7   5  -2 2.96762 4.57779  10
  -7   5  -2 2.72300 5.98075  12
   7  -5   2 -0.0436 5.56331   2
   7  -5   2 8.24876 4.64443   1
  -8   5  -2 79.5980 9.87829  10
  -8   5  -2 82.0459 10.4902  13
  -8   5  -2 91.9764 11.4147  12
   8  -5   2 83.3675 10.1683   2
   8  -5   2 96.6842 8.79055   1
  -9   5  -2 277.712 16.4675  10
  -9   5  -2 291.818 18.5969  12
  -9   5  -2 282.805 18.2631  13
   9  -5   2 283.894 16.7583   2
   9   4  -2 220.483 14.4473   1
   9   4  -2 200.379 14.5510   9
   9   4  -2 190.759 12.6150   3
  -9  -4   2 226.759 16.9435  12
  -9  -4   2 248.293 15.2011  13
   8   4  -2 475.932 19.3666   1
   8   4  -2 452.868 17.7148   3
   8   4  -2 453.517 19.3893   9
  -8  -4   2 481.350 18.8740  13
  -8  -4   2 457.823 20.4533  12
   7   4  -2 137.705 10.6890   8
   7   4  -2 130.785 9.44411   3
   7   4  -2 146.845 10.9804   1
   7   4  -2 155.948 11.7629   9
   7   4  -2 153.030 10.7489   6
  -7  -4   2 154.990 12.0199  12
  -7  -4   2 145.712 10.8319  13
   6   4  -2 977.789 26.8232   3
   6   4  -2 993.209 28.0988   8
   6   4  -2 1036.90 28.8781   9
   6   4  -2 984.778 27.8982   6
   6   4  -2 1028.98 28.7700   1
  -6  -4   2 1023.00 27.8091  13
  -6  -4   2 998.552 28.3950  12
   5   4  -2 804.440 23.5358   9
   5   4  -2 814.255 23.9093   1
   5   4  -2 799.207 23.3979   8
   5   4  -2 816.854 23.2777   6
   5   4  -2 837.916 22.6413   3
  -5  -4   2 783.169 22.7627  13
  -5  -4   2 853.986 23.6267  12
   4   4  -2 771.304 21.6651   8
   4   4  -2 778.765 21.6969   9
   4   4  -2 737.018 21.9847   1
   4   4  -2 793.744 20.8808   3
   4   4  -2 779.264 21.2797   6
  -4  -4   2 743.447 20.9346  12
   3   4  -2 404.308 13.4386   8
   3   4  -2 398.119 12.8334   3
   3   4  -2 395.095 13.1184   6
   3   4  -2 408.689 13.5250   9
  -3  -4   2 398.925 12.8528  12
   2   4  -2 786.507 19.7199   9
   2   4  -2 791.035 19.8337   3
   2   4  -2 764.642 19.8760   6
  -2  -4   2 752.934 18.9486  12
   1   4  -2 250.707 9.11285   3
   1   4  -2 253.362 9.26458   6
   1   4  -2 249.434 8.88516   9
   1   4  -2 261.643 9.55864   8
   0   4  -2 339.078 10.5854   3
   0   4  -2 315.470 10.6976   6
   0   4  -2 308.227 10.6318   8
  -1   4  -2 28.7399 4.07141   6
  -1   4  -2 29.2550 3.15165   9
  -1   4  -2 31.1381 3.94815   3
  -1   4  -2 27.3031 3.84773  10
  -1   4  -2 27.2530 3.97685   8
  -1   4  -2 29.7876 4.12909  13
   1  -4   2 34.3992 3.50291   2
  -2   4  -2 1505.36 34.0432  10
  -2   4  -2 1525.70 34.0293   8
  -2   4  -2 1559.65 34.0744   3
  -2   4  -2 1522.30 34.5508  13
   2  -4   2 1518.54 32.9302   2
   2  -4   2 1469.14 30.6355   5
   2  -4   2 1492.36 29.9937  11
  -3   4  -2 3543.31 73.5025   8
  -3   4  -2 3570.68 73.7283   3
  -3   4  -2 3592.22 74.8063  13
  -3   4  -2 3626.09 74.2025  10
   3  -4   2 3644.57 69.9756   5
   3  -4   2 3591.49 73.1072   2
  -4   4  -2 1741.00 39.4003   3
  -4   4  -2 1728.15 39.2000   8
  -4   4  -2 1743.99 39.9206  10
   4  -4   2 1737.23 39.3432   2
  -5   4  -2 437.388 15.0466   3
  -5   4  -2 415.026 16.4211  12
  -5   4  -2 421.128 15.4159  10
   5  -4   2 452.250 16.3414   2
   5  -4   2 455.388 14.3057   1
  -6   4  -2 140.820 11.7632  12
  -6   4  -2 120.962 9.30870  10
  -6   4  -2 141.647 9.29909   3
  -6   4  -2 120.277 10.9051  13
   6  -4   2 121.873 8.41581   1
   6  -4   2 117.715 10.2450   2
  -7   4  -2 439.531 18.5673  13
  -7   4  -2 385.139 16.7145  10
  -7   4  -2 427.806 18.9082  12
   7  -4   2 459.372 18.2481   2
   7  -4   2 443.483 15.1419   1
  -8   4  -2 36.8171 8.43883  12
  -8   4  -2 50.4881 9.28348  13
  -8   4  -2 40.7341 7.24295  10
   8  -4   2 38.0785 8.09644   2
   8  -4   2 47.8768 6.23681   1
  -9   4  -2 350.429 19.5913  12
  -9   4  -2 367.354 17.9775  10
  -9   4  -2 367.967 19.3682  13
   9  -4   2 347.444 18.1221   2
   9  -4   2 359.855 18.6115   1
   9   3  -2 231.694 14.4568   1
   9   3  -2 249.593 15.3071   9
  -9  -3   2 233.041 15.1997  13
  -9  -3   2 245.047 17.3962  12
   8   3  -2 146.095 11.3016   1
   8   3  -2 161.304 11.7404   2
   8   3  -2 149.745 11.9585   9
  -8  -3   2 133.439 11.8005  13
  -8  -3   2 142.924 12.7677  12
   7   3  -2 301.063 14.1479   1
   7   3  -2 309.261 14.8001   9
   7   3  -2 271.272 13.8500   6
   7   3  -2 296.386 14.0160   2
  -7  -3   2 313.200 16.0037  12
  -7  -3   2 300.037 14.3471  13
   6   3  -2 471.894 17.0794   8
   6   3  -2 470.334 17.0531   6
   6   3  -2 461.117 17.0812   1
   6   3  -2 463.182 16.6511   2
   6   3  -2 478.711 17.4437   9
  -6  -3   2 465.117 17.9363  12
  -6  -3   2 471.015 17.0826  13
   5   3  -2 73.2314 7.25834   1
   5   3  -2 82.6002 7.04602   8
   5   3  -2 77.9995 7.10370   6
   5   3  -2 97.5533 8.24673   9
  -5  -3   2 108.026 8.95836  12
  -5  -3   2 84.8847 7.33056  13
   4   3  -2 534.078 16.3260   6
   4   3  -2 529.945 16.2874   8
   4   3  -2 539.255 16.9300   1
   4   3  -2 557.378 15.5102   3
   4   3  -2 525.342 16.4539   9
  -4  -3   2 530.196 16.4635  12
   3   3  -2 135.023 6.43267   3
   3   3  -2 137.158 7.75415   1
   3   3  -2 131.144 7.38510   9
   3   3  -2 134.074 7.10769   8
   3   3  -2 132.430 6.99560   6
  -3  -3   2 122.802 6.95990  12
   2   3  -2 814.966 19.2655   3
   2   3  -2 774.062 19.2668   9
   2   3  -2 796.150 19.9146   6
  -2  -3   2 799.998 19.3026  12
   1   3  -2 284.703 9.26303   8
   1   3  -2 293.302 9.07907   3
   1   3  -2 296.903 9.56079   6
   1   3  -2 292.953 8.85964   9
  -1  -3   2 297.358 8.91636  12
   0   3  -2 345.318 10.7113   6
   0   3  -2 349.983 9.46090   9
  -1   3  -2 970.577 22.7172   6
  -1   3  -2 950.058 19.4913   5
  -1   3  -2 949.921 21.7877   3
  -1   3  -2 956.163 21.9570  10
  -1   3  -2 943.842 22.2433  13
   1  -3   2 953.534 21.1450   2
  -2   3  -2 2774.77 56.8244   8
  -2   3  -2 2861.33 57.2242   3
  -2   3  -2 2813.57 57.2320  10
   2  -3   2 2844.14 54.0607  11
   2  -3   2 2729.75 53.9315   5
   2  -3   2 2773.68 56.7179   2
  -3   3  -2 817.547 20.1797   3
  -3   3  -2 811.961 20.3097  10
  -3   3  -2 831.537 19.8749   8
  -3   3  -2 735.414 20.5566  13
   3  -3   2 829.834 20.5680   2
  -4   3  -2 25.4708 3.92313   3
  -4   3  -2 21.0415 3.86807  10
  -4   3  -2 20.8232 4.75084  12
  -4   3  -2 21.6256 1.80200  11
   4  -3   2 19.0392 4.84686   2
   4  -3   2 22.7424 3.55707   1
  -5   3  -2 502.002 17.7468  12
  -5   3  -2 519.271 11.9004  11
  -5   3  -2 507.204 16.5118  10
  -5   3  -2 547.975 16.4482   3
   5  -3   2 511.126 17.2675   2
   5  -3   2 527.678 14.6791   1
  -6   3  -2 1538.52 38.7841  13
  -6   3  -2 1533.83 39.1867  12
  -6   3  -2 1521.91 37.7664  10
   6  -3   2 1560.78 34.9748   1
   6  -3   2 1592.60 38.3584   2
  -7   3  -2 1280.84 34.3200  10
  -7   3  -2 1299.18 35.7650  12
  -7   3  -2 1287.94 35.1440  13
   7  -3   2 1307.57 34.6643   2
   7  -3   2 1269.61 30.6178   1
  -8   3  -2 483.184 20.4197  13
  -8   3  -2 513.019 21.3505  12
  -8   3  -2 494.138 19.4098  10
   8  -3   2 481.146 15.9425   1
   8  -3   2 459.996 16.8845   9
   8  -3   2 491.379 20.0474   2
  -9   3  -2 182.097 12.9693  10
  -9   3  -2 188.767 15.4203  12
  -9   3  -2 205.789 14.8183  13
   9  -3   2 226.248 14.6380   2
   9  -3   2 187.101 10.6075   1
 -10   3  -2 0.21319 7.90201  12
 -10   3  -2 5.38386 7.41553  13
 -10   3  -2 7.76519 6.03487  10
  10  -3   2 4.72178 6.98840   2
   9   2  -2 41.7104 7.86440   2
   9   2  -2 32.0410 7.06564   9
   9   2  -2 32.4927 6.86961   1
  -9  -2   2 28.6812 8.90991  12
  -9  -2   2 19.6642 7.23251  13
   8   2  -2 78.8509 8.69920   1
   8   2  -2 67.7089 8.32187   9
   8   2  -2 72.9971 8.95508   2
  -8  -2   2 52.0247 9.15970  12
  -8  -2   2 83.3422 9.86057  13
   7   2  -2 59.8937 7.66837   2
   7   2  -2 57.6455 7.40210   1
   7   2  -2 70.9963 7.83999   9
  -7  -2   2 80.7218 8.76844  13
  -7  -2   2 64.0763 8.94625  12
   6   2  -2 26.3863 5.40385   9
   6   2  -2 25.6489 5.33809   1
   6   2  -2 23.8658 5.27269   6
   6   2  -2 25.6952 5.69006   2
  -6  -2   2 37.9712 6.40417  13
  -6  -2   2 42.0800 7.29729  12
   5   2  -2 101.878 8.21229   9
   5   2  -2 91.8438 7.37774   2
   5   2  -2 96.1911 7.60909   6
   5   2  -2 82.2884 7.18321   1
  -5  -2   2 96.3684 8.29103  12
  -5  -2   2 83.8263 7.30801  13
   4   2  -2 1498.69 34.6559   6
   4   2  -2 1481.48 34.4332   9
   4   2  -2 1494.45 34.3488   8
   4   2  -2 1500.29 34.2135   2
   4   2  -2 1492.25 34.6663   1
  -4  -2   2 1513.91 34.9897  12
  -4  -2   2 1474.22 34.3319  13
   3   2  -2 3763.57 75.8810   9
   3   2  -2 3767.60 76.3032   6
   3   2  -2 3810.91 76.5243   1
  -3  -2   2 3698.53 76.1377  12
   2   2  -2 3418.10 66.9358   3
   2   2  -2 3348.85 68.1124   6
   1   2  -2 193.251 6.40901   3
   1   2  -2 195.134 6.57525   9
   1   2  -2 209.084 7.23665   6
  -1  -2   2 202.254 6.87141  12
   0   2  -2 847.617 19.4535   6
   0   2  -2 848.034 17.8816   9
   0   2  -2 872.258 18.8431   3
   0   2  -2 847.581 18.9358   8
   0  -2   2 849.303 17.8676   9
  -1   2  -2 669.508 16.8846  13
  -1   2  -2 735.708 16.5285   8
  -1   2  -2 686.212 17.2278   6
  -1   2  -2 756.612 16.7682   3
  -1   2  -2 739.558 16.6026  10
  -1   2  -2 734.137 14.4036   5
   1  -2   2 733.728 16.5128   2
  -2   2  -2 3240.89 65.0805   8
  -2   2  -2 3362.34 65.6284  10
  -2   2  -2 3328.25 63.7489   9
  -2   2  -2 3235.64 65.6933   3
   2  -2   2 3321.77 63.5351  11
   2  -2   2 3298.51 62.6840   5
   2  -2   2 3304.34 65.8553   2
  -3   2  -2 940.523 23.5918  13
  -3   2  -2 1007.14 20.4148  11
  -3   2  -2 985.255 23.0485  10
  -3   2  -2 988.682 23.8352  12
  -3   2  -2 993.560 23.0708   3
   3  -2   2 1031.72 23.7084   2
   3  -2   2 1009.40 21.6153   1
  -4   2  -2 164.660 9.17610  12
  -4   2  -2 180.259 6.05029   7
  -4   2  -2 179.179 8.91176  13
  -4   2  -2 181.797 8.07229  10
   4  -2   2 191.815 5.76414   4
   4  -2   2 191.892 9.35581   2
   4  -2   2 184.470 6.71891   1
   4  -2   2 191.157 6.97065   9
  -5   2  -2 1764.95 40.4624  10
  -5   2  -2 1782.86 36.9094   7
  -5   2  -2 1849.91 41.2796  13
  -5   2  -2 1810.25 41.8729  12
   5  -2   2 1781.94 38.7122   9
   5  -2   2 1781.49 37.7533   1
   5  -2   2 1762.76 41.0382   2
  -6   2  -2 3020.87 66.3173  13
  -6   2  -2 3040.41 66.0542  10
  -6   2  -2 3130.11 67.5232  12
  -6   2  -2 3059.84 61.3793   7
   6  -2   2 3027.29 63.8123   9
   6  -2   2 3027.33 62.4608   1
   6  -2   2 3111.13 66.5454   2
  -7   2  -2 2544.96 58.9952  12
  -7   2  -2 2501.67 57.5821  13
  -7   2  -2 2479.63 57.1684  10
  -7   2  -2 2509.85 51.8068   7
   7  -2   2 2568.32 57.7180   2
   7  -2   2 2517.15 55.1000   9
   7  -2   2 2510.67 53.2556   1
  -8   2  -2 44.1669 7.86484  13
  -8   2  -2 48.3334 8.96045  12
  -8   2  -2 71.7951 8.66254  10
   8  -2   2 52.1139 5.58689   1
   8  -2   2 57.4342 8.80752   2
   8  -2   2 57.0369 6.73427   9
  -9   2  -2 76.6548 9.48076  10
  -9   2  -2 68.2640 9.69203  13
  -9   2  -2 66.5295 10.6216  12
   9  -2   2 83.3082 7.24354   1
   9  -2   2 76.5261 8.06193   9
   9  -2   2 73.4143 9.85909   2
 -10   2  -2 41.0283 10.1712  12
 -10   2  -2 45.3477 9.45382  13
 -10   2  -2 36.3715 8.08191  10
  10  -2   2 44.8196 7.47271   9
  10  -2   2 49.2321 9.42921   2
   9   1  -2 230.057 13.7510   1
   9   1  -2 236.150 14.9703   2
   9   1  -2 222.152 14.1651   9
  -9  -1   2 266.838 16.1796  13
  -9  -1   2 236.068 17.3434  12
   8   1  -2 132.875 10.9829   2
   8   1  -2 149.910 11.3757   9
   8   1  -2 144.135 10.6750   1
  -8  -1   2 111.414 11.6629  12
  -8  -1   2 153.696 11.6836  13
  -8  -1   2 109.623 10.6112  10
   7   1  -2 752.688 23.3609   1
   7   1  -2 779.941 23.9088   2
   7   1  -2 750.913 23.6154   9
  -7  -1   2 752.990 24.0345  13
  -7  -1   2 772.212 24.4216  10
  -7  -1   2 774.509 25.4505  12
   6   1  -2 427.034 15.7105   1
   6   1  -2 439.171 16.1690   2
   6   1  -2 408.678 15.6762   9
  -6  -1   2 459.860 17.9164  12
  -6  -1   2 423.575 15.9247  10
  -6  -1   2 431.409 16.3777  13
   5   1  -2 1187.60 29.8077   2
   5   1  -2 1219.47 29.8597   1
   5   1  -2 1201.43 30.2530   6
  -5  -1   2 1197.88 30.6191  12
  -5  -1   2 1178.77 29.8563  10
  -5  -1   2 1216.42 30.2924  13
   4   1  -2 1693.40 38.0985   2
   4   1  -2 1743.55 38.6845   6
   4   1  -2 1675.26 38.0929   9
   4   1  -2 1667.55 38.2318   1
  -4  -1   2 1696.10 38.3648  13
  -4  -1   2 1730.89 38.8941  12
  -4  -1   2 1748.58 38.3929  10
   3   1  -2 1934.99 41.8127   6
   3   1  -2 1935.54 41.7739   1
   3   1  -2 1901.33 41.2214   9
   3   1  -2 1962.93 41.4716   2
  -3  -1   2 1935.66 41.3896  10
  -3  -1   2 1971.11 41.7469  13
  -3  -1   2 1968.12 41.9474  12
   1   1  -2 397.820 9.15564   3
   1   1  -2 374.593 10.3003   6
   1   1  -2 395.170 9.74774   9
   1   1  -2 391.667 10.0917   8
   1   1  -2 372.794 10.2624   1
  -1  -1   2 381.326 10.2202  12
   0   1  -2 851.408 18.6076   1
   0   1  -2 849.349 18.2857   8
   0   1  -2 877.067 17.5320   9
   0   1  -2 880.548 18.1156   3
   0  -1   2 879.098 18.3480   8
   0  -1   2 866.045 17.5344   9
  -1   1  -2 1491.30 31.3895  13
  -1   1  -2 1548.41 30.6566  10
  -1   1  -2 1537.76 31.0621   3
  -1   1  -2 1488.19 30.4307   8
  -1   1  -2 1580.52 31.7619   6
  -1   1  -2 1541.26 30.6025  11
   1  -1   2 1549.20 31.3755   2
   1  -1   2 1536.10 30.5069   8
   1  -1   2 1522.90 30.5226  11
  -2   1  -2 1531.14 30.1206  11
  -2   1  -2 1489.39 30.6784   7
  -2   1  -2 1520.55 29.6411   9
  -2   1  -2 1481.97 31.6680  13
  -2   1  -2 1542.29 31.3821   3
  -2   1  -2 1481.57 29.4992   1
  -2   1  -2 1495.30 30.9553  10
   2  -1   2 1483.50 31.7801   2
   2  -1   2 1491.18 29.5991   9
  -3   1  -2 3269.69 70.1278  12
  -3   1  -2 3463.79 67.3134   4
  -3   1  -2 3534.37 68.3521   7
  -3   1  -2 3504.07 67.1746   1
  -3   1  -2 3567.75 69.5137  10
  -3   1  -2 3568.30 69.6460   3
   3  -1   2 3531.41 68.0405   9
   3  -1   2 3445.11 67.1889   1
  -4   1  -2 0.92817 1.79091   7
  -4   1  -2 0.43134 1.29505   4
  -4   1  -2 0.87420 2.97722  13
  -4   1  -2 0.69127 2.14377  12
  -4   1  -2 7.11155 2.81620  10
   4  -1   2 4.27918 3.84924   2
   4  -1   2 2.06822 1.90462   9
   4  -1   2 2.78627 1.69229   1
  -5   1  -2 6.04326 1.69052   4
  -5   1  -2 9.74639 3.42023  10
  -5   1  -2 5.97077 3.66843  13
  -5   1  -2 2.49646 2.22693   7
   5  -1   2 8.80356 4.77062   2
   5  -1   2 6.20225 2.56379   9
   5  -1   2 3.19512 2.14397   1
  -6   1  -2 835.068 22.6328  10
  -6   1  -2 793.061 19.5096   7
  -6   1  -2 781.829 22.4225  13
  -6   1  -2 796.547 17.2801   4
   6  -1   2 793.140 23.3844   2
   6  -1   2 772.845 20.8213   9
   6  -1   2 770.637 19.1220   1
  -7   1  -2 400.288 12.7818   7
  -7   1  -2 415.582 16.5129  13
  -7   1  -2 431.779 16.2822  10
  -7   1  -2 412.730 10.2450   4
  -7   1  -2 390.843 17.3016  12
   7  -1   2 394.955 17.3030   2
   7  -1   2 414.945 12.8469   1
   7  -1   2 420.061 14.6625   9
  -8   1  -2 314.231 15.3120  13
  -8   1  -2 293.913 16.0991  12
  -8   1  -2 312.374 14.7193  10
  -8   1  -2 290.782 10.9635   7
   8  -1   2 311.595 11.4358   1
   8  -1   2 284.407 13.1015   9
   8  -1   2 275.693 15.7620   2
  -9   1  -2 398.380 19.8724  12
  -9   1  -2 394.377 17.8067  10
  -9   1  -2 377.026 18.0560  13
   9  -1   2 402.505 18.3351   2
   9  -1   2 388.358 16.2908   9
   9  -1   2 392.855 14.1056   1
 -10   1  -2 175.030 16.1277  12
 -10   1  -2 123.261 12.6993  13
 -10   1  -2 117.951 12.1429  10
  10  -1   2 140.139 12.8636   2
  10  -1   2 143.026 11.3274   9
   9   0  -2 220.236 14.0425   2
   9   0  -2 204.076 12.9689   1
   9   0  -2 202.595 13.4899   9
  -9   0   2 204.063 13.9569  10
  -9   0   2 210.597 14.5109  13
  -9   0   2 187.775 15.9221  12
   8   0  -2 420.871 17.0532   1
   8   0  -2 377.938 17.3687   2
   8   0  -2 393.031 17.3100   9
  -8   0   2 400.969 17.6007  10
  -8   0   2 391.927 19.0532  12
  -8   0   2 434.711 18.4667  13
   7   0  -2 19.0876 5.65051   2
   7   0  -2 14.4972 4.87025   1
   7   0  -2 13.9881 4.67630   9
  -7   0   2 15.6807 5.17842  10
  -7   0   2 12.4634 5.41893  13
  -7   0   2 12.2514 6.06476  12
   6   0  -2 35.5109 5.52234   1
   6   0  -2 25.6022 4.94798   9
   6   0  -2 28.2361 5.88433   2
  -6   0   2 21.5705 5.12257  10
  -6   0   2 27.1110 6.05009  13
  -6   0   2 29.7521 7.01626  12
   5   0  -2 237.100 10.3915   1
   5   0  -2 238.076 11.0291   2
  -5   0   2 235.541 11.0350  13
  -5   0   2 218.009 10.3559  10
   4   0  -2 1518.23 35.0235   1
   4   0  -2 1579.72 35.1501   9
   4   0  -2 1541.25 35.0998   2
   4   0  -2 1556.65 35.6004   6
  -4   0   2 1563.47 34.9784  10
  -4   0   2 1517.68 35.3758  13
   3   0  -2 2034.48 42.8487   2
   3   0  -2 2051.93 42.8357   9
   3   0  -2 2034.90 43.0272   1
   3   0  -2 1951.58 43.0665   6
  -3   0   2 2049.46 42.6287  10
   2   0  -2 798.463 18.3757   1
   2   0  -2 742.395 17.8523   9
  -2   0   2 729.388 18.1049  13
  -2   0   2 811.951 17.7442  10
   1   0  -2 6634.94 127.980   1
   1   0  -2 6679.03 128.022   6
  -1   0  -2 4292.83 81.6246   3
  -1   0  -2 4120.44 80.6788   1
  -1   0  -2 4232.94 81.8144  11
  -1   0  -2 4258.26 81.7281   4
  -1   0  -2 4227.24 80.8448  10
  -1   0  -2 4229.81 82.2345   7
   1   0   2 4277.96 81.7337  13
   1   0   2 4163.24 80.6887   1
   1   0   2 4269.16 81.8754   6
   1   0   2 4262.31 80.8683  10
   1   0   2 4353.46 81.8951  11
   1   0   2 4467.81 82.3897   4
   1   0   2 4193.28 82.0979   2
  -2   0  -2 3023.98 58.8586  10
  -2   0  -2 2999.50 58.1938   9
  -2   0  -2 3041.84 59.2133  13
  -2   0  -2 3010.62 59.2931   7
  -2   0  -2 3001.49 58.5697   4
   2   0   2 3060.22 59.9223   2
   2   0   2 2954.53 58.2053   9
  -3   0  -2 349.409 9.72096   7
  -3   0  -2 336.711 9.83904  10
  -3   0  -2 345.184 9.94818  13
  -3   0  -2 342.009 8.75389   4
  -3   0  -2 354.036 7.84223   1
   3   0   2 358.466 11.0695   2
   3   0   2 353.892 9.32477   9
   3   0   2 345.551 7.80614   1
  -4   0  -2 -1.6136 2.14334   7
  -4   0  -2 -0.0151 2.38692  10
  -4   0  -2 0.49680 3.37038  12
  -4   0  -2 0.44538 1.62361   4
  -4   0  -2 3.21429 2.72758  13
   4   0   2 0.69466 1.45986   1
   4   0   2 -2.6179 3.52956   2
   4   0   2 1.19918 2.16067   9
  -5   0  -2 1845.79 40.4134  13
  -5   0  -2 1845.35 37.4075   4
  -5   0  -2 1848.74 40.8596  10
  -5   0  -2 1821.92 41.6755  12
  -5   0  -2 1829.24 39.1467   7
   5   0   2 1822.72 39.5440   9
   5   0   2 1851.90 37.8154   1
   5   0   2 1830.46 41.3216   2
  -6   0  -2 1.94508 2.84887   7
  -6   0  -2 2.73820 3.50778  10
  -6   0  -2 -1.0541 3.77410  13
  -6   0  -2 -0.1862 4.58020  12
  -6   0  -2 1.63515 2.07722   4
   6   0   2 4.03682 3.17885   9
   6   0   2 4.42459 5.12864   2
   6   0   2 0.07213 2.08720   1
  -7   0  -2 3085.62 68.5208  12
  -7   0  -2 3016.02 63.9561   7
  -7   0  -2 3058.82 66.5179  13
  -7   0  -2 3104.66 67.2663  10
  -7   0  -2 3082.43 61.2045   4
   7   0   2 3073.18 65.6007   9
   7   0   2 3040.67 62.8944   1
   7   0   2 3070.68 67.4358   2
  -8   0  -2 -2.8671 6.11246  12
  -8   0  -2 3.07616 4.73620  10
  -8   0  -2 6.84635 5.27662  13
  -8   0  -2 1.90358 2.40809   4
  -8   0  -2 1.36024 3.66716   7
   8   0   2 -2.8122 3.62425   9
   8   0   2 3.87770 2.99424   1
   8   0   2 -0.5455 5.80003   2
  -9   0  -2 11.5255 4.34923   7
  -9   0  -2 12.4817 7.33055  12
  -9   0  -2 17.8320 6.19723  10
  -9   0  -2 10.8628 5.98092  13
   9   0   2 10.4559 6.20004   2
   9   0   2 17.7542 4.33227   1
   9   0   2 11.4423 5.06589   9
 -10   0  -2 155.110 12.8685  10
 -10   0  -2 136.980 14.1846  12
 -10   0  -2 152.905 13.1405  13
  10   0   2 157.075 11.9372   9
  10   0   2 119.313 12.0663   2
   9  -1  -2 135.250 11.4386   1
   9  -1  -2 148.256 12.7877   2
   9  -1  -2 155.638 12.3857   9
  -9   1   2 135.195 12.5214  10
  -9   1   2 137.796 14.3810  12
  -9   1   2 141.490 13.2677  13
   8  -1  -2 77.0605 8.28939   1
   8  -1  -2 86.0575 9.13812   9
   8  -1  -2 86.0845 9.44131   2
  -8   1   2 72.1279 9.06288  10
  -8   1   2 63.1884 10.0036  12
  -8   1   2 98.2691 10.4603  13
   7  -1  -2 123.184 10.1533   2
   7  -1  -2 143.926 10.0747   9
   7  -1  -2 136.810 9.61571   1
  -7   1   2 147.893 10.7582  10
  -7   1   2 124.084 11.4346  12
  -7   1   2 144.895 11.7641  13
   6  -1  -2 53.7394 6.42227   1
   6  -1  -2 63.0195 6.75966   9
   6  -1  -2 65.0599 7.56176   2
  -6   1   2 82.4522 7.91106  10
  -6   1   2 87.0907 9.31620  12
  -6   1   2 76.1737 8.06186  13
   5  -1  -2 116.833 8.31440   2
   5  -1  -2 105.881 7.51000   1
  -5   1   2 119.125 7.88226  10
  -5   1   2 102.874 8.75663  12
   4  -1  -2 622.452 17.4378   2
   4  -1  -2 661.444 17.7957   1
  -4   1   2 634.297 17.4835  10
  -4   1   2 615.342 18.1879  12
  -4   1   2 576.415 17.5542  13
   3  -1  -2 9896.15 191.163   1
   3  -1  -2 9999.99 191.457   6
   3  -1  -2 9910.57 190.815   2
  -3   1   2 9991.43 190.672  10
  -3   1   2 9776.18 191.260  12
  -3   1   2 9818.83 191.198  13
   2  -1  -2 741.732 17.6383   2
   2  -1  -2 752.301 18.1874   1
  -2   1   2 808.418 16.6269   4
  -2   1   2 746.020 17.4170  10
  -2   1   2 726.767 18.0238  13
  -2   1   2 749.010 18.0878  12
   1  -1  -2 1774.14 36.2088   6
   1  -1  -2 1766.11 33.9268   3
  -1   1   2 1760.93 36.1360  13
  -1   1   2 1796.66 35.3675  10
  -1   1   2 1732.15 35.0044   4
  -1   1   2 1782.08 35.4218   7
  -1   1   2 1782.58 36.1786  12
   0  -1  -2 94.8544 3.98767  11
   0  -1  -2 83.1759 4.04039   1
   0  -1  -2 95.8534 4.08249   7
   0  -1  -2 96.1343 3.00135  10
   0  -1  -2 94.5507 3.81958   4
   0  -1  -2 86.3933 3.63734   6
   0   1   2 89.1611 3.96573   7
   0   1   2 89.5366 4.37571   1
   0   1   2 94.6804 2.92899  10
   0   1   2 93.3643 3.57023   6
  -1  -1  -2 9.88009 2.01669   5
  -1  -1  -2 12.0340 1.64951   1
  -1  -1  -2 11.5696 1.29343   6
   1   1   2 14.1973 2.14008   5
   1   1   2 13.1768 1.18356   8
   1   1   2 15.9805 1.69030   1
   1   1   2 12.6630 1.39218   6
   1   1   2 13.1194 2.03319   2
  -2  -1  -2 2689.81 54.3051   7
  -2  -1  -2 2787.85 52.2935   8
  -2  -1  -2 2755.30 52.8776  13
  -2  -1  -2 2761.07 53.5110  10
  -2  -1  -2 2673.84 53.5511   4
   2   1   2 2728.22 54.1556   2
   2   1   2 2737.98 52.7266  13
   2   1   2 2654.86 52.2364   8
   2   1   2 2763.15 53.6262   9
  -3  -1  -2 1251.48 27.3009   7
  -3  -1  -2 1219.52 25.9787  13
  -3  -1  -2 1248.30 26.8795  10
  -3  -1  -2 1234.89 27.4021  12
   3   1   2 1242.18 25.0492   1
   3   1   2 1224.85 27.3915   2
   3   1   2 1275.76 26.7164   9
  -4  -1  -2 341.443 10.9595  10
  -4  -1  -2 353.455 11.1222   7
  -4  -1  -2 365.665 11.8107  12
   4   1   2 333.018 11.7807   2
   4   1   2 351.020 10.7536   9
   4   1   2 351.146 9.09039   1
  -5  -1  -2 434.551 14.6705  12
  -5  -1  -2 451.186 13.6836   7
  -5  -1  -2 422.152 13.1092  13
  -5  -1  -2 455.458 14.1406  10
   5   1   2 455.641 13.5788   9
   5   1   2 436.773 14.6108   2
   5   1   2 443.178 11.6296   1
  -6  -1  -2 16.6292 5.49936  12
  -6  -1  -2 19.5425 4.48158  10
  -6  -1  -2 13.1539 4.18746  13
  -6  -1  -2 19.0878 4.23479   7
   6   1   2 28.2070 5.93201   2
   6   1   2 18.0656 3.07540   1
   6   1   2 18.6632 4.33200   9
  -7  -1  -2 191.981 10.4854  13
  -7  -1  -2 157.891 9.63551   7
  -7  -1  -2 168.538 10.7535  10
  -7  -1  -2 198.615 12.8256  12
   7   1   2 180.003 12.0637   2
   7   1   2 173.017 10.1838   9
   7   1   2 180.894 7.98775   1
  -8  -1  -2 109.822 6.36493   4
  -8  -1  -2 112.749 11.0114  12
  -8  -1  -2 114.628 8.89646   7
  -8  -1  -2 97.8770 9.39735  10
  -8  -1  -2 112.408 9.62686  13
   8   1   2 101.052 8.91847   9
   8   1   2 116.476 10.4617   2
   8   1   2 107.765 7.05524   1
  -9  -1  -2 15.2023 5.61656  10
  -9  -1  -2 23.0955 6.34481  13
  -9  -1  -2 15.9777 7.58070  12
  -9  -1  -2 18.5140 5.15928   7
   9   1   2 17.1097 6.68767   2
   9   1   2 16.4825 5.48669   9
   9   1   2 12.6769 3.89524   1
 -10  -1  -2 -1.6508 5.06425  10
 -10  -1  -2 8.63420 7.60382  12
 -10  -1  -2 4.90745 4.96956   7
 -10  -1  -2 1.03001 5.88105  13
  10   1   2 8.03520 5.22932   9
  10   1   2 3.92233 5.88317   2
   9  -2  -2 357.932 16.7841   1
   9  -2  -2 375.080 18.5887   2
   9  -2  -2 348.933 17.3194   9
  -9   2   2 317.227 17.2059  10
  -9   2   2 335.127 19.9037  12
  -9   2   2 346.259 18.9010  13
   8  -2  -2 34.9695 6.65892   1
   8  -2  -2 38.9660 6.91482   9
   8  -2  -2 34.9333 7.30593   2
  -8   2   2 45.3773 7.56436  10
  -8   2   2 39.7441 8.87128  12
  -8   2   2 28.8930 7.55756  13
   7  -2  -2 1195.71 32.1115   1
   7  -2  -2 1233.67 33.0921   9
   7  -2  -2 1145.80 32.2696   2
  -7   2   2 1224.75 33.2403  10
  -7   2   2 1243.28 33.8493  13
  -7   2   2 1175.87 34.2371  12
   6  -2  -2 -3.9151 4.17139   2
   6  -2  -2 1.09022 3.78645   1
   6  -2  -2 -0.5576 3.74849   9
  -6   2   2 4.85700 4.23688  10
  -6   2   2 -5.4935 4.98371  12
  -6   2   2 -7.5198 4.60664  13
   5  -2  -2 786.343 21.9382   2
   5  -2  -2 822.461 22.1593   1
   5  -2  -2 657.362 21.0228   9
  -5   2   2 791.788 22.9961  12
  -5   2   2 809.694 22.0503  10
   4  -2  -2 2293.64 48.8842   9
   4  -2  -2 2219.51 48.3429   2
   4  -2  -2 2265.07 48.9892   1
  -4   2   2 2201.49 48.5862  10
  -4   2   2 2238.86 43.6259   4
  -4   2   2 2253.30 49.4369  12
  -4   2   2 2285.62 49.4462  13
   3  -2  -2 412.089 12.3296   2
   3  -2  -2 412.790 12.7541   1
  -3   2   2 403.461 12.1611  10
  -3   2   2 404.255 12.8729  12
  -3   2   2 406.320 9.19491   4
  -3   2   2 402.049 12.8691  13
   2  -2  -2 116.252 6.04439   1
   2  -2  -2 119.151 5.41161   2
  -2   2   2 126.186 4.01797   4
  -2   2   2 124.324 4.12565   7
  -2   2   2 117.605 6.06365  12
  -2   2   2 129.859 4.39891   3
  -2   2   2 125.341 5.46707  10
  -2   2   2 117.401 6.18570  13
   1  -2  -2 304.601 7.66691   7
   1  -2  -2 303.617 7.59787   4
  -1   2   2 298.985 8.71429  13
  -1   2   2 291.975 8.48153  12
  -1   2   2 301.323 8.26141  10
  -1   2   2 298.576 7.64527   7
  -1   2   2 309.829 7.27714   3
   0  -2  -2 1596.05 32.7312   7
   0  -2  -2 1619.51 32.0845  13
   0  -2  -2 1604.49 32.5984  11
   0  -2  -2 1595.10 32.5635   4
   0  -2  -2 1633.13 33.4124   1
   0   2   2 1599.29 31.9796  12
   0   2   2 1606.47 32.1295  13
   0   2   2 1601.37 32.1085   6
   0   2   2 1657.73 32.0587   3
   0   2   2 1654.93 32.4348  10
  -2  -2  -2 3887.43 74.8753   8
   2   2   2 3788.36 75.2540  12
   2   2   2 3932.60 74.8760   8
   2   2   2 3949.36 76.3707   9
   2   2   2 3875.13 75.5700   2
  -3  -2  -2 45.7438 2.86290   6
  -3  -2  -2 47.5602 3.07546  13
  -3  -2  -2 43.7516 4.33270   7
  -3  -2  -2 35.3594 3.73078  12
   3   2   2 43.4477 2.87079  13
   3   2   2 42.1790 4.02581   9
   3   2   2 45.7937 4.17485   2
   3   2   2 41.0788 3.05076   8
  -4  -2  -2 258.570 8.04030  13
  -4  -2  -2 261.567 9.67765  12
   4   2   2 256.489 9.61017   2
   4   2   2 246.110 9.27783   9
   4   2   2 263.081 8.06824   1
   4   2   2 246.399 7.88729   8
  -5  -2  -2 163.476 7.32187  13
  -5  -2  -2 169.379 8.40955  10
  -5  -2  -2 149.305 8.87551  12
   5   2   2 166.337 6.80797   1
   5   2   2 154.620 8.76041   2
   5   2   2 170.185 8.43428   9
  -6  -2  -2 617.023 19.2091  10
  -6  -2  -2 642.996 17.7798  13
  -6  -2  -2 655.523 20.0836  12
   6   2   2 641.815 18.9285   9
   6   2   2 625.812 19.4536   2
   6   2   2 625.178 16.7290   1
  -7  -2  -2 10.6472 5.94069  12
  -7  -2  -2 13.8794 5.00534   7
  -7  -2  -2 7.23697 4.27935  13
  -7  -2  -2 8.88606 4.56765  10
   7   2   2 7.57048 3.05777   1
   7   2   2 5.16692 4.42302   9
   7   2   2 12.5004 6.03150   2
  -8  -2  -2 494.790 17.7273  13
  -8  -2  -2 497.724 18.1381   7
  -8  -2  -2 509.959 19.1449  10
  -8  -2  -2 524.634 20.4582  12
   8   2   2 485.319 18.7871   2
   8   2   2 521.925 15.9127   1
   8   2   2 514.382 18.6795   9
  -9  -2  -2 272.704 16.9369  12
  -9  -2  -2 279.956 14.0370   7
  -9  -2  -2 288.256 14.2861  13
   9   2   2 291.395 11.9360   1
   9   2   2 267.592 15.1316   2
   9   2   2 276.695 14.5228   9
 -10  -2  -2 14.7443 8.30350  12
 -10  -2  -2 7.04110 5.57956   7
 -10  -2  -2 5.68558 5.72536  13
  10   2   2 10.9911 6.44535   2
  10   2   2 -6.7698 5.04817   9
   9  -3  -2 897.744 29.8427   2
   9  -3  -2 931.999 29.3639   1
  -9   3   2 900.115 30.2721  10
  -9   3   2 929.534 31.6753  13
  -9   3   2 905.184 32.5250  12
   8  -3  -2 468.888 18.8742   1
   8  -3  -2 449.046 19.2961   2
  -8   3   2 484.832 21.4524  13
  -8   3   2 518.025 22.2058  12
  -8   3   2 464.167 19.8692  10
   7  -3  -2 227.503 12.5672   2
   7  -3  -2 227.206 12.6246   1
  -7   3   2 201.341 14.6391  12
  -7   3   2 205.807 13.4905  13
  -7   3   2 228.679 12.6915  10
   6  -3  -2 266.641 12.5355   2
   6  -3  -2 244.128 12.3061   1
  -6   3   2 244.903 13.3672  13
  -6   3   2 222.147 11.9826  10
  -6   3   2 246.423 14.2991  12
   5  -3  -2 460.757 16.1618   2
   5  -3  -2 476.456 16.5127   1
  -5   3   2 497.534 16.5578  10
  -5   3   2 501.592 17.9267  12
  -5   3   2 492.217 17.4589  13
   4  -3  -2 222.092 9.85373   2
   4  -3  -2 240.733 10.4290   1
  -4   3   2 223.500 9.77582  10
  -4   3   2 223.165 11.0005  12
  -4   3   2 216.268 10.6094  13
   3  -3  -2 48.6290 5.27300   1
   3  -3  -2 56.7199 4.88554   2
  -3   3   2 50.7911 3.89566   3
  -3   3   2 45.3957 5.32477  12
  -3   3   2 56.6792 5.41209  13
  -3   3   2 49.9410 4.74673  10
   2  -3  -2 217.519 7.68908   2
   2  -3  -2 234.739 6.35777   4
   2  -3  -2 235.404 9.10791   1
  -2   3   2 233.398 6.16203   7
  -2   3   2 230.266 8.71691  13
  -2   3   2 231.896 8.50894  12
  -2   3   2 229.529 7.11781   3
  -2   3   2 228.707 8.24522  10
   1  -3  -2 15.9169 2.07506  11
   1  -3  -2 18.8142 2.24193   4
   1  -3  -2 12.1184 2.69640   5
   1  -3  -2 13.6405 1.97512   7
  -1   3   2 11.9180 2.44942  12
  -1   3   2 12.2415 2.43003  10
  -1   3   2 11.9524 2.03584   3
  -1   3   2 18.2768 2.88003  13
   0  -3  -2 889.417 20.1561   5
   0  -3  -2 855.124 19.1105  11
   0  -3  -2 880.102 18.7580  13
   0  -3  -2 938.042 19.5846   7
   0   3   2 883.049 19.7194  10
   0   3   2 884.583 18.0690  12
   0   3   2 874.717 19.2446   3
   0   3   2 863.845 19.8795   8
   0   3   2 857.901 18.7509  13
  -1  -3  -2 53.3933 4.39163   7
  -1  -3  -2 49.4647 2.12255  13
   1   3   2 51.5747 2.68903   2
   1   3   2 47.9725 2.18930  13
   1   3   2 55.1987 3.65855   3
   1   3   2 48.5350 3.76031   8
   2   3   2 194.516 5.57105  12
   2   3   2 198.946 6.50141   8
   2   3   2 198.086 6.19215   2
   2   3   2 183.829 7.47086   9
  -3  -3  -2 -1.5392 1.22614   6
  -3  -3  -2 -1.9847 2.30940  12
  -3  -3  -2 -0.9468 1.43005  13
   3   3   2 -1.9524 2.48520   2
   3   3   2 -1.5912 2.47253   9
   3   3   2 -2.1373 1.79545   8
  -4  -3  -2 56.4867 3.86512  13
   4   3   2 53.9168 5.03031   2
   4   3   2 55.3234 5.11641   9
   4   3   2 58.8307 4.30400   8
  -5  -3  -2 2747.28 58.4148  12
   5   3   2 2743.45 58.0137   2
   5   3   2 2804.80 59.0305   9
   5   3   2 2788.87 57.1192   8
   5   3   2 2786.67 57.1710   1
  -6  -3  -2 0.46472 3.16060  13
  -6  -3  -2 9.34303 5.02642  12
   6   3   2 2.33875 2.95039   1
   6   3   2 3.61234 4.24439   9
   6   3   2 6.34360 4.78907   2
   6   3   2 2.79017 2.74937   8
  -7  -3  -2 85.9680 8.91685  12
  -7  -3  -2 81.7566 7.12752  13
   7   3   2 80.7854 8.37968   2
   7   3   2 91.8772 8.59196   9
   7   3   2 73.0175 6.45971   1
  -8  -3  -2 0.74785 5.11660   7
  -8  -3  -2 -4.3703 5.60302  12
  -8  -3  -2 -1.3726 4.07071  13
   8   3   2 1.02844 3.12511   1
   8   3   2 0.86919 4.99934   2
   8   3   2 -2.3793 4.45879   9
  -9  -3  -2 1.26716 5.20061   7
  -9  -3  -2 3.18052 6.92339  12
  -9  -3  -2 6.20937 5.33107  13
   9   3   2 0.09890 3.24004   1
   9   3   2 -2.5122 4.79531   9
   9   3   2 4.50833 5.38082   2
 -10  -3  -2 84.9018 9.68612  13
 -10  -3  -2 103.654 11.0795   7
 -10  -3  -2 80.3485 11.8183  12
  10   3   2 81.2048 10.2612   2
  10   3   2 75.5363 9.72884   9
   8  -4  -2 29.0524 6.75430   2
  -8   4   2 30.0457 7.01996  10
  -8   4   2 37.9630 9.47213  12
  -8   4   2 32.5044 8.61184  13
   7  -4  -2 27.8349 6.21780   1
   7  -4  -2 21.0802 5.85685   2
  -7   4   2 20.9424 6.13445  10
  -7   4   2 34.0542 8.15151  12
  -7   4   2 36.2908 7.83244  13
   6  -4  -2 98.8816 8.71273   2
   6  -4  -2 124.980 9.62286   1
  -6   4   2 128.642 9.71380  10
  -6   4   2 114.832 10.6399  12
  -6   4   2 85.3332 9.36270  13
   5  -4  -2 3358.00 71.2428   2
   5  -4  -2 3418.94 72.6888   1
  -5   4   2 3355.19 72.8358  12
  -5   4   2 3409.96 73.3273  13
  -5   4   2 3338.00 72.3878  10
   4  -4  -2 4.25739 4.10475   1
   4  -4  -2 0.32012 3.39409   2
  -4   4   2 -0.0589 4.48811  12
  -4   4   2 -3.8668 3.03936  10
  -4   4   2 1.55545 2.45408   3
  -4   4   2 -1.5953 4.27834  13
   3  -4  -2 827.519 17.2129   4
   3  -4  -2 792.492 21.8852   1
   3  -4  -2 802.330 19.8853   2
  -3   4   2 790.737 21.2019  10
  -3   4   2 816.595 19.5174   3
  -3   4   2 812.885 21.7349  13
  -3   4   2 818.624 21.1800  12
   2  -4  -2 568.340 16.5067   1
   2  -4  -2 566.415 14.0619   2
   2  -4  -2 551.737 12.3871   7
   2  -4  -2 552.285 13.0715   4
  -2   4   2 573.519 15.7361  10
  -2   4   2 552.118 14.8813  12
  -2   4   2 574.273 15.7840  13
  -2   4   2 570.844 14.3975   3
   1  -4  -2 4.13305 1.81815   7
   1  -4  -2 0.28449 0.73555   1
   1  -4  -2 4.83652 2.48241   5
   1  -4  -2 4.41984 1.65048  11
  -1   4   2 0.83377 2.16580  10
  -1   4   2 3.23086 2.28514  12
  -1   4   2 3.51274 2.69714  13
  -1   4   2 3.23199 1.88201   3
   0  -4  -2 44.2695 4.36175   5
   0  -4  -2 48.5678 4.11881   7
   0   4   2 41.8425 4.21858   8
   0   4   2 52.3610 4.35227  10
   0   4   2 49.4524 3.94188  13
   0   4   2 44.4332 2.71962  12
   0   4   2 54.9894 4.04429   3
  -1  -4  -2 10.3251 1.73922  13
   1   4   2 12.3511 1.73005  13
   1   4   2 11.0308 2.64548   8
   1   4   2 11.2463 1.72198   6
   1   4   2 10.1354 2.40774   3
   2   4   2 1068.54 24.5310   3
   2   4   2 1050.01 21.6257   2
   2   4   2 1060.58 25.2241   9
   2   4   2 1056.13 23.9583   8
  -3  -4  -2 242.900 6.42631   6
  -3  -4  -2 241.003 6.34613  13
  -3  -4  -2 244.886 7.61267  12
   3   4   2 247.678 8.56112   8
   3   4   2 239.569 6.35338   6
   3   4   2 245.897 7.81563   2
   3   4   2 244.099 9.82369   9
  -4  -4  -2 386.667 10.0835  13
   4   4   2 382.169 11.6276   8
   4   4   2 399.095 13.5225   9
   4   4   2 370.316 11.5434   2
  -5  -4  -2 2718.02 57.4214  12
   5   4   2 2757.34 57.2209   8
   5   4   2 2800.95 59.3291   9
   5   4   2 2659.50 56.8920   2
  -6  -4  -2 -2.9744 2.96019  13
  -6  -4  -2 9.59197 5.08188  12
   6   4   2 1.46929 4.42079   9
   6   4   2 0.20451 2.71909   8
   6   4   2 0.88008 4.39527   2
   6   4   2 1.20484 3.35112   1
  -7  -4  -2 243.481 10.5306  13
  -7  -4  -2 231.021 12.7436  12
   7   4   2 254.865 13.0075   9
   7   4   2 232.828 12.1064   2
   7   4   2 250.951 11.1235   1
   7   4   2 259.472 11.1901   8
  -8  -4  -2 54.7908 6.73974  13
  -8  -4  -2 65.2456 8.82699  12
   8   4   2 60.0686 8.17588   9
   8   4   2 56.9012 6.57573   1
   8   4   2 45.4035 7.33880   2
  -9  -4  -2 -0.0884 5.70384   7
  -9  -4  -2 13.6291 7.26587  12
  -9  -4  -2 10.2661 5.28601  13
   9   4   2 4.21406 5.27999   9
   9   4   2 9.79839 4.42803   1
   9   4   2 5.61411 5.37898   2
 -10  -4  -2 246.796 14.0611  13
 -10  -4  -2 232.002 17.0241  12
 -10  -4  -2 239.284 15.6285   7
  10   4   2 251.468 15.4301   2
  10   4   2 258.814 16.1446   9
   8  -5  -2 53.8122 8.59232   1
   8  -5  -2 62.7752 8.62191   2
  -8   5   2 70.8386 10.3291  13
  -8   5   2 80.8818 10.3455  10
  -8   5   2 37.6501 9.82021  12
   7  -5  -2 259.522 13.5895   2
   7  -5  -2 232.822 13.9320   1
  -7   5   2 242.491 15.8723  13
  -7   5   2 270.931 16.1646  12
  -7   5   2 232.647 14.1816  10
   6  -5  -2 400.370 15.5721   2
   6  -5  -2 406.090 16.8742   1
  -6   5   2 414.563 18.2353  12
  -6   5   2 419.989 18.2021  13
  -6   5   2 424.666 17.1277  10
   5  -5  -2 512.913 18.3766   1
   5  -5  -2 473.945 16.1519   2
  -5   5   2 498.324 18.3402  12
  -5   5   2 492.517 15.4766   3
  -5   5   2 496.010 17.8071  10
  -5   5   2 492.940 18.6667  13
   4  -5  -2 116.753 9.43578   1
   4  -5  -2 120.638 7.78117   2
  -4   5   2 140.693 10.5334  13
  -4   5   2 135.961 7.39736   3
  -4   5   2 133.726 9.01750  10
  -4   5   2 124.929 9.66270  12
   3  -5  -2 203.009 10.9847   1
   3  -5  -2 183.247 8.97546   5
   3  -5  -2 193.357 8.25806   2
   3  -5  -2 197.690 6.23276   4
  -3   5   2 195.106 9.81192  12
  -3   5   2 186.789 9.36991  10
  -3   5   2 194.730 8.26578   3
  -3   5   2 198.493 10.5679  13
   2  -5  -2 151.617 5.13005   7
   2  -5  -2 140.990 7.48674   5
   2  -5  -2 156.051 9.08644   1
   2  -5  -2 143.020 6.08941   2
  -2   5   2 147.156 6.81577   3
  -2   5   2 141.474 7.41419  12
  -2   5   2 148.009 8.39537  13
  -2   5   2 154.024 8.03925  10
   1  -5  -2 724.934 17.2492   7
   1  -5  -2 749.125 19.2903   5
   1  -5  -2 745.027 16.9365  11
  -1   5   2 736.429 19.8997   8
  -1   5   2 748.745 19.6420  10
  -1   5   2 730.645 18.8369  13
  -1   5   2 753.791 18.7055   3
  -1   5   2 758.139 17.0602  12
   0  -5  -2 18.3527 3.02807   7
   0  -5  -2 29.3045 4.24444   5
   0   5   2 32.1474 4.30801   8
   0   5   2 33.6638 3.86067   3
   0   5   2 34.7353 3.60346  13
   0   5   2 26.8663 3.82948  10
  -1  -5  -2 763.909 19.1933   5
   1   5   2 710.889 16.0681   6
   1   5   2 635.548 18.7395   9
   1   5   2 725.614 18.7246   8
   1   5   2 720.149 18.3566   3
  -2  -5  -2 741.648 16.0593  13
   2   5   2 745.225 15.9482   6
   2   5   2 741.460 19.3264   3
   2   5   2 744.205 19.1312   8
  -3  -5  -2 401.377 9.87514  13
  -3  -5  -2 422.686 10.3411  12
   3   5   2 410.699 13.9660   9
   3   5   2 397.998 12.6852   8
   3   5   2 404.578 10.3959   2
   3   5   2 448.079 10.4843  12
   3   5   2 402.360 9.84258   6
   3   5   2 411.606 13.4219   3
  -4  -5  -2 6.21235 3.28561  12
  -4  -5  -2 8.21606 2.25525  13
   4   5   2 9.78268 3.49690   3
   4   5   2 7.95135 3.17915   2
   4   5   2 2.22173 3.03383   9
   4   5   2 8.36510 3.20753   8
   4   5   2 9.15103 2.12251   6
  -5  -5  -2 98.6590 7.57812  12
   5   5   2 92.1636 6.88140   2
   5   5   2 94.7543 7.00847   8
   5   5   2 109.278 9.03110   9
  -6  -5  -2 105.393 8.39228  12
  -6  -5  -2 107.325 6.62642  13
   6   5   2 109.051 9.35102   9
   6   5   2 97.2089 7.35240   8
   6   5   2 101.633 7.75205   2
  -7  -5  -2 457.279 14.6243  13
  -7  -5  -2 447.228 17.0399  12
   7   5   2 459.604 16.3676   2
   7   5   2 433.000 15.5592   8
   7   5   2 446.921 15.9943   1
   7   5   2 475.763 18.4405   9
  -8  -5  -2 415.604 14.8618  13
  -8  -5  -2 428.068 17.7306  12
   8   5   2 400.948 15.6730   8
   8   5   2 393.962 15.8090   1
   8   5   2 443.166 18.6149   9
   8   5   2 400.229 16.2428   2
  -9  -5  -2 139.930 12.7558  12
  -9  -5  -2 97.3108 8.71503  13
   9   5   2 96.5637 10.6558   9
   9   5   2 131.702 10.9522   2
   9   5   2 116.064 9.73018   1
   7  -6  -2 13.4846 5.36563   2
   7  -6  -2 2.77357 5.22735   1
  -7   6   2 17.1517 7.67857  12
  -7   6   2 -2.5868 6.55025  13
  -7   6   2 0.56890 4.92158  10
   6  -6  -2 556.585 18.9750   2
   6  -6  -2 572.407 21.2786   1
  -6   6   2 565.855 21.1071  10
  -6   6   2 565.515 18.3226   3
  -6   6   2 542.021 21.2931  12
  -6   6   2 563.454 22.3108  13
   5  -6  -2 731.014 21.1252   2
   5  -6  -2 719.109 23.7705   1
  -5   6   2 758.545 23.4915  12
  -5   6   2 719.711 20.9249   3
  -5   6   2 701.544 23.2817  10
  -5   6   2 755.589 24.6038  13
   4  -6  -2 483.771 18.2454   1
   4  -6  -2 502.675 16.2778   5
   4  -6  -2 484.779 15.1178   2
  -4   6   2 473.336 15.3302   3
  -4   6   2 455.236 17.9803  13
  -4   6   2 461.196 16.7693  12
  -4   6   2 498.861 17.5820  10
   3  -6  -2 214.134 11.9898   1
   3  -6  -2 218.106 8.68297   2
   3  -6  -2 223.095 10.2244   5
  -3   6   2 220.849 10.4898  12
  -3   6   2 220.815 11.8128  13
  -3   6   2 210.523 9.48063   3
  -3   6   2 216.377 10.8372  10
   2  -6  -2 335.237 14.3546   1
   2  -6  -2 382.891 9.85965  11
   2  -6  -2 385.283 10.1854   7
   2  -6  -2 377.902 13.3084   5
  -2   6   2 403.157 12.8467   3
  -2   6   2 399.332 14.1455  13
  -2   6   2 419.856 14.8389   8
  -2   6   2 377.903 13.7929  10
  -2   6   2 386.442 12.1678  12
   1  -6  -2 1074.20 26.4323   5
  -1   6   2 1063.90 26.0149  13
  -1   6   2 1074.29 27.1798  10
  -1   6   2 1087.94 27.6523   8
  -1   6   2 1061.50 23.0489  12
  -1   6   2 1075.21 26.1096   3
   0  -6  -2 4.30251 3.68875   5
   0  -6  -2 7.56441 3.24736   7
   0   6   2 3.03045 3.57161   8
   0   6   2 1.85900 2.65525  13
   0   6   2 0.86320 2.51271   3
   0   6   2 5.16352 3.22904  10
   1   6   2 47.5173 5.44634   9
   1   6   2 46.6135 3.96300   6
   1   6   2 48.8985 5.48212   8
   1   6   2 57.0168 5.60997   3
   2   6   2 81.6570 6.41558   3
   2   6   2 85.2837 4.14149   6
   2   6   2 72.4511 6.26003   8
   3   6   2 7.95926 3.51336   3
   3   6   2 3.44297 3.23052   8
   3   6   2 3.87924 1.70882   6
   3   6   2 1.16759 1.08301   9
  -4  -6  -2 695.511 17.0209  12
  -4  -6  -2 737.429 16.5521  13
   4   6   2 703.898 19.9280   8
   4   6   2 717.797 16.9785   2
   4   6   2 694.387 21.6295   9
   4   6   2 684.556 16.4709   6
   4   6   2 749.276 21.2431   3
  -5  -6  -2 1441.80 32.4357  12
   5   6   2 1416.51 31.0963   6
   5   6   2 1427.44 35.8893   3
   5   6   2 1476.25 36.9150   9
   5   6   2 1451.54 34.4366   8
   5   6   2 1422.85 31.9490   2
  -6  -6  -2 1162.50 26.9886  13
  -6  -6  -2 1173.97 29.0424  12
   6   6   2 1112.44 28.0423   2
   6   6   2 1188.25 30.0912   8
   6   6   2 1168.32 31.5273   3
   6   6   2 1214.03 32.8601   9
  -7  -6  -2 100.369 8.87344  12
  -7  -6  -2 96.6929 7.23808  13
   7   6   2 106.416 10.6513   9
   7   6   2 92.3455 8.79698   1
   7   6   2 80.2310 7.85469   8
   7   6   2 108.275 8.31703   2
  -8  -6  -2 163.365 12.5521  12
   8   6   2 142.124 12.5393   9
   8   6   2 164.691 11.0558   1
   8   6   2 163.293 10.4057   8
   8   6   2 162.159 10.6799   2
  -9  -6  -2 25.5900 8.18146  12
   9   6   2 23.7462 6.13251   1
   9   6   2 38.4491 7.04943   2
   9   6   2 23.9563 7.56832   9
   7  -7  -2 6.02071 6.11933   1
   7  -7  -2 5.39713 4.89911   2
   7  -7  -2 7.17147 5.06620   5
  -7   7   2 1.07519 6.89701  12
  -7   7   2 2.45373 5.50845  10
  -7   7   2 4.42234 7.43119  13
   6  -7  -2 103.155 9.35000   5
   6  -7  -2 91.5773 8.37142   2
   6  -7  -2 104.806 11.0667   1
  -6   7   2 98.1822 8.74559   3
  -6   7   2 89.3221 10.1194  10
  -6   7   2 95.5733 11.0726  13
  -6   7   2 83.6245 10.2738  12
   5  -7  -2 1125.38 29.3572   5
   5  -7  -2 1098.47 32.1355   1
   5  -7  -2 1039.68 27.6472   2
  -5   7   2 1071.83 30.1770  12
  -5   7   2 1075.11 31.6232  10
  -5   7   2 1070.87 28.5913   3
  -5   7   2 1069.34 32.3020  13
   4  -7  -2 1414.82 34.5564   5
   4  -7  -2 1425.59 32.2468   2
   4  -7  -2 1371.22 36.8342   1
  -4   7   2 1345.44 36.5058  13
  -4   7   2 1357.17 34.2617  12
  -4   7   2 1398.79 36.9312   8
  -4   7   2 1395.38 33.9763   3
  -4   7   2 1358.06 36.2954  10
   3  -7  -2 113.107 6.24937   2
   3  -7  -2 109.236 8.16284   5
   3  -7  -2 102.577 9.84330   1
   3  -7  -2 111.551 5.99870   4
  -3   7   2 107.162 9.45132  13
  -3   7   2 102.840 8.06039  12
  -3   7   2 111.079 8.92351  10
  -3   7   2 104.836 9.58222   8
  -3   7   2 104.229 7.66755   3
   2  -7  -2 735.897 23.2201   1
   2  -7  -2 747.158 17.3473   7
   2  -7  -2 725.242 16.4313  11
   2  -7  -2 694.412 20.5644   5
  -2   7   2 693.896 20.2548   3
  -2   7   2 741.293 21.5916  13
  -2   7   2 716.662 21.9979  10
  -2   7   2 723.073 18.2407  12
  -2   7   2 730.371 22.6943   8
   1  -7  -2 1.49861 3.04359   7
   1  -7  -2 2.73895 4.22613   5
   1  -7  -2 -2.4638 1.83787  11
  -1   7   2 0.94703 4.28608   8
  -1   7   2 3.40058 3.29374   3
  -1   7   2 -1.0371 3.34411  10
  -1   7   2 2.60221 3.65321  13
   0  -7  -2 584.997 17.8582   5
   0  -7  -2 546.840 16.6298   7
   0   7   2 537.879 18.1481   8
   0   7   2 578.652 16.1025   6
   0   7   2 557.934 17.2644   3
   0   7   2 574.527 15.7401  13
   0   7   2 544.760 17.8186  10
   1   7   2 429.818 15.0027   3
   1   7   2 452.765 15.8041   8
   1   7   2 455.382 16.3228   9
   1   7   2 452.946 12.7527   6
   2   7   2 399.723 14.8892   8
   2   7   2 420.682 14.8297   3
   2   7   2 408.420 15.9632   9
   2   7   2 426.311 11.4035   6
   3   7   2 101.264 8.18181   8
   3   7   2 98.5007 8.27651   3
   3   7   2 72.8797 7.87224   9
   3   7   2 93.4528 4.68566   6
   4   7   2 241.337 11.3425   8
   4   7   2 220.662 11.6512   3
   4   7   2 254.934 13.2669   9
   4   7   2 245.074 7.91908   6
   5   7   2 -0.5907 3.59678   8
   5   7   2 4.29497 4.03597   3
   5   7   2 2.98635 4.85498   9
  -6  -7  -2 271.551 16.9469  12
   6   7   2 244.248 14.5337   9
   6   7   2 262.695 10.3242   2
   6   7   2 279.682 13.7416   3
   6   7   2 235.742 12.1755   8
   7   7   2 145.764 11.1353   1
   7   7   2 162.862 11.5862   3
   7   7   2 145.627 9.05628   2
   7   7   2 168.786 10.7446   8
   7   7   2 153.426 12.2486   9
   8   7   2 130.699 9.48835   2
   8   7   2 128.178 12.3243   9
   8   7   2 130.836 10.8335   8
   8   7   2 120.651 11.4138   3
   8   7   2 138.747 11.3833   1
   6  -8  -2 33.7922 8.78367   1
   6  -8  -2 57.0670 7.90338   5
  -6   8   2 44.5656 8.97539   8
  -6   8   2 53.7466 9.98815  13
  -6   8   2 43.7138 8.41776  10
  -6   8   2 31.2842 6.18717   3
  -6   8   2 42.1080 8.07989  12
   5  -8  -2 21.5206 7.51423   1
   5  -8  -2 18.7606 5.60859   5
  -5   8   2 7.47671 5.87788  12
  -5   8   2 11.3805 4.84034   3
  -5   8   2 11.9784 6.14704  10
  -5   8   2 23.2626 7.89012  13
  -5   8   2 22.5865 7.00914   8
   4  -8  -2 151.166 10.4488   5
   4  -8  -2 154.067 12.7933   1
  -4   8   2 176.645 12.1589  10
  -4   8   2 165.269 11.1484  12
  -4   8   2 157.751 9.83388   3
  -4   8   2 138.119 11.9623  13
  -4   8   2 161.681 12.7371   8
   3  -8  -2 10.8812 4.73682   5
  -3   8   2 7.23341 4.00692   3
  -3   8   2 7.48430 5.35969  13
  -3   8   2 6.04389 5.47464   8
  -3   8   2 4.33124 4.68425  10
   2  -8  -2 269.545 12.3600   5
  -2   8   2 286.149 13.1179  13
  -2   8   2 301.172 12.6658   3
  -2   8   2 273.715 13.3520  10
  -2   8   2 279.708 14.4283   8
   1  -8  -2 2473.88 54.9106   5
   1  -8  -2 2465.73 52.4726   7
   1  -8  -2 2445.83 50.6900  11
  -1   8   2 2462.85 56.7313  10
  -1   8   2 2440.42 53.9136  13
  -1   8   2 2561.50 57.4123   8
  -1   8   2 2475.55 55.1625   3
   0  -8  -2 806.437 22.4377   7
   0   8   2 802.302 21.5599   6
   0   8   2 813.196 21.2126  13
   0   8   2 823.875 24.8253   8
   0   8   2 841.419 24.6255  10
   0   8   2 826.046 25.1502   9
   0   8   2 852.759 23.6663   3
   1   8   2 170.305 10.4870  10
   1   8   2 174.345 9.94822   3
   1   8   2 176.417 10.8063   8
   1   8   2 167.484 11.4831   9
   1   8   2 176.481 7.91233   6
   2   8   2 182.398 10.6277   3
   2   8   2 197.497 11.2762   8
   2   8   2 183.907 7.41334   6
   2   8   2 188.681 11.8206   9
   3   8   2 179.195 10.5499   8
   3   8   2 166.769 10.4940   3
   3   8   2 168.390 11.8089   9
   4   8   2 70.4822 8.64633   9
   4   8   2 76.6667 8.26968   3
   4   8   2 65.8796 7.49928   8
   5   8   2 136.433 11.1335   3
   5   8   2 118.482 10.7395   9
   5   8   2 129.403 9.81645   8
   6   8   2 -0.9919 4.05269   3
   6   8   2 2.28440 5.66896   9
   6   8   2 7.11656 4.51808   8
   7   8   2 60.8117 9.55131   9
   7   8   2 75.2824 9.64749   3
   7   8   2 56.6672 7.70352   8
   5  -9  -2 5.24288 5.14209   5
  -5   9   2 -1.9835 3.88882   3
  -5   9   2 1.62508 5.45879  10
  -5   9   2 3.16469 7.03643  13
  -5   9   2 -8.8073 5.53247   8
   4  -9  -2 944.001 27.5573   5
  -4   9   2 975.717 30.6187  10
  -4   9   2 913.326 30.7966   8
  -4   9   2 1005.05 30.7194  13
  -4   9   2 969.410 28.1363   3
   3  -9  -2 905.777 26.2790   5
  -3   9   2 916.439 29.4146   8
  -3   9   2 873.965 26.1703   3
  -3   9   2 925.697 27.7855  13
  -3   9   2 897.878 28.5843  10
   2  -9  -2 135.437 10.4945   5
  -2   9   2 119.485 9.68796  13
  -2   9   2 109.528 9.31614   3
  -2   9   2 112.009 10.8652   8
  -2   9   2 119.655 10.9364  10
   1  -9  -2 97.8170 7.43512   7
   1  -9  -2 80.0182 8.57735   5
  -1   9   2 83.1619 8.19224   3
  -1   9   2 82.4890 7.75336   6
  -1   9   2 88.7526 7.76620  13
  -1   9   2 89.2972 9.29124  10
  -1   9   2 71.4785 8.51100   8
   0  -9  -2 490.310 16.7544   7
   0   9   2 482.724 18.8627   8
   0   9   2 483.218 18.7543  10
   0   9   2 475.303 18.9432   9
   0   9   2 466.464 15.6432   6
   0   9   2 516.463 18.0064   3
   1   9   2 4.14153 4.13951   3
   1   9   2 -1.1460 4.33643   8
   1   9   2 2.39331 4.42019  10
   1   9   2 0.89492 4.89295   9
   2   9   2 270.505 14.7023   9
   2   9   2 233.109 12.6428   3
   2   9   2 264.024 13.5660   8
   3   9   2 139.913 11.0318   8
   3   9   2 124.873 10.8460   3
   3   9   2 147.247 12.1991   9
   4   9   2 23.4998 5.91156   8
   4   9   2 12.9801 6.27433   9
   4   9   2 19.2601 5.61713   3
   5   9   2 104.546 10.2898   3
   5   9   2 126.051 10.7079   8
   5   9   2 130.637 12.1167   9
   6   9   2 120.614 11.2881   3
   6   9   2 126.968 10.9127   8
   6   9   2 124.283 12.3499   9
   3 -10  -2 27.4334 7.00993   5
  -3  10   2 15.1259 7.45973   8
  -3  10   2 34.3681 7.67831  10
  -3  10   2 41.5237 7.96498  13
  -3  10   2 39.3357 6.80211   3
   2 -10  -2 69.9819 9.05171   5
  -2  10   2 58.8432 7.84682   6
  -2  10   2 76.7014 8.53656  13
  -2  10   2 67.6874 8.92957  10
  -2  10   2 79.5061 9.92919   8
  -2  10   2 75.3417 8.78110   3
  -1  10   2 159.272 11.1030  13
  -1  10   2 140.390 12.2872   8
  -1  10   2 147.847 10.4910   3
  -1  10   2 154.937 12.0448  10
  -1  10   2 119.685 11.9171   6
  -1  10   2 151.543 12.7237   9
   0 -10  -2 292.467 13.8048   7
   0  10   2 318.430 15.0186   3
   0  10   2 290.021 16.0926   9
   0  10   2 284.377 15.9444   8
   0  10   2 315.720 15.6460  10
  -1 -10  -2 194.837 12.8254   7
   1  10   2 208.511 13.0902  10
   1  10   2 224.748 12.7934   3
   1  10   2 215.086 13.4687   8
   1  10   2 219.417 14.5120   9
   2  10   2 155.530 11.2739   3
   2  10   2 129.434 11.3274   8
   2  10   2 143.031 12.3892   9
   3  10   2 1.37198 5.74549   9
   3  10   2 7.05207 5.14270   8
   3  10   2 1.43289 4.61629   3
   4  10   2 76.7246 9.31020   3
   4  10   2 79.0716 9.11977   8
   4  10   2 85.3710 10.7845   9
   5  10   2 146.978 12.2210   8
   5  10   2 148.822 13.7130   9
   5  10   2 111.243 11.6816   3
  -1  11   2 160.885 13.6902   9
  -1  11   2 145.567 13.2029  10
  -1  11   2 144.917 11.5574   3
  -1  11   2 147.762 13.7016   8
   0  11   2 359.718 17.1112   3
   0  11   2 355.921 18.4836   8
   0  11   2 339.988 17.7226  10
   0  11   2 373.931 19.1056   9
  -1 -11  -2 86.4901 10.0781   7
   1  11   2 100.845 11.2164  10
   1  11   2 71.1320 10.2189   9
   1  11   2 95.7577 10.1215   3
   1  11   2 108.510 11.7945   8
  -2 -11  -2 145.347 12.6744   7
   2  11   2 117.984 11.7285   8
   2  11   2 119.197 11.2980   3
   2  11   2 118.535 12.2495  10
   2  11   2 116.512 12.1163   9
   3  11   2 447.993 21.1880   9
   3  11   2 407.763 18.8707   3
   3  11   2 371.514 18.7510   8
   3  10  -3 560.823 22.8702   3
   3  10  -3 575.940 21.5239   6
   3  10  -3 601.451 23.0190   9
   3  10  -3 623.272 24.2128   8
   2  10  -3 345.448 15.8849   6
   2  10  -3 295.826 16.3930   3
   2  10  -3 309.196 15.9760   9
   2  10  -3 317.844 17.3686   8
   1  10  -3 150.516 13.7733  10
   1  10  -3 119.514 10.5539   9
   1  10  -3 144.009 10.9153   6
   1  10  -3 137.574 12.4023   3
   1  10  -3 136.175 12.4656   8
   0  10  -3 171.117 12.4487   3
   0  10  -3 136.926 12.2639   8
   0  10  -3 138.955 11.0955   6
   0  10  -3 145.476 11.2445   9
   0  10  -3 156.434 12.8444  10
  -1  10  -3 6.29089 5.64907  10
  -1  10  -3 13.2550 5.28426   9
  -1  10  -3 8.36930 6.08424   8
  -1  10  -3 30.0414 6.90992   3
  -1  10  -3 14.3421 5.47663   6
  -2  10  -3 2.37829 4.82183   3
  -2  10  -3 2.20902 5.14303  10
  -2  10  -3 -4.2298 5.41700   8
  -2  10  -3 2.13803 4.40463   9
  -2  10  -3 -2.0704 4.55202   6
  -3  10  -3 36.4324 7.79161  10
  -3  10  -3 42.8488 6.80624   9
  -3  10  -3 33.4407 7.70293   6
  -3  10  -3 47.8869 8.90073   8
  -3  10  -3 46.0712 8.13341   3
  -4  10  -3 -1.9665 5.71145   6
  -4  10  -3 0.52393 5.47081  10
  -4  10  -3 0.61309 5.00943   3
   5   9  -3 101.318 11.3151   9
   5   9  -3 89.1261 10.7192   8
   5   9  -3 95.5194 9.68163   6
   5   9  -3 103.723 12.2392   1
   5   9  -3 91.5336 10.5347   3
   4   9  -3 109.021 10.9428   3
   4   9  -3 131.327 12.2665   8
   4   9  -3 108.684 9.94746   6
   4   9  -3 91.8495 10.3267   9
   3   9  -3 606.174 22.1922   3
   3   9  -3 574.943 20.9955   6
   3   9  -3 575.823 22.4436   8
   3   9  -3 606.948 21.8061   9
   2   9  -3 100.674 9.43107   6
   2   9  -3 109.246 10.0311   9
   2   9  -3 113.427 10.1329   3
   2   9  -3 113.609 10.9102   8
   1   9  -3 -1.8175 4.75454   8
   1   9  -3 0.98626 3.97934   6
   1   9  -3 7.46023 4.81676   3
   1   9  -3 -0.3708 4.55113   9
   0   9  -3 125.594 10.8913   3
   0   9  -3 122.601 10.0138   6
   0   9  -3 111.446 10.8134  10
   0   9  -3 106.417 9.15393   9
   0   9  -3 122.502 11.2059   8
  -1   9  -3 258.149 14.5201   8
  -1   9  -3 230.724 13.3150   6
  -1   9  -3 246.897 12.4041   9
  -1   9  -3 245.767 14.1839  10
  -1   9  -3 238.731 13.4598   3
  -2   9  -3 767.736 25.2895   3
  -2   9  -3 770.669 22.8914   9
  -2   9  -3 746.051 25.5482  10
  -2   9  -3 755.998 25.3915   8
  -2   9  -3 764.785 25.4469   6
  -3   9  -3 57.1635 8.43180   6
  -3   9  -3 45.7012 7.57860  10
  -3   9  -3 56.3657 8.49449   8
  -3   9  -3 56.0555 7.94097   3
  -3   9  -3 44.2649 6.28923   9
  -4   9  -3 210.150 14.3889   6
  -4   9  -3 200.724 14.2562  13
  -4   9  -3 201.054 13.0256   3
  -4   9  -3 205.699 14.4771   8
  -4   9  -3 212.690 13.9057  10
  -5   9  -3 124.484 11.3505   3
  -5   9  -3 142.516 13.6760   6
  -5   9  -3 130.096 12.6660  13
  -5   9  -3 129.249 12.4524   8
  -5   9  -3 127.138 12.5075  10
   6   8  -3 8.93547 5.92379   8
   6   8  -3 4.66636 6.28714   9
   6   8  -3 7.09972 5.20140   3
   6   8  -3 21.9299 5.79939   6
   6   8  -3 20.9873 7.47045   1
  -6  -8   3 16.1801 6.29718  12
   5   8  -3 20.7297 6.72382   9
   5   8  -3 28.3667 7.82356   1
   5   8  -3 26.5483 6.19538   3
   5   8  -3 26.0383 6.88622   8
   5   8  -3 24.6443 5.79473   6
  -5  -8   3 29.4840 6.11530  12
   4   8  -3 157.470 11.2397   3
   4   8  -3 153.924 11.7829   8
   4   8  -3 179.986 11.1527   6
   4   8  -3 164.155 12.4346   9
  -4  -8   3 180.799 10.2693  12
   3   8  -3 253.765 13.8991   9
   3   8  -3 263.907 13.0928   6
   3   8  -3 270.967 13.6898   3
   3   8  -3 268.075 14.1081   8
  -3  -8   3 245.124 11.1893  12
   2   8  -3 594.654 21.1163   8
   2   8  -3 584.859 19.7987   9
   2   8  -3 556.311 19.5823   6
   2   8  -3 607.830 20.6551   3
  -2  -8   3 581.775 17.2624  12
   1   8  -3 70.5804 7.70238   3
   1   8  -3 60.3331 7.09469   9
   1   8  -3 68.8855 7.94641   6
   1   8  -3 58.9399 7.66739   8
  -1  -8   3 66.1306 5.78571  12
  -1  -8   3 59.5060 5.33439   2
   0   8  -3 29.8341 6.29854   8
   0   8  -3 29.8265 5.83577   3
   0   8  -3 34.6252 6.05743   6
   0   8  -3 40.8048 5.88158   9
   0   8  -3 34.7400 6.47075  10
   0  -8   3 38.2720 5.00506   2
  -1   8  -3 2497.89 58.7213   3
  -1   8  -3 2612.48 60.0263  10
  -1   8  -3 2622.91 56.8622   9
  -1   8  -3 2577.71 59.6022   6
  -1   8  -3 2683.87 60.1166   8
   1  -8   3 2571.46 54.6431   2
  -2   8  -3 1086.67 27.7802   9
  -2   8  -3 1065.64 30.3063   3
  -2   8  -3 1083.66 30.9431   6
  -2   8  -3 1063.69 30.4937   8
  -2   8  -3 1071.13 30.8216  10
   2  -8   3 1078.66 26.8828   2
  -3   8  -3 89.8772 8.86871   3
  -3   8  -3 100.118 9.74196  13
  -3   8  -3 85.6852 9.25208   8
  -3   8  -3 91.6098 9.59525   6
  -3   8  -3 103.113 9.95526  10
  -3   8  -3 89.8688 7.77756   9
   3  -8   3 94.7596 8.08170   2
  -4   8  -3 18.5506 6.58372  13
  -4   8  -3 19.1994 6.55100   6
  -4   8  -3 16.8103 5.42326   3
  -4   8  -3 16.6066 5.78333  10
  -4   8  -3 27.1830 6.65302   8
   4  -8   3 21.4223 6.18466   2
  -5   8  -3 239.496 13.7255   3
  -5   8  -3 268.751 15.5009  13
  -5   8  -3 259.046 14.5895  10
  -5   8  -3 244.301 14.9060   8
   5  -8   3 274.252 13.8160   2
  -6   8  -3 29.6944 6.89748   3
  -6   8  -3 33.8852 7.37531  10
  -6   8  -3 43.1218 8.07380   8
  -6   8  -3 45.4326 9.14194  13
   6  -8   3 37.2735 7.40725   2
  -7   8  -3 0.68395 5.92569   8
  -7   8  -3 9.50311 6.20619  10
  -7   8  -3 -3.4297 7.08012  13
  -7   8  -3 -1.9205 4.97671   3
   7  -8   3 -1.3352 6.52012   2
   7   7  -3 8.60392 5.51925   6
   7   7  -3 5.79134 6.67237   9
   7   7  -3 4.02906 4.85057   3
   7   7  -3 4.35754 5.07246   8
   7   7  -3 7.89117 6.58153   1
  -7  -7   3 16.8092 6.05396  13
  -7  -7   3 8.32218 6.60756  12
   6   7  -3 37.8390 6.97399   3
   6   7  -3 32.9000 7.53468   9
   6   7  -3 32.0427 7.47103   1
   6   7  -3 32.9249 7.00631   8
   6   7  -3 37.5648 6.72350   6
  -6  -7   3 38.2537 7.11415  12
   5   7  -3 13.0546 5.51719   9
   5   7  -3 8.95379 4.26824   6
   5   7  -3 -3.1310 5.03000   1
   5   7  -3 15.0578 5.49395   8
   5   7  -3 6.56405 4.62196   3
  -5  -7   3 4.43253 4.62373  12
   4   7  -3 576.173 20.2874   9
   4   7  -3 569.448 20.6704   8
   4   7  -3 556.741 19.7405   3
   4   7  -3 563.873 19.6227   6
  -4  -7   3 585.219 18.5912  12
   3   7  -3 397.743 15.6804   3
   3   7  -3 375.413 15.9470   8
   3   7  -3 403.234 15.6460   6
   3   7  -3 409.210 15.9016   9
  -3  -7   3 390.943 14.1630  12
   2   7  -3 45.7679 5.94537   6
   2   7  -3 40.7921 6.19268   9
   2   7  -3 35.0117 6.30220   8
   2   7  -3 51.7696 6.58293   3
  -2  -7   3 35.4777 5.00123  12
   1   7  -3 1626.27 37.7910   9
   1   7  -3 1633.87 39.8063   8
   1   7  -3 1598.22 39.2678   6
   1   7  -3 1581.95 38.9924   3
  -1  -7   3 1586.88 36.2335  12
   0   7  -3 534.628 18.5308   8
   0   7  -3 505.439 17.6891   3
   0   7  -3 525.448 16.4373   9
   0   7  -3 527.289 17.9060   6
   0  -7   3 492.876 14.7561   2
  -1   7  -3 1174.73 30.6449   3
  -1   7  -3 1187.25 31.2963   8
  -1   7  -3 1165.98 31.1335  10
  -1   7  -3 1191.02 28.8027   9
  -1   7  -3 1174.08 31.3011   6
   1  -7   3 1149.67 27.6538   2
  -2   7  -3 1743.80 42.7924  10
  -2   7  -3 1757.96 39.7058   9
  -2   7  -3 1760.64 43.2933   6
  -2   7  -3 1738.75 42.4233   3
  -2   7  -3 1826.27 43.0243   8
   2  -7   3 1768.43 39.6536   2
  -3   7  -3 23.1211 5.21431   3
  -3   7  -3 17.5616 5.65168   6
  -3   7  -3 17.4368 5.53912   8
  -3   7  -3 12.4816 5.47591  13
  -3   7  -3 16.0102 4.98168  10
   3  -7   3 4.70218 5.04123   2
  -4   7  -3 90.0368 9.31739  10
  -4   7  -3 101.883 10.1392   6
  -4   7  -3 98.5382 8.88097   3
  -4   7  -3 86.6048 8.70959   8
  -4   7  -3 85.8198 9.30203  13
   4  -7   3 85.3673 8.14460   2
  -5   7  -3 360.807 16.0640   8
  -5   7  -3 302.773 14.6414   3
  -5   7  -3 318.113 16.2834  13
  -5   7  -3 309.701 15.4564  10
   5  -7   3 336.658 14.8533   2
  -6   7  -3 434.380 18.6900  10
  -6   7  -3 423.792 18.1356   8
  -6   7  -3 420.621 19.5135  13
  -6   7  -3 430.455 17.8175   3
   6  -7   3 433.329 17.5572   2
  -7   7  -3 161.985 12.7266   8
  -7   7  -3 147.616 12.1766  10
  -7   7  -3 143.286 12.2086   3
  -7   7  -3 118.954 12.5480  13
   7  -7   3 140.904 12.0031   2
   7   6  -3 62.5505 9.19515   1
   7   6  -3 64.0893 8.37151   3
   7   6  -3 61.7474 8.59174   8
   7   6  -3 63.3477 9.19957   9
   7   6  -3 62.1750 8.36848   6
  -7  -6   3 60.8498 9.02605  12
  -7  -6   3 65.1456 8.59149  13
   6   6  -3 243.362 13.2920   6
   6   6  -3 253.703 13.9977   8
   6   6  -3 232.454 14.7341   1
   6   6  -3 246.293 14.4193   9
   6   6  -3 258.401 13.1415   3
  -6  -6   3 267.469 13.7394  13
  -6  -6   3 263.615 14.1760  12
   5   6  -3 1285.49 35.7806   1
   5   6  -3 1229.52 33.3347   3
   5   6  -3 1280.74 34.2663   6
   5   6  -3 1278.02 34.4174   9
   5   6  -3 1353.96 35.4971   8
  -5  -6   3 1293.31 33.6796  12
   4   6  -3 433.999 16.9199   8
   4   6  -3 453.502 16.5233   6
   4   6  -3 444.267 16.2452   3
   4   6  -3 448.820 16.9947   9
   4   6  -3 433.958 18.0113   1
  -4  -6   3 463.345 16.0849  12
   3   6  -3 1681.96 39.4544   9
   3   6  -3 1660.75 39.7100   3
   3   6  -3 1647.96 39.9616   6
   3   6  -3 1645.30 40.4720   8
  -3  -6   3 1661.94 38.3946  12
   2   6  -3 940.476 25.8704   8
   2   6  -3 937.606 24.6387   9
   2   6  -3 947.611 25.3755   3
   2   6  -3 905.658 25.3584   6
  -2  -6   3 937.219 23.7195  12
   1   6  -3 59.8590 6.38638   3
   1   6  -3 69.3919 6.93490   8
   1   6  -3 64.5409 6.49659   6
   1   6  -3 64.7824 6.15715   9
  -1  -6   3 72.2022 5.97396  12
   0   6  -3 67.4930 6.70197   8
   0   6  -3 59.9969 6.33796   6
   0   6  -3 65.2908 5.85910   9
   0   6  -3 66.1033 6.45266   3
  -1   6  -3 133.749 9.21037   8
  -1   6  -3 132.458 8.48186   3
  -1   6  -3 130.960 9.03928   6
  -1   6  -3 120.221 8.28370  10
  -1   6  -3 134.337 7.53933   9
   1  -6   3 149.711 7.73171   2
  -2   6  -3 1829.67 42.5952   8
  -2   6  -3 1849.04 42.9623  10
  -2   6  -3 1833.41 39.8104   9
  -2   6  -3 1808.37 42.7197  13
  -2   6  -3 1783.09 42.3747   3
  -2   6  -3 1859.78 43.6065   6
   2  -6   3 1859.68 40.6197   2
  -3   6  -3 863.528 25.1572  13
  -3   6  -3 907.641 26.1792   6
  -3   6  -3 877.138 24.6511  10
  -3   6  -3 885.770 24.6161   8
  -3   6  -3 798.619 23.8311   3
   3  -6   3 839.461 23.2309   2
  -4   6  -3 12.5550 4.99069   8
  -4   6  -3 3.98593 3.87701   3
  -4   6  -3 -0.8303 3.82289  10
  -4   6  -3 5.14268 5.29450  13
   4  -6   3 10.4071 5.64438   2
  -5   6  -3 518.910 18.8583  10
  -5   6  -3 518.942 18.5085   3
  -5   6  -3 534.211 20.4482  13
  -5   6  -3 542.463 18.9048   8
   5  -6   3 535.457 18.6111   2
  -6   6  -3 66.2476 9.25481  13
  -6   6  -3 48.4467 7.37132  10
  -6   6  -3 53.7840 7.43990   8
  -6   6  -3 61.9123 7.57523   3
   6  -6   3 50.4640 8.02264   2
  -7   6  -3 51.5478 7.74724   3
  -7   6  -3 48.0073 7.67822  10
  -7   6  -3 48.8243 8.79101  13
  -7   6  -3 59.7646 7.91087   8
   7  -6   3 45.8705 8.52338   2
  -8   6  -3 47.0858 7.97966   8
  -8   6  -3 52.6988 9.82032  13
  -8   6  -3 51.9168 8.34586  10
   8  -6   3 54.8195 9.31551   2
   8   5  -3 421.511 17.6115   3
   8   5  -3 411.504 19.4183   9
   8   5  -3 425.603 19.6124   1
   8   5  -3 391.376 18.9612   6
  -8  -5   3 432.237 20.5648  12
  -8  -5   3 419.126 19.0397  13
   7   5  -3 618.840 22.1350   6
   7   5  -3 604.875 22.1844   8
   7   5  -3 583.276 20.2607   3
   7   5  -3 604.799 22.5372   9
   7   5  -3 632.429 23.1068   1
  -7  -5   3 569.188 21.4724  13
  -7  -5   3 562.970 22.2653  12
   6   5  -3 413.516 17.5110   9
   6   5  -3 411.887 16.9097   8
   6   5  -3 397.189 15.5700   3
   6   5  -3 433.459 17.2587   6
   6   5  -3 414.502 17.7497   1
  -6  -5   3 391.557 17.0156  12
  -6  -5   3 408.984 16.8484  13
   5   5  -3 1871.27 43.5027   3
   5   5  -3 1825.57 44.4190   9
   5   5  -3 1866.18 45.7556   1
   5   5  -3 1856.62 44.8139   6
   5   5  -3 1810.39 44.6906   8
  -5  -5   3 1883.89 44.5052  12
   4   5  -3 2005.62 46.8827   6
   4   5  -3 2019.01 45.8941   3
   4   5  -3 2062.55 47.3130   8
   4   5  -3 1973.07 47.7344   1
   4   5  -3 2041.89 46.5110   9
  -4  -5   3 2003.94 46.0800  12
   3   5  -3 19.5136 4.33225   3
   3   5  -3 6.60982 3.69270   6
   3   5  -3 28.4842 5.14548   9
  -3  -5   3 16.3330 4.21782  12
   2   5  -3 3.90209 3.21289   3
   2   5  -3 1.49638 1.77094   8
   2   5  -3 12.5599 3.90630   9
   2   5  -3 3.37098 3.17791   6
  -2  -5   3 4.70162 3.18732  12
   1   5  -3 196.005 8.74960   9
   1   5  -3 187.689 9.02731   3
   1   5  -3 214.859 9.96420   6
   1   5  -3 210.442 9.87058   8
  -1  -5   3 194.603 8.41132  12
   0   5  -3 1430.96 33.2848   8
   0   5  -3 1434.62 33.7418   6
   0   5  -3 1425.82 33.0690   3
   0   5  -3 1378.76 31.2037   9
  -1   5  -3 316.659 11.5662   3
  -1   5  -3 349.123 12.1716   8
  -1   5  -3 331.279 10.2869   9
  -1   5  -3 304.719 12.2368   6
  -1   5  -3 315.809 11.7673  10
   1  -5   3 326.135 10.8213   2
  -2   5  -3 667.399 19.0815  10
  -2   5  -3 666.548 19.1124   3
  -2   5  -3 666.132 16.7320   9
  -2   5  -3 689.648 19.7092  13
  -2   5  -3 677.695 20.2490   6
  -2   5  -3 657.053 19.0666   8
   2  -5   3 657.215 17.9288   2
  -3   5  -3 340.961 13.0800   8
  -3   5  -3 326.375 12.6602   3
  -3   5  -3 343.660 12.8745  10
  -3   5  -3 353.398 13.8593  13
   3  -5   3 350.350 13.1878   2
  -4   5  -3 149.326 10.7597  13
  -4   5  -3 149.835 9.32320   8
  -4   5  -3 162.620 9.31447   3
  -4   5  -3 150.088 9.11891  10
   4  -5   3 155.669 10.4348   2
   4  -5   3 151.163 5.56563   5
  -5   5  -3 215.961 10.9125   3
  -5   5  -3 202.460 12.4464  13
  -5   5  -3 183.552 10.6792   8
  -5   5  -3 181.993 10.6382  10
   5  -5   3 180.833 12.0786   2
   5  -5   3 195.960 6.72898   5
  -6   5  -3 6.73010 4.48291  10
  -6   5  -3 18.5519 6.15265  13
  -6   5  -3 8.82903 4.58750   8
  -6   5  -3 12.9110 4.69834   3
   6  -5   3 9.58823 6.13405   2
   6  -5   3 16.2057 2.96912   5
  -7   5  -3 -0.2707 4.24380   3
  -7   5  -3 6.88661 6.26725  13
  -7   5  -3 0.82577 4.23388  10
   7  -5   3 -5.6691 5.78870   2
  -8   5  -3 34.8234 6.88041  10
  -8   5  -3 32.6653 8.51224  13
   8  -5   3 33.0123 8.07369   2
  -9   5  -3 4.78831 5.75485  10
  -9   5  -3 20.6805 8.38778  13
   9  -5   3 15.1869 7.64366   2
   8   4  -3 386.600 18.4570   9
   8   4  -3 371.771 17.9868   6
   8   4  -3 369.014 18.1462   1
   8   4  -3 353.090 15.6030   3
  -8  -4   3 377.890 17.8431  13
  -8  -4   3 362.899 19.1957  12
   7   4  -3 120.641 10.8484   1
   7   4  -3 108.208 8.93010   3
   7   4  -3 129.545 10.9218   6
   7   4  -3 130.109 11.0074   9
  -7  -4   3 111.579 10.4553  13
  -7  -4   3 126.805 11.7096  12
   6   4  -3 179.391 11.4082   6
   6   4  -3 169.874 11.4114   1
   6   4  -3 178.387 11.7303   9
   6   4  -3 169.929 10.9199   8
   6   4  -3 174.851 9.77613   3
  -6  -4   3 171.397 11.3349  13
  -6  -4   3 168.689 12.0473  12
   5   4  -3 390.116 13.8257   3
   5   4  -3 389.193 15.2686   6
   5   4  -3 360.724 15.5995   1
   5   4  -3 370.857 14.9643   8
   5   4  -3 391.525 15.3826   9
  -5  -4   3 381.544 15.6005  12
   4   4  -3 4910.19 101.034   6
   4   4  -3 4827.24 101.690   1
   4   4  -3 5029.35 100.637   9
   4   4  -3 4906.46 99.4206   3
  -4  -4   3 4941.88 100.770  12
   3   4  -3 605.554 17.1356   3
   3   4  -3 615.790 18.2807   6
   3   4  -3 603.818 17.5902   9
  -3  -4   3 582.907 17.5351  12
   2   4  -3 830.300 21.0773   3
   2   4  -3 861.167 22.2260   6
   2   4  -3 822.295 20.9512   9
   2   4  -3 818.525 21.8453   8
  -2  -4   3 810.397 21.0197  12
   1   4  -3 536.154 14.9494   3
   1   4  -3 532.421 14.2391   9
   1   4  -3 542.132 15.8050   6
   1   4  -3 509.981 15.2703   8
  -1  -4   3 528.396 14.6940  12
   0   4  -3 104.091 6.64341   6
   0   4  -3 82.5839 4.74944   9
   0   4  -3 105.055 6.03819   3
   0   4  -3 105.780 6.35740   8
  -1   4  -3 93.0032 5.76365   3
  -1   4  -3 94.0014 4.79375   9
  -1   4  -3 95.6919 6.74390   6
  -1   4  -3 111.779 6.31515  10
  -1   4  -3 99.6366 6.15804   8
   1  -4   3 95.9643 5.84942   2
  -2   4  -3 46.8762 4.85544   8
  -2   4  -3 50.6255 5.10803   3
  -2   4  -3 49.3787 5.54426   6
  -2   4  -3 55.9627 5.74012  13
  -2   4  -3 49.1273 4.79633  10
   2  -4   3 46.2030 4.86939   2
  -3   4  -3 622.210 18.0337   3
  -3   4  -3 651.647 19.1091  13
  -3   4  -3 672.575 18.0674   8
  -3   4  -3 629.689 18.0154  10
   3  -4   3 661.975 18.4225   2
  -4   4  -3 20.3223 4.01094   3
  -4   4  -3 8.09362 3.66688   8
  -4   4  -3 12.7932 3.82184  10
   4  -4   3 16.6427 5.25076   2
   4  -4   3 13.4390 1.96604   5
  -5   4  -3 145.706 8.86119   8
  -5   4  -3 141.342 8.95653   3
  -5   4  -3 143.834 8.97029  10
   5  -4   3 151.173 11.1277   2
  -6   4  -3 1637.95 40.3285   3
  -6   4  -3 1673.59 41.0282  10
  -6   4  -3 1732.30 42.6271  13
   6  -4   3 1648.12 41.1253   2
  -7   4  -3 6.59734 5.63248  13
  -7   4  -3 2.65938 4.02816  10
  -7   4  -3 1.10202 5.47006  12
   7  -4   3 5.38367 6.13248   2
   7  -4   3 -5.1821 3.36211   1
  -8   4  -3 237.020 15.7054  12
  -8   4  -3 240.824 13.7429  10
  -8   4  -3 231.568 15.6314  13
   8  -4   3 260.683 15.6913   2
   8  -4   3 209.232 10.7723   1
  -9   4  -3 -1.4806 6.31782  12
  -9   4  -3 -11.985 6.35349  13
  -9   4  -3 -1.8276 4.88597  10
   9  -4   3 -3.5779 6.26489   2
   8   3  -3 29.1935 6.72416   1
   8   3  -3 12.6101 5.79009   9
   8   3  -3 19.4930 5.25251   3
  -8  -3   3 13.0981 7.53631  12
  -8  -3   3 23.8014 6.74224  13
   7   3  -3 455.245 18.5267   6
   7   3  -3 441.701 15.8275   3
   7   3  -3 446.687 18.4619   1
   7   3  -3 453.383 18.5657   9
  -7  -3   3 430.239 19.3142  12
  -7  -3   3 426.218 18.2029  13
   6   3  -3 78.2686 6.89695   3
   6   3  -3 70.6075 7.91314   9
   6   3  -3 67.7489 7.84210   1
   6   3  -3 66.4666 7.68168   6
  -6  -3   3 86.7345 8.49637  13
  -6  -3   3 87.6935 9.07796  12
   5   3  -3 2732.82 61.3098   1
   5   3  -3 2827.71 60.9026   9
   5   3  -3 2735.61 61.1824   6
   5   3  -3 2783.62 58.6494   3
   5   3  -3 2758.94 60.8116   8
  -5  -3   3 2670.19 61.0393  12
  -5  -3   3 2800.66 61.0408  13
   4   3  -3 165.984 7.99970   3
   4   3  -3 182.791 10.1296   1
   4   3  -3 176.641 9.54551   6
   4   3  -3 182.306 9.79091   9
  -4  -3   3 187.903 9.99122  12
   3   3  -3 67.6171 5.77762   9
   3   3  -3 78.7701 6.51712   6
   3   3  -3 65.4650 5.05768   3
   3   3  -3 58.1304 5.43921   8
   3   3  -3 62.2863 6.09881   1
  -3  -3   3 76.6051 6.57360  12
   2   3  -3 1237.94 28.2193   9
   2   3  -3 1237.33 29.6499   1
   2   3  -3 1273.29 29.6992   6
   2   3  -3 1252.25 29.1390   8
   2   3  -3 1280.84 28.1120   3
  -2  -3   3 1234.57 28.9198  12
   1   3  -3 745.154 18.8977   8
   1   3  -3 769.757 19.5969   6
   1   3  -3 748.022 18.2662   3
  -1  -3   3 761.345 18.8019  12
   0   3  -3 3280.95 66.5171   8
   0   3  -3 3328.79 67.5733   6
   0   3  -3 3310.03 66.3982   3
   0   3  -3 3286.92 64.7691   9
  -1   3  -3 335.658 10.3067   3
  -1   3  -3 336.386 11.3072   6
  -1   3  -3 344.247 10.3347   8
  -1   3  -3 329.374 8.42238   9
  -1   3  -3 342.487 10.2420  10
  -2   3  -3 2262.54 47.6172  10
  -2   3  -3 2285.40 47.9532   3
  -2   3  -3 2293.06 47.3867   8
   2  -3   3 2306.06 47.7814   2
  -3   3  -3 109.853 6.08400  10
  -3   3  -3 104.850 6.19257   3
  -3   3  -3 111.749 5.99234   8
  -3   3  -3 72.3330 5.65455  13
   3  -3   3 107.825 7.23564   2
  -4   3  -3 563.458 17.5433  13
  -4   3  -3 564.637 12.9159  11
  -4   3  -3 566.772 15.7211   8
  -4   3  -3 568.851 16.5035  10
  -4   3  -3 580.134 16.6723   3
   4  -3   3 564.789 17.6264   2
  -5   3  -3 128.473 4.96659  11
  -5   3  -3 126.402 8.00673  10
  -5   3  -3 118.008 9.31985  13
   5  -3   3 132.251 9.76869   2
  -6   3  -3 108.587 10.2175  12
  -6   3  -3 102.832 8.17304  10
  -6   3  -3 109.962 5.11780  11
  -6   3  -3 95.6544 9.14328  13
   6  -3   3 107.370 6.79169   1
   6  -3   3 137.381 10.7547   2
  -7   3  -3 1341.43 35.0657  10
  -7   3  -3 1365.00 37.0498  12
  -7   3  -3 1357.03 36.4291  13
  -7   3  -3 1314.39 28.9053  11
   7  -3   3 1334.05 35.6559   2
   7  -3   3 1331.50 30.9161   1
  -8   3  -3 34.7485 6.74458  10
  -8   3  -3 11.2056 6.55773  13
  -8   3  -3 15.5337 7.29478  12
   8  -3   3 13.7582 3.90738   1
   8  -3   3 20.0678 7.46755   2
  -9   3  -3 4.33578 4.96562  10
  -9   3  -3 8.63189 6.80468  13
  -9   3  -3 10.4648 7.28378  12
   9  -3   3 9.42945 6.85409   2
 -10   3  -3 14.5726 6.57289  10
 -10   3  -3 9.57730 7.80615  13
 -10   3  -3 21.6173 9.05389  12
  10  -3   3 18.8643 8.37834   2
   9   2  -3 78.1362 10.2911   9
   9   2  -3 90.6665 10.5223   1
  -9  -2   3 75.2892 10.5142  13
  -9  -2   3 70.4319 11.3355  12
   8   2  -3 526.084 20.8924   9
   8   2  -3 538.921 21.1449   1
  -8  -2   3 582.438 23.8035  12
  -8  -2   3 593.501 22.4239  13
   7   2  -3 453.291 18.0552   9
   7   2  -3 488.394 18.5161   1
   7   2  -3 442.231 18.4601   6
  -7  -2   3 456.959 18.5238  13
  -7  -2   3 471.895 19.6680  12
   6   2  -3 1037.25 29.0130   9
   6   2  -3 1077.61 29.8800   6
   6   2  -3 1046.82 29.3279   1
  -6  -2   3 1022.67 29.7396  12
  -6  -2   3 1071.36 29.5110  13
   5   2  -3 377.597 14.7441   6
   5   2  -3 362.424 14.4115   1
   5   2  -3 377.303 14.3128   9
  -5  -2   3 358.707 14.4832  13
  -5  -2   3 345.742 14.7071  12
   4   2  -3 18.0670 4.28957   1
   4   2  -3 18.9838 4.13183   9
   4   2  -3 24.1426 3.42225   3
   4   2  -3 24.3872 4.55493   6
  -4  -2   3 15.0208 4.49985  12
   3   2  -3 2171.58 46.4395   1
   3   2  -3 2117.78 45.7189   8
   3   2  -3 2052.44 45.9313   6
   3   2  -3 2127.50 45.3577   9
   3   2  -3 2094.11 43.7400   3
  -3  -2   3 2102.66 46.0793  12
   2   2  -3 112.421 5.11756   3
   2   2  -3 105.019 6.05153   8
   2   2  -3 114.801 6.65305   1
   2   2  -3 107.934 5.94239   9
   2   2  -3 108.128 6.35803   6
  -2  -2   3 120.360 6.35937  12
   1   2  -3 649.896 15.5174   3
   1   2  -3 682.018 17.2032   6
   1   2  -3 651.362 15.5359   9
   1   2  -3 683.970 17.1230   1
   1   2  -3 676.524 16.4175   8
  -1  -2   3 653.526 16.7923  12
   0   2  -3 15.9050 2.25855   3
   0   2  -3 5.75086 1.89130   6
   0   2  -3 18.7478 2.54783   8
   0   2  -3 12.6720 1.82092   9
   0  -2   3 15.1052 1.93727   9
  -1   2  -3 9.80612 2.15042   8
  -1   2  -3 9.20567 2.03630  10
  -1   2  -3 8.89596 2.15950   3
  -1   2  -3 11.0484 1.29880   9
  -2   2  -3 3441.25 67.9716   8
  -2   2  -3 3412.32 68.3491  10
  -2   2  -3 3475.96 65.8147   9
  -2   2  -3 3433.57 68.8890   3
   2  -2   3 3478.44 69.1533   2
  -3   2  -3 64.6836 3.49174  11
  -3   2  -3 60.9879 4.64378  10
  -3   2  -3 64.1902 4.90527   3
  -3   2  -3 65.9516 4.18399   8
  -3   2  -3 60.0818 5.31310  13
   3  -2   3 63.1624 5.74929   2
  -4   2  -3 7692.39 151.521  10
  -4   2  -3 7850.40 152.574  13
  -4   2  -3 7771.86 151.793   3
  -4   2  -3 7796.01 148.557  11
  -4   2  -3 7919.80 149.816   7
   4  -2   3 7683.96 148.907   9
   4  -2   3 7605.98 152.287   2
  -5   2  -3 0.92407 2.99820  10
  -5   2  -3 2.59780 4.18486  13
  -5   2  -3 5.09341 2.18122  11
  -5   2  -3 -2.0752 4.20768  12
  -5   2  -3 5.44795 2.30255   7
   5  -2   3 4.22910 2.30721   1
   5  -2   3 1.08552 4.93319   2
   5  -2   3 2.74145 2.21163   9
  -6   2  -3 387.842 11.9746   7
  -6   2  -3 401.002 16.7147  12
  -6   2  -3 425.798 15.9763  13
  -6   2  -3 416.968 14.9268  10
   6  -2   3 417.437 12.9804   9
   6  -2   3 430.605 16.6951   2
   6  -2   3 414.680 11.8763   1
  -7   2  -3 1128.80 31.2818  13
  -7   2  -3 1103.39 30.2303  10
  -7   2  -3 1110.92 32.2067  12
  -7   2  -3 1119.77 26.1589   7
   7  -2   3 1150.16 28.0353   9
   7  -2   3 1135.70 25.9847   1
   7  -2   3 1097.07 31.2225   2
  -8   2  -3 90.7830 8.95746  10
  -8   2  -3 92.9582 6.23839   7
  -8   2  -3 88.7307 9.81866  13
  -8   2  -3 104.820 11.1832  12
   8  -2   3 88.3067 6.45318   1
   8  -2   3 79.8942 9.68842   2
   8  -2   3 95.6608 7.89116   9
  -9   2  -3 112.777 12.4704  12
  -9   2  -3 121.959 11.5189  10
  -9   2  -3 135.297 12.3760  13
   9  -2   3 135.645 12.6987   2
   9  -2   3 124.736 9.25831   9
 -10   2  -3 137.581 13.6211  13
 -10   2  -3 121.502 12.1987  10
 -10   2  -3 122.581 13.7748  12
  10  -2   3 138.693 10.7552   9
  10  -2   3 141.034 13.6458   2
   9   1  -3 79.9663 9.90301   1
   9   1  -3 89.3749 10.1891   9
  -9  -1   3 98.0765 11.6915  13
  -9  -1   3 82.9081 12.3299  12
   8   1  -3 215.713 13.0018   1
   8   1  -3 209.791 13.4774   9
  -8  -1   3 214.582 15.7844  12
  -8  -1   3 223.419 14.5338  13
   7   1  -3 405.115 17.0769   9
   7   1  -3 407.579 16.9723   1
   7   1  -3 405.311 16.9458   2
  -7  -1   3 431.504 18.7257  12
  -7  -1   3 401.270 17.4010  13
   6   1  -3 951.372 26.9711   1
   6   1  -3 964.911 26.7821   9
   6   1  -3 950.880 27.5447   6
  -6  -1   3 913.230 27.6995  12
  -6  -1   3 941.272 27.1727  13
   5   1  -3 767.481 22.2481   1
   5   1  -3 766.628 21.8765   9
   5   1  -3 727.473 22.1720   6
  -5  -1   3 759.356 22.2963  13
  -5  -1   3 747.789 22.6040  12
   4   1  -3 224.085 10.2234   1
   4   1  -3 205.034 9.48411   9
   4   1  -3 199.505 9.81474   6
  -4  -1   3 195.997 9.92397  13
  -4  -1   3 218.572 10.4392  12
   3   1  -3 1315.24 29.8972   9
   3   1  -3 1295.39 30.4970   1
   3   1  -3 1307.24 30.1204   8
   3   1  -3 1296.47 30.5940   6
  -3  -1   3 1301.99 30.6670  12
   2   1  -3 2431.91 45.5883   3
   2   1  -3 2424.50 47.7507   8
   2   1  -3 1922.51 46.5263   9
  -2  -1   3 2372.38 48.1892  12
   0   1  -3 76.4701 3.11162   9
   0   1  -3 80.8649 4.39266   1
   0   1  -3 77.9127 3.86532   8
   0   1  -3 76.4758 3.42322   3
   0  -1   3 78.0049 3.28844   9
  -1   1  -3 26.8212 3.04820   6
  -1   1  -3 30.0467 2.36177   8
  -1   1  -3 30.6595 2.42728  10
  -1   1  -3 21.8838 2.30732   1
  -1   1  -3 30.7838 2.68521   3
   1  -1   3 26.5034 2.35137   8
  -2   1  -3 151.655 5.31717  10
  -2   1  -3 143.608 6.21367  13
  -2   1  -3 139.266 5.22812  11
  -2   1  -3 133.333 5.86682   7
  -2   1  -3 154.468 6.55773   6
  -2   1  -3 138.899 4.83614   8
  -2   1  -3 147.955 5.83154   3
   2  -1   3 150.284 6.76914   2
  -3   1  -3 1234.85 26.9831   7
  -3   1  -3 1251.23 27.5938   3
  -3   1  -3 1213.59 24.3642   1
  -3   1  -3 1223.60 25.2078   9
  -3   1  -3 1273.87 27.1178  10
  -3   1  -3 1250.17 26.1630  11
   3  -1   3 1228.97 25.1590   9
   3  -1   3 1241.84 28.4295   2
  -4   1  -3 1714.82 37.7337  13
  -4   1  -3 1699.27 33.6492   1
  -4   1  -3 1731.49 34.8910   4
  -4   1  -3 1720.45 36.2133   7
  -4   1  -3 1704.39 37.0838  10
   4  -1   3 1671.01 33.7488   1
   4  -1   3 1707.57 35.1661   9
   4  -1   3 1698.59 38.3576   2
  -5   1  -3 586.651 17.3451  13
  -5   1  -3 492.873 17.0613  12
  -5   1  -3 580.667 16.6674  10
  -5   1  -3 579.811 15.2772   7
  -5   1  -3 587.562 13.7094   4
   5  -1   3 581.692 14.9855   9
   5  -1   3 585.753 18.1572   2
   5  -1   3 584.829 13.3421   1
  -6   1  -3 1281.48 31.3056  10
  -6   1  -3 1242.60 26.7350   4
  -6   1  -3 1271.07 28.9363   7
  -6   1  -3 1273.28 31.7305  13
   6  -1   3 1242.89 27.0115   1
   6  -1   3 1284.58 32.7443   2
   6  -1   3 1228.43 29.1918   9
  -7   1  -3 -2.6420 5.48778  12
  -7   1  -3 2.85812 3.17519   7
  -7   1  -3 0.66167 2.09090   4
  -7   1  -3 3.74351 3.99954  10
  -7   1  -3 4.58677 4.92480  13
   7  -1   3 -3.9018 6.14216   2
   7  -1   3 5.43844 3.45432   9
   7  -1   3 0.18065 2.51824   1
  -8   1  -3 868.818 28.2120  12
  -8   1  -3 839.002 22.2745   7
  -8   1  -3 800.031 25.7808  13
  -8   1  -3 858.748 26.1812  10
   8  -1   3 856.214 23.9790   9
   8  -1   3 847.670 21.0343   1
   8  -1   3 855.747 26.9403   2
  -9   1  -3 2.76578 7.16168  12
  -9   1  -3 10.3050 5.21621  10
  -9   1  -3 5.66121 4.14271   7
  -9   1  -3 -4.1789 5.21612  13
   9  -1   3 -1.5485 3.91031   9
   9  -1   3 8.88806 6.91234   2
 -10   1  -3 -3.2522 7.58916  12
 -10   1  -3 4.92529 6.46207  13
 -10   1  -3 8.60726 5.56761  10
  10  -1   3 17.4098 7.20619   2
  10  -1   3 -5.5172 4.11296   9
   9   0  -3 932.047 30.1657   1
   9   0  -3 945.479 30.8561   2
   9   0  -3 946.417 30.7740   9
  -9   0   3 932.230 31.8198  13
  -9   0   3 933.321 31.3304  10
  -9   0   3 1017.85 34.0648  12
   8   0  -3 2.16209 4.64986   1
   8   0  -3 -2.2040 3.84658   9
   8   0  -3 1.07736 5.11732   2
  -8   0   3 3.12661 6.31651  12
  -8   0   3 1.83223 5.10457  10
  -8   0   3 1.59997 5.51075  13
   7   0  -3 159.653 10.8710   9
   7   0  -3 153.616 11.5216   2
   7   0  -3 156.924 10.7850   1
  -7   0   3 158.919 13.2505  12
  -7   0   3 167.458 11.9446  13
  -7   0   3 170.422 11.1841  10
   6   0  -3 5.81152 4.28186   1
   6   0  -3 6.11668 4.14939   9
   6   0  -3 18.6492 5.27343   2
  -6   0   3 6.85805 4.44143  10
  -6   0   3 5.89061 5.25188  13
  -6   0   3 6.65465 5.97791  12
   5   0  -3 1083.02 28.8423   2
   5   0  -3 1143.61 29.2267   1
   5   0  -3 1109.53 28.8862   9
  -5   0   3 1157.45 28.8119  10
   4   0  -3 392.151 13.1640   9
   4   0  -3 406.947 13.5887   1
  -4   0   3 352.158 13.2991  12
  -4   0   3 390.069 12.8852  10
   3   0  -3 238.336 9.09264   9
   3   0  -3 221.881 9.24231   1
  -3   0   3 240.769 8.74144  10
  -3   0   3 225.564 9.51975  12
  -3   0   3 228.389 9.49123  13
   2   0  -3 1262.43 28.3294   6
   2   0  -3 1178.21 27.3462   9
  -2   0   3 1265.91 28.4382  12
  -2   0   3 1282.98 27.0285  10
   1   0  -3 7.64859 2.08220   9
   1   0  -3 5.65505 1.08663   3
   1   0  -3 1.58484 2.00920   6
   1   0  -3 2.77428 2.17078   1
  -1   0   3 8.53246 2.79897  12
   0   0  -3 233.237 6.47450   8
   0   0  -3 244.586 7.47114   6
   0   0  -3 229.043 7.09566   1
   0   0  -3 241.271 5.69330   3
   0   0   3 233.644 6.25983   9
  -1   0  -3 8276.36 137.056  11
  -1   0  -3 5992.60 136.841   7
  -2   0  -3 996.082 19.4187   8
  -2   0  -3 987.772 21.5077  13
  -2   0  -3 981.288 21.5471  11
  -2   0  -3 1002.57 22.2466   7
  -2   0  -3 979.463 21.3762   4
  -2   0  -3 1000.22 20.6709  10
  -2   0  -3 985.123 20.0204   9
  -2   0  -3 1027.05 21.8065   6
   2   0   3 984.507 22.3550   2
   2   0   3 986.162 20.3066   5
   2   0   3 973.594 20.0447   9
  -3   0  -3 106.089 4.73873   4
  -3   0  -3 108.857 5.46769  13
  -3   0  -3 116.882 5.64779   7
  -3   0  -3 105.197 4.90421  10
   3   0   3 105.582 4.45049   9
   3   0   3 105.762 6.68937   2
  -4   0  -3 197.661 7.72895   7
  -4   0  -3 191.707 8.02825  13
  -4   0  -3 183.103 7.57554  10
  -4   0  -3 201.019 6.73827   4
  -4   0  -3 208.663 9.25168  12
   4   0   3 198.657 7.06701   9
   4   0   3 203.295 9.44434   2
  -5   0  -3 621.532 18.2451  12
  -5   0  -3 586.675 15.9374   7
  -5   0  -3 599.437 16.7550  13
  -5   0  -3 584.822 16.6589  10
  -5   0  -3 567.378 14.2648   4
   5   0   3 582.152 13.0808   1
   5   0   3 579.205 15.5233   9
   5   0   3 567.747 17.7962   2
  -6   0  -3 115.009 7.80408  10
  -6   0  -3 127.282 7.33114   7
  -6   0  -3 118.176 5.71602   4
  -6   0  -3 128.026 8.59414  13
  -6   0  -3 105.469 8.96216  12
   6   0   3 105.861 7.09312   9
   6   0   3 114.651 5.16536   1
   6   0   3 109.126 9.26519   2
  -7   0  -3 56.4089 8.30148  12
  -7   0  -3 64.0645 7.34537  13
  -7   0  -3 60.9567 6.19112   7
  -7   0  -3 50.4303 6.66790  10
  -7   0  -3 65.9927 4.81069   4
   7   0   3 60.2040 6.29153   9
   7   0   3 74.8953 8.94149   2
   7   0   3 62.9058 4.72766   1
  -8   0  -3 2240.44 54.3829  12
  -8   0  -3 2212.76 46.0510   4
  -8   0  -3 2200.81 52.3710  10
  -8   0  -3 2279.63 52.0175  13
  -8   0  -3 2218.64 49.4432   7
   8   0   3 2222.01 53.1435   2
   8   0   3 2203.57 46.8267   1
   8   0   3 2207.41 50.3689   9
  -9   0  -3 570.305 20.7106  13
  -9   0  -3 534.107 23.0309  12
  -9   0  -3 592.159 21.7857  10
  -9   0  -3 553.340 18.0755   7
   9   0   3 533.500 19.1886   9
   9   0   3 564.387 22.0193   2
 -10   0  -3 213.027 14.2354  10
 -10   0  -3 189.819 16.1072  12
 -10   0  -3 180.453 13.9346  13
  10   0   3 218.143 13.0038   9
  10   0   3 217.667 15.7639   2
   9  -1  -3 342.991 17.8346   2
   9  -1  -3 313.075 17.1174   9
   9  -1  -3 354.680 17.4647   1
  -9   1   3 321.762 17.4225  10
  -9   1   3 315.801 18.1806  13
  -9   1   3 332.955 20.3891  12
   8  -1  -3 329.329 15.6025   1
   8  -1  -3 296.025 15.8407   2
   8  -1  -3 318.034 15.8523   9
  -8   1   3 322.157 17.2088  13
  -8   1   3 302.200 17.7219  12
  -8   1   3 310.044 16.0514  10
   7  -1  -3 673.355 22.3330   2
   7  -1  -3 676.591 22.2007   1
   7  -1  -3 669.174 22.3165   9
  -7   1   3 649.621 23.0190  13
  -7   1   3 646.793 22.1909  10
  -7   1   3 663.011 24.1256  12
   6  -1  -3 69.4851 7.45005   1
   6  -1  -3 82.6308 8.09681   2
   6  -1  -3 74.7490 7.47614   9
  -6   1   3 66.3422 7.51896  10
  -6   1   3 56.0053 7.59929  13
  -6   1   3 72.9981 9.05077  12
   5  -1  -3 49.5804 6.21405   1
   5  -1  -3 56.3932 6.57672   2
   5  -1  -3 31.7096 4.48632   9
  -5   1   3 46.6789 7.28159  12
  -5   1   3 49.0815 6.09268  10
   4  -1  -3 164.064 8.97099   6
   4  -1  -3 163.588 8.83253   1
   4  -1  -3 160.112 8.38843   9
   4  -1  -3 158.400 8.95927   2
  -4   1   3 160.425 8.90321  13
  -4   1   3 172.041 8.51598  10
  -4   1   3 156.459 9.43209  12
   3  -1  -3 26.5715 3.95130   1
   3  -1  -3 28.4391 3.92926   6
   3  -1  -3 23.2489 3.58635   9
  -3   1   3 33.6585 4.56620  13
  -3   1   3 35.9190 4.81206  12
  -3   1   3 28.1275 3.66774  10
   2  -1  -3 198.575 7.44889   9
   2  -1  -3 182.755 7.69820   6
  -2   1   3 195.037 7.92739  12
  -2   1   3 197.317 7.98539  13
  -2   1   3 190.079 6.81649  10
   1  -1  -3 2333.12 47.5978   6
  -1   1   3 2309.95 46.0073  10
  -1   1   3 2358.09 47.6598  12
   0  -1  -3 320.413 8.93176   1
   0  -1  -3 320.485 8.67097   4
   0  -1  -3 323.534 6.99372  10
   0  -1  -3 320.992 8.96739  11
   0  -1  -3 322.487 9.22150   7
   0  -1  -3 308.800 8.63790   6
   0   1   3 315.915 7.01615  10
  -1  -1  -3 25.7287 2.18302   6
  -1  -1  -3 30.2247 2.71275   5
  -1  -1  -3 27.1359 3.02977   7
  -1  -1  -3 25.8626 2.30985   1
   1   1   3 27.7600 2.27755   1
   1   1   3 28.7360 2.29980   6
  -2  -1  -3 94.0802 3.78246  10
  -2  -1  -3 96.5285 5.03288  11
  -2  -1  -3 94.2526 4.59323   4
  -2  -1  -3 99.3734 5.15665   7
  -2  -1  -3 101.795 3.97900   6
  -2  -1  -3 103.161 3.44179   1
  -2  -1  -3 100.456 4.55077   5
   2   1   3 98.9403 4.33511   9
   2   1   3 92.0023 4.06537  13
   2   1   3 94.8323 3.16129   1
   2   1   3 97.2662 5.23290   2
  -3  -1  -3 1907.03 40.2502   7
  -3  -1  -3 1902.80 38.9857  10
  -3  -1  -3 1913.62 38.5933  13
  -3  -1  -3 1962.11 37.1268   8
  -3  -1  -3 1934.06 39.1574   4
   3   1   3 1784.46 36.7389   1
   3   1   3 1936.84 40.3953   2
   3   1   3 1894.58 38.7965   9
  -4  -1  -3 208.824 9.21676  12
  -4  -1  -3 203.439 7.30424   4
  -4  -1  -3 222.027 8.15415  10
  -4  -1  -3 213.252 7.71768  13
  -4  -1  -3 201.612 8.30064   7
   4   1   3 208.607 7.82606   9
   4   1   3 207.817 5.55906   1
   4   1   3 226.062 9.74352   2
  -5  -1  -3 57.7068 6.17698  12
  -5  -1  -3 53.3405 4.86467  13
  -5  -1  -3 63.0835 4.58252   4
  -5  -1  -3 51.2079 5.11689  10
  -5  -1  -3 57.9988 5.45190   7
   5   1   3 56.3654 3.27165   1
   5   1   3 67.5417 5.33324   9
   5   1   3 62.7307 6.53138   2
  -6  -1  -3 263.527 10.7491   7
  -6  -1  -3 254.996 12.4338  12
  -6  -1  -3 256.540 10.8891  10
  -6  -1  -3 243.673 10.6183  13
  -6  -1  -3 251.993 8.82862   4
   6   1   3 242.599 7.82046   1
   6   1   3 251.595 12.7237   2
   6   1   3 266.358 10.7557   9
  -7  -1  -3 -2.7022 3.69073   7
  -7  -1  -3 -0.5746 5.55785  12
  -7  -1  -3 3.42253 2.91766   4
  -7  -1  -3 2.17759 4.27568  13
  -7  -1  -3 2.64034 3.89958  10
   7   1   3 3.91315 6.34065   2
   7   1   3 5.62253 2.41449   1
   7   1   3 1.26231 3.76517   9
  -8  -1  -3 2.98325 4.05263   7
  -8  -1  -3 3.52470 4.26335  10
  -8  -1  -3 1.07788 2.83700   4
  -8  -1  -3 0.01618 4.43901  13
  -8  -1  -3 3.29979 6.18790  12
   8   1   3 1.72724 5.94323   2
   8   1   3 -1.1228 3.86415   9
   8   1   3 -6.1042 2.21540   1
  -9  -1  -3 578.075 19.3145   7
  -9  -1  -3 540.399 22.6635  12
  -9  -1  -3 561.426 20.4217  13
  -9  -1  -3 570.203 21.2109  10
   9   1   3 590.078 22.1743   2
   9   1   3 565.558 20.2032   9
 -10  -1  -3 112.433 11.1967  13
 -10  -1  -3 121.965 13.5312  12
 -10  -1  -3 106.083 11.3814  10
 -10  -1  -3 93.1543 9.30316   7
  10   1   3 110.259 11.6830   2
  10   1   3 111.955 10.5140   9
   9  -2  -3 26.0930 6.82803   1
   9  -2  -3 15.4878 6.31383   9
   9  -2  -3 16.5468 7.11445   2
  -9   2   3 8.23702 8.41533  12
  -9   2   3 4.44666 6.06476  10
  -9   2   3 6.44400 6.98754  13
   8  -2  -3 86.7017 9.75508   2
   8  -2  -3 87.2057 9.62246   1
   8  -2  -3 70.2667 8.58649   9
  -8   2   3 89.4357 11.2073  12
  -8   2   3 79.4744 9.62468  10
  -8   2   3 50.2022 8.88350  13
   7  -2  -3 12.6148 5.50576   2
   7  -2  -3 12.5553 5.35873   1
   7  -2  -3 10.5320 4.76680   9
  -7   2   3 12.9753 6.16515  13
  -7   2   3 7.01265 6.55392  12
  -7   2   3 11.0006 5.27403  10
   6  -2  -3 93.0967 8.59056   1
   6  -2  -3 96.4864 8.58060   9
   6  -2  -3 102.785 8.85394   2
  -6   2   3 96.7550 8.75614  10
  -6   2   3 95.6999 9.26942  13
  -6   2   3 92.6844 10.1723  12
   5  -2  -3 837.109 25.7609   9
   5  -2  -3 1039.81 27.3774   1
   5  -2  -3 1055.16 27.0391   2
  -5   2   3 1041.38 27.8091  13
  -5   2   3 1027.09 26.7995  10
  -5   2   3 1055.10 28.3208  12
   4  -2  -3 762.110 21.0473   2
   4  -2  -3 784.008 21.6851   1
  -4   2   3 771.175 22.0865  12
  -4   2   3 779.953 22.1510  13
  -4   2   3 827.505 21.2994  10
   3  -2  -3 13.1276 3.59247   1
  -3   2   3 11.3515 3.02743  10
  -3   2   3 7.15476 3.49546  13
  -3   2   3 8.55243 3.61495  12
   2  -2  -3 2162.43 45.5872   6
  -2   2   3 2147.57 44.4295  10
  -2   2   3 2164.47 45.4526  13
  -2   2   3 2159.89 45.3763  12
   1  -2  -3 551.343 14.5303   1
   1  -2  -3 562.040 13.0686   4
   1  -2  -3 561.729 14.0408   6
  -1   2   3 557.153 13.1300  10
  -1   2   3 547.813 13.8950  12
  -1   2   3 544.169 13.9652  13
  -1   2   3 550.275 11.5176   3
   0  -2  -3 4586.97 88.4397   7
   0  -2  -3 4532.71 88.2193  11
   0  -2  -3 4553.32 87.5944   6
   0  -2  -3 4510.18 87.9753   4
   0  -2  -3 4533.52 88.6919   1
   0   2   3 4521.11 86.9189  10
   0   2   3 4514.91 87.5235  13
   0   2   3 4506.35 87.7390  12
   0   2   3 4522.24 86.4994   3
  -1  -2  -3 3266.27 63.0744   5
  -1  -2  -3 2767.04 62.6951  11
  -1  -2  -3 3211.26 61.1210   6
  -1  -2  -3 3292.79 63.6199   7
  -1  -2  -3 3267.64 62.6885   1
   1   2   3 3221.77 61.0880   6
   1   2   3 3223.25 61.6136   8
  -2  -2  -3 2092.30 43.0586   4
  -2  -2  -3 2073.72 40.9553   8
   2   2   3 2113.43 42.6927   2
   2   2   3 2130.55 43.0002   9
   2   2   3 2123.54 40.9615   8
   2   2   3 2090.79 40.4809  13
  -3  -2  -3 2719.58 53.3460  13
  -3  -2  -3 2724.30 53.2999   8
  -3  -2  -3 2745.20 56.5397   7
   3   2   3 2726.00 55.4188   9
   3   2   3 2749.37 53.2268  13
   3   2   3 2797.10 55.8069   2
   3   2   3 2718.45 53.2819   8
  -4  -2  -3 380.318 12.4909   7
  -4  -2  -3 387.633 10.4068  13
  -4  -2  -3 404.796 12.4475  12
   4   2   3 370.892 9.78274   8
   4   2   3 394.118 11.8527   9
   4   2   3 379.575 12.3665   2
  -5  -2  -3 17.1573 4.16666   7
  -5  -2  -3 27.5986 4.96265  12
  -5  -2  -3 5.69199 2.10151  13
  -5  -2  -3 19.9757 3.91986  10
   5   2   3 13.9054 4.78077   2
   5   2   3 18.2497 2.64886   1
   5   2   3 15.8605 3.91098   9
  -6  -2  -3 44.5494 5.71862  10
  -6  -2  -3 38.5642 6.26615  12
  -6  -2  -3 40.8652 5.88678   7
  -6  -2  -3 51.4260 5.23558  13
   6   2   3 43.8999 3.92355   1
   6   2   3 32.0362 5.07573   9
   6   2   3 36.1062 6.70586   2
  -7  -2  -3 483.295 16.8806  10
  -7  -2  -3 459.492 15.4129  13
  -7  -2  -3 443.069 17.5152  12
  -7  -2  -3 475.498 16.6824   7
   7   2   3 425.491 17.0639   2
   7   2   3 459.004 13.1891   1
   7   2   3 454.458 16.2824   9
  -8  -2  -3 1219.15 33.6810  10
  -8  -2  -3 1243.87 29.4861   4
  -8  -2  -3 1269.00 32.7779   7
  -8  -2  -3 1291.99 34.9945  12
  -8  -2  -3 1250.40 31.8491  13
   8   2   3 1232.42 33.8763   2
   8   2   3 1203.01 28.8185   1
   8   2   3 1246.08 32.7604   9
  -9  -2  -3 510.941 15.8776   4
  -9  -2  -3 532.313 19.1772  13
  -9  -2  -3 540.552 19.3889   7
  -9  -2  -3 529.869 22.2267  12
   9   2   3 500.610 20.2931   2
   9   2   3 519.604 19.3856   9
 -10  -2  -3 38.6091 9.54695  12
 -10  -2  -3 34.0006 7.47728  13
 -10  -2  -3 44.1089 7.73244   7
  10   2   3 49.4826 8.05774   9
  10   2   3 40.1788 8.54816   2
   8  -3  -3 365.496 17.1085   1
   8  -3  -3 379.169 17.5890   2
  -8   3   3 374.365 19.2780  13
  -8   3   3 374.348 20.0362  12
  -8   3   3 361.055 17.3567  10
   7  -3  -3 626.584 22.1294   1
   7  -3  -3 660.854 22.3425   2
  -7   3   3 616.306 23.3291  13
  -7   3   3 619.300 23.6772  12
  -7   3   3 670.768 22.5382  10
   6  -3  -3 268.881 13.0836   2
   6  -3  -3 235.596 12.8018   1
  -6   3   3 270.440 12.9711  10
  -6   3   3 264.201 14.2655  13
  -6   3   3 261.127 14.6418  12
   5  -3  -3 3.59700 4.12464   1
   5  -3  -3 15.3408 4.84206   2
  -5   3   3 13.3349 6.00950  12
  -5   3   3 5.07993 3.97780  10
  -5   3   3 5.44481 5.09395  13
   4  -3  -3 24.2691 4.64932   2
   4  -3  -3 31.4482 5.11876   1
  -4   3   3 30.8326 5.97511  12
  -4   3   3 36.5511 5.01970  10
  -4   3   3 31.3547 5.72564  13
   3  -3  -3 474.775 15.3012   1
   3  -3  -3 490.974 14.3090   2
  -3   3   3 442.854 14.8282  13
  -3   3   3 502.405 15.2034  12
  -3   3   3 483.222 12.0436   3
  -3   3   3 490.044 14.4293  10
   2  -3  -3 73.7460 3.90171   4
  -2   3   3 72.4905 4.91862  10
  -2   3   3 77.2374 3.68461   3
  -2   3   3 78.0213 5.98660  13
  -2   3   3 90.9330 5.97772  12
   1  -3  -3 181.129 6.46016  11
   1  -3  -3 190.008 6.36475   7
   1  -3  -3 180.233 6.23528   4
   1  -3  -3 179.760 8.04359   1
  -1   3   3 193.104 5.64643   3
  -1   3   3 188.977 6.80384  10
  -1   3   3 179.876 7.12045  13
  -1   3   3 180.680 6.83178  12
   0  -3  -3 157.106 6.93794   1
   0  -3  -3 161.029 6.21385   7
   0   3   3 154.876 5.26234   3
   0   3   3 154.467 5.31975  12
   0   3   3 162.754 5.68622  13
   0   3   3 160.467 5.66564  10
   1   3   3 538.327 12.9415   3
   1   3   3 528.167 11.1778   6
   1   3   3 530.015 11.2502  13
   1   3   3 529.232 12.9033   8
  -2  -3  -3 283.575 9.28768   7
  -2  -3  -3 237.323 8.59383   5
   2   3   3 222.328 8.49883   9
   2   3   3 230.672 6.98292   8
   2   3   3 222.756 7.37124   2
   3   3   3 359.784 10.6346   2
   3   3   3 343.488 9.29040   8
   3   3   3 352.894 11.3063   9
  -4  -3  -3 241.031 10.4276   7
  -4  -3  -3 232.922 6.83879  13
   4   3   3 237.374 9.68705   9
   4   3   3 226.665 9.28767   2
   4   3   3 235.307 7.51763   8
  -5  -3  -3 79.1819 6.64794  12
  -5  -3  -3 69.0058 6.70736   7
  -5  -3  -3 72.4257 4.94158  13
   5   3   3 80.6579 6.60642   9
   5   3   3 75.1392 6.69261   2
   5   3   3 69.4044 4.70107   8
  -6  -3  -3 280.436 12.7031  12
  -6  -3  -3 290.616 10.3142  13
  -6  -3  -3 289.393 13.0984   7
   6   3   3 287.370 9.97997   1
   6   3   3 312.610 12.9488   9
   6   3   3 287.921 12.7566   2
  -7  -3  -3 18.3357 6.11985  12
  -7  -3  -3 15.7368 5.40590   7
  -7  -3  -3 19.8011 4.51217  13
   7   3   3 23.1967 6.22465   2
   7   3   3 25.9085 5.56004   9
   7   3   3 20.9035 3.97477   1
  -8  -3  -3 237.690 14.1408  12
  -8  -3  -3 229.028 13.0099   7
  -8  -3  -3 232.858 11.4422  13
   8   3   3 226.567 9.80773   1
   8   3   3 211.891 12.4757   9
   8   3   3 239.005 13.6815   2
  -9  -3  -3 38.5887 7.58651   7
  -9  -3  -3 43.8410 7.05760  13
  -9  -3  -3 33.6275 8.60345  12
   9   3   3 53.3241 8.28834   2
   9   3   3 40.9869 7.56095   9
 -10  -3  -3 368.465 17.6385   7
 -10  -3  -3 342.757 16.2084  13
 -10  -3  -3 340.177 19.6221  12
  10   3   3 338.675 17.1588   9
  10   3   3 379.620 18.1037   2
   8  -4  -3 519.047 20.6459   2
   8  -4  -3 525.198 21.0838   1
  -8   4   3 500.984 22.6778  13
  -8   4   3 503.377 21.0102  10
  -8   4   3 508.679 23.3906  12
   7  -4  -3 -0.1402 4.87335   1
   7  -4  -3 2.20787 4.61016   2
  -7   4   3 1.20357 4.51632  10
  -7   4   3 -8.4461 5.85296  13
  -7   4   3 2.87984 6.47965  12
   6  -4  -3 150.977 10.6335   1
   6  -4  -3 123.892 9.60721   2
  -6   4   3 151.975 10.3766  10
  -6   4   3 139.109 11.8225  13
  -6   4   3 143.654 12.1110  12
   5  -4  -3 1219.64 31.5107   2
   5  -4  -3 1297.17 33.2089   1
  -5   4   3 1286.73 32.6965  10
  -5   4   3 1244.67 33.4588  13
  -5   4   3 1260.32 33.3673  12
   4  -4  -3 1134.81 27.9095   2
   4  -4  -3 1108.95 29.8074   1
  -4   4   3 1121.41 28.9015  10
  -4   4   3 1132.57 29.3078  12
  -4   4   3 1154.64 26.0384   3
  -4   4   3 1163.92 29.8356  13
   3  -4  -3 3.67659 3.80758   1
  -3   4   3 5.37800 2.27139   3
  -3   4   3 -4.0453 3.91877  12
  -3   4   3 1.18757 2.88608  10
  -3   4   3 2.53166 3.96364  13
   2  -4  -3 11.0985 2.08410   4
  -2   4   3 6.74206 3.34060  12
  -2   4   3 8.59326 2.09445   3
  -2   4   3 9.67203 2.84773  10
  -2   4   3 12.4780 3.64707  13
   1  -4  -3 9.76169 2.13570   4
   1  -4  -3 8.43666 2.86107   5
   1  -4  -3 10.8251 2.24584   7
   1  -4  -3 13.5267 3.58325   1
  -1   4   3 12.8269 2.82990  12
  -1   4   3 12.6207 2.28281   3
  -1   4   3 14.9384 2.82254  10
  -1   4   3 16.9685 3.29650  13
   0  -4  -3 1435.05 32.2043   5
   0  -4  -3 1455.66 32.8438   1
   0   4   3 1417.11 31.8165   8
   0   4   3 1469.46 29.4900  12
   0   4   3 1472.56 30.8172   3
   0   4   3 1458.31 31.5212  10
   0   4   3 1440.15 30.2676  13
  -1  -4  -3 4444.96 84.9897  13
  -1  -4  -3 4388.74 88.3866   7
  -1  -4  -3 4522.61 88.7990   1
   1   4   3 4438.62 87.5331   3
   1   4   3 4430.88 85.1403  13
   1   4   3 4476.16 87.8940   8
   1   4   3 4501.30 85.3385   2
   1   4   3 4380.62 85.0114   6
  -2  -4  -3 6308.94 123.653   7
   2   4   3 6364.61 120.151   2
   2   4   3 6315.09 121.622   8
   2   4   3 6130.34 122.404   3
   2   4   3 6282.27 123.548   9
   2   4   3 6218.20 119.322  12
  -3  -4  -3 2552.50 54.1376   7
   3   4   3 2531.04 51.3701   8
   3   4   3 2488.17 50.8295   2
   3   4   3 2534.68 53.5957   9
  -4  -4  -3 22.5721 1.98979   6
  -4  -4  -3 8.52390 2.20461  12
  -4  -4  -3 18.8010 2.10443  13
   4   4   3 24.2028 3.22962   8
   4   4   3 17.0090 4.41784   9
   4   4   3 23.3018 4.08794   2
  -5  -4  -3 641.800 19.7981   7
  -5  -4  -3 609.531 14.8396  13
  -5  -4  -3 609.034 17.5504  12
   5   4   3 619.535 17.5994   2
   5   4   3 614.171 16.4101   8
   5   4   3 628.528 18.8226   9
  -6  -4  -3 3.14258 4.93585   7
  -6  -4  -3 6.28339 3.13175  13
  -6  -4  -3 0.02506 4.59033  12
   6   4   3 5.80810 4.65120   9
   6   4   3 1.24774 3.27712   1
   6   4   3 3.21257 4.61583   2
   6   4   3 2.64569 2.73049   8
  -7  -4  -3 689.850 22.8632   7
  -7  -4  -3 662.587 18.5535  13
  -7  -4  -3 685.844 21.8919  12
   7   4   3 696.356 19.2586   1
   7   4   3 684.465 21.1605   2
   7   4   3 716.171 22.4426   9
  -8  -4  -3 1138.56 28.9955  13
  -8  -4  -3 1181.92 32.7810  12
  -8  -4  -3 1165.90 33.0504   7
   8   4   3 1150.17 28.8518   1
   8   4   3 1147.33 32.2379   9
   8   4   3 1161.83 31.5332   2
  -9  -4  -3 168.899 13.6925  12
  -9  -4  -3 162.683 13.0877   7
  -9  -4  -3 159.943 10.3740  13
   9   4   3 159.294 12.4761   9
   9   4   3 185.927 14.8081   1
   9   4   3 150.001 12.0306   2
 -10  -4  -3 381.955 18.9837   7
 -10  -4  -3 405.203 20.5865  12
  10   4   3 361.252 18.4263   9
  10   4   3 396.321 18.6670   2
   8  -5  -3 98.5704 10.2609   2
   8  -5  -3 87.9884 10.5989   1
  -8   5   3 104.786 12.6463  13
  -8   5   3 103.106 12.7969  12
  -8   5   3 75.6110 10.1075  10
   7  -5  -3 20.3765 6.46503   1
   7  -5  -3 18.5890 5.89456   2
  -7   5   3 16.5002 7.76444  12
  -7   5   3 22.5503 6.30077  10
  -7   5   3 29.5251 7.93786  13
   6  -5  -3 731.645 24.0151   1
   6  -5  -3 699.948 21.9099   2
  -6   5   3 709.333 24.4426  12
  -6   5   3 675.145 23.0988  10
  -6   5   3 678.539 24.4766  13
   5  -5  -3 46.1823 6.16283   2
   5  -5  -3 51.0509 7.38510   1
  -5   5   3 60.4676 8.29865  13
  -5   5   3 45.5595 7.57967  12
  -5   5   3 53.4855 7.20641  10
   4  -5  -3 225.530 10.1274   2
   4  -5  -3 226.129 12.2277   1
  -4   5   3 223.810 12.1183  12
  -4   5   3 199.142 11.7901  13
  -4   5   3 242.009 11.4561  10
  -4   5   3 211.544 8.91515   3
   3  -5  -3 315.276 13.7621   1
   3  -5  -3 287.868 8.86909   4
  -3   5   3 344.869 12.6869  10
  -3   5   3 343.822 12.7856  12
  -3   5   3 344.704 10.7756   3
  -3   5   3 356.620 13.8341  13
   2  -5  -3 14.9350 2.74479   4
   2  -5  -3 11.2168 2.12036   7
   2  -5  -3 11.2197 3.68398   5
  -2   5   3 15.8999 3.70063  10
  -2   5   3 11.2083 2.75748   3
  -2   5   3 7.93249 3.67771  12
  -2   5   3 10.0696 4.27908  13
   1  -5  -3 186.822 8.86826   5
   1  -5  -3 194.703 9.90205   1
   1  -5  -3 205.269 7.68369   4
  -1   5   3 196.621 7.37422  12
  -1   5   3 197.500 7.60208   3
  -1   5   3 197.015 8.47222  13
  -1   5   3 188.439 8.44994  10
   0  -5  -3 503.134 14.7959   5
   0  -5  -3 490.414 13.1924  11
   0  -5  -3 495.951 15.5945   1
   0  -5  -3 468.320 13.5588   7
   0   5   3 497.448 12.8810  13
   0   5   3 476.489 11.1036  12
   0   5   3 479.739 13.4434   3
   0   5   3 487.400 14.2076  10
   0   5   3 491.978 14.6237   8
  -1  -5  -3 832.734 17.6133  13
  -1  -5  -3 820.760 20.9386   7
  -1  -5  -3 814.452 21.2275   5
   1   5   3 836.949 18.3918   6
   1   5   3 826.624 20.8149   8
   1   5   3 818.927 17.7085  13
   1   5   3 806.808 20.2421   3
  -2  -5  -3 704.266 19.5737   7
   2   5   3 702.813 14.9049   2
   2   5   3 710.893 18.0890   8
   2   5   3 704.377 19.7731   9
   2   5   3 682.237 18.3246   3
  -3  -5  -3 8.04854 4.35704   7
   3   5   3 7.40921 2.70768   2
   3   5   3 4.65843 3.47977   9
   3   5   3 9.50579 1.87727  12
   3   5   3 5.20844 2.95959   3
   3   5   3 5.85293 2.89147   8
  -4  -5  -3 1262.02 33.7743   7
   4   5   3 1424.66 31.3980   8
   4   5   3 1403.38 33.7667   9
   4   5   3 1421.57 30.1649   2
  -5  -5  -3 270.654 10.2898  12
  -5  -5  -3 233.698 7.35642  13
   5   5   3 246.132 9.73019   8
   5   5   3 248.827 12.4095   9
   5   5   3 220.731 9.81602   2
  -6  -5  -3 1238.54 33.8308   7
  -6  -5  -3 1246.72 30.6893  12
   6   5   3 1242.95 30.2046   2
   6   5   3 1230.21 29.8844   8
   6   5   3 1279.77 32.9894   9
  -7  -5  -3 495.398 19.7617   7
  -7  -5  -3 494.739 17.5279  12
  -7  -5  -3 463.441 14.3051  13
   7   5   3 481.879 16.8360   2
   7   5   3 510.003 18.9824   9
   7   5   3 488.720 15.9122   8
   7   5   3 474.841 16.0794   1
  -8  -5  -3 405.290 18.8766  13
  -8  -5  -3 348.302 17.6569   7
  -8  -5  -3 349.650 16.2941  12
   8   5   3 354.184 16.8221   9
   8   5   3 362.584 15.5065   2
   8   5   3 349.986 13.9927   1
  -9  -5  -3 11.2990 7.19612  12
  -9  -5  -3 16.8496 7.45880   7
   9   5   3 22.8738 6.35720   2
   9   5   3 14.0370 6.24861   9
   9   5   3 13.2835 5.21336   1
   7  -6  -3 187.199 12.1203   2
   7  -6  -3 178.193 13.4658   1
  -7   6   3 173.731 14.9100  13
  -7   6   3 182.011 13.4616  10
  -7   6   3 174.183 14.5171  12
   6  -6  -3 351.041 17.1428   1
   6  -6  -3 319.047 14.2043   2
  -6   6   3 357.196 16.4179  10
  -6   6   3 341.116 17.2133  12
  -6   6   3 342.300 17.4026  13
   5  -6  -3 1173.26 33.1197   1
   5  -6  -3 1147.25 29.6786   2
  -5   6   3 1177.16 32.0215  12
  -5   6   3 1134.70 32.9263  13
  -5   6   3 1168.02 28.8211   3
  -5   6   3 1159.58 32.2961  10
   4  -6  -3 1007.58 26.9646   5
   4  -6  -3 984.862 29.0188   1
  -4   6   3 997.353 27.9201  10
  -4   6   3 1001.02 27.0029  12
  -4   6   3 977.655 28.2215  13
  -4   6   3 976.245 24.8383   3
   3  -6  -3 13.7220 4.59689   5
   3  -6  -3 9.43652 2.56395   4
   3  -6  -3 13.3061 5.46228   1
  -3   6   3 4.23988 3.01727   3
  -3   6   3 4.88450 3.68910  10
  -3   6   3 4.90831 4.66536  12
  -3   6   3 7.20865 4.94347  13
   2  -6  -3 16.5435 3.18867   4
   2  -6  -3 20.3602 2.74318   7
   2  -6  -3 14.9723 4.42600   5
   2  -6  -3 28.0789 5.49316   1
  -2   6   3 23.7282 3.81399   3
  -2   6   3 7.36814 4.58383  13
  -2   6   3 12.0769 4.15495  10
  -2   6   3 17.7450 4.35853  12
   1  -6  -3 43.5389 4.28977   7
   1  -6  -3 47.6941 5.79579   5
   1  -6  -3 44.2279 4.02765  11
  -1   6   3 49.6946 4.23342  12
  -1   6   3 54.7692 5.65956  13
  -1   6   3 47.9467 5.59999  10
  -1   6   3 53.4761 5.01330   3
  -1   6   3 49.8862 5.98017   8
   0  -6  -3 3.40966 2.66359  11
   0  -6  -3 0.64655 2.94033   7
   0  -6  -3 9.41341 4.10355   5
   0   6   3 2.52634 3.43845   8
   0   6   3 7.54541 3.34102  10
   0   6   3 1.06782 2.52411   3
   0   6   3 1.39592 2.85769  13
  -1  -6  -3 570.283 17.3334   5
  -1  -6  -3 538.529 16.5080   7
   1   6   3 561.648 13.3793  13
   1   6   3 546.856 16.6854   8
   1   6   3 545.842 13.4802   6
   1   6   3 567.461 16.2237   3
  -2  -6  -3 1780.23 40.6755   7
   2   6   3 1754.37 39.3866   8
   2   6   3 1750.00 39.7283   3
  -3  -6  -3 899.516 24.7959   7
   3   6   3 807.122 23.9532   9
   3   6   3 851.068 23.0146   3
   3   6   3 867.416 18.1331   2
   3   6   3 867.009 22.2603   8
   4   6   3 908.923 26.1839   9
   4   6   3 969.031 24.1448   8
   4   6   3 948.717 21.2561   2
   4   6   3 932.921 25.3462   3
  -5  -6  -3 124.008 6.89845  12
   5   6   3 147.467 9.49177   3
   5   6   3 152.018 8.59685   8
   5   6   3 155.166 11.3653   9
   5   6   3 150.227 7.55888   2
  -6  -6  -3 273.135 11.6201  12
   6   6   3 317.202 12.2160   8
   6   6   3 291.465 11.3930   2
   6   6   3 266.102 14.3039   9
  -7  -6  -3 43.5203 6.69686  12
  -7  -6  -3 57.3463 8.95683   7
   7   6   3 51.3785 6.17122   8
   7   6   3 53.8697 6.92096   1
   7   6   3 49.6633 7.84952   9
   7   6   3 56.9813 6.51480   2
  -8  -6  -3 628.817 24.4491   7
  -8  -6  -3 627.859 21.4932  12
   8   6   3 637.771 20.2360   8
   8   6   3 614.843 23.4562   9
   8   6   3 623.732 20.5924   1
   8   6   3 627.850 20.3287   2
  -9  -6  -3 37.7394 8.34634  12
  -9  -6  -3 25.4894 8.07257   7
   9   6   3 39.2033 6.80059   2
   9   6   3 41.6305 7.26398   1
   9   6   3 41.8215 8.35312   9
   6  -7  -3 82.4700 10.2322   1
   6  -7  -3 99.2902 9.64985   5
  -6   7   3 68.1421 9.83476  12
  -6   7   3 88.3075 10.1418  10
  -6   7   3 85.3010 11.0417  13
   5  -7  -3 67.2686 9.48200   1
   5  -7  -3 70.2873 8.11401   5
  -5   7   3 64.4435 8.78857  12
  -5   7   3 72.6215 8.74989  10
  -5   7   3 74.6600 7.19137   3
  -5   7   3 69.7243 9.69245  13
   4  -7  -3 231.836 12.1812   5
   4  -7  -3 200.272 13.3824   1
  -4   7   3 238.693 13.7420  13
  -4   7   3 228.228 12.8425  10
  -4   7   3 219.179 10.4544   3
  -4   7   3 205.421 12.1348  12
   3  -7  -3 745.633 18.1802   4
   3  -7  -3 746.812 22.1776   5
   3  -7  -3 729.750 24.2047   1
  -3   7   3 714.235 23.2836   8
  -3   7   3 732.697 22.8883  13
  -3   7   3 745.016 20.7167  12
  -3   7   3 736.325 22.8377  10
  -3   7   3 734.779 20.5581   3
   2  -7  -3 484.686 16.9769   5
   2  -7  -3 480.839 18.6142   1
   2  -7  -3 496.346 14.3221   4
  -2   7   3 513.886 15.9019   3
  -2   7   3 531.264 17.3511  13
  -2   7   3 471.383 16.9759  10
  -2   7   3 502.989 18.1700   8
  -2   7   3 497.940 14.5231  12
   1  -7  -3 31.3782 4.12290   7
   1  -7  -3 29.6547 5.83226   5
   1  -7  -3 25.2822 3.61714  11
  -1   7   3 38.1898 5.75559  10
  -1   7   3 32.7156 5.92057   8
  -1   7   3 42.9924 3.60286  12
  -1   7   3 26.6955 4.91966  13
  -1   7   3 31.5773 4.76653   3
   0  -7  -3 392.563 14.6064   5
   0  -7  -3 402.205 12.1829  11
   0  -7  -3 361.933 12.8748   7
   0   7   3 370.998 14.0082  10
   0   7   3 364.487 14.7072   8
   0   7   3 363.649 13.2393   3
   0   7   3 384.806 11.9735  13
  -1  -7  -3 1021.69 26.9847   5
  -1  -7  -3 966.538 25.8406   7
   1   7   3 1006.72 25.9046   3
   1   7   3 1000.84 26.5284  10
   1   7   3 988.277 22.5596   6
   1   7   3 982.030 26.5419   8
   1   7   3 1031.24 27.8241   9
  -2  -7  -3 383.979 14.9584   7
   2   7   3 361.907 15.0219   9
   2   7   3 372.368 13.8712   8
   2   7   3 384.176 13.9229   3
   2   7   3 366.848 9.38548   6
  -3  -7  -3 349.444 15.4256   7
   3   7   3 326.781 13.5326   3
   3   7   3 355.902 15.0340   9
   3   7   3 349.479 13.3110   8
   4   7   3 278.663 14.1140   9
   4   7   3 294.285 12.8704   3
   4   7   3 288.990 12.0647   8
   5   7   3 568.328 17.8950   8
   5   7   3 518.126 18.7224   3
   5   7   3 534.146 20.0149   9
   6   7   3 485.130 19.7141   9
   6   7   3 501.614 17.0913   8
   6   7   3 512.866 17.9413   2
   6   7   3 479.531 18.4624   3
  -7  -7  -3 316.770 17.3490   7
   7   7   3 292.052 14.7397   2
   7   7   3 286.483 16.3427   9
   7   7   3 287.120 14.7851   3
   7   7   3 276.367 12.8919   8
  -8  -7  -3 1.13043 6.69004   7
   8   7   3 1.82398 3.79148   8
   8   7   3 -4.5995 5.72109   9
   8   7   3 -2.3004 4.32710   1
   8   7   3 -9.9619 4.40700   3
   5  -8  -3 22.5490 6.38100   5
   5  -8  -3 12.3145 6.82268   1
  -5   8   3 11.0270 5.91607  10
  -5   8   3 11.7434 6.62294   8
  -5   8   3 14.6154 4.77895   3
  -5   8   3 12.3848 7.17793  13
   4  -8  -3 1076.21 29.9775   5
   4  -8  -3 1052.79 32.6007   1
  -4   8   3 1085.15 31.7113  10
  -4   8   3 1075.58 32.4575   8
  -4   8   3 1084.97 31.7593  13
  -4   8   3 1050.47 28.4234   3
   3  -8  -3 156.891 13.1745   1
   3  -8  -3 170.417 10.8718   5
  -3   8   3 174.177 11.3676  10
  -3   8   3 168.871 12.2759  13
  -3   8   3 174.914 9.92880   3
  -3   8   3 196.978 13.1007   8
   2  -8  -3 624.606 20.3710   5
   2  -8  -3 637.116 17.7232   4
  -2   8   3 668.675 20.6165  13
  -2   8   3 622.485 21.0139  10
  -2   8   3 652.271 22.1970   8
  -2   8   3 597.116 19.2335   3
   1  -8  -3 270.523 10.4123   7
   1  -8  -3 262.782 12.9026   5
   1  -8  -3 263.733 9.37360  11
  -1   8   3 261.905 13.4052   8
  -1   8   3 266.987 11.6654   3
  -1   8   3 239.160 11.1097  13
  -1   8   3 267.153 12.6635  10
   0  -8  -3 396.922 15.8770   5
   0  -8  -3 402.209 12.8983  11
   0  -8  -3 405.033 14.1583   7
   0   8   3 400.648 13.2062   6
   0   8   3 407.068 12.8968  13
   0   8   3 402.098 16.1410   8
   0   8   3 406.975 14.6571   3
   0   8   3 379.464 15.4872  10
  -1  -8  -3 614.367 19.3894   7
   1   8   3 609.716 19.9413  10
   1   8   3 645.066 20.3663   8
   1   8   3 600.475 15.9008   6
   1   8   3 579.451 18.9293   3
   1   8   3 627.929 21.1066   9
  -2  -8  -3 87.2166 8.56453   7
   2   8   3 99.4651 9.39587   9
   2   8   3 87.1926 7.89469   3
   2   8   3 91.0703 8.38371   8
  -3  -8  -3 205.199 12.9273   7
   3   8   3 197.601 12.6686   9
   3   8   3 201.027 11.1208   3
   3   8   3 215.305 11.2216   8
   4   8   3 363.203 16.6809   9
   4   8   3 363.004 14.6669   8
   4   8   3 382.589 15.7769   3
   5   8   3 40.8879 7.75307   9
   5   8   3 47.8655 6.93902   3
   5   8   3 34.3180 5.93337   8
   6   8   3 846.900 25.0122   8
   6   8   3 839.664 26.9328   3
   6   8   3 828.475 27.9166   9
  -7  -8  -3 253.207 17.1773   7
   7   8   3 241.790 16.3026   9
   7   8   3 257.968 14.9868   3
   7   8   3 240.968 12.9890   8
  -8  -8  -3 546.585 24.3850   7
   8   8   3 541.272 20.0470   8
   8   8   3 563.270 24.0432   9
   8   8   3 506.578 20.6501   1
   8   8   3 539.781 22.4743   3
   4  -9  -3 16.5617 5.97426   5
   4  -9  -3 26.9289 8.19133   1
  -4   9   3 17.8277 4.95738   3
  -4   9   3 10.6620 7.22386  13
  -4   9   3 14.0712 6.32326  10
  -4   9   3 16.1531 6.97900   8
   3  -9  -3 1022.06 28.9054   5
  -3   9   3 920.970 27.2520   3
  -3   9   3 1012.08 31.3710   8
  -3   9   3 1001.40 30.5503  10
  -3   9   3 975.230 29.0709  13
   2  -9  -3 8.54465 4.10911   4
   2  -9  -3 3.83081 5.26766   5
  -2   9   3 7.58836 4.23545   3
  -2   9   3 4.24671 4.71248  10
  -2   9   3 6.35600 5.00489  13
  -2   9   3 6.63016 5.76361   8
   1  -9  -3 207.960 14.2047   7
   1  -9  -3 210.903 12.6296   5
  -1   9   3 188.154 10.6475   3
  -1   9   3 196.097 10.4702  13
  -1   9   3 175.867 12.6492   8
  -1   9   3 187.333 11.9798  10
   0  -9  -3 469.328 16.1864   7
   0  -9  -3 448.631 14.4635  11
   0   9   3 450.488 16.7721   3
   0   9   3 491.497 19.6514   9
   0   9   3 463.149 18.2373  10
   0   9   3 472.377 18.6176   8
  -1  -9  -3 91.0555 8.71035   7
   1   9   3 90.4168 9.60779   9
   1   9   3 99.8039 8.80576   3
   1   9   3 82.8887 8.84446  10
   1   9   3 107.673 9.90984   8
  -2  -9  -3 230.425 13.2498   7
   2   9   3 232.012 13.9362   9
   2   9   3 238.284 12.9974   8
   2   9   3 223.429 12.2090   3
  -3  -9  -3 776.507 25.6491   7
   3   9   3 764.539 24.1335   8
   3   9   3 762.073 24.3079   3
   3   9   3 798.057 26.3212   9
  -4  -9  -3 8.07041 6.51662   7
   4   9   3 11.2905 4.90495   8
   4   9   3 8.48839 4.90037   3
   4   9   3 3.47859 5.80335   9
  -5  -9  -3 446.963 20.7319   7
   5   9   3 417.613 18.3476   3
   5   9   3 435.753 20.0830   9
   5   9   3 422.170 17.1942   8
  -6  -9  -3 65.1777 10.5037   7
   6   9   3 50.4107 7.41944   8
   6   9   3 42.7302 7.63960   3
   6   9   3 52.8581 9.18665   9
   7   9   3 124.290 12.0725   3
   3 -10  -3 656.094 22.9485   5
  -3  10   3 644.988 25.4922   8
  -3  10   3 652.676 23.1083  13
  -3  10   3 625.130 21.9176   3
  -3  10   3 649.207 24.4007  10
   2 -10  -3 3.35747 6.14271   5
  -2  10   3 -4.0850 4.62441  10
  -2  10   3 2.23658 6.00371   8
  -2  10   3 -0.8093 3.99429   3
   1 -10  -3 86.7829 10.0974   5
  -1  10   3 92.6604 10.0113  10
  -1  10   3 92.4676 8.88988   3
  -1  10   3 86.7020 10.3622   8
   0 -10  -3 46.9339 6.69185   7
   0  10   3 48.2712 8.36308   9
   0  10   3 63.6314 8.51679  10
   0  10   3 44.2538 6.94881   3
   0  10   3 46.6266 7.97391   8
  -1 -10  -3 537.141 17.7080  11
  -1 -10  -3 558.368 19.8925   7
   1  10   3 613.818 22.9573   9
   1  10   3 539.593 21.0331  10
   1  10   3 534.125 19.9110   3
   1  10   3 574.476 21.4042   8
  -2 -10  -3 19.6104 6.63259   7
   2  10   3 32.7098 7.62572   9
   2  10   3 20.9242 6.13091  10
   2  10   3 20.9264 5.74560   3
   2  10   3 23.7084 6.25878   8
  -3 -10  -3 110.454 11.3564   7
   3  10   3 99.5235 10.0877   3
   3  10   3 89.2668 10.4566   9
   3  10   3 91.3997 9.50841   8
  -4 -10  -3 12.2477 7.20433   7
   4  10   3 -6.7475 4.35241   8
   4  10   3 6.75813 6.24627   9
   4  10   3 3.46009 5.15181   3
  -5 -10  -3 33.3252 9.03665   7
   5  10   3 27.4567 6.98198   3
   5  10   3 35.0229 8.62466   9
   5  10   3 43.6210 7.48698   8
   0  11   3 5.03093 4.96827   3
   0  11   3 9.65353 6.85947   9
   0  11   3 4.96084 6.06706   8
   0  11   3 -0.8417 5.18517  10
  -1 -11  -3 28.1245 7.28541   7
   1  11   3 28.4334 7.42766   8
   1  11   3 33.5788 8.13884   9
   1  11   3 27.1728 7.04125  10
   1  11   3 21.3395 6.20928   3
  -2 -11  -3 0.83609 6.21014   7
   2  11   3 -0.8173 6.43604   9
   2  11   3 -0.0162 5.01034   3
   2  11   3 6.11413 5.89981  10
   2  11   3 4.28540 5.68870   8
   2  10  -4 -0.8924 4.37635   6
   2  10  -4 -3.0701 5.14140   3
   2  10  -4 -3.4346 5.42717   8
   2  10  -4 -4.6351 5.41410   9
   1  10  -4 123.819 10.5320   9
   1  10  -4 122.232 12.0142   8
   1  10  -4 124.205 12.2019  10
   1  10  -4 150.482 13.0372   3
   1  10  -4 117.836 11.1494   6
   0  10  -4 3.24086 5.96078   8
   0  10  -4 12.1016 5.50831   3
   0  10  -4 1.26877 4.56318   6
   0  10  -4 4.62104 5.21670   9
   0  10  -4 7.64096 5.62224  10
  -1  10  -4 0.17736 4.54139   9
  -1  10  -4 10.4934 5.62532   3
  -1  10  -4 4.19785 4.98003   6
  -1  10  -4 0.34020 5.30915  10
  -1  10  -4 1.30559 5.77522   8
  -2  10  -4 83.1636 10.0779   3
  -2  10  -4 75.9074 10.1137   8
  -2  10  -4 81.9852 9.90069   6
  -2  10  -4 53.2735 8.78891  10
  -3  10  -4 168.413 13.0085   3
  -3  10  -4 145.615 13.2020   6
  -3  10  -4 146.373 13.3362  10
  -3  10  -4 122.893 12.5014   8
   4   9  -4 209.215 14.4050   9
   4   9  -4 215.236 16.2294   1
   4   9  -4 217.606 13.5589   6
   4   9  -4 231.511 15.3715   8
   4   9  -4 224.240 14.0742   3
   3   9  -4 216.786 14.7488   8
   3   9  -4 218.221 13.2053   6
   3   9  -4 217.756 13.4661   9
   3   9  -4 216.550 13.7500   3
   2   9  -4 9.87144 5.01015   6
   2   9  -4 -2.0102 4.63038   3
   2   9  -4 -2.4262 4.65828   9
   2   9  -4 7.62699 5.49316   8
   1   9  -4 207.064 12.1145   9
   1   9  -4 180.188 13.3716   8
   1   9  -4 193.401 12.9146   3
   1   9  -4 189.925 12.2554   6
  -1  -9   4 202.736 10.2909  12
   0   9  -4 106.743 10.3401   8
   0   9  -4 108.550 9.03173   9
   0   9  -4 114.513 10.1743   3
   0   9  -4 102.091 9.77223   6
   0   9  -4 112.091 10.5821  10
   0  -9   4 124.459 8.38558  12
  -1   9  -4 31.1091 6.41933   6
  -1   9  -4 27.2844 6.61386  10
  -1   9  -4 22.4810 5.87213   3
  -1   9  -4 18.7170 6.40231   8
  -1   9  -4 22.4072 5.32403   9
  -2   9  -4 92.2377 10.2863   8
  -2   9  -4 87.4514 7.87829   9
  -2   9  -4 90.5771 9.91349  10
  -2   9  -4 82.3855 9.54598   3
  -2   9  -4 86.8803 9.88295   6
  -3   9  -4 79.1835 7.36559   9
  -3   9  -4 86.5617 10.0435   6
  -3   9  -4 89.4489 10.1996   3
  -3   9  -4 95.7376 10.7559  10
  -3   9  -4 101.437 10.4195   8
  -4   9  -4 458.045 20.0521  10
  -4   9  -4 445.820 20.6133   6
  -4   9  -4 467.660 20.2569   8
  -4   9  -4 505.875 20.5193   3
  -5   9  -4 -7.2507 5.52928   6
  -5   9  -4 -4.2988 4.70994   3
  -5   9  -4 -0.4198 6.15816   8
  -5   9  -4 4.20060 5.50009  10
  -5   9  -4 2.24645 6.08734  13
   5   8  -4 37.7238 6.97607   6
   5   8  -4 55.3137 8.08630   3
   5   8  -4 47.4856 9.29344   1
   5   8  -4 38.9867 7.65901   8
   5   8  -4 37.2072 7.92249   9
  -5  -8   4 50.3545 7.70284  12
   4   8  -4 37.4116 7.20548   9
   4   8  -4 38.0908 6.86699   6
   4   8  -4 47.2610 8.79182   1
   4   8  -4 37.5081 7.33221   8
   4   8  -4 58.1361 7.92121   3
  -4  -8   4 50.5857 6.85851  12
   3   8  -4 312.158 15.1434   9
   3   8  -4 297.579 14.8977   3
   3   8  -4 329.668 16.4276   8
   3   8  -4 342.144 15.6154   6
  -3  -8   4 327.814 13.7867  12
   2   8  -4 151.611 10.6706   9
   2   8  -4 102.723 9.54084   3
   2   8  -4 121.823 10.4983   8
   2   8  -4 115.144 9.71351   6
  -2  -8   4 132.670 8.89917  12
   1   8  -4 2752.35 60.1530   9
   1   8  -4 2760.96 62.7728   3
   1   8  -4 2696.73 62.6780   6
   1   8  -4 2810.25 63.4754   8
  -1  -8   4 2684.49 59.0865  12
   0   8  -4 7.64990 4.61241   6
   0   8  -4 7.30818 5.22281   8
   0   8  -4 6.43442 4.81620  10
   0   8  -4 12.5735 4.78870   9
   0   8  -4 10.2227 4.53381   3
   0  -8   4 11.4745 4.29263   2
  -1   8  -4 7.31734 4.48709   3
  -1   8  -4 4.11938 3.81381   9
  -1   8  -4 3.24606 4.32692  10
  -1   8  -4 7.83579 4.54117   6
  -1   8  -4 8.52070 4.90073   8
   1  -8   4 -2.7246 4.12258   2
  -2   8  -4 56.9354 7.96010   8
  -2   8  -4 64.2174 8.27214   6
  -2   8  -4 78.1666 6.80599   9
  -2   8  -4 85.1422 8.64160   3
  -2   8  -4 75.6390 8.60105  10
   2  -8   4 64.4481 7.35803   2
  -3   8  -4 8.25005 4.37031  10
  -3   8  -4 3.07252 5.01438   8
  -3   8  -4 6.22150 4.61783   3
  -3   8  -4 9.38859 5.32642   6
  -3   8  -4 -1.0879 3.15455   9
   3  -8   4 -4.7881 5.03890   2
  -4   8  -4 95.4466 10.2162  13
  -4   8  -4 69.7842 9.22404   6
  -4   8  -4 89.3618 9.70900   8
  -4   8  -4 97.9671 10.0093  10
  -4   8  -4 72.0740 8.51468   3
  -4   8  -4 92.6398 7.51244   9
   4  -8   4 89.4555 9.04046   2
  -5   8  -4 167.880 12.8814   8
  -5   8  -4 165.108 12.2291   3
  -5   8  -4 190.895 14.0831   6
  -5   8  -4 202.530 14.2880  13
  -5   8  -4 159.637 12.1577  10
   5  -8   4 185.943 12.6254   2
  -6   8  -4 200.965 13.8389  10
  -6   8  -4 231.763 14.8657   8
  -6   8  -4 196.470 15.0035  13
  -6   8  -4 218.203 13.6867   3
  -6   8  -4 193.431 15.6090   6
   6  -8   4 221.695 14.2399   2
   6   7  -4 -14.559 4.75963   9
   6   7  -4 3.82725 4.90411   6
   6   7  -4 -4.7472 4.43630   8
   6   7  -4 -2.2932 5.51873   1
   6   7  -4 -0.8941 4.00828   3
  -6  -7   4 13.9287 6.23600  12
   5   7  -4 -2.2335 4.45499   8
   5   7  -4 -7.4092 3.46043   3
   5   7  -4 -0.8486 5.10326   9
   5   7  -4 2.64563 3.99071   6
   5   7  -4 -4.4972 4.69633   1
  -5  -7   4 4.48675 4.80089  12
   4   7  -4 50.8197 7.42099   8
   4   7  -4 36.8472 7.60243   1
   4   7  -4 38.2945 6.53422   6
   4   7  -4 45.4180 6.74886   3
   4   7  -4 37.6898 6.73155   9
  -4  -7   4 52.0535 6.91542  12
   3   7  -4 95.9003 9.44427   6
   3   7  -4 102.946 9.02013   3
   3   7  -4 105.928 9.69958   8
   3   7  -4 100.438 9.01680   9
  -3  -7   4 101.036 8.65046  12
   2   7  -4 643.722 21.4313   6
   2   7  -4 656.882 20.2389   9
   2   7  -4 645.562 21.1256   3
   2   7  -4 661.513 21.9378   8
  -2  -7   4 666.146 19.7395  12
   1   7  -4 107.682 9.08147   8
   1   7  -4 105.217 8.24829   9
   1   7  -4 108.278 9.39821   6
   1   7  -4 101.295 8.80607   3
  -1  -7   4 100.941 7.53887  12
   0   7  -4 120.466 9.53836   6
   0   7  -4 127.842 8.39090   9
   0   7  -4 107.613 8.68786   3
   0   7  -4 117.800 9.67276   8
   0  -7   4 141.429 8.19513   2
  -1   7  -4 1204.04 31.7119   3
  -1   7  -4 1168.27 28.5407   9
  -1   7  -4 1197.61 31.6669   8
  -1   7  -4 1235.75 32.0523  10
  -1   7  -4 1187.20 32.3463   6
   1  -7   4 1192.38 29.0233   2
  -2   7  -4 -0.1285 3.81640   3
  -2   7  -4 -0.1633 3.03761   9
  -2   7  -4 2.22505 4.41128   6
  -2   7  -4 6.12387 4.19019  10
  -2   7  -4 -3.6359 4.08141   8
   2  -7   4 6.17348 4.84086   2
  -3   7  -4 4308.94 89.9344   8
  -3   7  -4 4180.91 91.4158   6
  -3   7  -4 4203.54 90.3655  10
  -3   7  -4 4249.15 85.6426   9
  -3   7  -4 4201.73 90.2396   3
   3  -7   4 4248.80 87.7976   2
  -4   7  -4 -3.4313 4.54444  13
  -4   7  -4 -3.1687 3.72750  10
  -4   7  -4 0.49732 4.95753   6
  -4   7  -4 1.28896 4.01512   3
  -4   7  -4 -2.9948 4.27253   8
   4  -7   4 1.16591 5.33127   2
  -5   7  -4 91.7709 9.63903  10
  -5   7  -4 59.2337 8.72500   6
  -5   7  -4 77.9638 8.40158   3
  -5   7  -4 86.8884 9.70311  13
  -5   7  -4 93.2727 9.26120   8
   5  -7   4 82.4072 9.18230   2
  -6   7  -4 7.51102 6.06933  13
  -6   7  -4 0.65367 4.38898  10
  -6   7  -4 4.19545 4.62058   3
  -6   7  -4 3.75138 5.19198   8
   6  -7   4 3.04678 6.01972   2
  -7   7  -4 22.9796 7.99877  13
  -7   7  -4 12.3843 6.01636   8
  -7   7  -4 12.4580 6.04119  10
  -7   7  -4 24.5802 6.68341   3
   7  -7   4 12.2700 6.96394   2
   7   6  -4 82.9680 10.1143   9
   7   6  -4 76.6575 10.3089   1
   7   6  -4 88.9239 10.2252   8
   7   6  -4 76.0281 9.81508   6
   7   6  -4 68.3753 8.47956   3
  -7  -6   4 70.3895 9.90983  12
  -7  -6   4 76.1193 9.96636  13
   6   6  -4 38.3772 7.27011   8
   6   6  -4 36.0299 7.54338   9
   6   6  -4 29.6916 6.63507   6
   6   6  -4 29.4928 7.34706   1
   6   6  -4 40.5232 6.52079   3
  -6  -6   4 25.2021 6.91050  12
   5   6  -4 122.581 10.0428   6
   5   6  -4 122.678 10.9538   8
   5   6  -4 90.3182 8.59841   3
   5   6  -4 91.9173 9.27015   9
   5   6  -4 86.7174 9.60411   1
  -5  -6   4 98.0069 9.39871  12
   4   6  -4 118.275 8.74824   3
   4   6  -4 98.4090 9.04331   8
   4   6  -4 126.449 11.4381   1
   4   6  -4 110.450 9.13854   9
   4   6  -4 128.629 9.77144   6
  -4  -6   4 110.814 9.34763  12
   3   6  -4 62.5537 7.24282   6
   3   6  -4 62.2199 6.98281   9
   3   6  -4 57.8116 7.28648   8
   3   6  -4 62.3017 6.77028   3
   3   6  -4 54.9261 7.89510   1
  -3  -6   4 60.0757 6.96927  12
   2   6  -4 2.32103 3.88734   9
   2   6  -4 4.13921 3.93592   6
   2   6  -4 6.81626 4.33818   8
   2   6  -4 2.76879 3.61603   3
  -2  -6   4 2.88635 3.58025  12
   1   6  -4 92.4608 8.11173   8
   1   6  -4 90.3105 7.32325   9
   1   6  -4 109.356 8.59107   6
   1   6  -4 89.8588 7.63219   3
  -1  -6   4 87.9834 7.01283  12
   0   6  -4 5008.56 103.415   8
   0   6  -4 5029.51 103.301   3
   0   6  -4 5096.70 100.474   9
   0   6  -4 5040.72 104.263   6
  -1   6  -4 90.8625 6.55591   9
  -1   6  -4 96.8702 7.67032   3
  -1   6  -4 109.098 8.64734   8
  -1   6  -4 100.525 7.82809  10
  -1   6  -4 82.4124 7.92039   6
   1  -6   4 98.6050 7.42642   2
  -2   6  -4 257.203 11.9478  10
  -2   6  -4 236.613 11.6831   8
  -2   6  -4 240.611 9.24761   9
  -2   6  -4 247.984 11.6825   3
  -2   6  -4 259.005 12.7430   6
   2  -6   4 243.684 11.1403   2
  -3   6  -4 813.573 24.0877   3
  -3   6  -4 827.615 24.8193  13
  -3   6  -4 812.652 23.7896   8
  -3   6  -4 831.356 24.0448  10
  -3   6  -4 872.304 25.6781   6
  -3   6  -4 824.141 20.4134   9
   3  -6   4 827.356 23.3335   2
  -4   6  -4 -6.3515 4.54068  13
  -4   6  -4 -1.7652 3.83911  10
  -4   6  -4 3.81181 5.03874   6
  -4   6  -4 -5.2349 3.74604   8
  -4   6  -4 2.63471 3.62808   3
   4  -6   4 -8.4219 4.95153   2
  -5   6  -4 183.686 11.3131   8
  -5   6  -4 191.859 11.4879  10
  -5   6  -4 172.502 12.3117  13
  -5   6  -4 182.155 11.2444   3
   5  -6   4 182.412 12.3182   2
  -6   6  -4 -2.7145 5.14471  13
  -6   6  -4 -3.7627 3.97952   8
  -6   6  -4 7.48477 4.45910  10
  -6   6  -4 5.04674 4.36216   3
   6  -6   4 4.66193 5.99133   2
  -7   6  -4 26.3116 6.35297   3
  -7   6  -4 30.8688 6.68017   8
  -7   6  -4 30.9332 6.74397  10
  -7   6  -4 41.9211 8.67956  13
   7  -6   4 43.6120 8.42088   2
  -8   6  -4 397.195 19.1370  10
  -8   6  -4 467.835 21.6494  13
  -8   6  -4 469.510 19.3780   8
   8  -6   4 453.496 20.6950   2
   7   5  -4 14.2493 5.56421   8
   7   5  -4 1.70146 5.63134   1
   7   5  -4 19.1723 6.32726   6
   7   5  -4 11.5649 4.82502   3
   7   5  -4 7.73358 5.89831   9
  -7  -5   4 13.6269 6.88049  12
  -7  -5   4 -0.3991 5.09834  13
   6   5  -4 206.032 13.4195   1
   6   5  -4 205.104 11.3526   3
   6   5  -4 221.354 13.1514   6
   6   5  -4 207.628 12.9877   8
   6   5  -4 202.007 12.9566   9
  -6  -5   4 207.865 13.4977  12
  -6  -5   4 219.707 13.2083  13
   5   5  -4 156.678 10.7685   6
   5   5  -4 165.219 12.2236   1
   5   5  -4 143.700 9.33092   3
   5   5  -4 169.918 11.1079   8
   5   5  -4 151.590 10.9369   9
  -5  -5   4 157.144 11.1141  12
   4   5  -4 361.231 13.8030   3
   4   5  -4 349.164 15.0657   6
   4   5  -4 362.093 15.8138   1
   4   5  -4 348.830 15.0782   8
   4   5  -4 369.004 14.7000   9
  -4  -5   4 375.256 14.9217  12
   3   5  -4 1594.01 39.3295   8
   3   5  -4 1686.76 40.5074   1
   3   5  -4 1624.24 39.6867   6
   3   5  -4 1582.09 37.8207   3
   3   5  -4 1597.20 37.8982   9
  -3  -5   4 1641.14 38.7598  12
   2   5  -4 306.692 11.8269   9
   2   5  -4 290.937 12.6761   8
   2   5  -4 311.511 13.0420   6
   2   5  -4 307.001 11.6953   3
  -2  -5   4 319.689 12.2396  12
   1   5  -4 517.867 15.7237   3
   1   5  -4 465.854 14.3782   9
   1   5  -4 481.895 16.4358   6
   1   5  -4 499.840 16.1003   8
  -1  -5   4 500.363 15.4970  12
   0   5  -4 40.0481 5.62583   6
   0   5  -4 32.1001 3.94528   9
   0   5  -4 31.5839 4.58710   3
   0   5  -4 26.8049 4.81810   8
  -1   5  -4 2.23393 3.41546   6
  -1   5  -4 0.75671 2.83940  10
  -1   5  -4 -2.1882 2.56074   3
  -1   5  -4 -3.1012 2.94490   8
  -1   5  -4 0.98075 0.88097   9
   1  -5   4 -3.1107 3.14948   2
  -2   5  -4 1.15634 2.96747   3
  -2   5  -4 4.33541 3.77648   6
  -2   5  -4 -4.0904 3.16787   8
  -2   5  -4 0.50518 1.73220   9
  -2   5  -4 1.85290 3.20552  10
   2  -5   4 2.72713 3.72905   2
  -3   5  -4 977.916 25.5496   8
  -3   5  -4 960.937 27.4398   6
  -3   5  -4 975.331 25.9345   3
  -3   5  -4 949.147 25.6630  10
  -3   5  -4 999.943 27.0235  13
   3  -5   4 1020.76 26.0574   2
  -4   5  -4 675.186 21.4839  13
  -4   5  -4 653.165 20.3102  10
  -4   5  -4 655.189 19.8222   8
  -4   5  -4 670.945 20.4273   3
   4  -5   4 670.933 20.9769   2
  -5   5  -4 149.010 9.59706   8
  -5   5  -4 145.236 9.64557  10
  -5   5  -4 141.939 9.48644   3
  -5   5  -4 152.896 11.0516  13
   5  -5   4 151.864 11.8181   2
  -6   5  -4 28.9114 6.92640  13
  -6   5  -4 25.5832 5.47742   8
  -6   5  -4 34.7827 6.34818  10
  -6   5  -4 24.6395 5.45755   3
   6  -5   4 23.7228 7.09352   2
  -7   5  -4 229.038 12.1940   8
  -7   5  -4 216.584 14.5199  13
  -7   5  -4 214.711 12.5780   3
  -7   5  -4 209.505 12.5243  10
   7  -5   4 207.547 13.9382   2
  -8   5  -4 0.95644 4.52709  10
  -8   5  -4 4.52119 4.69993   8
  -8   5  -4 -2.4681 6.28790  13
   8  -5   4 6.59363 7.04188   2
  -9   5  -4 69.4592 9.54329  10
  -9   5  -4 84.5100 11.7422  13
  -9   5  -4 71.9740 9.03132   8
   9  -5   4 84.0482 11.4202   2
   8   4  -4 9.45359 6.13972   6
   8   4  -4 8.79519 6.08144   1
   8   4  -4 7.08708 4.63767   3
   8   4  -4 2.74922 5.69105   9
  -8  -4   4 15.0052 6.56542  13
  -8  -4   4 28.4978 8.42187  12
   7   4  -4 893.896 28.6985   6
   7   4  -4 889.760 28.3712   9
   7   4  -4 861.444 25.1072   3
   7   4  -4 877.761 28.8218   1
  -7  -4   4 869.196 28.2858  13
  -7  -4   4 847.248 28.6542  12
   6   4  -4 1249.30 35.2326   6
   6   4  -4 1284.15 35.8132   1
   6   4  -4 1296.80 35.0986   8
   6   4  -4 1280.06 34.5509   9
   6   4  -4 1290.53 32.2679   3
  -6  -4   4 1267.31 35.0820  13
  -6  -4   4 1243.49 35.1532  12
   5   4  -4 23.0105 5.11773   8
   5   4  -4 15.9281 5.09122   9
   5   4  -4 29.2324 5.98554   6
   5   4  -4 23.3925 5.86746   1
   5   4  -4 23.6735 4.63026   3
  -5  -4   4 21.6730 5.68254  12
   4   4  -4 73.5794 7.41454   9
   4   4  -4 74.5741 6.43430   3
   4   4  -4 66.3705 7.01994   6
   4   4  -4 64.2979 6.94931   8
   4   4  -4 78.8701 8.26742   1
  -4  -4   4 69.6794 7.58322  12
   3   4  -4 -1.3587 2.61831   1
   3   4  -4 2.25038 3.68089   9
   3   4  -4 0.71103 3.32787   8
   3   4  -4 -1.0527 2.83428   3
  -3  -4   4 3.37022 4.07422  12
   2   4  -4 18.5215 3.54846   3
   2   4  -4 21.6001 4.76374   1
   2   4  -4 23.6638 4.17403   9
   2   4  -4 22.0232 4.35804   6
   2   4  -4 22.8924 4.47893   8
  -2  -4   4 19.8810 4.30132  12
   1   4  -4 0.65783 2.78071   8
   1   4  -4 -2.4338 2.57543   9
   1   4  -4 -0.2689 2.79869   6
   1   4  -4 -0.6741 2.28186   3
  -1  -4   4 3.50241 2.79082  12
   0   4  -4 314.453 10.9879   8
   0   4  -4 321.330 11.8797   6
   0   4  -4 276.317 8.94390   9
   0   4  -4 311.192 10.7465   3
  -1   4  -4 547.091 15.8660   8
  -1   4  -4 570.494 16.0532   3
  -1   4  -4 567.268 17.2129   6
  -1   4  -4 561.773 15.8111  10
  -1   4  -4 555.437 13.3801   9
  -2   4  -4 1425.52 34.2290   6
  -2   4  -4 1447.02 29.2298   9
  -2   4  -4 1396.89 32.2062   8
  -2   4  -4 1418.94 32.9495   3
  -2   4  -4 1397.13 32.4973  10
   2  -4   4 1414.83 32.6157   2
  -3   4  -4 1417.92 32.7367  10
  -3   4  -4 1387.01 33.0101   3
  -3   4  -4 1395.71 32.1968   8
   3  -4   4 1372.88 32.9884   2
  -4   4  -4 1856.29 42.6249  10
  -4   4  -4 1918.32 42.0356   8
  -4   4  -4 1832.07 42.8755   3
   4  -4   4 1920.55 43.6866   2
  -5   4  -4 27.1273 5.05759   3
  -5   4  -4 35.2372 5.15384   8
  -5   4  -4 29.6796 6.38287  13
  -5   4  -4 30.3171 5.36354  10
   5  -4   4 36.8668 7.29085   2
  -6   4  -4 64.5464 7.06658   3
  -6   4  -4 73.1869 7.81821  10
  -6   4  -4 73.1202 8.73710  13
  -6   4  -4 63.1311 6.46034   8
   6  -4   4 74.4649 8.85771   2
  -7   4  -4 -0.3128 3.89459  10
  -7   4  -4 6.41006 3.95071   8
  -7   4  -4 4.06367 5.42161  13
   7  -4   4 7.24682 6.35308   2
  -8   4  -4 22.6741 5.94758  10
  -8   4  -4 31.8025 8.02437  13
   8  -4   4 23.4091 7.86655   2
  -9   4  -4 89.0807 11.4806  13
  -9   4  -4 91.8678 10.3782  10
   9  -4   4 101.357 11.6604   2
   8   3  -4 680.352 21.6002   3
   8   3  -4 669.258 24.8233   9
   8   3  -4 680.620 25.4251   1
   8   3  -4 719.165 26.2906   6
  -8  -3   4 698.516 26.6446  12
  -8  -3   4 681.800 25.2086  13
   7   3  -4 220.690 13.6611   1
   7   3  -4 207.622 10.6796   3
   7   3  -4 208.104 13.0087   9
   7   3  -4 212.666 13.6957   6
  -7  -3   4 222.653 14.9392  12
  -7  -3   4 197.400 13.2471  13
   6   3  -4 77.4271 8.64839   6
   6   3  -4 75.7984 8.21468   9
   6   3  -4 94.2057 7.23674   3
   6   3  -4 77.0625 8.81084   1
  -6  -3   4 84.0266 9.24916  13
  -6  -3   4 79.8041 9.46850  12
   5   3  -4 771.481 23.1283   8
   5   3  -4 763.719 23.6466   6
   5   3  -4 753.095 23.8131   1
   5   3  -4 738.669 20.3944   3
   5   3  -4 744.310 22.7358   9
  -5  -3   4 773.382 23.6203  13
  -5  -3   4 741.569 23.5974  12
   4   3  -4 734.129 21.1686   9
   4   3  -4 718.064 21.5201   8
   4   3  -4 723.451 22.3364   1
   4   3  -4 749.669 19.5482   3
   4   3  -4 737.768 22.2549   6
  -4  -3   4 733.865 22.1711  12
   3   3  -4 470.034 16.0883   6
   3   3  -4 507.960 15.9585   8
   3   3  -4 472.991 15.0252   9
   3   3  -4 485.490 13.9581   3
  -3  -3   4 478.087 16.0060  12
   2   3  -4 905.362 23.0187   8
   2   3  -4 895.105 21.4892   3
   2   3  -4 887.833 23.6655   1
   2   3  -4 884.209 23.6619   6
   2   3  -4 886.046 21.8902   9
  -2  -3   4 919.207 23.3275  12
   1   3  -4 343.574 12.0815   6
   1   3  -4 356.365 10.6727   3
   1   3  -4 342.828 12.0377   1
   1   3  -4 329.140 11.2674   8
  -1  -3   4 344.083 11.7612  12
   0   3  -4 802.774 19.8294   8
   0   3  -4 803.384 17.8884   9
   0   3  -4 804.032 21.0044   6
   0   3  -4 807.364 19.4878   3
  -1   3  -4 1307.36 29.5376   3
  -1   3  -4 1317.57 26.6075   9
  -1   3  -4 1317.24 29.2430   8
  -1   3  -4 1336.65 29.2891  10
  -2   3  -4 585.183 15.4358  10
  -2   3  -4 576.175 15.1529   8
  -2   3  -4 588.296 12.3182   9
  -2   3  -4 569.152 16.9105   6
  -2   3  -4 597.765 15.9722   3
   2  -3   4 567.983 16.1867   2
  -3   3  -4 1.39109 3.26830   6
  -3   3  -4 1.96844 1.36909   9
  -3   3  -4 1.70844 2.41698   8
  -3   3  -4 1.32885 2.41946   3
  -3   3  -4 0.29817 2.33280  10
  -3   3  -4 -0.0598 3.26899  13
   3  -3   4 8.54627 3.80512   2
  -4   3  -4 784.154 20.6931  10
  -4   3  -4 758.709 21.8443  13
  -4   3  -4 807.846 17.9288  11
  -4   3  -4 764.165 19.5778   8
   4  -3   4 771.794 22.2567   2
  -5   3  -4 0.60152 3.02125   8
  -5   3  -4 6.12617 4.61516  13
  -5   3  -4 15.0805 4.03718   3
  -5   3  -4 1.56495 1.92926  11
  -5   3  -4 6.94552 3.59286  10
   5  -3   4 1.50652 5.31650   2
  -6   3  -4 1885.63 44.0550  10
  -6   3  -4 1843.38 38.7221  11
  -6   3  -4 1886.94 45.0862  13
   6  -3   4 1843.75 44.9994   2
  -7   3  -4 1067.81 24.1338  11
  -7   3  -4 1069.20 30.9518  13
  -7   3  -4 1062.63 29.4795  10
   7  -3   4 1024.30 30.5866   2
  -8   3  -4 40.8410 6.88861  10
  -8   3  -4 37.0666 8.01044  13
   8  -3   4 58.7517 9.22535   2
  -9   3  -4 66.9273 8.87258  10
  -9   3  -4 71.4677 10.3147  12
  -9   3  -4 76.3811 10.1983  13
   9  -3   4 72.2002 10.2721   2
 -10   3  -4 151.450 14.3789  13
 -10   3  -4 149.722 14.5759  12
 -10   3  -4 199.985 14.0388  10
  10  -3   4 172.046 15.2813   2
   8   2  -4 84.6318 7.84408   3
   8   2  -4 79.7488 9.74459   9
   8   2  -4 80.6323 10.0041   1
  -8  -2   4 69.4069 9.90789  13
  -8  -2   4 91.9207 11.8650  12
   7   2  -4 103.870 9.87228   9
   7   2  -4 135.740 11.3784   1
   7   2  -4 121.714 11.1410   6
   7   2  -4 115.998 7.91631   3
  -7  -2   4 116.125 11.0142  13
  -7  -2   4 112.568 11.6018  12
   6   2  -4 25.7331 5.58106   9
   6   2  -4 15.9672 5.25789   6
   6   2  -4 19.5764 5.68286   1
   6   2  -4 20.8499 4.11012   3
  -6  -2   4 22.8772 6.70839  12
  -6  -2   4 23.2709 6.06034  13
   5   2  -4 291.912 10.6355   3
   5   2  -4 298.638 13.7950   6
   5   2  -4 301.837 14.0921   1
   5   2  -4 308.160 13.2561   9
  -5  -2   4 296.990 13.7413  13
  -5  -2   4 302.759 14.2676  12
   4   2  -4 152.846 6.95465   3
   4   2  -4 141.963 9.09885   6
   4   2  -4 157.913 8.98741   9
   4   2  -4 142.697 8.80566   8
  -4  -2   4 143.876 9.85808  12
   3   2  -4 684.034 18.7167   9
   3   2  -4 709.958 19.3733   8
   3   2  -4 693.766 16.9625   3
   3   2  -4 654.108 19.5524   6
  -3  -2   4 676.134 19.8344  12
   2   2  -4 527.487 16.0413   1
   2   2  -4 536.889 15.3597   8
   2   2  -4 547.329 14.6401   9
   2   2  -4 535.827 16.0822   6
   2   2  -4 526.591 13.5323   3
  -2  -2   4 537.776 15.9719  12
   1   2  -4 426.969 11.1970   3
   1   2  -4 417.942 11.2827   9
   1   2  -4 429.924 12.4569   8
   1   2  -4 428.275 13.0010   1
  -1  -2   4 422.177 13.0991  12
   0   2  -4 1201.49 26.0018   1
   0   2  -4 1233.68 23.7475   9
   0   2  -4 910.311 25.8127   6
   0   2  -4 1189.03 24.8275   3
  -1   2  -4 0.40948 1.85681   3
  -1   2  -4 -1.2720 1.98623   6
  -1   2  -4 2.07068 1.93079   8
  -1   2  -4 2.88269 1.86360  10
  -2   2  -4 667.406 17.0649   3
  -2   2  -4 700.081 18.3877   6
  -2   2  -4 686.751 16.3845  10
  -2   2  -4 671.422 15.9957   8
   2  -2   4 695.150 18.0350   2
  -3   2  -4 859.108 19.4372  11
  -3   2  -4 872.913 22.2976   6
  -3   2  -4 844.842 21.6416  13
  -3   2  -4 841.616 20.2538  10
  -3   2  -4 830.066 21.0130   3
  -3   2  -4 849.692 19.5301   8
   3  -2   4 871.367 22.0725   2
  -4   2  -4 2624.61 52.9913  11
  -4   2  -4 2670.17 55.1592  10
  -4   2  -4 2636.60 55.7904   3
  -4   2  -4 2597.81 56.2226  13
   4  -2   4 2616.22 56.6582   2
  -5   2  -4 2137.73 48.0206  13
  -5   2  -4 2108.99 46.9184  10
  -5   2  -4 2146.83 45.3962   7
  -5   2  -4 2108.98 43.9824  11
   5  -2   4 2165.71 48.7127   2
   5  -2   4 2124.68 43.8104   9
  -6   2  -4 449.372 13.6637   7
  -6   2  -4 461.899 13.0126  11
  -6   2  -4 492.172 17.2824  13
  -6   2  -4 456.030 15.8324  10
   6  -2   4 472.416 18.0533   2
   6  -2   4 455.097 13.3312   9
  -7   2  -4 182.432 8.63258   7
  -7   2  -4 194.076 12.7524  12
  -7   2  -4 192.947 11.1749  10
  -7   2  -4 213.733 8.51545  11
  -7   2  -4 216.886 12.8545  13
   7  -2   4 198.207 9.11359   9
   7  -2   4 189.211 7.65486   1
   7  -2   4 216.902 14.3240   2
  -8   2  -4 207.733 9.26215  11
  -8   2  -4 251.924 15.2620  12
  -8   2  -4 233.120 9.78722   7
  -8   2  -4 205.885 12.1159  10
  -8   2  -4 233.293 14.2199  13
   8  -2   4 242.421 10.7882   9
   8  -2   4 200.999 14.4750   2
  -9   2  -4 1.73978 4.68586  10
  -9   2  -4 9.80161 6.98745  12
  -9   2  -4 -3.4991 5.86550  13
   9  -2   4 -1.1344 6.62980   2
   9  -2   4 3.30526 3.65818   9
 -10   2  -4 621.766 26.5566  12
 -10   2  -4 643.456 25.6086  13
 -10   2  -4 626.965 24.2131  10
  10  -2   4 661.414 26.2587   2
  10  -2   4 655.676 21.8677   9
   8   1  -4 19.0806 6.35648   9
   8   1  -4 24.9312 6.70635   1
  -8  -1   4 21.9811 8.24894  12
  -8  -1   4 12.9480 6.66975  13
   7   1  -4 -1.6304 4.41134   1
   7   1  -4 1.85755 4.48198   9
  -7  -1   4 2.44970 5.22377  13
  -7  -1   4 0.66863 6.12454  12
   6   1  -4 178.824 11.6090   6
   6   1  -4 189.307 11.7196   1
   6   1  -4 193.692 11.2130   9
  -6  -1   4 202.740 12.5021  13
  -6  -1   4 195.490 12.7851  12
   5   1  -4 544.308 19.0604   6
   5   1  -4 563.221 18.4975   9
   5   1  -4 531.515 18.6054   1
  -5  -1   4 562.152 19.0707  13
  -5  -1   4 542.628 19.4107  12
   3   1  -4 22.3571 3.75446   9
   3   1  -4 14.1693 3.19727   1
   3   1  -4 24.1456 2.70699   3
  -3  -1   4 31.1466 4.60862  12
   2   1  -4 1797.11 40.7002   6
   2   1  -4 1848.03 40.6748   1
   2   1  -4 1867.13 37.2215   3
   2   1  -4 1818.17 39.7782   8
   2   1  -4 1874.85 39.3659   9
   1   1  -4 380.004 9.31149   3
   1   1  -4 387.795 12.0552   6
   1   1  -4 369.432 10.2511   9
   1   1  -4 377.473 10.9933   8
   1   1  -4 375.760 11.7838   1
   0   1  -4 386.198 10.3368   8
   0   1  -4 381.805 11.4853   6
   0   1  -4 389.623 9.34662   9
   0   1  -4 378.044 9.59756   3
  -1   1  -4 908.659 22.7621   6
  -1   1  -4 1025.95 20.8410  10
  -1   1  -4 1010.34 21.7652   1
  -1   1  -4 1002.31 21.2048   8
  -1   1  -4 1013.19 21.7580   3
  -2   1  -4 1573.01 31.9681   8
  -2   1  -4 1584.93 31.1269   5
  -2   1  -4 1561.54 34.4719   6
  -2   1  -4 1647.80 33.6474  11
  -2   1  -4 1623.91 32.6020  10
  -2   1  -4 1572.63 33.6967   3
  -2   1  -4 1551.43 31.8882   1
   2  -1   4 1618.46 34.7789   2
  -3   1  -4 1616.94 32.0718   9
  -3   1  -4 1603.70 33.0903   8
  -3   1  -4 1638.72 35.6220   7
  -3   1  -4 1634.01 34.4150  10
  -3   1  -4 1658.33 36.1863   6
  -3   1  -4 1682.71 35.5957   3
  -3   1  -4 1637.85 34.4456  11
  -3   1  -4 1625.60 35.7051  13
   3  -1   4 1632.09 36.4412   2
   3  -1   4 1664.62 32.0460   5
   3  -1   4 1616.36 32.0567   9
  -4   1  -4 302.335 10.9375  13
  -4   1  -4 306.374 10.2441   7
  -4   1  -4 302.709 10.0496  10
  -4   1  -4 306.928 9.42190  11
   4  -1   4 298.581 8.17009   9
   4  -1   4 311.977 12.2229   2
  -5   1  -4 52.4678 4.53893  11
  -5   1  -4 49.0408 4.74204   7
  -5   1  -4 48.8292 5.04133  10
  -5   1  -4 46.7769 5.76522  13
   5  -1   4 42.3788 3.67650   9
   5  -1   4 49.3801 6.74305   2
  -6   1  -4 155.338 10.0503  13
  -6   1  -4 165.527 8.17253   7
  -6   1  -4 156.439 6.61164   4
  -6   1  -4 158.374 8.98852  10
   6  -1   4 169.197 11.6502   2
   6  -1   4 157.675 7.40647   9
   6  -1   4 159.557 5.44737   1
  -7   1  -4 2256.44 50.8694  13
  -7   1  -4 2158.57 45.0773   4
  -7   1  -4 2131.49 49.9436  10
  -7   1  -4 2161.54 47.8256   7
  -7   1  -4 2209.99 52.3682  12
   7  -1   4 2184.35 51.7737   2
   7  -1   4 2175.75 44.1096   1
   7  -1   4 2196.50 47.5593   9
  -8   1  -4 1086.44 32.5762  12
  -8   1  -4 1059.70 30.4573  13
  -8   1  -4 1035.43 29.9703  10
  -8   1  -4 1115.74 27.4997   7
   8  -1   4 1055.91 31.4592   2
   8  -1   4 1052.52 27.4890   9
  -9   1  -4 490.960 19.9036  13
  -9   1  -4 467.023 21.7642  12
  -9   1  -4 517.599 19.9838  10
  -9   1  -4 493.343 16.5015   7
   9  -1   4 488.799 17.3098   9
   9  -1   4 496.154 21.1471   2
 -10   1  -4 97.6850 12.4345  12
 -10   1  -4 116.597 11.6468  10
 -10   1  -4 122.401 12.1338  13
  10  -1   4 106.621 12.0436   2
  10  -1   4 126.857 10.2281   9
   8   0  -4 8.70236 5.32575   9
   8   0  -4 27.0013 6.90194   1
  -8   0   4 22.3982 7.04363  13
  -8   0   4 23.1549 8.38540  12
  -8   0   4 21.2007 6.66448  10
   7   0  -4 -1.5086 3.85198   9
   7   0  -4 0.89918 4.76051   1
  -7   0   4 -6.0398 3.98985  10
  -7   0   4 -0.6768 5.16842  13
  -7   0   4 9.88664 6.64336  12
   6   0  -4 11.1764 4.52181   9
   6   0  -4 19.3367 5.56764   6
   6   0  -4 12.3690 5.07761   1
  -6   0   4 14.2320 5.41833  13
  -6   0   4 12.7372 6.11719  12
  -6   0   4 9.88735 4.79144  10
   5   0  -4 258.928 12.6832   1
   5   0  -4 246.575 11.8002   9
   5   0  -4 240.334 12.3197   6
  -5   0   4 268.847 13.0960  13
  -5   0   4 252.739 13.2008  12
  -5   0   4 257.539 11.7295  10
   4   0  -4 1.01003 2.28177   1
   4   0  -4 31.2238 4.61359   9
  -4   0   4 34.2570 4.83699  10
  -4   0   4 1.74977 2.19581  12
  -4   0   4 2.61911 1.53196  13
   3   0  -4 711.657 18.9317   9
   3   0  -4 683.236 19.6992   6
   3   0  -4 711.373 15.5920   3
  -3   0   4 704.144 19.8826  12
  -3   0   4 690.469 19.6325  13
  -3   0   4 718.817 18.2428  10
   2   0  -4 4194.34 83.5130   9
   2   0  -4 4150.93 84.7496   6
   2   0  -4 4196.99 80.1209   3
   2   0  -4 4214.59 84.6734   1
  -2   0   4 4177.75 84.7596  12
   1   0  -4 3954.32 79.2056   6
   1   0  -4 3946.07 78.9954   1
  -1   0   4 3951.85 79.2452  12
   0   0  -4 344.110 7.98621   3
   0   0  -4 338.507 9.09356   8
   0   0  -4 348.318 9.88899   1
  -1   0  -4 203.553 5.54394   8
  -1   0  -4 201.202 6.37520   1
  -1   0  -4 201.891 6.12646   3
  -1   0  -4 211.526 7.16722   6
   1   0   4 195.449 5.50596   8
   1   0   4 215.514 5.47642   9
  -2   0  -4 123.146 3.94151   1
  -2   0  -4 118.600 5.53578   6
  -2   0  -4 130.970 4.20377  10
  -2   0  -4 118.587 5.61097  11
  -2   0  -4 127.551 5.57756   4
  -2   0  -4 128.347 4.55317   5
  -2   0  -4 134.661 6.23591   7
   2   0   4 135.250 6.51378   2
   2   0   4 125.119 3.95022   9
  -3   0  -4 164.740 5.52487   9
  -3   0  -4 148.930 6.40420  11
  -3   0  -4 149.982 7.08051   7
  -3   0  -4 152.825 6.31249   4
  -3   0  -4 155.594 5.78905  10
   3   0   4 151.879 5.14389   9
   3   0   4 160.772 7.92683   2
  -4   0  -4 2433.75 50.1306  10
  -4   0  -4 2422.34 49.6983   4
  -4   0  -4 2422.41 50.1482  11
  -4   0  -4 2494.29 51.3283   7
  -4   0  -4 2426.94 50.6572  13
   4   0   4 2414.78 52.3072   2
   4   0   4 2415.84 48.7490   9
  -5   0  -4 210.279 9.33605  13
  -5   0  -4 203.478 8.90584   7
  -5   0  -4 219.120 7.81990   4
  -5   0  -4 211.461 8.86120  10
   5   0   4 205.302 10.9456   2
   5   0   4 201.175 7.78760   9
  -6   0  -4 1188.37 28.5402   7
  -6   0  -4 1167.81 29.2177  13
  -6   0  -4 1162.50 26.3392   4
  -6   0  -4 1163.80 30.9111  12
  -6   0  -4 1180.84 29.1454  10
   6   0   4 1172.02 30.8909   2
   6   0   4 1166.59 27.3448   9
  -7   0  -4 1364.80 30.7136   4
  -7   0  -4 1377.82 33.3650   7
  -7   0  -4 1399.45 34.7144  10
  -7   0  -4 1386.17 34.6559  13
  -7   0  -4 1430.03 37.1120  12
   7   0   4 1395.31 36.4865   2
   7   0   4 1386.72 28.8504   1
   7   0   4 1393.63 32.9276   9
  -8   0  -4 1294.43 34.3256  13
  -8   0  -4 1319.44 29.5079   4
  -8   0  -4 1387.10 37.2660  12
  -8   0  -4 1259.77 32.3052   7
  -8   0  -4 1292.23 34.5558  10
   8   0   4 1344.61 32.6836   9
   8   0   4 1265.65 35.8524   2
  -9   0  -4 69.3007 10.2856  12
  -9   0  -4 48.9332 7.84113  10
  -9   0  -4 40.2831 7.69010  13
  -9   0  -4 53.6871 6.67148   7
   9   0   4 62.6114 7.11873   9
   9   0   4 45.0586 8.99104   2
 -10   0  -4 51.5435 8.55795  10
 -10   0  -4 76.8355 10.0927  13
 -10   0  -4 53.9007 7.15649   7
 -10   0  -4 62.3775 10.9822  12
  10   0   4 58.5537 7.64445   9
  10   0   4 72.8930 10.7374   2
   8  -1  -4 60.5386 8.62618   1
   8  -1  -4 40.8321 7.72569   9
  -8   1   4 47.7369 8.20394  10
  -8   1   4 47.7699 8.91969  13
  -8   1   4 61.1305 10.3049  12
   7  -1  -4 23.0301 5.80777   9
   7  -1  -4 42.6584 7.02305   1
  -7   1   4 24.6887 7.98397  12
  -7   1   4 16.0807 6.24189  13
  -7   1   4 16.6461 5.85077  10
   6  -1  -4 1207.49 32.8520   1
   6  -1  -4 1180.75 32.3943   9
  -6   1   4 1225.87 33.4782  13
  -6   1   4 1214.34 34.1252  12
  -6   1   4 1183.25 31.9018  10
   5  -1  -4 560.409 19.1889   1
   5  -1  -4 547.167 18.5278   9
  -5   1   4 584.454 20.3965  12
  -5   1   4 583.658 19.5798  13
  -5   1   4 595.794 18.5504  10
   4  -1  -4 1113.70 28.8600   6
   4  -1  -4 1127.06 28.1536   9
  -4   1   4 1088.34 26.9495  10
  -4   1   4 1096.46 28.5747  13
  -4   1   4 1054.09 28.6592  12
   3  -1  -4 1596.06 36.8393   6
   3  -1  -4 1646.89 36.3601   9
  -3   1   4 1603.48 35.0526  10
  -3   1   4 1556.17 36.5988  13
  -3   1   4 1535.95 36.6655  12
   2  -1  -4 988.310 24.1620   1
   2  -1  -4 988.195 24.1109   6
  -2   1   4 987.309 24.1096  12
  -2   1   4 950.727 23.7924  13
  -2   1   4 975.516 22.0594  10
   1  -1  -4 2582.29 53.1218   6
   1  -1  -4 2604.43 53.4156   1
  -1   1   4 2551.54 50.7004  10
  -1   1   4 2562.47 53.1652  12
   0  -1  -4 863.722 20.1677  11
   0  -1  -4 818.612 19.6253   6
   0  -1  -4 907.949 17.3597  10
   0   1   4 847.529 17.0743  10
  -1  -1  -4 2665.59 54.4326   7
  -2  -1  -4 3836.56 75.8273  11
  -2  -1  -4 3871.21 74.7722   5
  -2  -1  -4 3758.33 75.4853   4
  -2  -1  -4 3829.29 74.5012   6
  -2  -1  -4 3814.90 73.5766   1
   2   1   4 3763.78 73.5185   1
   2   1   4 3863.86 74.3139   9
   2   1   4 3816.27 75.9451   2
  -3  -1  -4 2146.69 43.1543  10
  -3  -1  -4 2143.93 43.2608  13
  -3  -1  -4 2120.01 45.3800   7
  -3  -1  -4 2156.30 44.6649  11
  -3  -1  -4 2148.67 43.5148   6
  -3  -1  -4 2111.11 44.2204   4
   3   1   4 2116.07 45.2198   2
   3   1   4 2174.64 43.2994   9
  -4  -1  -4 1295.69 29.6360   7
  -4  -1  -4 1302.87 28.1785  10
  -4  -1  -4 1297.94 25.4956   8
  -4  -1  -4 1082.34 27.3081  13
  -4  -1  -4 1254.62 28.1192   4
   4   1   4 1345.66 30.4142   2
   4   1   4 1312.94 27.8154   9
  -5  -1  -4 199.657 8.69538  10
  -5  -1  -4 214.650 8.25373   4
  -5  -1  -4 209.585 8.78129  13
  -5  -1  -4 204.811 9.42101   7
   5   1   4 226.575 8.67061   9
   5   1   4 206.585 11.1428   2
  -6  -1  -4 156.718 8.91044   7
  -6  -1  -4 153.234 10.7129  12
  -6  -1  -4 140.375 8.54266  13
  -6  -1  -4 150.227 8.52343  10
  -6  -1  -4 151.946 7.27758   4
   6   1   4 149.615 4.88375   1
   6   1   4 142.976 8.10190   9
   6   1   4 152.108 11.4060   2
  -7  -1  -4 599.731 19.1110  10
  -7  -1  -4 634.893 21.3502  12
  -7  -1  -4 577.979 18.6655   7
  -7  -1  -4 600.258 16.4647   4
  -7  -1  -4 588.682 18.6363  13
   7   1   4 577.527 20.8181   2
   7   1   4 587.544 14.1188   1
   7   1   4 617.352 18.2906   9
  -8  -1  -4 115.550 9.61768  13
  -8  -1  -4 117.658 11.1325  12
  -8  -1  -4 124.648 7.34216   4
  -8  -1  -4 104.336 8.74260   7
  -8  -1  -4 125.889 9.69666  10
   8   1   4 124.870 9.12928   9
   8   1   4 151.160 12.4396   2
  -9  -1  -4 19.0044 5.98482  13
  -9  -1  -4 20.7861 5.52114   7
  -9  -1  -4 16.9074 3.85473   4
  -9  -1  -4 17.7943 5.71562  10
  -9  -1  -4 23.6011 7.77917  12
   9   1   4 22.7818 5.75194   9
   9   1   4 14.9994 7.18672   2
 -10  -1  -4 181.327 13.4602  13
 -10  -1  -4 177.708 15.5601  12
 -10  -1  -4 160.528 12.8608  10
 -10  -1  -4 168.369 11.2829   7
  10   1   4 160.529 14.1147   2
  10   1   4 153.721 11.4984   9
   8  -2  -4 350.807 17.3253   1
  -8   2   4 320.626 17.8013  13
  -8   2   4 328.016 19.3866  12
  -8   2   4 312.322 16.3175  10
   7  -2  -4 482.465 19.1814   9
   7  -2  -4 509.131 19.8962   1
  -7   2   4 457.092 20.5449  12
  -7   2   4 497.662 20.4072  13
  -7   2   4 466.518 18.7420  10
   6  -2  -4 24.1504 5.41341   9
   6  -2  -4 24.2057 5.65843   1
  -6   2   4 20.4948 6.00535  13
  -6   2   4 18.7082 5.35212  10
  -6   2   4 31.3491 7.45844  12
   5  -2  -4 -0.9930 3.90325   1
  -5   2   4 5.25888 3.94784  10
  -5   2   4 -2.8498 4.59169  13
  -5   2   4 -2.6067 5.06477  12
   4  -2  -4 1.76067 3.77124   1
  -4   2   4 5.33303 3.51125  10
  -4   2   4 5.41307 4.52644  13
  -4   2   4 3.64575 4.69024  12
   3  -2  -4 353.253 13.0099   6
  -3   2   4 359.147 12.8352  13
  -3   2   4 342.317 12.9646  12
  -3   2   4 355.482 11.5584  10
   2  -2  -4 2654.29 55.4625   6
   2  -2  -4 2611.38 55.7901   1
  -2   2   4 2639.35 55.3551  13
  -2   2   4 2638.68 53.6590  10
  -2   2   4 2647.31 55.3697  12
   1  -2  -4 903.394 22.1073   1
   1  -2  -4 890.328 21.3892   6
  -1   2   4 911.326 21.4103  13
  -1   2   4 921.851 19.8579  10
  -1   2   4 903.170 21.5258  12
   0  -2  -4 4997.48 97.6577   6
   0  -2  -4 4974.53 98.5420   1
   0  -2  -4 5033.07 98.3987  11
   0  -2  -4 4967.90 97.8899   4
   0   2   4 5052.54 95.9324  10
   0   2   4 5073.22 98.0839  12
   0   2   4 5009.84 95.4195   3
  -1  -2  -4 6842.02 134.632  11
  -1  -2  -4 7006.96 134.378   5
  -1  -2  -4 6847.08 134.350   4
  -1  -2  -4 6965.91 133.966   1
  -1  -2  -4 7027.44 132.909   6
  -1  -2  -4 6930.10 135.170   7
   1   2   4 7019.27 131.815  10
  -2  -2  -4 1446.54 29.1136   6
  -2  -2  -4 1429.16 32.2225   7
  -2  -2  -4 1436.84 31.0545   5
  -2  -2  -4 1433.31 30.0558   1
   2   2   4 1441.64 28.4651   8
   2   2   4 1450.81 30.9447   9
   2   2   4 1465.37 29.1912  13
   2   2   4 1512.54 31.3263   2
  -3  -2  -4 434.738 10.3120   6
  -3  -2  -4 416.156 13.0794   7
  -3  -2  -4 436.787 9.27479   8
  -3  -2  -4 429.740 12.3144   4
   3   2   4 429.308 10.2375  13
   3   2   4 422.305 11.9247   9
   3   2   4 444.728 12.9455   2
  -4  -2  -4 373.283 12.7166   7
  -4  -2  -4 357.575 8.79036   8
  -4  -2  -4 365.992 11.4301   4
  -4  -2  -4 372.142 9.95062  13
   4   2   4 353.224 12.5940   2
   4   2   4 372.643 10.3285   1
   4   2   4 367.171 11.3201   9
  -5  -2  -4 -0.3592 2.56733   4
  -5  -2  -4 2.87610 3.43050   7
  -5  -2  -4 -3.4783 0.84514  13
   5   2   4 0.92396 4.28517   2
   5   2   4 0.85194 3.10915   9
   5   2   4 0.38723 1.62873   1
  -6  -2  -4 404.306 15.4510  12
  -6  -2  -4 399.450 12.7657   4
  -6  -2  -4 395.871 14.6569   7
  -6  -2  -4 403.557 12.9529  13
  -6  -2  -4 402.595 13.9822  10
   6   2   4 384.421 15.5487   2
   6   2   4 396.889 10.3917   1
   6   2   4 404.385 13.8640   9
  -7  -2  -4 94.9010 6.92257   4
  -7  -2  -4 93.6228 7.56633  13
  -7  -2  -4 82.7081 8.09040   7
  -7  -2  -4 81.2852 8.97731  12
  -7  -2  -4 77.8962 7.70554  10
   7   2   4 91.5082 4.98936   1
   7   2   4 94.6396 7.84740   9
   7   2   4 103.318 9.77526   2
  -8  -2  -4 1742.74 42.3698   7
  -8  -2  -4 1687.49 39.1442   4
  -8  -2  -4 1772.79 44.5027  12
  -8  -2  -4 1770.63 43.3419  10
  -8  -2  -4 1740.91 41.0023  13
   8   2   4 1692.60 43.1809   2
   8   2   4 1758.85 41.9554   9
  -9  -2  -4 -2.2905 3.39433   4
  -9  -2  -4 1.78041 4.87935   7
  -9  -2  -4 4.32390 6.53183  12
  -9  -2  -4 2.57418 4.94715  13
   9   2   4 -10.034 5.85681   2
   9   2   4 -0.9560 4.47779   9
 -10  -2  -4 34.0573 7.22247  13
 -10  -2  -4 36.4782 8.90961  12
 -10  -2  -4 37.9230 7.36117   7
  10   2   4 40.0803 7.32960   9
  10   2   4 48.8958 9.09419   2
   8  -3  -4 154.950 12.9102   1
  -8   3   4 148.610 13.6146  13
  -8   3   4 157.754 12.4166  10
  -8   3   4 132.578 13.7639  12
   7  -3  -4 22.7685 6.40190   1
  -7   3   4 19.5234 6.14871  10
  -7   3   4 25.5884 7.12936  13
  -7   3   4 25.4203 7.93068  12
   6  -3  -4 -5.0176 4.18232   1
  -6   3   4 2.44031 5.23884  13
  -6   3   4 -0.2283 5.93927  12
  -6   3   4 2.94560 4.38494  10
   5  -3  -4 27.9113 5.88764   1
  -5   3   4 28.2470 6.34902  13
  -5   3   4 39.5977 7.40066  12
  -5   3   4 21.4130 5.26361  10
   4  -3  -4 512.944 17.6897   1
  -4   3   4 519.295 17.8869  12
  -4   3   4 515.119 16.3919  10
  -4   3   4 525.911 17.6225  13
  -3   3   4 400.003 14.1559  12
  -3   3   4 409.152 12.9470  10
  -3   3   4 396.422 14.2753  13
   2  -3  -4 3934.73 80.7284   1
  -2   3   4 3898.90 79.3907  12
  -2   3   4 3963.86 79.7887  13
  -2   3   4 3891.21 78.3909  10
  -2   3   4 3922.24 75.5065   3
   1  -3  -4 1.92383 1.91291   4
   1  -3  -4 4.07187 3.10617   1
   1  -3  -4 2.01847 1.08441   7
  -1   3   4 3.16634 1.22008   3
  -1   3   4 1.43001 2.35131  12
  -1   3   4 -1.0833 2.39504  13
  -1   3   4 4.64582 1.99864  10
   0  -3  -4 398.862 12.3121   1
   0  -3  -4 407.227 11.4917  11
   0  -3  -4 397.370 11.5343   7
   0  -3  -4 402.427 11.3005   4
   0  -3  -4 390.360 11.8526   5
   0  -3  -4 408.532 10.8149   6
   0   3   4 394.082 10.6586  13
   0   3   4 393.645 10.1783  10
   0   3   4 394.363 9.65750   3
   0   3   4 405.131 10.8449  12
  -1  -3  -4 1.40656 1.49817   6
  -1  -3  -4 0.80259 2.16726  11
  -1  -3  -4 -1.9171 2.19800   1
  -1  -3  -4 -1.6213 2.02162   4
  -1  -3  -4 0.19256 2.18821   7
  -1  -3  -4 -1.6253 2.54176   5
   1   3   4 0.46197 1.54084  13
   1   3   4 0.28889 1.56601   3
   1   3   4 1.70881 1.21185   6
   1   3   4 2.94387 1.93211   8
   1   3   4 0.95916 1.49765  10
  -2  -3  -4 -0.4174 2.39816   4
  -2  -3  -4 9.02778 2.98313  11
  -2  -3  -4 6.30248 3.12367   5
  -2  -3  -4 6.58169 2.92453   7
  -2  -3  -4 -0.9834 1.99946   1
   2   3   4 9.32979 1.93273   8
   2   3   4 3.02188 2.46973   2
   2   3   4 8.40709 2.82879   9
  -3  -3  -4 573.409 16.7225   7
  -3  -3  -4 583.506 15.8408   4
   3   3   4 581.161 13.1765   8
   3   3   4 583.863 15.4743   2
   3   3   4 591.443 15.9638   9
  -4  -3  -4 434.500 12.9759   4
  -4  -3  -4 421.339 9.86246   6
  -4  -3  -4 409.533 9.91488  13
  -4  -3  -4 428.326 14.2007   7
   4   3   4 423.692 13.4165   9
   4   3   4 424.906 9.82322  13
   4   3   4 425.304 10.6005   8
   4   3   4 424.808 13.4712   2
  -5  -3  -4 292.336 12.4872   7
  -5  -3  -4 296.204 9.09704  13
   5   3   4 302.312 12.2680   2
   5   3   4 295.238 8.81348   8
   5   3   4 312.010 11.7678   9
  -6  -3  -4 14.2205 4.95962   7
  -6  -3  -4 19.3658 3.78924  13
  -6  -3  -4 18.5228 5.35271  12
   6   3   4 16.4176 4.77287   9
   6   3   4 13.6290 3.04278   1
   6   3   4 10.5481 5.54097   2
  -7  -3  -4 384.392 15.6559   7
  -7  -3  -4 378.761 13.0317  13
  -7  -3  -4 383.206 13.4579   4
  -7  -3  -4 399.224 16.1604  12
   7   3   4 381.792 11.5334   1
   7   3   4 359.418 15.5173   2
   7   3   4 374.067 14.9050   9
  -8  -3  -4 564.703 17.7761   4
  -8  -3  -4 551.834 20.2208   7
  -8  -3  -4 578.736 18.0661  13
  -8  -3  -4 587.586 21.2871  12
   8   3   4 594.172 20.9159   2
   8   3   4 553.695 19.5330   9
  -9  -3  -4 7.37432 4.30313   4
  -9  -3  -4 4.90493 6.71856  12
  -9  -3  -4 7.22155 5.21057  13
  -9  -3  -4 5.71823 5.56570   7
   9   3   4 4.15082 5.16843   9
   9   3   4 14.3932 6.76854   2
 -10  -3  -4 208.246 12.8464  13
 -10  -3  -4 209.882 11.1900   4
 -10  -3  -4 209.152 13.9864   7
 -10  -3  -4 198.743 16.1240  12
  10   3   4 229.087 14.2646   9
  10   3   4 215.987 15.1622   2
  -8   4   4 402.589 19.1795  10
   7  -4  -4 83.5719 9.67166   1
  -7   4   4 91.3453 10.7459  13
  -7   4   4 84.9968 9.68998  10
  -7   4   4 96.0981 11.2636  12
   6  -4  -4 1140.71 32.6949   1
  -6   4   4 1127.18 32.9435  12
  -6   4   4 1120.22 33.0154  13
  -6   4   4 1134.24 31.6173  10
   5  -4  -4 4.36099 4.92967   1
  -5   4   4 12.0399 5.99571  12
  -5   4   4 -0.3225 5.11591  13
  -5   4   4 8.96098 4.19113  10
   4  -4  -4 414.457 16.5739   1
  -4   4   4 482.397 15.7114  10
  -4   4   4 433.293 16.7771  12
  -4   4   4 456.759 16.6904  13
  -3   4   4 708.107 19.7213  10
  -3   4   4 733.185 16.8917   3
  -3   4   4 699.836 20.4229  12
  -3   4   4 729.416 21.0309  13
   2  -4  -4 377.067 10.7692   4
  -2   4   4 371.274 12.0224  10
  -2   4   4 391.254 13.1207  13
  -2   4   4 389.637 10.1070   3
  -2   4   4 379.870 12.6287  12
   1  -4  -4 45.1841 4.02349   4
   1  -4  -4 46.1647 4.79221   5
   1  -4  -4 45.6236 5.48855   1
   1  -4  -4 39.5373 3.94210  11
  -1   4   4 43.4420 3.24996   3
  -1   4   4 50.4599 4.34878  10
  -1   4   4 41.3036 4.43789  13
  -1   4   4 51.3945 4.47145  12
   0  -4  -4 11.0000 2.80865   7
   0  -4  -4 10.2304 3.69015   1
   0  -4  -4 19.1244 3.18791   4
   0  -4  -4 11.7363 2.75082  11
   0   4   4 12.0224 2.42295  10
   0   4   4 14.0981 2.81132  13
   0   4   4 16.7488 2.40914   3
   0   4   4 13.1855 2.54386  12
  -1  -4  -4 501.908 14.8630   5
  -1  -4  -4 504.644 14.6948   7
  -1  -4  -4 519.090 14.9141   1
  -1  -4  -4 525.302 14.2791   4
  -1  -4  -4 496.504 14.1402  11
   1   4   4 526.769 13.4509  10
   1   4   4 509.923 11.5466   6
   1   4   4 513.935 11.6587  13
   1   4   4 527.349 12.1355  12
   1   4   4 518.455 13.7134   8
   1   4   4 497.522 13.1935   3
  -3  -4  -4 470.737 15.1041   7
   3   4   4 458.044 12.9509   2
   3   4   4 450.897 11.9842   8
   3   4   4 479.901 14.7720   9
   4   4   4 922.842 23.9033   9
   4   4   4 902.135 22.3895   2
   4   4   4 923.401 20.9103   8
  -5  -4  -4 368.545 9.36579  13
   5   4   4 371.704 13.1838   2
   5   4   4 345.668 10.6756   8
   5   4   4 368.120 13.8733   9
  -6  -4  -4 933.375 26.6027   7
  -6  -4  -4 839.259 20.8580  13
  -6  -4  -4 934.592 24.6862  12
   6   4   4 934.330 22.2119   8
   6   4   4 925.490 24.8580   2
   6   4   4 949.164 25.8370   9
  -7  -4  -4 14.8894 5.72434   7
  -7  -4  -4 22.5053 6.10810  12
  -7  -4  -4 16.8955 3.90597  13
   7   4   4 21.8815 5.71835   9
   7   4   4 23.3970 6.04015   2
   7   4   4 21.3342 3.95516   1
  -8  -4  -4 0.59735 5.13214   7
  -8  -4  -4 1.18155 3.66507  13
  -8  -4  -4 -3.2989 5.35955  12
   8   4   4 0.69441 3.17808   1
   8   4   4 4.16297 5.40268   2
   8   4   4 3.11447 4.95869   9
  -9  -4  -4 289.748 15.8087   7
  -9  -4  -4 275.210 15.9672  12
  -9  -4  -4 302.651 13.2065   4
   9   4   4 284.924 15.1872   9
   9   4   4 268.409 14.9614   2
 -10  -4  -4 253.620 16.0475   7
 -10  -4  -4 286.795 13.6981   4
 -10  -4  -4 279.363 17.7011  12
  10   4   4 285.960 16.2492   9
  10   4   4 290.581 16.4605   2
   7  -5  -4 297.993 16.5598   1
  -7   5   4 276.852 15.1263  10
  -7   5   4 271.420 17.2631  12
  -7   5   4 280.776 16.9392  13
   6  -5  -4 118.872 11.2617   1
  -6   5   4 138.961 12.8059  13
  -6   5   4 128.652 11.6781  12
  -6   5   4 135.869 11.3730  10
   5  -5  -4 184.766 12.1599   1
  -5   5   4 164.266 12.6719  13
  -5   5   4 172.671 11.0308  10
  -5   5   4 163.182 12.1428  12
   4  -5  -4 244.554 13.4161   1
  -4   5   4 218.463 12.2718  13
  -4   5   4 243.892 12.6570  12
  -4   5   4 234.113 11.5557  10
  -4   5   4 225.472 8.63965   3
   3  -5  -4 58.5479 7.18348   1
   3  -5  -4 50.8348 4.10850   4
  -3   5   4 55.8075 6.69697  12
  -3   5   4 48.0320 4.25885   3
  -3   5   4 50.1092 6.86864  13
  -3   5   4 48.3789 5.92680  10
   2  -5  -4 32.1688 3.70075   4
   2  -5  -4 17.0757 3.58183   1
   2  -5  -4 27.2080 4.93449   5
  -2   5   4 33.8706 5.42088  13
  -2   5   4 33.5493 4.64197  10
  -2   5   4 37.9927 3.67872   3
  -2   5   4 23.3837 4.93041  12
   1  -5  -4 250.586 8.90543   4
   1  -5  -4 235.618 8.60503   7
   1  -5  -4 241.071 8.70630  11
   1  -5  -4 229.437 11.3171   1
   1  -5  -4 237.778 10.4374   5
  -1   5   4 241.722 9.66893  13
  -1   5   4 241.801 8.21747   3
  -1   5   4 238.714 8.87209  12
  -1   5   4 241.042 9.49562  10
   0  -5  -4 243.011 10.9763   1
   0  -5  -4 232.550 8.66136  11
   0  -5  -4 224.004 8.76227   4
   0  -5  -4 184.554 9.31121   5
   0  -5  -4 221.195 8.74724   7
   0   5   4 229.183 7.27631  12
   0   5   4 209.800 7.82825   3
   0   5   4 223.434 8.73202  10
   0   5   4 213.545 7.96895  13
   0   5   4 217.526 9.31012   8
  -1  -5  -4 1902.46 42.4386   7
  -1  -5  -4 1885.48 41.6921  11
  -1  -5  -4 1954.65 43.2141   1
   1   5   4 1933.73 38.1979  12
   1   5   4 1890.81 41.1878   3
   1   5   4 1985.41 41.7954  10
   1   5   4 1934.18 38.8408   2
   1   5   4 2054.81 40.1112   6
   1   5   4 1912.10 38.7129  13
   1   5   4 1917.33 41.8381   8
  -2  -5  -4 704.222 19.7318   7
   2   5   4 676.192 19.7850   9
   2   5   4 695.414 17.9090   8
   2   5   4 689.593 16.0791   2
   2   5   4 728.251 18.5439   3
  -3  -5  -4 1431.76 34.4806   7
   3   5   4 1434.24 34.3902   9
   3   5   4 1461.22 31.5837   8
   3   5   4 1411.45 30.4322   2
   3   5   4 1397.72 32.9745   3
  -4  -5  -4 430.109 15.8656   7
   4   5   4 409.735 12.8426   2
   4   5   4 423.167 12.4892   8
   4   5   4 433.435 15.4462   9
  -5  -5  -4 62.1132 7.43625   7
   5   5   4 68.2526 6.45914   2
   5   5   4 62.5782 5.19522   8
   5   5   4 72.9815 7.45825   9
  -6  -5  -4 1356.43 32.5763  12
  -6  -5  -4 1400.30 36.5265   7
   6   5   4 1435.31 35.6289   9
   6   5   4 1353.74 31.6585   8
   6   5   4 1380.87 33.0972   2
  -7  -5  -4 65.7577 8.77270   7
  -7  -5  -4 56.9171 7.12368  12
   7   5   4 59.3420 7.91721   9
   7   5   4 62.8682 7.28531   2
   7   5   4 61.8042 5.89596   8
   7   5   4 48.4016 5.73916   1
  -8  -5  -4 235.734 13.3465  12
  -8  -5  -4 199.951 14.2031   7
   8   5   4 240.625 14.2038   9
   8   5   4 240.659 12.7106   2
   8   5   4 225.292 10.7221   1
  -9  -5  -4 39.7754 8.21651  12
  -9  -5  -4 28.2831 7.63293   7
   9   5   4 17.9729 6.61691   9
   9   5   4 19.3143 6.25620   2
   7  -6  -4 5.98702 6.24683   1
  -7   6   4 6.54623 5.87015  10
  -7   6   4 3.37605 6.92919  13
  -7   6   4 3.90494 7.46945  12
   6  -6  -4 87.6473 10.2867   1
  -6   6   4 68.1452 9.62387  12
  -6   6   4 77.8796 10.3111  13
  -6   6   4 69.7260 8.98749  10
   5  -6  -4 59.2596 8.81532   1
  -5   6   4 49.7410 7.24777  10
  -5   6   4 50.6218 8.22119  12
  -5   6   4 44.1268 8.30412  13
   4  -6  -4 2275.81 52.0109   5
   4  -6  -4 2242.53 53.7533   1
  -4   6   4 2250.23 52.8625  13
  -4   6   4 2281.16 52.3051  10
  -4   6   4 2203.63 48.1888   3
  -4   6   4 2271.75 51.5315  12
   3  -6  -4 128.019 9.09503   5
   3  -6  -4 134.887 10.8117   1
   3  -6  -4 121.972 6.10768   4
  -3   6   4 133.087 9.20005  12
  -3   6   4 114.407 6.62051   3
  -3   6   4 139.774 10.1157  13
  -3   6   4 111.481 8.58514  10
   2  -6  -4 1332.87 34.7500   1
   2  -6  -4 1292.44 29.6603   4
   2  -6  -4 1340.95 33.2188   5
  -2   6   4 1362.26 32.7449  10
  -2   6   4 1309.86 30.6878  12
  -2   6   4 1361.09 30.3796   3
  -2   6   4 1301.85 32.2613  13
   1  -6  -4 17.0843 3.53666   7
   1  -6  -4 13.0417 4.80994   5
   1  -6  -4 8.48354 5.19255   1
   1  -6  -4 11.1987 3.50061   4
   1  -6  -4 14.1226 3.23892  11
  -1   6   4 15.9678 4.31984  13
  -1   6   4 16.0730 3.76956  12
  -1   6   4 18.8532 4.75315   8
  -1   6   4 17.5508 3.29106   3
  -1   6   4 9.16097 3.53634  10
   0  -6  -4 410.559 13.3623   4
   0  -6  -4 406.317 15.7782   1
   0  -6  -4 419.064 12.9003  11
   0  -6  -4 418.244 13.3431   7
   0  -6  -4 401.500 14.8272   5
   0   6   4 405.673 10.3291  12
   0   6   4 430.158 13.8328  10
   0   6   4 412.998 12.2981  13
   0   6   4 432.182 13.0125   3
   0   6   4 420.038 14.4420   8
  -1  -6  -4 211.538 9.30330  11
  -1  -6  -4 207.148 9.78413   7
  -1  -6  -4 176.545 10.0487   5
   1   6   4 198.912 8.78726   3
   1   6   4 209.446 6.60504  13
   1   6   4 193.107 9.03484  10
   1   6   4 198.095 9.58936   8
  -2  -6  -4 11.2691 4.58630   7
   2   6   4 5.59109 4.36575   9
   2   6   4 20.0281 4.21322   8
   2   6   4 11.6951 3.49747   3
  -3  -6  -4 506.581 17.7070   7
   3   6   4 506.753 15.1822   8
   3   6   4 523.195 17.9146   9
   3   6   4 494.701 12.3441   2
   3   6   4 504.591 16.0803   3
  -4  -6  -4 252.487 13.1620   7
   4   6   4 224.972 8.59392   2
   4   6   4 237.252 9.80562   8
   4   6   4 247.973 12.4708   9
   4   6   4 236.569 11.2125   3
  -5  -6  -4 651.984 21.8942   7
   5   6   4 637.738 17.1094   2
   5   6   4 622.301 17.9042   8
   5   6   4 624.501 21.2971   9
  -6  -6  -4 1933.82 47.5654   7
   6   6   4 1888.43 42.3814   8
   6   6   4 1891.60 46.1800   9
   6   6   4 1849.19 41.8208   2
  -7  -6  -4 39.6039 5.76923  12
  -7  -6  -4 33.4251 7.54946   7
   7   6   4 42.7128 7.64890   9
   7   6   4 35.8851 5.20412   8
   7   6   4 41.6998 6.07267   2
  -8  -6  -4 243.091 15.5271   7
  -8  -6  -4 256.743 13.3043  12
   8   6   4 270.411 13.1600   2
   8   6   4 294.464 16.0915   9
   8   6   4 250.849 12.1432   1
   8   6   4 279.485 12.0312   8
  -9  -6  -4 94.1973 10.0299  12
  -9  -6  -4 62.6377 10.2485   7
   9   6   4 80.1532 10.2554   9
   9   6   4 71.9771 8.51846   2
   6  -7  -4 316.387 15.8962   5
   6  -7  -4 309.349 17.6366   1
  -6   7   4 296.910 17.0719  12
  -6   7   4 313.162 16.5838  10
  -6   7   4 289.344 17.6370  13
   5  -7  -4 776.505 24.4811   5
   5  -7  -4 732.244 26.1699   1
  -5   7   4 738.034 24.7002  10
  -5   7   4 693.201 25.2167  13
  -5   7   4 710.210 23.9686  12
   4  -7  -4 1045.67 31.8324   1
   4  -7  -4 1072.24 29.9790   5
  -4   7   4 1062.06 29.0895  12
  -4   7   4 1073.99 30.9298  13
  -4   7   4 1093.39 26.9439   3
  -4   7   4 1049.70 30.4077  10
   3  -7  -4 90.8006 10.1353   1
   3  -7  -4 82.0295 8.48699   5
   3  -7  -4 91.1199 5.82677   4
  -3   7   4 93.3813 8.65063  10
  -3   7   4 92.2935 7.92342  12
  -3   7   4 99.4820 9.26620  13
  -3   7   4 88.8252 6.74864   3
   2  -7  -4 504.229 17.7131   5
   2  -7  -4 506.235 19.1637   1
   2  -7  -4 501.505 13.7059   7
   2  -7  -4 516.227 14.8534   4
  -2   7   4 503.595 15.4904   3
  -2   7   4 491.136 18.3364   8
  -2   7   4 525.514 17.7286  10
  -2   7   4 503.609 15.1495  12
  -2   7   4 526.194 17.3805  13
   1  -7  -4 145.970 11.4457   1
   1  -7  -4 133.985 9.83747   5
   1  -7  -4 137.938 8.01658   4
   1  -7  -4 142.666 7.07064  11
   1  -7  -4 143.523 7.45803   7
  -1   7   4 121.126 9.63193   8
  -1   7   4 145.535 9.03515  10
  -1   7   4 142.420 8.88358  13
  -1   7   4 135.907 7.68906   3
   0  -7  -4 594.332 19.1539   5
   0  -7  -4 608.542 17.4780   7
   0  -7  -4 554.878 16.4231  11
   0   7   4 604.413 17.4670   3
   0   7   4 617.675 18.6350  10
   0   7   4 586.359 16.1116  13
   0   7   4 563.014 18.8956   8
  -1  -7  -4 285.893 11.9047   7
  -1  -7  -4 284.446 11.0675  11
  -1  -7  -4 257.116 12.5411   5
   1   7   4 244.374 11.7973   8
   1   7   4 264.574 8.37601   6
   1   7   4 255.540 11.4633  10
   1   7   4 264.786 11.0823   3
   1   7   4 270.746 8.21802  13
  -2  -7  -4 912.053 25.2273   7
   2   7   4 909.501 24.2740   8
   2   7   4 893.890 24.1761   3
   2   7   4 889.960 26.1603   9
  -3  -7  -4 508.808 18.7901   7
   3   7   4 531.336 17.4629   3
   3   7   4 526.840 16.6131   8
   3   7   4 536.285 19.3037   9
  -4  -7  -4 236.605 13.3596   7
   4   7   4 218.673 11.3790   3
   4   7   4 239.452 12.9897   9
   4   7   4 221.656 10.3375   8
  -5  -7  -4 78.8763 9.21558   7
   5   7   4 65.4389 8.30347   9
   5   7   4 67.9407 6.55397   8
   5   7   4 64.7341 7.46991   3
  -6  -7  -4 179.042 13.3898   7
   6   7   4 149.509 10.5155   3
   6   7   4 135.848 11.5417   9
  -7  -7  -4 8.32530 6.32559   7
   7   7   4 6.21583 5.61375   9
   7   7   4 -0.4331 4.33043   3
   7   7   4 1.59238 3.50161   8
  -8  -7  -4 17.4125 7.51337   7
   8   7   4 20.4542 7.42018   9
   8   7   4 32.9501 5.72992   8
   8   7   4 18.2014 5.88140   1
   5  -8  -4 829.646 26.6840   5
   5  -8  -4 805.598 29.1089   1
  -5   8   4 843.859 28.4270  13
  -5   8   4 774.412 27.1137  10
   4  -8  -4 335.436 18.1639   1
   4  -8  -4 354.064 16.2298   5
  -4   8   4 360.584 16.6527  10
  -4   8   4 322.379 16.8779  13
  -4   8   4 367.620 17.9571   8
   3  -8  -4 177.044 11.6068   5
   3  -8  -4 200.694 14.4387   1
  -3   8   4 174.806 9.62105   3
  -3   8   4 197.224 12.9815   8
  -3   8   4 187.635 11.7237  10
  -3   8   4 166.053 12.2026  13
   2  -8  -4 197.482 13.5892   1
   2  -8  -4 201.997 9.37780   4
   2  -8  -4 207.260 11.9180   5
  -2   8   4 206.015 11.6931  13
  -2   8   4 199.717 11.8206  10
  -2   8   4 214.336 10.3565   3
  -2   8   4 230.681 13.3512   8
   1  -8  -4 582.728 20.1610   5
   1  -8  -4 605.557 17.1097   7
   1  -8  -4 578.708 16.2171  11
   1  -8  -4 596.791 17.8203   4
  -1   8   4 584.198 18.1176   3
  -1   8   4 602.787 20.0554  10
  -1   8   4 589.313 20.7151   8
  -1   8   4 605.388 18.1975  13
   0  -8  -4 910.112 23.6913  11
   0  -8  -4 973.312 27.2841   5
   0  -8  -4 939.458 24.9035   7
   0   8   4 962.067 27.2552   8
   0   8   4 934.727 26.5107  10
   0   8   4 924.018 23.2276  13
   0   8   4 942.988 25.2737   3
  -1  -8  -4 63.3696 7.01052   7
  -1  -8  -4 54.9226 6.01922  11
  -1  -8  -4 56.9725 7.65703   5
   1   8   4 56.7343 6.93118  10
   1   8   4 54.4352 6.22966   3
   1   8   4 57.4646 7.06970   8
   1   8   4 51.8834 7.40268   9
  -2  -8  -4 56.2849 7.27942   7
   2   8   4 55.1310 6.52044   3
   2   8   4 41.0946 6.78257   9
   2   8   4 61.7038 6.75137   8
  -3  -8  -4 102.651 9.63542   7
   3   8   4 112.167 8.77669   3
   3   8   4 93.5367 8.16214   8
   3   8   4 87.1229 9.14701   9
  -4  -8  -4 65.4558 8.75137   7
   4   8   4 60.8038 6.64046   8
   4   8   4 65.7239 8.48159   9
   4   8   4 56.2906 7.28527   3
  -5  -8  -4 25.5760 7.30731   7
   5   8   4 37.8452 7.46679   9
   5   8   4 41.6285 6.76022   3
   5   8   4 40.0484 5.93032   8
  -6  -8  -4 165.969 14.1036   7
   6   8   4 194.040 12.5637   3
   6   8   4 202.460 14.2926   9
   6   8   4 157.605 10.1424   8
  -7  -8  -4 126.226 13.2664   7
   7   8   4 137.684 12.7076   9
   7   8   4 137.030 12.0255   3
   7   8   4 124.819 9.59449   8
   4  -9  -4 938.448 28.8137   5
   4  -9  -4 942.353 31.8129   1
  -4   9   4 893.024 30.4526   8
  -4   9   4 895.034 29.5183  10
  -4   9   4 895.255 29.4358  13
   3  -9  -4 875.013 29.6533   1
   3  -9  -4 827.724 26.7310   5
  -3   9   4 903.195 29.2077   8
  -3   9   4 873.926 27.7475  10
  -3   9   4 890.065 27.4394  13
  -3   9   4 837.286 24.6233   3
   2  -9  -4 166.123 12.2615   5
   2  -9  -4 153.447 9.07715   4
  -2   9   4 145.730 11.0331  13
  -2   9   4 158.162 9.80430   3
  -2   9   4 145.494 12.2211   8
  -2   9   4 149.155 11.3845  10
   1  -9  -4 532.068 19.6906   5
   1  -9  -4 540.687 17.4900   4
  -1   9   4 562.698 20.9935   8
  -1   9   4 537.900 19.6680  10
  -1   9   4 503.235 17.6521   3
   0  -9  -4 28.5720 7.00129   5
   0  -9  -4 23.2178 4.56180  11
   0  -9  -4 27.3311 5.36075   7
   0   9   4 30.6748 6.21690  10
   0   9   4 19.9700 4.89182   3
   0   9   4 38.4246 6.93707   8
  -1  -9  -4 58.7910 7.31756   7
  -1  -9  -4 59.5764 6.38007  11
   1   9   4 59.3113 6.96239   3
   1   9   4 58.6696 7.89475   8
   1   9   4 51.9939 7.94220   9
   1   9   4 66.9914 7.86136  10
  -2  -9  -4 0.09728 4.77652   7
   2   9   4 7.17209 4.29926   3
   2   9   4 5.32380 4.66031   8
   2   9   4 -3.0673 4.21856  10
   2   9   4 1.94180 5.13121   9
  -3  -9  -4 -8.5199 4.95497   7
   3   9   4 2.26548 5.00904   9
   3   9   4 3.86483 4.30365   3
   3   9   4 10.2580 4.62085   8
  -4  -9  -4 31.0546 7.51563   7
   4   9   4 28.4969 6.23690   3
   4   9   4 24.0020 6.81313   9
   4   9   4 26.2892 5.66317   8
  -5  -9  -4 1.13762 6.37412   7
   5   9   4 3.97405 4.40074   8
   5   9   4 -2.5349 5.65632   9
   5   9   4 3.77365 4.69568   3
  -6  -9  -4 8.49029 7.39736   7
   6   9   4 2.52232 5.03569   3
   6   9   4 2.10685 6.33588   9
   6   9   4 -2.5264 4.10946   8
   2 -10  -4 11.7223 6.58075   5
  -2  10   4 30.8203 6.09058   3
  -2  10   4 24.8250 6.53969  10
  -2  10   4 18.4507 7.36775   8
   1 -10  -4 0.02918 4.34212   4
   1 -10  -4 2.62523 5.98372   5
  -1  10   4 0.26481 3.84972   3
  -1  10   4 2.13852 4.92082  10
  -1  10   4 1.33859 5.29664   8
   0  10   4 628.072 23.8324   9
   0  10   4 594.260 20.6643   3
   0  10   4 591.108 21.7993  10
   0  10   4 600.679 22.5850   8
  -1 -10  -4 54.2666 7.62188   7
  -1 -10  -4 46.2304 6.30817  11
   1  10   4 45.9021 8.35678   9
   1  10   4 38.6614 7.33831   8
   1  10   4 45.1719 7.44531  10
   1  10   4 60.3086 7.55441   3
  -2 -10  -4 6.43909 5.93418   7
  -2 -10  -4 10.1430 5.11664  11
   2  10   4 14.8443 5.46674  10
   2  10   4 8.68166 5.32258   8
   2  10   4 3.05621 5.94342   9
   2  10   4 21.0822 5.62560   3
  -3 -10  -4 93.1668 10.4530   7
   3  10   4 106.121 10.2082   3
   3  10   4 108.306 11.5126   9
   3  10   4 109.016 9.87759   8
  -4 -10  -4 24.8624 7.84404   7
   4  10   4 23.0025 7.44100   9
   4  10   4 29.8271 6.71095   3
   4  10   4 25.7006 6.36968   8
  -5 -10  -4 199.108 15.9494   7
   5  10   4 233.489 14.6860   3
   5  10   4 229.142 13.2622   8
   5  10   4 192.012 15.5612   9
   0  10  -5 47.9232 8.44947   6
   0  10  -5 47.5871 8.50529  10
   0  10  -5 56.5806 8.83876   3
  -1  10  -5 110.341 11.2230   6
  -1  10  -5 126.330 12.5704  10
  -1  10  -5 122.544 12.2094   8
  -1  10  -5 132.467 12.8292   3
   3   9  -5 343.327 17.2263   6
   3   9  -5 339.515 19.0159   1
   3   9  -5 346.125 16.4917   9
   3   9  -5 311.007 16.7051   3
   3   9  -5 370.623 18.4649   8
  -3  -9   5 373.570 17.3379  12
   2   9  -5 -5.9201 4.60236   9
   2   9  -5 8.41942 4.99160   6
   2   9  -5 -3.8954 4.99500   8
   2   9  -5 6.27283 5.10058   3
  -2  -9   5 8.72411 4.20519  12
   1   9  -5 35.3404 7.31648   6
   1   9  -5 55.0229 7.93571   3
   1   9  -5 54.7285 8.30824   8
   1   9  -5 47.9466 7.01016   9
  -1  -9   5 45.5212 6.40664  12
   0   9  -5 2.60139 5.25362   8
   0   9  -5 -0.2104 4.52322  10
   0   9  -5 6.69248 5.07976   6
   0   9  -5 -0.3858 4.33971   9
   0   9  -5 1.53326 4.41028   3
   0  -9   5 5.75325 4.04605  12
  -1   9  -5 162.774 12.3942   6
  -1   9  -5 148.876 12.3681   8
  -1   9  -5 130.502 11.5839   3
  -1   9  -5 141.409 11.3539  10
  -2   9  -5 3.49198 5.21531   8
  -2   9  -5 9.98453 4.99904  10
  -2   9  -5 -3.5937 4.44729   6
  -2   9  -5 5.86736 4.79541   3
  -3   9  -5 266.415 16.0282   6
  -3   9  -5 288.836 15.5759   3
  -3   9  -5 276.092 15.8368   8
  -3   9  -5 263.154 14.9876  10
  -4   9  -5 371.783 19.1429   6
  -4   9  -5 347.119 17.8348   8
  -4   9  -5 370.485 17.9483   3
  -4   9  -5 363.576 17.9030  10
   4   8  -5 -5.7202 4.79427   9
   4   8  -5 -0.6900 4.44112   3
   4   8  -5 -0.2675 4.37272   6
   4   8  -5 -3.7770 5.53932   1
   4   8  -5 3.81172 5.25766   8
  -4  -8   5 3.81568 4.84082  12
   3   8  -5 -1.0146 4.52856   9
   3   8  -5 6.09764 6.12570   1
   3   8  -5 -2.7630 4.65365   8
   3   8  -5 2.22745 4.53630   6
   3   8  -5 -5.0944 3.86637   3
  -3  -8   5 8.92595 4.79854  12
   2   8  -5 167.036 11.2375   9
   2   8  -5 171.602 11.9790   6
   2   8  -5 173.789 11.5584   3
   2   8  -5 163.965 12.5661   8
  -2  -8   5 178.425 10.5815  12
   1   8  -5 70.0369 8.51139   6
   1   8  -5 70.6734 8.51261   8
   1   8  -5 79.8852 8.82087   3
   1   8  -5 78.2698 7.67544   9
  -1  -8   5 99.1569 8.18077  12
   0   8  -5 213.371 12.4171   3
   0   8  -5 217.534 13.2401   8
   0   8  -5 229.569 10.9708   9
   0   8  -5 244.183 13.6250   6
   0   8  -5 216.390 12.8046  10
   0  -8   5 233.524 11.1945   2
  -1   8  -5 383.260 17.3268   6
  -1   8  -5 377.073 16.5094   3
  -1   8  -5 398.005 16.6994  10
  -1   8  -5 393.290 16.8871   8
  -1   8  -5 388.990 13.8802   9
   1  -8   5 418.532 15.2349   2
  -2   8  -5 145.749 11.7882   6
  -2   8  -5 170.508 11.4951  10
  -2   8  -5 171.943 11.7902   8
  -2   8  -5 155.009 11.5442   3
   2  -8   5 170.932 11.1140   2
  -3   8  -5 84.2522 9.03221  10
  -3   8  -5 89.1883 9.50153   8
  -3   8  -5 91.6335 9.95594   3
  -3   8  -5 60.0507 8.75735   6
   3  -8   5 96.2621 9.41536   2
  -4   8  -5 243.007 14.0418   3
  -4   8  -5 249.898 13.9744  10
  -4   8  -5 284.590 14.9163   8
  -4   8  -5 264.541 15.8213   6
   4  -8   5 266.816 14.5058   2
  -5   8  -5 12.1505 5.86619   8
  -5   8  -5 20.1467 6.74354  13
  -5   8  -5 10.9849 5.47941  10
  -5   8  -5 11.6374 5.51231   3
  -5   8  -5 16.2822 6.61515   6
   5  -8   5 12.8541 6.94335   2
  -6   8  -5 13.1930 7.07274  13
  -6   8  -5 -0.3947 4.78019  10
  -6   8  -5 2.19705 5.75244   8
  -6   8  -5 2.47970 4.77144   3
  -6   8  -5 6.05319 6.87159   6
   6  -8   5 3.05937 6.68970   2
   5   7  -5 33.9461 7.39282   8
   5   7  -5 43.8265 7.86180   9
   5   7  -5 32.8117 6.83847   6
   5   7  -5 46.7263 7.24064   3
   5   7  -5 41.8171 8.54381   1
  -5  -7   5 37.4990 7.36379  12
   4   7  -5 -4.6415 4.40603   9
   4   7  -5 -0.1643 5.27239   1
   4   7  -5 -2.9006 3.90217   6
   4   7  -5 7.54990 4.49497   3
   4   7  -5 -7.3141 4.08256   8
  -4  -7   5 4.80068 4.60509  12
   3   7  -5 107.024 9.34009   3
   3   7  -5 115.169 10.5328   8
   3   7  -5 104.898 8.99001   9
   3   7  -5 116.032 11.7809   1
   3   7  -5 89.9880 9.61093   6
  -3  -7   5 112.672 9.63852  12
   2   7  -5 1088.71 31.6809   6
   2   7  -5 1119.16 30.5141   3
   2   7  -5 1118.46 29.0154   9
   2   7  -5 1141.93 31.9466   8
  -2  -7   5 1065.93 29.4721  12
   1   7  -5 608.275 20.4776   3
   1   7  -5 614.184 21.4665   6
   1   7  -5 595.434 20.9511   8
   1   7  -5 626.144 18.6342   9
  -1  -7   5 625.738 19.5479  12
   0   7  -5 169.487 10.7997   8
   0   7  -5 157.204 10.9072   6
   0   7  -5 158.314 10.2221   3
   0   7  -5 142.469 8.50443   9
  -1   7  -5 1.04876 4.49206   8
  -1   7  -5 -1.7685 3.65205   3
  -1   7  -5 -2.6785 3.09530   9
  -1   7  -5 6.51449 3.97584  10
  -1   7  -5 3.36585 4.32718   6
   1  -7   5 0.59130 3.98104   2
  -2   7  -5 228.291 12.1837   3
  -2   7  -5 212.098 11.5844  10
  -2   7  -5 237.942 9.33294   9
  -2   7  -5 224.630 12.2405   8
  -2   7  -5 216.561 12.9730   6
   2  -7   5 227.308 11.7552   2
  -3   7  -5 624.483 21.3886   3
  -3   7  -5 620.299 20.7810   8
  -3   7  -5 622.954 21.0661  10
  -3   7  -5 621.205 22.4123   6
  -3   7  -5 621.525 17.7819   9
   3  -7   5 629.142 20.5822   2
  -4   7  -5 42.6024 6.88101   8
  -4   7  -5 61.3820 7.86003  10
  -4   7  -5 58.4356 8.58528   6
  -4   7  -5 48.8683 7.31882   3
   4  -7   5 42.3839 7.55955   2
  -5   7  -5 85.9438 9.98772  13
  -5   7  -5 102.905 11.4155   6
  -5   7  -5 61.4777 7.98397  10
  -5   7  -5 76.0427 8.65405   8
  -5   7  -5 80.8809 9.29730   3
   5  -7   5 73.4972 9.43474   2
  -6   7  -5 27.9545 7.54767  13
  -6   7  -5 16.4192 6.77283   6
  -6   7  -5 27.4907 6.33661   3
  -6   7  -5 37.9553 7.45073  10
  -6   7  -5 28.6350 6.68297   8
   6  -7   5 18.8926 7.42337   2
  -7   7  -5 120.871 11.7510  10
  -7   7  -5 136.445 13.2215  13
  -7   7  -5 123.961 11.8743   3
  -7   7  -5 131.172 11.5693   8
   7  -7   5 122.998 12.4357   2
   6   6  -5 629.073 23.1822   9
   6   6  -5 686.063 24.6564   8
   6   6  -5 635.109 24.2107   6
   6   6  -5 647.794 21.8718   3
   6   6  -5 606.678 24.4974   1
  -6  -6   5 647.689 24.2595  12
   5   6  -5 78.3577 8.98569   8
   5   6  -5 60.1070 7.28264   3
   5   6  -5 43.0644 7.35149   9
   5   6  -5 59.4226 8.07038   6
   5   6  -5 57.1924 8.73367   1
  -5  -6   5 70.3535 9.00449  12
   4   6  -5 224.546 12.3654   9
   4   6  -5 208.666 12.8107   8
   4   6  -5 222.081 11.4117   3
   4   6  -5 213.067 12.8911   6
   4   6  -5 213.307 13.4692   1
  -4  -6   5 212.711 12.6258  12
   3   6  -5 712.444 21.2264   9
   3   6  -5 693.556 22.6389   8
   3   6  -5 685.574 23.5858   1
   3   6  -5 725.578 23.3838   6
   3   6  -5 679.669 21.1763   3
  -3  -6   5 660.080 21.7225  12
   2   6  -5 850.033 26.0688   1
   2   6  -5 847.552 22.9037   9
   2   6  -5 808.655 25.4066   6
   2   6  -5 825.867 23.7588   3
   2   6  -5 853.358 25.2205   8
  -2  -6   5 840.400 24.0346  12
   1   6  -5 406.976 15.9142   8
   1   6  -5 444.185 14.2912   9
   1   6  -5 427.861 16.6879   6
   1   6  -5 440.278 15.6578   3
  -1  -6   5 408.705 15.1157  12
   0   6  -5 5.17116 3.58105   3
   0   6  -5 12.7401 4.61610   8
   0   6  -5 2.09269 3.81863   6
   0   6  -5 5.16445 3.53554   9
  -1   6  -5 22.7780 5.03304  10
  -1   6  -5 38.1596 4.44230   9
  -1   6  -5 29.0519 5.34254   3
  -1   6  -5 23.9333 5.18884   8
  -1   6  -5 24.4660 5.63370   6
   1  -6   5 21.4307 4.97048   2
  -2   6  -5 3264.21 65.8550   9
  -2   6  -5 3295.82 72.6523   6
  -2   6  -5 3384.68 71.0583  10
  -2   6  -5 3277.44 71.1551   3
  -2   6  -5 3240.42 70.3477   8
   2  -6   5 3240.98 69.4868   2
  -3   6  -5 759.030 22.7554   8
  -3   6  -5 796.745 23.4433  10
  -3   6  -5 806.354 25.2666   6
  -3   6  -5 796.219 23.5417   3
   3  -6   5 781.286 23.2040   2
  -4   6  -5 4.55779 4.08295  10
  -4   6  -5 4.99781 5.06165   6
  -4   6  -5 7.80155 2.69941   9
  -4   6  -5 4.84029 4.31708   8
  -4   6  -5 -1.0658 3.70256   3
  -4   6  -5 -2.4929 4.15879  13
   4  -6   5 0.17840 5.37266   2
  -5   6  -5 27.9257 6.83971   6
  -5   6  -5 28.9587 5.91899   3
  -5   6  -5 17.1981 5.20673   8
  -5   6  -5 13.8956 5.91839  13
  -5   6  -5 42.3403 6.76317  10
   5  -6   5 28.6965 7.19879   2
  -6   6  -5 113.820 10.4276   3
  -6   6  -5 105.809 10.6926  13
  -6   6  -5 103.259 9.44772   8
  -6   6  -5 98.0284 10.0243  10
   6  -6   5 93.6424 10.4522   2
  -7   6  -5 99.2130 11.2899  13
  -7   6  -5 63.0826 8.39776   3
  -7   6  -5 75.8848 9.09558  10
  -7   6  -5 70.1247 8.44406   8
   7  -6   5 74.1065 10.2059   2
  -8   6  -5 26.9771 7.22491  10
  -8   6  -5 30.2811 8.39048  13
  -8   6  -5 26.3428 6.38370   8
   8  -6   5 38.6049 9.36551   2
   7   5  -5 58.5979 9.14594   6
   7   5  -5 62.7050 7.71541   3
   7   5  -5 62.3198 9.63545   1
   7   5  -5 61.9914 9.02632   9
  -7  -5   5 71.6871 10.5094  12
  -7  -5   5 71.5848 10.0137  13
   6   5  -5 237.331 14.5595   6
   6   5  -5 234.608 13.9354   9
   6   5  -5 236.541 15.3100   1
   6   5  -5 248.855 12.2595   3
   6   5  -5 250.534 14.4788   8
  -6  -5   5 269.654 15.5410  12
  -6  -5   5 256.487 14.9544  13
   5   5  -5 245.150 13.8673   6
   5   5  -5 243.361 13.6600   8
   5   5  -5 229.818 11.4451   3
   5   5  -5 237.415 14.4376   1
   5   5  -5 250.481 13.2306   9
  -5  -5   5 240.859 13.8921  12
   4   5  -5 -0.8051 4.06204   9
   4   5  -5 5.90274 4.64229   8
   4   5  -5 2.64084 4.89023   1
   4   5  -5 -0.3058 3.25715   3
   4   5  -5 3.54938 4.16173   6
  -4  -5   5 6.05055 4.67924  12
   3   5  -5 478.424 18.6815   1
   3   5  -5 470.208 15.9509   3
   3   5  -5 510.508 18.5000   6
   3   5  -5 494.220 16.5289   9
   3   5  -5 494.559 17.9243   8
  -3  -5   5 508.650 17.7476  12
   2   5  -5 484.132 17.8150   1
   2   5  -5 490.868 15.4296   9
   2   5  -5 470.897 17.4726   6
   2   5  -5 494.756 17.0376   8
   2   5  -5 486.229 15.8275   3
  -2  -5   5 473.926 16.7013  12
   1   5  -5 3.65962 3.75325   8
   1   5  -5 5.36134 3.24071   9
   1   5  -5 7.54359 3.48416   3
   1   5  -5 3.88701 3.71555   6
  -1  -5   5 -0.9175 3.36146  12
   0   5  -5 1377.46 33.2969   8
   0   5  -5 1348.58 32.7004   3
   0   5  -5 1378.18 30.2604   9
   0   5  -5 1364.39 34.4932   6
  -1   5  -5 143.798 8.21009  10
  -1   5  -5 125.258 8.03434   3
  -1   5  -5 108.245 8.01991   8
  -1   5  -5 98.0898 5.42927   9
  -1   5  -5 128.779 9.05018   6
   1  -5   5 101.814 8.10936   2
  -2   5  -5 900.353 20.1358   9
  -2   5  -5 903.980 24.5526   3
  -2   5  -5 899.456 24.1583  10
  -2   5  -5 919.537 24.1366   8
  -2   5  -5 914.695 26.0398   6
   2  -5   5 912.913 24.4046   2
  -3   5  -5 2930.22 64.8107   6
  -3   5  -5 2936.70 57.3784   9
  -3   5  -5 2862.98 63.0242   3
  -3   5  -5 2895.77 61.8292   8
  -3   5  -5 2861.68 62.4338  10
   3  -5   5 2876.95 62.6843   2
  -4   5  -5 51.8344 6.32254   8
  -4   5  -5 28.8423 6.29689   6
  -4   5  -5 35.0425 5.54036   3
  -4   5  -5 42.7541 7.05107  13
  -4   5  -5 51.3835 6.28066  10
   4  -5   5 37.4210 7.29131   2
  -5   5  -5 33.1434 5.57507   3
  -5   5  -5 35.4696 5.85014  10
  -5   5  -5 48.1874 7.69597   6
  -5   5  -5 36.7343 6.74715  13
  -5   5  -5 44.4885 6.10063   8
   5  -5   5 48.8735 8.09435   2
  -6   5  -5 146.324 10.1409  10
  -6   5  -5 139.806 9.63950   8
  -6   5  -5 143.273 10.3449   3
  -6   5  -5 151.107 12.2338  13
   6  -5   5 134.769 11.7509   2
  -7   5  -5 91.7643 9.25492   3
  -7   5  -5 101.600 8.97889   8
  -7   5  -5 86.5541 10.3745  13
  -7   5  -5 101.402 9.73826  10
   7  -5   5 110.631 11.4212   2
  -8   5  -5 28.4092 8.47755  13
  -8   5  -5 18.7745 5.77052  10
  -8   5  -5 17.5450 5.50856   8
   8  -5   5 28.8295 8.38984   2
  -9   5  -5 11.2874 5.80231  10
  -9   5  -5 7.75321 7.48001  13
  -9   5  -5 5.32033 5.24094   8
   9  -5   5 8.70147 7.85665   2
   7   4  -5 163.457 13.4823   1
   7   4  -5 179.055 10.6410   3
   7   4  -5 210.996 13.6811   9
   7   4  -5 180.436 13.6883   6
  -7  -4   5 156.497 13.3240  13
  -7  -4   5 188.174 14.5530  12
   6   4  -5 25.3004 6.18015   8
   6   4  -5 21.4912 4.84882   3
   6   4  -5 18.0790 5.75392   6
   6   4  -5 30.5726 6.98126   1
   6   4  -5 24.6992 6.26841   9
  -6  -4   5 26.8906 6.77951  13
  -6  -4   5 28.1338 7.33631  12
   5   4  -5 379.491 16.8864   1
   5   4  -5 352.403 16.2954   6
   5   4  -5 398.742 16.0798   9
   5   4  -5 368.926 15.9963   8
   5   4  -5 362.256 13.5226   3
  -5  -4   5 345.485 16.4239  12
   4   4  -5 1413.21 33.4077   3
   4   4  -5 1435.17 36.2307   8
   4   4  -5 1414.39 36.9548   1
   4   4  -5 1350.48 34.3758   9
   4   4  -5 1380.35 36.4434   6
  -4  -4   5 1397.72 36.2715  12
   3   4  -5 223.672 12.4939   1
   3   4  -5 209.078 11.3015   8
   3   4  -5 233.444 9.83282   3
   3   4  -5 211.131 10.4890   9
   3   4  -5 219.804 11.6413   6
  -3  -4   5 227.339 11.8514  12
   2   4  -5 926.213 23.8609   3
   2   4  -5 945.190 23.8358   9
   2   4  -5 956.850 25.5787   8
   2   4  -5 987.422 26.8299   1
   2   4  -5 993.267 27.0565   6
  -2  -4   5 918.599 25.6319  12
   1   4  -5 186.677 10.0672   1
   1   4  -5 184.948 8.47044   3
   1   4  -5 200.228 8.17966   9
   1   4  -5 188.622 9.53077   8
   1   4  -5 203.769 10.2876   6
  -1  -4   5 187.828 9.63774  12
   0   4  -5 99.2157 5.21044   9
   0   4  -5 135.642 7.54985   8
   0   4  -5 135.999 7.06620   3
   0   4  -5 103.300 7.80628   6
  -1   4  -5 117.235 6.89587   3
  -1   4  -5 107.241 4.86765   9
  -1   4  -5 107.404 7.02897   8
  -1   4  -5 120.337 6.78507  10
  -2   4  -5 8.08574 3.24715   8
  -2   4  -5 3.49508 2.89742   3
  -2   4  -5 4.27846 1.71633   9
  -2   4  -5 5.33314 2.80620  10
   2  -4   5 7.63084 4.15813   2
  -3   4  -5 867.173 22.1040   8
  -3   4  -5 850.509 23.1183   3
  -3   4  -5 849.156 22.3765  10
   3  -4   5 881.564 23.9248   2
  -4   4  -5 119.207 7.80593   8
  -4   4  -5 127.027 9.51274  13
  -4   4  -5 122.892 9.94485   6
  -4   4  -5 108.528 7.43953  10
  -4   4  -5 112.995 8.20676   3
   4  -4   5 113.206 9.50731   2
  -5   4  -5 36.8970 6.79047  13
  -5   4  -5 38.3034 5.77979  10
  -5   4  -5 35.2249 5.44117   8
  -5   4  -5 32.3839 5.68342   3
   5  -4   5 44.4093 7.70240   2
  -6   4  -5 389.491 15.2212  10
  -6   4  -5 393.388 17.0846  13
  -6   4  -5 408.963 14.3391   8
  -6   4  -5 378.089 15.6624   3
   6  -4   5 375.186 17.1206   2
  -7   4  -5 19.6098 6.75208  13
  -7   4  -5 33.2072 5.55401   8
  -7   4  -5 25.4045 6.02502  10
   7  -4   5 33.3952 8.02350   2
  -8   4  -5 87.8476 9.28667  10
  -8   4  -5 106.537 8.97217   8
  -8   4  -5 102.528 11.3365  13
   8  -4   5 114.218 12.0799   2
  -9   4  -5 113.363 11.7535  10
  -9   4  -5 142.732 10.7212   8
  -9   4  -5 129.421 13.5212  13
   9  -4   5 143.687 13.9995   2
   7   3  -5 360.782 17.7688   1
   7   3  -5 359.124 17.8788   6
   7   3  -5 328.410 16.6068   9
   7   3  -5 349.324 13.7123   3
  -7  -3   5 329.889 18.0593  12
  -7  -3   5 354.468 17.6439  13
   6   3  -5 414.267 14.2473   3
   6   3  -5 378.128 17.6258   1
   6   3  -5 400.491 16.9139   9
   6   3  -5 412.205 18.2685   6
  -6  -3   5 408.944 17.8669  13
  -6  -3   5 388.129 18.3009  12
   5   3  -5 200.589 11.4053   9
   5   3  -5 213.418 12.1394   8
   5   3  -5 212.575 9.42167   3
   5   3  -5 210.893 12.6546   6
   5   3  -5 207.611 12.6661   1
  -5  -3   5 198.125 12.7426  12
  -5  -3   5 196.989 12.1223  13
   4   3  -5 1265.83 33.9107   1
   4   3  -5 1308.93 34.2582   6
   4   3  -5 1254.70 29.8301   3
   4   3  -5 1267.66 32.9733   8
   4   3  -5 1295.42 32.4293   9
  -4  -3   5 1269.11 33.8155  12
   3   3  -5 3689.98 77.4594   8
   3   3  -5 3695.44 78.4499   1
   3   3  -5 3622.02 74.4191   3
   3   3  -5 3650.96 75.9894   9
   3   3  -5 3639.66 78.5110   6
  -3  -3   5 3724.32 78.2762  12
   2   3  -5 32.9222 3.99251   3
   2   3  -5 30.1721 4.96376   6
   2   3  -5 37.5063 4.38216   9
   2   3  -5 41.0494 5.13295   8
   2   3  -5 37.6141 5.48267   1
  -2  -3   5 35.9093 5.35820  12
   1   3  -5 0.27403 3.13080   1
   1   3  -5 -0.1617 1.97014   3
   1   3  -5 -0.9414 2.19602   9
   1   3  -5 2.95194 2.85701   8
   1   3  -5 -0.9630 1.53584   6
  -1  -3   5 -1.6772 2.93399  12
   0   3  -5 10.4647 3.03026   8
   0   3  -5 3.76106 1.94793   9
   0   3  -5 6.30325 2.31481   3
   0   3  -5 2.24809 3.12490   1
  -1   3  -5 226.122 8.85327   3
  -1   3  -5 235.830 8.85091   8
  -1   3  -5 255.235 10.5691   6
  -1   3  -5 236.635 8.44705  10
  -1   3  -5 228.505 6.15038   9
  -2   3  -5 2.72405 2.54282   8
  -2   3  -5 8.97329 2.60433  10
  -2   3  -5 11.6798 3.56613   6
  -2   3  -5 7.42192 2.79227   3
   2  -3   5 9.95118 3.85350   2
  -3   3  -5 268.395 11.8569   6
  -3   3  -5 259.758 9.33217   8
  -3   3  -5 267.348 9.77950  10
  -3   3  -5 269.041 10.5636   3
   3  -3   5 263.244 11.5154   2
  -4   3  -5 385.710 12.9551  10
  -4   3  -5 388.844 14.8316  13
  -4   3  -5 391.648 9.34584   9
  -4   3  -5 398.692 15.3493   6
  -4   3  -5 404.422 12.3852   8
  -4   3  -5 394.542 13.7797   3
   4  -3   5 409.849 15.4646   2
  -5   3  -5 7.98250 4.08553   3
  -5   3  -5 4.53916 3.42328  10
  -5   3  -5 9.65524 2.73730  11
  -5   3  -5 10.4810 4.98763  13
  -5   3  -5 10.2735 3.49371   8
   5  -3   5 8.04016 5.98475   2
  -6   3  -5 16.1706 5.77815  13
  -6   3  -5 11.4208 2.81724  11
  -6   3  -5 14.2438 3.80135   8
  -6   3  -5 5.38700 3.88883  10
   6  -3   5 15.6892 6.75090   2
  -7   3  -5 5.47051 5.57845  13
  -7   3  -5 11.0114 2.97713  11
  -7   3  -5 14.5019 4.86326  10
  -7   3  -5 9.79975 3.84099   8
   7  -3   5 1.15392 6.21989   2
  -8   3  -5 -3.3491 5.51133  13
  -8   3  -5 0.78455 4.16320  10
   8  -3   5 0.55729 6.73106   2
  -9   3  -5 160.300 13.7056  13
  -9   3  -5 151.080 11.8851  10
   9  -3   5 180.799 15.0058   2
   8   2  -5 639.081 24.9835   1
   8   2  -5 677.972 25.0524   9
  -8  -2   5 600.122 26.1344  12
  -8  -2   5 670.728 25.7150  13
   7   2  -5 94.2285 9.75066   9
   7   2  -5 136.372 12.4614   6
   7   2  -5 108.557 10.8606   1
  -7  -2   5 118.897 12.5672  12
  -7  -2   5 132.149 12.2616  13
   6   2  -5 26.7231 6.54210   6
   6   2  -5 22.1195 5.53021   9
   6   2  -5 37.8712 6.99754   1
   6   2  -5 19.1337 4.01879   3
  -6  -2   5 30.1835 6.70860  13
  -6  -2   5 18.7872 6.66010  12
   5   2  -5 123.437 9.39871   9
   5   2  -5 118.981 9.95489   1
   5   2  -5 115.427 6.80210   3
   5   2  -5 120.613 9.97991   6
  -5  -2   5 130.347 10.5822  12
  -5  -2   5 131.856 10.5612  13
   4   2  -5 262.117 13.1115   1
   4   2  -5 278.834 12.0199   9
   4   2  -5 270.781 9.54747   3
   4   2  -5 276.517 13.2074   6
  -4  -2   5 270.754 13.2388  12
   3   2  -5 3650.76 76.9790   8
   3   2  -5 3763.49 78.2562   1
   3   2  -5 3749.22 73.6372   3
   3   2  -5 3625.31 75.8732   9
  -3  -2   5 3635.45 78.0505  12
   2   2  -5 56.9870 5.42241   8
   2   2  -5 71.7867 4.48469   3
   2   2  -5 77.4857 5.65136   9
   2   2  -5 64.6458 6.27825   1
  -2  -2   5 80.7027 6.98248  12
   1   2  -5 221.231 9.70794   1
   1   2  -5 227.735 7.58054   3
   1   2  -5 236.925 9.08070   8
   1   2  -5 227.106 9.85102   6
  -1  -2   5 215.329 9.65955  12
   0   2  -5 273.048 10.4638   6
   0   2  -5 251.183 8.90416   8
   0   2  -5 267.003 7.54233   9
   0   2  -5 262.649 8.40317   3
   0   2  -5 261.127 9.78261   1
  -1   2  -5 101.985 6.53367   6
  -1   2  -5 102.283 4.84689  10
  -1   2  -5 100.439 5.30488   3
  -1   2  -5 109.382 5.81414   1
  -2   2  -5 313.026 10.2597   3
  -2   2  -5 324.182 9.34017  10
  -2   2  -5 304.947 11.3468   6
  -2   2  -5 308.802 9.26486   1
  -2   2  -5 300.672 9.00200   8
   2  -2   5 309.206 11.3157   2
  -3   2  -5 47.1954 4.15579  10
  -3   2  -5 48.8922 3.90728   8
  -3   2  -5 52.6150 5.57337   6
  -3   2  -5 44.6489 4.14228  11
  -3   2  -5 49.6262 4.85519   3
   3  -2   5 57.1368 6.15880   2
  -4   2  -5 962.702 20.3565   1
  -4   2  -5 977.308 22.4632  11
  -4   2  -5 934.748 25.4330   6
  -4   2  -5 973.140 23.4629  10
  -4   2  -5 958.721 24.5112   3
  -4   2  -5 960.505 25.0748  13
   4  -2   5 945.151 25.7205   2
  -5   2  -5 21.8468 3.46864   8
  -5   2  -5 16.1370 4.88650  13
  -5   2  -5 16.6839 3.77792  10
  -5   2  -5 19.3489 3.88248   7
  -5   2  -5 19.8225 3.32238  11
   5  -2   5 20.9361 1.99223   5
   5  -2   5 12.1131 6.13019   2
  -6   2  -5 -2.4556 3.01142   7
  -6   2  -5 -0.1325 3.18029  10
  -6   2  -5 2.48793 2.68384  11
  -6   2  -5 2.06054 2.84601   8
  -6   2  -5 -4.6173 4.56865  13
   6  -2   5 3.51612 6.15962   2
   6  -2   5 -0.1778 2.20086   9
  -7   2  -5 2661.07 57.2239   7
  -7   2  -5 2679.49 59.6170  10
  -7   2  -5 2685.51 60.8855  13
  -7   2  -5 2702.43 55.8954  11
   7  -2   5 2589.76 61.4416   2
   7  -2   5 2667.86 55.7364   9
  -8   2  -5 117.420 7.34150  11
  -8   2  -5 99.3810 9.20808  10
  -8   2  -5 150.120 12.0910  13
  -8   2  -5 108.454 7.61268   7
   8  -2   5 121.553 7.71700   9
   8  -2   5 118.015 11.7568   2
  -9   2  -5 379.482 17.1650  10
  -9   2  -5 420.076 19.2206  13
   9  -2   5 404.903 14.8396   9
   9  -2   5 396.630 19.8828   2
 -10   2  -5 7.16455 5.50521  10
 -10   2  -5 3.35594 6.79592  13
  10  -2   5 9.97134 4.42993   9
  10  -2   5 8.70102 8.50092   2
   8   1  -5 2.97917 5.25722   9
   8   1  -5 12.4293 6.53681   1
  -8  -1   5 19.6358 8.32688  12
  -8  -1   5 15.3774 7.06763  13
   7   1  -5 6.01943 5.33198   1
   7   1  -5 -1.1140 5.08939   6
   7   1  -5 7.17933 4.95406   9
  -7  -1   5 2.39472 5.23648  13
  -7  -1   5 -5.4920 5.64638  12
   6   1  -5 73.7298 8.29651   9
   6   1  -5 67.8742 8.54597   6
   6   1  -5 75.3145 8.78945   1
   6   1  -5 75.6150 5.89072   3
  -6  -1   5 93.5802 10.3395  12
  -6  -1   5 71.8387 8.83888  13
   5   1  -5 46.6418 4.38894   3
   5   1  -5 39.3803 6.31348   6
   5   1  -5 45.8302 6.87638   1
   5   1  -5 36.9869 5.78929   9
  -5  -1   5 47.8945 7.07086  13
  -5  -1   5 53.8507 7.50494  12
   4   1  -5 1793.68 42.9461   6
   4   1  -5 1747.99 42.6417   1
   4   1  -5 1810.62 41.4838   9
   4   1  -5 1798.79 37.3161   3
  -4  -1   5 1745.81 42.8426  12
  -4  -1   5 1754.86 42.5402  13
   3   1  -5 65.4640 6.62189   1
   3   1  -5 67.3611 4.02109   3
   3   1  -5 57.9454 5.54807   9
   2   1  -5 181.743 9.09085   6
   2   1  -5 164.077 8.89564   1
   2   1  -5 175.882 8.18643   8
   2   1  -5 173.526 7.67477   9
   2   1  -5 174.712 5.76884   3
   1   1  -5 231.238 9.33242   1
   1   1  -5 225.232 9.63135   6
   1   1  -5 220.967 6.57270   3
   1   1  -5 237.910 8.62011   8
   0   1  -5 971.074 21.0143   3
   0   1  -5 967.660 23.8289   6
   0   1  -5 975.072 20.8842   9
   0   1  -5 970.937 23.0288   1
  -1   1  -5 3053.31 60.0029   8
  -1   1  -5 3038.65 59.1003  10
  -1   1  -5 3032.93 60.3903   3
  -1   1  -5 3062.83 62.4803   6
   1  -1   5 2969.35 58.2949   9
  -2   1  -5 5.55870 2.47412  11
  -2   1  -5 12.4749 2.65022   3
  -2   1  -5 11.0400 1.86655   8
  -2   1  -5 10.8511 2.10717   1
  -2   1  -5 9.86725 2.90269   6
  -2   1  -5 9.93399 1.84849  10
  -2   1  -5 10.5422 1.70699   5
   2  -1   5 11.0115 3.50397   2
  -3   1  -5 450.392 13.9223   7
  -3   1  -5 449.663 10.7956   8
  -3   1  -5 483.711 12.1381  10
  -3   1  -5 444.279 12.6697  11
  -3   1  -5 456.492 10.3044   1
  -3   1  -5 474.523 14.1534   6
  -3   1  -5 444.574 13.1854   3
  -4   1  -5 874.765 18.7354   9
  -4   1  -5 891.293 19.4648   8
  -4   1  -5 878.814 22.6061   7
  -4   1  -5 919.463 21.4267  10
  -4   1  -5 908.077 22.8175  13
  -4   1  -5 897.315 21.4386  11
  -4   1  -5 898.428 23.2664   6
   4  -1   5 855.600 18.5795   9
   4  -1   5 902.245 24.1754   2
  -5   1  -5 1087.26 28.0892  13
  -5   1  -5 1124.77 24.7239   8
  -5   1  -5 1167.10 27.8463   7
  -5   1  -5 1187.67 27.4711  10
  -5   1  -5 1124.58 26.4257  11
   5  -1   5 1134.53 29.9757   2
   5  -1   5 1125.72 24.4923   9
  -6   1  -5 345.724 11.6367  11
  -6   1  -5 338.790 12.5653   7
  -6   1  -5 333.496 12.6897  10
  -6   1  -5 348.114 13.8466  13
   6  -1   5 320.270 15.2924   2
   6  -1   5 328.283 10.5134   9
  -7   1  -5 6.86859 3.92694   7
  -7   1  -5 19.7380 5.64511  13
  -7   1  -5 9.95951 3.83204  11
  -7   1  -5 13.4516 4.41457  10
   7  -1   5 17.1394 6.66404   2
   7  -1   5 14.1645 3.52577   9
  -8   1  -5 1139.29 32.6545  13
  -8   1  -5 1203.40 29.2459  11
  -8   1  -5 1177.13 30.1294   7
  -8   1  -5 1195.38 32.3984  10
   8  -1   5 1203.84 29.3449   9
   8  -1   5 1191.41 34.6637   2
  -9   1  -5 35.1094 7.60316  13
  -9   1  -5 50.1941 6.28107   7
  -9   1  -5 35.7519 5.85021  11
  -9   1  -5 41.3992 7.14624  10
   9  -1   5 38.0925 5.80724   9
   9  -1   5 27.5583 8.32946   2
 -10   1  -5 28.1789 8.04998  13
 -10   1  -5 19.0726 6.42735  10
  10  -1   5 46.3806 9.82109   2
  10  -1   5 29.0076 5.81632   9
   8   0  -5 10.4656 6.37780   1
   8   0  -5 -0.3274 4.97124   9
  -8   0   5 9.09121 8.02743  12
  -8   0   5 -0.4073 5.86295  13
   7   0  -5 254.224 15.0423   1
   7   0  -5 225.725 13.7367   9
  -7   0   5 214.139 14.8760  13
  -7   0   5 256.717 16.0246  12
   6   0  -5 239.454 13.1569   9
   6   0  -5 238.553 13.5260   1
   6   0  -5 257.998 14.2978   6
  -6   0   5 243.341 13.6631  13
  -6   0   5 249.688 14.8916  12
   5   0  -5 768.467 24.8601   6
   5   0  -5 838.300 24.2887   9
   5   0  -5 832.350 19.2429   3
   5   0  -5 781.491 24.6727   1
  -5   0   5 804.849 24.9845  13
  -5   0   5 857.782 26.0827  12
   4   0  -5 118.449 8.17921   9
   4   0  -5 120.187 9.09408   6
   4   0  -5 125.596 9.04878   1
   4   0  -5 120.020 5.04410   3
  -4   0   5 121.754 9.54982  13
  -4   0   5 127.440 9.81373  12
   3   0  -5 59.4040 6.51566   6
   3   0  -5 51.9680 5.83568   1
   3   0  -5 52.0565 2.98769   3
   3   0  -5 48.6771 5.28006   9
  -3   0   5 43.3591 5.95830  12
  -3   0   5 52.8156 6.13572  13
   2   0  -5 1097.78 27.6526   1
   2   0  -5 1147.46 28.0573   6
   2   0  -5 1139.87 26.5005   9
  -2   0   5 1093.55 27.7370  12
   1   0  -5 28.3000 4.21083   1
   1   0  -5 23.9646 3.66984   6
  -1   0   5 19.8166 3.71016  12
   0   0  -5 2997.37 58.0227   3
   0   0  -5 3011.65 61.7259   6
   0   0  -5 2969.21 60.9373   1
  -1   0  -5 1638.84 35.8447   6
  -1   0  -5 1653.86 36.0780  11
  -1   0  -5 1673.72 34.8368   1
  -1   0  -5 1682.46 33.6120   8
  -2   0  -5 1158.04 23.0699  10
  -2   0  -5 1151.17 24.1957   5
  -2   0  -5 1140.09 27.1186   7
  -2   0  -5 1152.33 23.9449   1
  -2   0  -5 1150.58 25.9463   6
  -2   0  -5 1128.16 26.0117  11
  -2   0  -5 1142.82 22.7762   8
   2   0   5 1150.28 23.1694   9
   2   0   5 1133.47 22.8507   8
   2   0   5 1120.78 26.7491   2
  -3   0  -5 3115.22 62.8485   6
  -3   0  -5 3043.81 62.5151   4
  -3   0  -5 3108.44 62.8177  11
  -3   0  -5 3091.91 60.7312  10
  -3   0  -5 3055.64 63.8263   7
   3   0   5 3062.58 63.9400   2
   3   0   5 3077.22 59.7575   9
  -4   0  -5 24.5756 3.75571  11
  -4   0  -5 21.9508 3.42813   4
  -4   0  -5 20.3160 3.95139   7
  -4   0  -5 22.7006 3.13617  10
  -4   0  -5 30.1765 4.17148  13
  -4   0  -5 33.1516 4.34193   6
   4   0   5 27.2536 2.74545   9
   4   0   5 20.2992 4.99460   2
  -5   0  -5 3115.18 64.4004  11
  -5   0  -5 3110.33 65.6391   7
  -5   0  -5 3083.54 64.9154  13
  -5   0  -5 3173.90 63.7861   4
  -5   0  -5 3159.82 64.4398  10
   5   0   5 3125.10 67.2156   2
   5   0   5 3098.56 62.5070   9
  -6   0  -5 15.3677 4.08609  10
  -6   0  -5 26.0204 3.98899   4
  -6   0  -5 24.6941 4.89369   7
  -6   0  -5 28.3474 4.67387  11
  -6   0  -5 30.2575 5.45034  13
   6   0   5 26.3691 3.87318   9
   6   0   5 28.4798 6.89157   2
  -7   0  -5 189.273 8.61842   4
  -7   0  -5 209.432 10.7746  10
  -7   0  -5 215.396 10.6045   7
  -7   0  -5 205.842 11.3364  13
   7   0   5 191.731 13.3310   2
   7   0   5 201.687 9.36136   9
  -8   0  -5 790.617 23.1711   7
  -8   0  -5 773.685 20.3338   4
  -8   0  -5 818.843 24.5257  13
  -8   0  -5 789.116 24.1768  10
   8   0   5 803.166 22.1619   9
   8   0   5 804.041 26.9437   2
  -9   0  -5 29.3055 6.63313  10
  -9   0  -5 38.6785 8.21890  12
  -9   0  -5 43.9429 6.34759   7
  -9   0  -5 52.2976 8.24111  13
   9   0   5 37.3142 8.48246   2
   9   0   5 50.1847 6.39319   9
 -10   0  -5 75.0809 8.27884   7
 -10   0  -5 56.2928 9.96566  12
 -10   0  -5 51.4334 9.02913  13
 -10   0  -5 56.6432 8.85280  10
  10   0   5 70.0989 8.01913   9
  10   0   5 56.2042 10.0132   2
   8  -1  -5 169.603 12.9222   9
   8  -1  -5 158.123 13.6429   1
  -8   1   5 138.599 13.8323  13
  -8   1   5 159.997 15.1883  12
  -8   1   5 140.815 12.8977  10
   7  -1  -5 334.617 16.8582   1
   7  -1  -5 347.107 16.1270   9
  -7   1   5 317.452 16.7961  13
  -7   1   5 291.752 15.0827  10
  -7   1   5 295.661 17.6364  12
   6  -1  -5 403.402 16.8329   9
   6  -1  -5 390.490 17.2202   1
  -6   1   5 425.160 18.8840  12
  -6   1   5 423.215 18.4250  13
  -6   1   5 421.287 16.5658  10
   5  -1  -5 799.887 25.1328   1
   5  -1  -5 813.723 24.3600   9
   5  -1  -5 820.785 25.4098   6
  -5   1   5 829.685 25.7526  12
  -5   1   5 825.075 23.4159  10
  -5   1   5 823.365 25.3337  13
   4  -1  -5 474.800 16.2547   9
   4  -1  -5 446.307 16.9200   1
   4  -1  -5 466.774 10.9802   3
   4  -1  -5 471.250 17.0556   6
  -4   1   5 464.351 16.9383  13
  -4   1   5 460.509 15.1196  10
  -4   1   5 468.758 17.3523  12
   3  -1  -5 549.979 16.5636   9
   3  -1  -5 547.041 17.3655   6
  -3   1   5 533.025 17.2833  13
  -3   1   5 517.473 15.0363  10
  -3   1   5 514.359 17.1508  12
   2  -1  -5 2853.85 60.4941   1
   2  -1  -5 2861.65 60.3040   6
  -2   1   5 2819.04 57.3044  10
  -2   1   5 2866.96 60.4605  12
  -2   1   5 2805.13 60.0391  13
   1  -1  -5 3652.33 74.4261   6
   1  -1  -5 3677.00 74.6424   1
  -1   1   5 3667.09 74.6622  12
  -1   1   5 3608.05 71.0094  10
   0  -1  -5 -2.4778 1.91175   6
   0  -1  -5 1.78528 2.26876   1
  -1  -1  -5 11.0990 2.45778   5
  -1  -1  -5 16.7066 3.37456   7
  -1  -1  -5 13.3876 2.84930   4
  -1  -1  -5 13.2183 2.46107   1
  -2  -1  -5 48.3618 3.42223   1
  -2  -1  -5 50.0685 3.91188   6
  -2  -1  -5 42.3032 3.95870   4
  -2  -1  -5 46.4764 4.35721  11
   2   1   5 43.2404 3.59949   9
   2   1   5 38.2596 4.41281   2
  -3  -1  -5 748.794 18.9160   4
  -3  -1  -5 768.365 16.8192  10
  -3  -1  -5 743.847 19.9070   7
  -3  -1  -5 780.652 15.8434   1
  -3  -1  -5 756.552 17.9768   6
  -3  -1  -5 736.266 19.0747  11
   3   1   5 735.770 19.6738   2
   3   1   5 758.877 17.2968   9
   3   1   5 763.012 15.7616   1
  -4  -1  -5 127.696 7.06566  11
  -4  -1  -5 138.492 5.99030  10
  -4  -1  -5 124.060 7.58651   7
  -4  -1  -5 121.676 6.47763   4
   4   1   5 134.005 8.63452   2
   4   1   5 121.791 5.91372   9
  -5  -1  -5 298.295 11.6916   7
  -5  -1  -5 301.290 10.5165  13
  -5  -1  -5 300.378 7.47856   8
  -5  -1  -5 303.354 11.4156  11
  -5  -1  -5 294.499 10.3640   4
  -5  -1  -5 284.380 10.2780  10
   5   1   5 285.560 10.0257   9
   5   1   5 293.871 13.4492   2
  -6  -1  -5 306.563 11.1583   4
  -6  -1  -5 313.344 11.9724  10
  -6  -1  -5 312.574 11.9200  13
  -6  -1  -5 332.148 12.9958   7
   6   1   5 328.634 15.0975   2
   6   1   5 322.755 11.3523   9
  -7  -1  -5 666.536 18.0496   4
  -7  -1  -5 633.343 19.6795  10
  -7  -1  -5 643.854 19.6214  13
  -7  -1  -5 650.034 20.1693   7
   7   1   5 630.360 18.6634   9
   7   1   5 640.810 22.1300   2
  -8  -1  -5 1.99383 3.85902  10
  -8  -1  -5 0.49330 5.38004  12
  -8  -1  -5 4.62198 3.14802   4
  -8  -1  -5 -2.1336 4.29859  13
  -8  -1  -5 4.42700 4.40539   7
   8   1   5 -7.0731 6.08898   2
   8   1   5 4.45119 4.04403   9
  -9  -1  -5 906.812 29.7055  12
  -9  -1  -5 947.485 27.3796  13
  -9  -1  -5 898.351 26.7108   7
  -9  -1  -5 899.684 27.8994  10
  -9  -1  -5 891.637 23.3240   4
   9   1   5 897.361 25.9796   9
   9   1   5 894.423 29.5317   2
 -10  -1  -5 95.5088 11.9024  12
 -10  -1  -5 62.8627 9.06508  13
 -10  -1  -5 78.0918 8.88916   7
 -10  -1  -5 70.8270 9.19978  10
  10   1   5 74.0096 11.1538   2
  10   1   5 75.2241 8.65649   9
   8  -2  -5 794.867 28.1374   1
  -8   2   5 776.482 27.0762  10
   7  -2  -5 8.87797 6.08008   1
  -7   2   5 16.8287 7.59756  12
  -7   2   5 10.2545 6.76372  13
  -7   2   5 7.70619 5.52285  10
   6  -2  -5 477.581 19.2888   1
  -6   2   5 469.250 17.8953  10
  -6   2   5 501.212 20.4488  12
  -6   2   5 469.504 19.7788  13
   5  -2  -5 64.1791 7.90978   1
  -5   2   5 71.7095 7.24576  10
  -5   2   5 73.8719 8.76993  12
  -5   2   5 82.5254 9.00047  13
   4  -2  -5 1779.48 43.2117   6
   4  -2  -5 1778.51 43.1685   1
  -4   2   5 1813.73 43.1518  13
  -4   2   5 1842.82 43.6288  12
  -4   2   5 1828.55 41.1236  10
   3  -2  -5 478.471 16.3740   6
  -3   2   5 474.083 16.2115  13
  -3   2   5 502.055 14.6038  10
  -3   2   5 500.708 16.5957  12
   2  -2  -5 340.425 12.6927   1
   2  -2  -5 330.093 12.1305   6
  -2   2   5 321.926 10.0817  10
  -2   2   5 344.072 12.2658  13
  -2   2   5 329.288 12.3279  12
   1  -2  -5 402.108 12.5806   6
   1  -2  -5 392.540 13.0251   1
  -1   2   5 414.134 12.6213  13
  -1   2   5 406.586 10.3130  10
  -1   2   5 385.112 12.5979  12
   0  -2  -5 27.9329 3.86026  11
   0  -2  -5 18.8567 3.42300   1
   0  -2  -5 11.7366 2.39032   6
   0  -2  -5 14.2892 3.02548   4
   0  -2  -5 19.8583 3.50005   7
   0   2   5 22.6960 3.44931  12
   0   2   5 28.2319 2.11886  10
  -1  -2  -5 528.497 14.2208   5
  -1  -2  -5 524.667 15.0200   7
  -1  -2  -5 521.966 13.1227   6
  -1  -2  -5 517.799 14.4484  11
  -1  -2  -5 522.805 14.2685   4
  -2  -2  -5 3682.90 75.4653   7
  -2  -2  -5 3674.87 72.7464   1
  -2  -2  -5 3721.55 73.8543   5
  -2  -2  -5 3713.91 72.2656   6
   2   2   5 3676.81 74.2128   2
  -3  -2  -5 625.922 16.9310  11
  -3  -2  -5 621.339 14.3341   6
  -3  -2  -5 609.094 16.4627   4
   3   2   5 608.641 16.9242   2
   3   2   5 613.797 15.7233   9
  -4  -2  -5 14.9089 3.98573   7
  -4  -2  -5 11.8334 2.46713   6
  -4  -2  -5 8.60850 3.62387  11
  -4  -2  -5 10.3612 3.25727   4
   4   2   5 16.6793 3.39306   9
   4   2   5 12.1471 4.28881   2
   4   2   5 12.3424 1.65540   1
  -5  -2  -5 151.734 4.92809   8
  -5  -2  -5 141.370 7.65484   4
  -5  -2  -5 137.017 9.00370   7
   5   2   5 158.250 10.0208   2
   5   2   5 154.229 8.09638   9
  -6  -2  -5 354.569 14.1419   7
  -6  -2  -5 353.200 12.4237   4
  -6  -2  -5 359.068 11.9931  13
   6   2   5 360.240 12.9944   9
   6   2   5 355.388 15.0238   2
  -7  -2  -5 351.132 12.7175   4
  -7  -2  -5 353.338 13.8399  10
  -7  -2  -5 339.915 14.4102   7
  -7  -2  -5 333.950 12.8122  13
   7   2   5 347.417 13.4970   9
   7   2   5 370.584 16.1019   2
  -8  -2  -5 134.985 9.43369  13
  -8  -2  -5 124.326 10.3351   7
  -8  -2  -5 146.157 10.3210  10
  -8  -2  -5 141.494 11.4399  12
  -8  -2  -5 135.850 8.45035   4
   8   2   5 112.744 9.31196   9
   8   2   5 115.873 10.9732   2
  -9  -2  -5 2949.86 69.4366  12
  -9  -2  -5 3028.86 66.1318  13
  -9  -2  -5 3001.11 63.8702   4
  -9  -2  -5 3016.67 67.6684   7
   9   2   5 2900.08 66.1910   9
   9   2   5 3015.92 69.0298   2
 -10  -2  -5 82.9915 9.42320  13
 -10  -2  -5 73.0583 10.7104  12
 -10  -2  -5 91.0831 10.0107   7
  10   2   5 88.3924 9.44145   9
  10   2   5 83.4633 10.8824   2
   7  -3  -5 686.959 24.8645   1
  -7   3   5 660.240 25.6465  12
  -7   3   5 682.111 25.6817  13
  -7   3   5 642.924 23.1358  10
   6  -3  -5 1002.22 30.6780   1
  -6   3   5 1036.76 31.5431  12
  -6   3   5 1020.34 30.9425  13
  -6   3   5 1017.75 29.0310  10
   5  -3  -5 15.2475 5.40982   1
  -5   3   5 19.4289 6.43679  12
  -5   3   5 17.1516 5.88398  13
  -5   3   5 26.1226 5.44434  10
   4  -3  -5 194.481 11.2959   1
  -4   3   5 183.262 11.6535  12
  -4   3   5 192.080 9.65845  10
  -4   3   5 170.686 11.2675  13
   3  -3  -5 -0.3493 3.54804   1
  -3   3   5 -0.1317 3.96999  13
  -3   3   5 -2.8466 3.92994  12
  -3   3   5 -0.0315 3.01157  10
   2  -3  -5 8.43869 3.97215   1
   2  -3  -5 13.8199 3.92039   6
  -2   3   5 7.04756 3.73910  13
  -2   3   5 9.59883 2.96249  10
  -2   3   5 10.7997 3.91315  12
   1  -3  -5 5.50491 2.47554   4
   1  -3  -5 -2.0235 2.57400   6
   1  -3  -5 4.90728 3.32778   1
  -1   3   5 6.10825 2.24850  10
  -1   3   5 8.28753 3.13170  12
  -1   3   5 5.72194 3.10681  13
   0  -3  -5 771.792 20.1612   5
   0  -3  -5 782.801 19.8695   7
   0  -3  -5 789.415 19.4523   4
   0  -3  -5 776.581 20.3554   1
   0  -3  -5 783.040 19.7891  11
   0   3   5 801.843 17.3909  10
   0   3   5 784.215 19.2339  12
   0   3   5 787.237 18.8262  13
   0   3   5 794.598 16.7123   3
  -1  -3  -5 308.128 10.4404   1
  -1  -3  -5 314.479 10.9621   7
  -1  -3  -5 310.963 10.6624  11
  -1  -3  -5 330.685 10.5188   4
  -1  -3  -5 314.593 8.82355   6
  -1  -3  -5 306.211 10.7533   5
   1   3   5 309.809 8.69935  13
   1   3   5 304.202 7.98829  10
  -2  -3  -5 159.002 8.24962   7
  -2  -3  -5 177.764 5.27398   6
  -2  -3  -5 160.730 7.55010   4
  -2  -3  -5 171.989 7.90977  11
  -2  -3  -5 165.964 6.87841   1
  -2  -3  -5 167.920 7.85490   5
   2   3   5 168.703 5.31919   6
   2   3   5 175.363 5.18028  13
   2   3   5 158.745 7.29494   2
   2   3   5 171.613 5.64073   8
  -3  -3  -5 372.965 13.1733   7
  -3  -3  -5 379.980 12.5019  11
  -3  -3  -5 378.878 12.1846   4
   3   3   5 370.871 12.0708   9
   3   3   5 368.715 8.77239   8
   3   3   5 371.581 12.0354   2
  -4  -3  -5 15.1483 1.84029   8
  -4  -3  -5 19.4631 2.08991   6
  -4  -3  -5 17.2015 3.90279   4
   4   3   5 16.8831 2.09776  13
   4   3   5 14.0259 4.50603   2
   4   3   5 13.5215 3.67926   9
   4   3   5 14.5249 1.73543   8
  -5  -3  -5 1146.90 27.7909   4
  -5  -3  -5 1114.30 29.3286   7
  -5  -3  -5 1129.47 24.2910  13
   5   3   5 1143.18 27.8053   9
   5   3   5 1132.91 28.6127   2
  -6  -3  -5 105.543 9.12054   7
  -6  -3  -5 115.426 8.03054   4
   6   3   5 118.724 9.68424   2
   6   3   5 100.899 5.23417   1
   6   3   5 120.138 8.77519   9
  -7  -3  -5 4.21131 3.70703   4
  -7  -3  -5 3.32370 4.78720   7
  -7  -3  -5 -3.0152 3.11332  13
   7   3   5 -3.4226 3.99205   9
   7   3   5 6.93639 6.06028   2
  -8  -3  -5 45.2376 6.03221   4
  -8  -3  -5 51.6765 6.21993  13
  -8  -3  -5 53.6625 7.88357   7
  -8  -3  -5 44.9531 7.53290  12
   8   3   5 45.0950 8.16907   2
   8   3   5 39.9380 6.71037   9
  -9  -3  -5 6.50709 5.02397  13
  -9  -3  -5 2.29822 5.24462   7
  -9  -3  -5 1.61502 5.70438  12
  -9  -3  -5 0.42700 3.95359   4
   9   3   5 4.12604 5.10369   9
   9   3   5 18.9506 7.36327   2
 -10  -3  -5 480.766 21.5586  12
 -10  -3  -5 480.945 20.2148   7
 -10  -3  -5 434.004 16.6054   4
  10   3   5 486.416 21.0394   2
  10   3   5 468.877 19.6342   9
   7  -4  -5 37.6109 8.12434   1
  -7   4   5 48.4100 9.20916  13
  -7   4   5 32.0253 8.84856  12
  -7   4   5 35.0068 7.33162  10
   6  -4  -5 2.94953 5.51060   1
  -6   4   5 26.3470 7.38194  13
  -6   4   5 12.5941 7.16737  12
  -6   4   5 20.0683 5.76803  10
   5  -4  -5 248.199 13.8839   1
  -5   4   5 253.832 12.4134  10
  -5   4   5 244.705 14.0934  13
  -5   4   5 232.847 14.1157  12
   4  -4  -5 973.430 28.0495   1
  -4   4   5 959.338 27.3192  13
  -4   4   5 956.260 25.6828  10
  -4   4   5 933.017 27.1134  12
   3  -4  -5 614.413 20.5040   1
  -3   4   5 636.209 19.7073  13
  -3   4   5 622.375 19.4462  12
  -3   4   5 628.037 18.0802  10
   2  -4  -5 27.4399 3.69368   4
   2  -4  -5 34.4185 5.86209   1
  -2   4   5 23.6847 4.76529  12
  -2   4   5 30.6505 4.24176  10
  -2   4   5 25.6630 4.85020  13
  -2   4   5 26.0367 2.37145   3
   1  -4  -5 1005.01 24.0147   7
   1  -4  -5 1013.17 23.6501   4
   1  -4  -5 986.956 26.0254   1
  -1   4   5 992.111 24.1938  13
  -1   4   5 992.768 21.1113   3
  -1   4   5 1002.54 23.2728  10
  -1   4   5 995.919 24.0963  12
   0  -4  -5 522.053 14.8585   4
   0  -4  -5 541.233 15.4630   7
   0  -4  -5 544.744 16.5617   1
   0  -4  -5 538.248 15.0376  11
   0  -4  -5 540.098 16.0752   5
   0   4   5 531.568 14.1097  13
   0   4   5 523.176 13.6621  10
   0   4   5 537.065 12.9062   3
   0   4   5 529.617 14.2277  12
  -1  -4  -5 110.487 6.96559   7
  -1  -4  -5 107.094 6.65488   4
  -1  -4  -5 106.965 7.11279   5
  -1  -4  -5 106.829 6.53815  11
  -1  -4  -5 113.189 7.32884   1
   1   4   5 114.170 4.91523  13
   1   4   5 107.091 5.08408  10
   1   4   5 108.060 5.84399   8
   1   4   5 113.029 5.26237   3
  -2  -4  -5 120.151 7.21174   1
  -2  -4  -5 136.927 7.96130   5
  -2  -4  -5 130.712 7.71947   7
  -2  -4  -5 124.059 7.27871   4
  -2  -4  -5 123.743 7.52033  11
   2   4   5 119.494 7.82629   9
   2   4   5 124.145 5.79816   8
   2   4   5 132.079 6.48690   2
  -3  -4  -5 3408.20 71.2017  11
  -3  -4  -5 3455.04 72.1992   7
   3   4   5 3454.44 71.0936   9
   3   4   5 3454.85 69.4127   2
   3   4   5 3363.25 67.3678   8
  -4  -4  -5 47.0484 5.71251   4
   4   4   5 44.1631 5.70634   9
   4   4   5 43.6793 5.62364   2
   4   4   5 48.1098 3.53711   8
  -5  -4  -5 57.4602 6.90969   7
  -5  -4  -5 64.8436 6.46764   4
   5   4   5 56.1117 4.06781   8
   5   4   5 77.5040 7.12818   9
   5   4   5 73.5889 7.31487   2
  -6  -4  -5 32.0916 5.51825   4
  -6  -4  -5 28.4643 6.23508   7
  -6  -4  -5 26.3900 3.21149  13
   6   4   5 27.2653 3.33598   8
   6   4   5 29.4260 5.71287   9
   6   4   5 24.4760 6.22947   2
  -7  -4  -5 298.679 14.8812   7
  -7  -4  -5 292.527 12.8500   4
  -7  -4  -5 311.876 11.7068  13
   7   4   5 289.675 10.2460   1
   7   4   5 323.424 14.1507   9
   7   4   5 306.818 14.2645   2
  -8  -4  -5 594.165 21.5551   7
  -8  -4  -5 561.114 18.7724   4
   8   4   5 585.356 20.6461   2
   8   4   5 556.535 20.2690   9
  -9  -4  -5 1307.90 36.3608   7
  -9  -4  -5 1245.67 34.8923  12
  -9  -4  -5 1178.45 31.9822   4
   9   4   5 1255.16 34.6343   9
   9   4   5 1220.02 34.7096   2
 -10  -4  -5 516.695 22.3358   7
 -10  -4  -5 556.920 22.4340  12
 -10  -4  -5 539.610 19.2396   4
  10   4   5 532.896 22.0195   2
  10   4   5 524.193 21.4892   9
   7  -5  -5 230.365 15.8786   1
  -7   5   5 235.171 14.7128  10
   6  -5  -5 484.625 20.5390   1
  -6   5   5 481.644 20.8816  13
  -6   5   5 448.458 18.4611  10
  -6   5   5 451.363 20.2086  12
   5  -5  -5 247.122 14.0990   1
  -5   5   5 208.414 13.5508  12
  -5   5   5 218.788 12.0848  10
  -5   5   5 219.229 14.0259  13
   4  -5  -5 42.0500 7.26464   1
  -4   5   5 47.4932 6.47062  10
  -4   5   5 46.0391 7.26316  12
  -4   5   5 53.4879 7.72459  13
   3  -5  -5 210.131 12.4813   1
  -3   5   5 195.874 7.19836   3
  -3   5   5 207.981 11.4565  13
  -3   5   5 211.692 10.1503  10
  -3   5   5 220.351 11.5085  12
   2  -5  -5 -1.7012 2.53327   4
   2  -5  -5 -3.9344 4.39422   1
   2  -5  -5 2.99950 3.93378   5
  -2   5   5 2.59302 4.05602  12
  -2   5   5 -1.5182 1.85852   3
  -2   5   5 -4.4047 4.07028  13
  -2   5   5 1.36036 3.10993  10
   1  -5  -5 725.589 18.6559   4
   1  -5  -5 717.866 19.0532  11
   1  -5  -5 732.983 18.7854   7
   1  -5  -5 758.953 21.8962   1
  -1   5   5 695.149 16.9292   3
  -1   5   5 717.530 18.9441  10
  -1   5   5 715.489 18.7148  12
  -1   5   5 723.082 19.2717  13
   0  -5  -5 858.133 23.8362   1
   0  -5  -5 876.187 21.9652   4
   0  -5  -5 869.340 21.9172  11
   0  -5  -5 864.183 22.1252   7
   0   5   5 877.774 22.3605   8
   0   5   5 852.026 21.2221  10
   0   5   5 866.157 20.2360   3
   0   5   5 878.877 20.7282  13
   0   5   5 877.395 20.3811  12
  -1  -5  -5 259.184 11.1967   1
  -1  -5  -5 268.897 10.5066  11
  -1  -5  -5 236.992 10.2348   4
  -1  -5  -5 252.988 10.6144   7
   1   5   5 258.321 7.73686  13
   1   5   5 270.490 9.99685   8
   1   5   5 254.842 9.15436  10
   1   5   5 270.961 9.19114   3
   1   5   5 260.412 7.97529  12
  -2  -5  -5 14.4859 4.15781   4
  -2  -5  -5 7.83723 3.71393  11
  -2  -5  -5 11.2004 4.17539   7
  -2  -5  -5 16.9234 4.81329   5
   2   5   5 13.5119 3.21446   2
   2   5   5 12.1311 3.23069   8
   2   5   5 9.08087 2.90934   3
   2   5   5 12.6953 2.26844  12
   2   5   5 10.1683 4.13866   9
  -3  -5  -5 110.850 7.99055   4
  -3  -5  -5 127.155 9.08540   7
   3   5   5 130.094 7.32813   3
   3   5   5 124.387 6.28308   8
   3   5   5 135.195 8.99338   9
   3   5   5 118.862 7.09589   2
  -4  -5  -5 661.608 21.0750   7
   4   5   5 682.103 20.3568   9
   4   5   5 667.977 16.7718   8
   4   5   5 673.285 18.2506   2
  -5  -5  -5 129.856 10.3016   7
   5   5   5 109.312 8.74278   2
   5   5   5 120.393 9.49529   9
   5   5   5 114.066 6.14574   8
  -6  -5  -5 638.940 21.7803   7
   6   5   5 618.416 20.5365   9
   6   5   5 615.806 16.4460   8
   6   5   5 611.606 19.0267   2
  -7  -5  -5 366.926 16.7272   7
   7   5   5 360.702 11.9729   8
   7   5   5 357.290 14.9159   2
   7   5   5 349.424 15.8863   9
  -8  -5  -5 34.0299 7.66079   7
  -8  -5  -5 42.3626 6.67820   4
   8   5   5 54.4618 7.65237   2
   8   5   5 37.6228 7.56610   9
  -9  -5  -5 225.621 15.3058   7
  -9  -5  -5 211.476 12.4566   4
   9   5   5 218.502 14.2901   9
   9   5   5 223.356 13.7433   2
   6  -6  -5 27.9927 7.83450   1
  -6   6   5 35.5750 7.07741  10
  -6   6   5 34.7707 8.65504  12
  -6   6   5 41.7775 9.02523  13
   5  -6  -5 43.1121 8.08214   1
  -5   6   5 28.0648 6.30394  10
  -5   6   5 25.0101 7.59902  12
  -5   6   5 30.1215 7.51561  13
   4  -6  -5 127.634 11.6604   1
   4  -6  -5 139.202 10.7079   5
  -4   6   5 136.045 9.85382  10
  -4   6   5 152.029 11.2572  12
  -4   6   5 143.137 11.4032  13
   3  -6  -5 48.2954 7.41716   1
   3  -6  -5 59.7046 5.10996   4
   3  -6  -5 53.8003 7.14112   5
  -3   6   5 74.7080 8.11967  13
  -3   6   5 60.8062 6.80814   3
  -3   6   5 62.1612 7.30311  12
  -3   6   5 46.1927 6.36920  10
   2  -6  -5 228.035 9.07433   4
   2  -6  -5 216.060 13.0368   1
   2  -6  -5 212.224 11.6236   5
  -2   6   5 225.897 10.4315  12
  -2   6   5 242.905 10.7208  10
  -2   6   5 209.562 11.1015  13
  -2   6   5 221.082 8.35394   3
   1  -6  -5 13.8547 3.75564   4
   1  -6  -5 9.14121 4.70829   5
   1  -6  -5 5.91679 3.06283   7
   1  -6  -5 6.22249 3.19177  11
   1  -6  -5 18.6627 5.65697   1
  -1   6   5 16.1130 4.35126  13
  -1   6   5 14.9699 3.12978   3
  -1   6   5 9.14634 3.70505  10
  -1   6   5 14.3829 4.03834  12
  -1   6   5 1.02722 4.01963   8
   0  -6  -5 56.4590 5.82432   7
   0  -6  -5 82.0352 8.05953   1
   0  -6  -5 63.2187 5.78338  11
   0  -6  -5 55.5328 5.69198   4
   0  -6  -5 42.6245 6.20659   5
   0   6   5 62.1114 5.36349  13
   0   6   5 63.5091 6.52627   8
   0   6   5 59.5882 5.10996   3
   0   6   5 62.9581 5.16640  12
   0   6   5 64.4371 5.88748  10
  -1  -6  -5 1422.55 34.8436   5
  -1  -6  -5 1444.15 35.3211   1
  -1  -6  -5 1427.72 34.1801   7
  -1  -6  -5 1446.33 33.7117   4
  -1  -6  -5 1481.38 33.6601  11
   1   6   5 1474.33 33.8073   8
   1   6   5 1412.34 29.8962   2
   1   6   5 1435.32 32.6172   3
   1   6   5 1400.42 32.9909  10
   1   6   5 1389.06 29.0389  12
   1   6   5 1411.42 29.7391  13
  -2  -6  -5 602.095 19.0146   7
  -2  -6  -5 601.655 18.9278   5
  -2  -6  -5 600.459 18.1440  11
  -2  -6  -5 602.597 18.3225   4
   2   6   5 581.329 17.1170   3
   2   6   5 613.398 19.7742   9
   2   6   5 579.294 16.9921   8
   2   6   5 592.089 14.5826   2
  -3  -6  -5 5141.07 104.774   7
   3   6   5 5081.90 101.027   8
   3   6   5 5020.55 104.498   9
   3   6   5 5041.58 98.8390   2
   3   6   5 5047.64 102.627   3
  -4  -6  -5 1586.76 39.9258   7
   4   6   5 1652.06 39.7564   9
   4   6   5 1617.04 38.2666   3
   4   6   5 1567.73 34.7872   2
   4   6   5 1609.33 35.7031   8
  -5  -6  -5 25.6884 6.35486   7
   5   6   5 31.9319 6.15295   9
   5   6   5 27.0340 4.14622   8
   5   6   5 39.5918 5.51367   2
  -6  -6  -5 171.426 12.1523   7
   6   6   5 170.237 11.9775   9
   6   6   5 183.902 9.88678   2
   6   6   5 182.462 8.61542   8
  -7  -6  -5 2.24088 5.59113   7
   7   6   5 0.92713 2.96924   8
   7   6   5 -0.6446 5.09009   9
   7   6   5 7.60887 4.93314   2
  -8  -6  -5 219.127 15.1018   7
   8   6   5 216.517 14.1854   9
   8   6   5 231.255 12.4823   2
  -9  -6  -5 387.745 20.2934   7
   9   6   5 389.400 19.1549   9
   9   6   5 412.549 17.3488   2
   5  -7  -5 101.206 10.3463   5
   5  -7  -5 88.8345 10.8647   1
  -5   7   5 102.273 11.0930  13
  -5   7   5 100.996 10.0050  10
  -5   7   5 80.4846 9.91322  12
   4  -7  -5 1.93465 5.02350   5
   4  -7  -5 -10.765 4.87700   1
  -4   7   5 -2.2352 4.32888  10
  -4   7   5 -5.5115 5.31912  13
  -4   7   5 -3.5109 5.19866  12
   3  -7  -5 234.833 14.2037   1
   3  -7  -5 243.609 10.4932   4
   3  -7  -5 216.910 12.9675   5
  -3   7   5 214.975 11.7594  10
  -3   7   5 214.430 11.5176  12
  -3   7   5 236.470 13.0358  13
   2  -7  -5 665.333 23.0858   1
   2  -7  -5 680.268 21.7145   5
   2  -7  -5 639.113 17.9685   4
  -2   7   5 684.314 21.9945   8
  -2   7   5 654.406 20.4685  10
  -2   7   5 646.781 20.3293  13
  -2   7   5 653.845 18.0350   3
  -2   7   5 665.552 19.7445  12
   1  -7  -5 189.865 8.77704   7
   1  -7  -5 175.690 9.04879   4
   1  -7  -5 185.127 8.70989  11
   1  -7  -5 176.350 11.9910   1
   1  -7  -5 214.066 11.9088   5
  -1   7   5 192.984 8.53452   3
  -1   7   5 185.423 9.86500  13
  -1   7   5 184.102 10.9888   8
  -1   7   5 194.480 10.1192  10
   0  -7  -5 57.6648 6.14875   7
   0  -7  -5 62.0632 7.77898   1
   0  -7  -5 53.2562 6.10922   4
   0  -7  -5 58.2821 5.70061  11
   0  -7  -5 52.2720 7.28143   5
   0   7   5 60.0792 5.56198   3
   0   7   5 56.7066 5.40611  13
   0   7   5 60.5332 6.96370   8
   0   7   5 57.5491 6.27205  10
  -1  -7  -5 437.371 14.9029  11
  -1  -7  -5 470.694 15.9518   7
  -1  -7  -5 438.113 16.6146   5
  -1  -7  -5 405.901 15.1685   4
   1   7   5 441.254 15.5429   8
   1   7   5 431.551 14.9331  10
   1   7   5 444.066 14.4845   3
  -2  -7  -5 719.634 22.2267   5
  -2  -7  -5 715.224 21.9053   7
  -2  -7  -5 717.703 20.8513  11
   2   7   5 716.168 22.7565   9
   2   7   5 697.144 20.5298  10
   2   7   5 692.394 20.3397   3
   2   7   5 724.525 20.5131   8
  -3  -7  -5 305.223 14.6599   7
   3   7   5 342.420 12.6679   8
   3   7   5 336.502 15.3693   9
   3   7   5 354.059 13.5087   3
  -4  -7  -5 3.87624 5.37864   7
   4   7   5 11.8565 4.34515   3
   4   7   5 11.0921 5.35159   9
   4   7   5 9.77866 3.64696   8
  -5  -7  -5 292.229 15.0836   7
   5   7   5 299.017 13.7206   3
   5   7   5 283.991 11.4648   8
   5   7   5 291.551 14.9025   9
  -6  -7  -5 -3.0649 5.30433   7
   6   7   5 0.52206 5.30220   9
   6   7   5 3.21203 3.35033   8
   6   7   5 -0.4538 4.13241   3
  -7  -7  -5 335.465 17.6814   7
   7   7   5 366.814 16.1075   8
   7   7   5 354.469 17.3092   9
  -8  -7  -5 83.9784 11.2855   7
   8   7   5 72.3583 9.85247   9
   4  -8  -5 312.821 16.1895   5
   4  -8  -5 299.409 17.5146   1
  -4   8   5 307.401 16.5812  13
  -4   8   5 273.951 14.9000  10
   3  -8  -5 1543.62 41.9217   1
   3  -8  -5 1492.27 39.4182   5
  -3   8   5 1438.10 38.8525  10
  -3   8   5 1521.19 38.9299  13
  -3   8   5 1488.62 40.4528   8
   2  -8  -5 51.2262 7.81927   5
   2  -8  -5 46.3891 5.58739   4
   2  -8  -5 57.0598 8.86841   1
  -2   8   5 50.3521 7.02833  10
  -2   8   5 52.8903 5.88624   3
  -2   8   5 53.7306 7.78656   8
  -2   8   5 53.1507 7.31096  13
   1  -8  -5 31.0039 6.58809   5
   1  -8  -5 21.1808 7.01604   1
   1  -8  -5 24.9749 4.90806   4
   1  -8  -5 28.2724 4.57035   7
   1  -8  -5 33.3055 4.58023  11
  -1   8   5 30.0556 4.71455   3
  -1   8   5 29.6290 6.17483   8
  -1   8   5 30.8179 5.51603  10
  -1   8   5 28.5971 5.63964  13
   0  -8  -5 6.43856 5.37111   5
   0  -8  -5 11.6466 3.77778  11
   0  -8  -5 24.1184 4.85366   7
   0  -8  -5 13.0393 4.54094   4
   0   8   5 14.9500 4.57391  10
   0   8   5 13.9110 4.02404   3
   0   8   5 16.8764 5.23132   8
  -1  -8  -5 -0.2719 3.62072  11
  -1  -8  -5 1.19314 4.98953   5
  -1  -8  -5 -0.3945 3.91199   4
  -1  -8  -5 7.10531 4.31809   7
   1   8   5 1.98554 4.64030   9
   1   8   5 4.77264 3.38856   3
   1   8   5 -0.1407 3.51550  10
   1   8   5 6.60990 4.35113   8
  -2  -8  -5 138.606 9.52735  11
  -2  -8  -5 155.540 10.7049   7
   2   8   5 110.805 8.61422   3
   2   8   5 143.367 11.5148   9
   2   8   5 141.251 9.40334   8
   2   8   5 150.700 9.79898  10
  -3  -8  -5 357.714 15.9922   7
   3   8   5 357.885 14.5490   3
   3   8   5 330.494 13.5916   8
   3   8   5 361.910 16.7808   9
  -4  -8  -5 74.6935 9.29025   7
   4   8   5 87.1787 8.47422   3
   4   8   5 71.5496 9.02716   9
   4   8   5 79.9005 7.44446   8
  -5  -8  -5 119.329 11.4224   7
   5   8   5 135.905 10.3833   3
   5   8   5 141.025 11.8607   9
   5   8   5 120.064 8.80376   8
  -6  -8  -5 18.9548 7.14617   7
   6   8   5 17.3181 6.80363   9
   6   8   5 22.7013 6.19369   3
   6   8   5 19.1583 4.77253   8
  -7  -8  -5 293.258 17.7968   7
   7   8   5 315.316 17.6213   9
   7   8   5 274.338 15.3286   3
   3  -9  -5 276.247 17.8083   1
   3  -9  -5 310.816 16.1023   5
  -3   9   5 279.830 16.7204   8
  -3   9   5 285.396 16.4225  13
  -3   9   5 299.782 15.3968  10
   2  -9  -5 219.252 14.1508   5
   2  -9  -5 194.516 15.5562   1
   2  -9  -5 223.181 13.1439   4
  -2   9   5 220.250 14.2521   8
  -2   9   5 209.260 12.8162  10
   1  -9  -5 110.421 8.67403   4
   1  -9  -5 102.175 10.3003   5
  -1   9   5 109.427 8.32116   3
  -1   9   5 106.896 10.5278   8
  -1   9   5 106.355 9.85843  10
   0  -9  -5 7.03362 6.06593   5
   0  -9  -5 -6.0270 3.06464  11
   0  -9  -5 0.44550 3.88193   7
   0  -9  -5 0.43771 4.19991   4
   0   9   5 2.72242 4.84338   8
   0   9   5 -0.5016 3.40645   3
   0   9   5 8.60000 4.55196  10
  -1  -9  -5 68.2344 7.89217   7
  -1  -9  -5 86.5866 8.44289   4
  -1  -9  -5 94.6502 8.01256  11
  -1  -9  -5 70.8299 9.23884   5
   1   9   5 72.2839 8.25732  10
   1   9   5 101.261 10.5482   9
   1   9   5 97.2093 8.61818   3
   1   9   5 80.6088 8.69798   8
  -2  -9  -5 138.069 10.1597  11
  -2  -9  -5 148.584 11.1897   7
   2   9   5 145.220 10.3369   8
   2   9   5 137.170 10.0769  10
   2   9   5 125.646 11.2895   9
   2   9   5 144.967 9.77971   3
  -3  -9  -5 117.170 10.1496  11
  -3  -9  -5 131.063 11.3300   7
   3   9   5 101.179 10.5780   9
   3   9   5 119.418 10.0075   3
   3   9   5 120.362 9.65700   8
  -4  -9  -5 186.449 13.7483   7
   4   9   5 188.908 11.1637   8
   4   9   5 183.147 11.9044   3
   4   9   5 178.361 13.6247   9
  -5  -9  -5 267.417 16.4499   7
   5   9   5 291.345 15.1518   3
   5   9   5 288.196 16.8904   9
   5   9   5 288.680 13.4752   8
  -6  -9  -5 7.19165 6.95325   7
   6   9   5 14.8496 6.07170   3
   6   9   5 12.5057 4.96273   8
   6   9   5 10.6366 7.13599   9
   1 -10  -5 126.450 9.82778   4
   1 -10  -5 143.200 12.6422   5
  -1  10   5 142.906 9.97669   3
  -1  10   5 161.833 13.0903   8
  -1  10   5 147.759 11.6857  10
   0 -10  -5 161.912 13.5793   5
   0 -10  -5 164.666 11.1648   4
   0  10   5 139.387 12.0856   8
   0  10   5 143.184 10.2148   3
   0  10   5 151.570 13.5150   9
   0  10   5 148.866 11.5223  10
  -1 -10  -5 351.818 15.6050   4
  -1 -10  -5 372.288 15.8127   7
  -1 -10  -5 350.598 14.3348  11
   1  10   5 333.929 14.8202   3
   1  10   5 377.384 18.6871   9
   1  10   5 311.426 16.0406   8
   1  10   5 344.505 16.0433  10
  -2 -10  -5 86.8083 9.62696   7
  -2 -10  -5 78.5123 8.38403  11
   2  10   5 100.283 9.95493  10
   2  10   5 96.0532 11.1545   9
   2  10   5 89.2086 8.98089   3
   2  10   5 88.4765 9.33498   8
  -3 -10  -5 13.7314 6.64810   7
  -3 -10  -5 27.5116 6.68747  11
   3  10   5 13.3575 5.57541   8
   3  10   5 20.0581 7.28512   9
   3  10   5 21.6916 6.02624   3
   3  10   5 25.4349 6.59865  10
  -4 -10  -5 -5.1685 5.66315   7
   4  10   5 -0.1332 4.43925   8
   4  10   5 -0.4172 6.12342   9
   4  10   5 -6.5502 4.32894   3
   1   9  -6 75.6046 9.59671   3
   1   9  -6 78.0056 9.83873   8
   1   9  -6 55.1167 8.85615   6
   1   9  -6 71.1889 9.43403  10
  -1  -9   6 73.2226 8.38869  12
   0   9  -6 3.82220 4.91529  10
   0   9  -6 0.41594 4.91988   6
   0   9  -6 -0.2514 5.39191   8
   0   9  -6 0.28782 4.75985   3
   0  -9   6 0.08942 4.09751  12
  -1   9  -6 37.2232 7.61896   3
  -1   9  -6 30.1275 7.41692   8
  -1   9  -6 28.5371 6.64061  10
  -1   9  -6 34.1688 7.49325   6
  -2   9  -6 19.2552 6.53432   6
  -2   9  -6 1.78157 4.93441   3
  -2   9  -6 12.1626 6.07138   8
  -2   9  -6 8.71095 5.29180  10
   2  -9   6 5.37442 8.22232   2
  -3   9  -6 14.6692 5.92605   3
  -3   9  -6 12.5725 5.66405  10
  -3   9  -6 7.63518 5.82637   6
  -3   9  -6 8.43449 5.91050   8
   3  -9   6 1.83012 9.70191   2
  -4   9  -6 2.47783 4.86531  10
  -4   9  -6 10.3863 5.86960   3
   4  -9   6 0.44826 8.18762   2
   3   8  -6 290.766 16.3481   8
   3   8  -6 268.059 14.4122   3
   3   8  -6 254.903 13.6219   9
   3   8  -6 233.789 15.8529   1
   3   8  -6 274.403 15.6509   6
  -3  -8   6 255.204 14.0900  12
   2   8  -6 93.9388 10.2612   8
   2   8  -6 81.4968 9.65241   6
   2   8  -6 89.7766 9.26440   3
   2   8  -6 70.5305 7.78757   9
   2   8  -6 78.2374 10.2773   1
  -2  -8   6 81.4655 8.72679  12
   1   8  -6 107.589 9.93990   3
   1   8  -6 87.6886 9.77743   6
   1   8  -6 83.8929 9.36236   8
   1   8  -6 95.7844 8.68772   9
  -1  -8   6 111.923 9.22541  12
   0   8  -6 -0.9244 4.21425   3
   0   8  -6 6.33773 4.63186  10
   0   8  -6 1.56903 4.59280   8
   0   8  -6 3.34221 4.94111   6
   0  -8   6 3.69832 4.11405  12
   0  -8   6 5.91268 4.51983   2
  -1   8  -6 158.978 11.3426   3
  -1   8  -6 149.932 11.9622   6
  -1   8  -6 129.766 10.2236  10
  -1   8  -6 122.084 10.9091   8
   1  -8   6 143.507 10.3648   2
  -2   8  -6 3.82833 4.26417  10
  -2   8  -6 10.1260 5.56247   6
  -2   8  -6 5.58113 5.04588   8
  -2   8  -6 15.1226 5.66360   3
   2  -8   6 -4.0445 5.20316   2
  -3   8  -6 57.4342 8.91159   6
  -3   8  -6 81.3933 9.69194   3
  -3   8  -6 62.2160 8.26243   8
  -3   8  -6 60.7644 7.95432  10
   3  -8   6 67.7812 8.99623   2
  -4   8  -6 107.781 10.4239   8
  -4   8  -6 104.098 11.1738   6
  -4   8  -6 97.7045 9.80151  10
  -4   8  -6 136.588 12.0967   3
   4  -8   6 111.328 11.0892   2
  -5   8  -6 102.298 10.2453   8
  -5   8  -6 91.3908 10.1549  10
  -5   8  -6 92.4324 10.2092   3
  -5   8  -6 96.0604 11.3845   6
   5  -8   6 99.4880 11.3163   2
   4   7  -6 -1.0273 5.96638   1
   4   7  -6 -3.8802 4.72438   9
   4   7  -6 7.25504 5.42569   8
   4   7  -6 -3.8532 3.77885   3
   4   7  -6 1.15900 4.68962   6
  -4  -7   6 1.32871 4.86025  12
   3   7  -6 7.00693 4.91536   6
   3   7  -6 20.2224 6.08245   8
   3   7  -6 15.0943 6.51874   1
   3   7  -6 11.4949 5.14067   9
   3   7  -6 19.4024 5.04149   3
  -3  -7   6 13.3932 5.59138  12
   2   7  -6 12.1570 5.37525   6
   2   7  -6 -3.5164 3.86616   9
   2   7  -6 0.89610 5.18187   1
   2   7  -6 -1.0653 4.15463   8
   2   7  -6 -0.5026 3.79538   3
  -2  -7   6 7.73244 4.64210  12
   1   7  -6 43.6074 7.80447   1
   1   7  -6 46.6031 6.84801   3
   1   7  -6 49.5204 7.40241   8
   1   7  -6 46.1563 5.83013   9
   1   7  -6 44.8721 7.50636   6
  -1  -7   6 44.3369 6.74412  12
   0   7  -6 214.808 11.9909  10
   0   7  -6 221.242 12.0780   3
   0   7  -6 225.661 13.5626   6
   0   7  -6 227.766 12.6458   8
   0   7  -6 206.278 9.73031   9
  -1   7  -6 169.780 11.0161   3
  -1   7  -6 155.172 11.7660   6
  -1   7  -6 147.514 10.1636  10
  -1   7  -6 163.745 11.0228   8
   1  -7   6 180.209 10.7765   2
  -2   7  -6 111.417 9.58360   8
  -2   7  -6 128.764 10.5896   3
  -2   7  -6 105.249 9.34655  10
  -2   7  -6 119.387 10.8896   6
   2  -7   6 116.300 9.65934   2
  -3   7  -6 107.925 10.8816   6
  -3   7  -6 99.5932 9.27230   3
  -3   7  -6 94.0836 8.87442  10
  -3   7  -6 102.911 9.39379   8
   3  -7   6 97.8821 9.44646   2
  -4   7  -6 50.9814 7.41116   3
  -4   7  -6 40.9873 6.68256   8
  -4   7  -6 37.5992 6.52041  10
  -4   7  -6 51.1884 8.40849   6
   4  -7   6 37.4590 7.86380   2
  -5   7  -6 302.325 15.4608   3
  -5   7  -6 293.503 14.5900  10
  -5   7  -6 278.914 14.2681   8
  -5   7  -6 288.148 16.5600   6
   5  -7   6 266.491 15.7101   2
  -6   7  -6 22.2619 6.22146   3
  -6   7  -6 35.4110 8.01568   6
  -6   7  -6 36.3899 7.11673  10
  -6   7  -6 31.8237 6.82111   8
  -6   7  -6 19.0653 6.91246  13
   6  -7   6 17.7992 8.08336   2
  -7   7  -6 46.9033 8.52954   3
  -7   7  -6 57.0452 8.48569   8
  -7   7  -6 47.7392 9.30397   6
  -7   7  -6 70.6822 10.4049  13
  -7   7  -6 57.5954 8.80178  10
   7  -7   6 70.8568 10.8761   2
   5   6  -6 11.6233 6.31193   1
   5   6  -6 9.06378 4.34818   3
   5   6  -6 15.6092 5.91807   6
   5   6  -6 16.7689 6.20080   8
   5   6  -6 6.46995 5.14396   9
  -5  -6   6 13.3482 6.36000  12
   4   6  -6 -11.555 3.43860   8
   4   6  -6 1.70227 4.50619   6
   4   6  -6 -1.4275 5.24191   1
   4   6  -6 -3.6084 4.14510   9
   4   6  -6 -0.5551 3.60482   3
  -4  -6   6 7.44641 4.95831  12
   3   6  -6 12.6005 4.49199   3
   3   6  -6 16.4719 6.07388   1
   3   6  -6 16.8657 5.52805   6
   3   6  -6 15.9360 5.42907   8
   3   6  -6 15.9344 4.91369   9
  -3  -6   6 9.44012 5.11092  12
   2   6  -6 381.836 14.1213   9
   2   6  -6 384.164 17.0445   6
   2   6  -6 375.822 16.9728   1
   2   6  -6 355.447 14.5435   3
   2   6  -6 415.544 16.6499   8
  -2  -6   6 365.430 15.4858  12
   1   6  -6 289.634 14.3890   6
   1   6  -6 291.488 14.6695   1
   1   6  -6 303.824 13.8743   8
   1   6  -6 288.334 11.2217   9
   1   6  -6 299.190 12.8704   3
  -1  -6   6 301.018 13.4312  12
   0   6  -6 3308.71 72.1333   3
   0   6  -6 3402.00 72.7803   8
   0   6  -6 3321.51 68.1424   9
   0   6  -6 3383.87 74.9437   6
  -1   6  -6 39.5637 5.96334   3
  -1   6  -6 49.1349 7.00239   6
  -1   6  -6 41.6845 4.29260   9
  -1   6  -6 42.0346 6.07594   8
  -1   6  -6 46.4279 6.25323  10
   1  -6   6 35.8328 5.84049   2
  -2   6  -6 17.2338 4.76106   8
  -2   6  -6 8.64167 4.14497  10
  -2   6  -6 16.8837 4.75012   3
  -2   6  -6 5.25973 4.53492   6
   2  -6   6 20.0924 5.50028   2
  -3   6  -6 3.21697 4.41076   6
  -3   6  -6 3.32195 3.55544  10
  -3   6  -6 3.09978 3.95064   3
  -3   6  -6 7.45547 4.34751   8
   3  -6   6 9.52100 5.51689   2
  -4   6  -6 36.0372 6.15104   3
  -4   6  -6 28.0975 6.40431   6
  -4   6  -6 38.8232 6.21659  10
  -4   6  -6 36.9873 6.04629   8
   4  -6   6 48.2945 8.11120   2
  -5   6  -6 107.479 11.0703   6
  -5   6  -6 103.154 10.2103  13
  -5   6  -6 113.353 10.0449   3
  -5   6  -6 105.374 8.97946   8
  -5   6  -6 108.685 9.65514  10
   5  -6   6 115.127 10.9868   2
  -6   6  -6 84.3777 8.94596  10
  -6   6  -6 78.0375 8.94695   3
  -6   6  -6 88.6658 10.0622  13
  -6   6  -6 101.730 9.38499   8
  -6   6  -6 92.8769 11.0768   6
   6  -6   6 95.5974 10.9760   2
  -7   6  -6 108.487 9.83029   8
  -7   6  -6 95.7253 11.2799   6
  -7   6  -6 103.936 10.6148  10
  -7   6  -6 94.9921 11.2233  13
  -7   6  -6 83.0245 9.66181   3
   7  -6   6 100.169 11.8025   2
  -8   6  -6 315.673 18.8150  13
  -8   6  -6 313.845 15.8525   8
  -8   6  -6 313.050 16.6206  10
   8  -6   6 361.522 19.9615   2
   6   5  -6 260.434 15.8831   6
   6   5  -6 263.276 16.3990   1
   6   5  -6 249.897 14.7830   9
   6   5  -6 253.337 15.4514   8
   6   5  -6 238.063 12.1976   3
  -6  -5   6 249.985 16.3563  12
  -6  -5   6 265.478 16.0819  13
   5   5  -6 -1.8342 4.28719   8
   5   5  -6 1.83036 3.50303   3
   5   5  -6 1.98126 4.77186   9
   5   5  -6 1.21373 5.54257   1
   5   5  -6 12.6200 5.39986   6
  -5  -5   6 4.86215 5.49103  12
   4   5  -6 -1.4766 3.13354   3
   4   5  -6 0.47986 4.78017   1
   4   5  -6 2.23697 4.23260   6
   4   5  -6 -4.4331 4.09289   8
   4   5  -6 0.84802 3.88393   9
  -4  -5   6 3.83235 5.16989  12
   3   5  -6 43.4267 6.86897   6
   3   5  -6 33.3782 5.19024   3
   3   5  -6 27.4216 5.21806   9
   3   5  -6 31.6372 5.91468   8
   3   5  -6 38.0213 7.17207   1
  -3  -5   6 26.0087 5.92902  12
   2   5  -6 51.6690 6.08399   3
   2   5  -6 39.9145 6.72687   1
   2   5  -6 47.4846 6.56870   8
   2   5  -6 39.7929 6.47945   6
   2   5  -6 56.7717 5.91546   9
  -2  -5   6 63.3120 7.55700  12
   1   5  -6 467.356 17.8496   6
   1   5  -6 467.108 15.4828   3
   1   5  -6 490.726 17.7481   1
   1   5  -6 466.864 14.2147   9
   1   5  -6 463.610 16.4632   8
  -1  -5   6 442.987 16.6733  12
   0   5  -6 226.273 12.1957   6
   0   5  -6 245.921 10.8207   3
   0   5  -6 249.907 11.4631   8
   0   5  -6 219.869 11.8500   1
   0   5  -6 228.756 8.62695   9
  -1   5  -6 35.4493 5.95106   6
  -1   5  -6 27.6623 4.93246   3
  -1   5  -6 37.9459 3.53869   9
  -1   5  -6 26.5925 4.78601  10
  -1   5  -6 29.5912 5.06691   8
  -2   5  -6 1416.60 34.6078   3
  -2   5  -6 1365.20 33.5902  10
  -2   5  -6 1396.51 36.2906   6
  -2   5  -6 1396.03 33.6130   8
   2  -5   6 1410.15 34.6930   2
  -3   5  -6 0.18044 3.55629   8
  -3   5  -6 2.47926 3.35047  10
  -3   5  -6 -0.7673 3.28161   3
  -3   5  -6 2.68884 4.27725   6
   3  -5   6 2.69141 5.08993   2
  -4   5  -6 3610.93 75.7995   8
  -4   5  -6 3572.18 76.8885  10
  -4   5  -6 3632.84 77.9441   3
  -4   5  -6 3668.78 80.0593   6
   4  -5   6 3616.32 78.4038   2
  -5   5  -6 76.3526 7.30390   8
  -5   5  -6 62.2914 7.51319   3
  -5   5  -6 71.0360 8.85470   6
  -5   5  -6 72.2207 7.62595  10
  -5   5  -6 69.5097 8.61100  13
   5  -5   6 51.4299 8.38844   2
  -6   5  -6 11.9867 4.68326  10
  -6   5  -6 13.8208 6.23244  13
  -6   5  -6 17.8160 5.36651   3
  -6   5  -6 4.24137 5.63857   6
  -6   5  -6 13.5109 4.69527   8
   6  -5   6 16.5251 7.55620   2
  -7   5  -6 1.31810 4.71180   3
  -7   5  -6 0.95701 4.08186   8
  -7   5  -6 0.22553 5.37654  13
  -7   5  -6 -0.6937 3.99373  10
   7  -5   6 -15.105 6.05612   2
  -8   5  -6 0.97115 4.48984   8
  -8   5  -6 12.6296 6.89214  13
  -8   5  -6 0.71309 4.32626  10
   8  -5   6 6.42411 7.59405   2
   6   4  -6 84.1065 10.2996   6
   6   4  -6 99.9585 11.2166   1
   6   4  -6 80.0614 9.16102   9
   6   4  -6 74.2585 9.88011   3
  -6  -4   6 99.7974 11.1318  13
  -6  -4   6 91.3512 11.4616  12
   5   4  -6 9.53098 3.80177   3
   5   4  -6 18.6493 6.49152   1
   5   4  -6 10.1862 5.23926   6
   5   4  -6 13.4719 5.20461   9
   5   4  -6 5.45770 4.64676   8
  -5  -4   6 20.1541 6.64280  12
   4   4  -6 -1.3489 3.84308   9
   4   4  -6 7.47960 4.45244   8
   4   4  -6 2.31175 4.56164   1
   4   4  -6 0.78789 3.79361   6
   4   4  -6 0.72983 3.12003   3
  -4  -4   6 7.39906 4.93578  12
   3   4  -6 548.971 18.8275   8
   3   4  -6 542.954 19.9087   6
   3   4  -6 592.984 20.3185   1
   3   4  -6 533.974 16.4956   3
   3   4  -6 534.183 17.4017   9
  -3  -4   6 568.485 19.7930  12
   2   4  -6 296.127 13.7972   6
   2   4  -6 280.827 10.8219   3
   2   4  -6 287.192 12.6835   8
   2   4  -6 274.322 10.8616   9
   2   4  -6 283.393 13.7446   1
  -2  -4   6 277.930 13.2339  12
   1   4  -6 -2.0362 3.69459   1
   1   4  -6 1.71983 2.61955   9
   1   4  -6 -4.1962 2.36845   3
   1   4  -6 2.93793 3.82481   6
   1   4  -6 0.12452 3.32753   8
  -1  -4   6 -0.0829 3.76214  12
   0   4  -6 15.5637 4.15558   8
   0   4  -6 14.1800 3.61016   3
   0   4  -6 20.0159 4.32012   6
   0   4  -6 9.34396 4.18783   1
  -1   4  -6 4017.70 82.5643   1
  -1   4  -6 3973.80 82.0132   8
  -1   4  -6 4029.80 81.7997  10
  -1   4  -6 4032.70 77.6125   9
  -1   4  -6 4013.33 82.4628   3
  -2   4  -6 2.35171 3.02673   3
  -2   4  -6 1.86240 3.18133   8
  -2   4  -6 3.21694 3.55713   6
  -2   4  -6 0.45585 2.83791  10
   2  -4   6 -1.6052 4.00884   2
  -3   4  -6 236.316 9.95464   8
  -3   4  -6 228.057 9.88221  10
  -3   4  -6 226.920 10.6381   3
  -3   4  -6 241.980 12.2928   6
   3  -4   6 231.178 12.2574   2
  -4   4  -6 928.316 25.9142   3
  -4   4  -6 945.208 27.7615   6
  -4   4  -6 968.208 25.1391  10
  -4   4  -6 965.510 24.1609   8
   4  -4   6 948.214 27.2043   2
  -5   4  -6 4.24315 3.60924  10
  -5   4  -6 8.75352 3.85317   8
  -5   4  -6 7.66856 4.83461  13
  -5   4  -6 5.59558 5.05864   6
  -5   4  -6 9.98752 4.49908   3
   5  -4   6 15.0735 6.58162   2
  -6   4  -6 129.696 10.7679  13
  -6   4  -6 133.253 11.5281   6
  -6   4  -6 111.141 8.83978  10
  -6   4  -6 123.862 9.79891   3
  -6   4  -6 140.359 8.67238   8
   6  -4   6 133.142 11.9311   2
  -7   4  -6 0.46298 3.66574   8
  -7   4  -6 9.80210 5.81605  13
  -7   4  -6 0.05437 3.81423  10
   7  -4   6 -0.4484 6.60564   2
  -8   4  -6 53.9691 8.90898  13
  -8   4  -6 36.6893 6.80632  10
  -8   4  -6 55.0744 6.72190   8
   8  -4   6 45.8767 9.39297   2
  -9   4  -6 558.974 21.9912  10
  -9   4  -6 591.423 20.0205   8
  -9   4  -6 559.418 24.0959  13
   9  -4   6 589.320 25.0030   2
   7   3  -6 15.2709 6.24628   9
   7   3  -6 18.1558 6.95625   1
   7   3  -6 21.9579 7.18019   6
  -7  -3   6 31.9296 7.96559  13
  -7  -3   6 30.0721 8.54326  12
   6   3  -6 3.50622 5.33318   1
   6   3  -6 4.87054 5.38372   6
   6   3  -6 10.3133 5.07614   9
  -6  -3   6 11.5501 6.11253  13
  -6  -3   6 4.21132 6.06566  12
   5   3  -6 469.799 17.6846   9
   5   3  -6 456.555 19.2510   6
   5   3  -6 473.922 19.3402   1
   5   3  -6 451.272 14.4780   3
  -5  -3   6 430.831 18.9730  12
  -5  -3   6 447.092 18.7938  13
   4   3  -6 237.412 11.5638   9
   4   3  -6 219.343 12.6856   6
   4   3  -6 233.369 12.2197   8
   4   3  -6 237.421 9.48659   3
   4   3  -6 233.929 13.1053   1
  -4  -3   6 232.564 12.9577  12
   3   3  -6 377.409 15.5851   1
   3   3  -6 348.217 14.2334   8
   3   3  -6 341.336 13.0319   9
   3   3  -6 347.608 15.2980   6
   3   3  -6 357.710 11.7258   3
  -3  -3   6 362.204 15.5240  12
   2   3  -6 1091.01 29.1524   1
   2   3  -6 1082.34 29.5039   6
   2   3  -6 1076.19 25.5012   3
   2   3  -6 1104.90 26.3589   9
   2   3  -6 1076.99 27.9501   8
  -2  -3   6 1088.83 29.3372  12
   1   3  -6 48.7167 4.35996   9
   1   3  -6 51.4445 4.56220   3
   1   3  -6 44.1594 5.28033   8
   1   3  -6 60.8925 6.73105   1
  -1  -3   6 38.6196 5.83577  12
   0   3  -6 209.820 9.88805   1
   0   3  -6 205.518 6.94491   9
   0   3  -6 198.478 8.96474   8
   0   3  -6 214.035 8.43756   3
  -1   3  -6 24.4553 4.59109   6
  -1   3  -6 13.9095 3.17493   3
  -1   3  -6 21.7427 3.70018   8
  -1   3  -6 18.9419 4.02573   1
  -1   3  -6 13.5279 3.05374  10
  -2   3  -6 75.9735 6.05181   3
  -2   3  -6 83.9012 7.48300   6
  -2   3  -6 82.9708 6.13658   1
  -2   3  -6 93.0763 5.99263   8
  -2   3  -6 83.5370 5.45368  10
   2  -3   6 81.3677 7.26694   2
  -3   3  -6 243.011 9.25490   8
  -3   3  -6 276.861 12.2136   6
  -3   3  -6 259.235 9.63513  10
  -3   3  -6 254.268 10.6576   3
   3  -3   6 265.749 12.1901   2
  -4   3  -6 634.920 20.4881   6
  -4   3  -6 653.033 19.3421   3
  -4   3  -6 644.593 17.9505  10
  -4   3  -6 614.941 16.7546   8
   4  -3   6 649.752 20.9201   2
  -5   3  -6 735.341 22.1179   3
  -5   3  -6 750.908 23.5504   6
  -5   3  -6 733.127 22.6152  13
  -5   3  -6 738.541 20.9515  10
  -5   3  -6 728.040 19.3193   8
   5  -3   6 769.846 24.1358   2
  -6   3  -6 446.599 17.3202  13
  -6   3  -6 429.667 15.5960  10
  -6   3  -6 436.519 14.2015   8
  -6   3  -6 418.112 13.1110  11
   6  -3   6 469.173 19.1132   2
  -7   3  -6 89.0766 7.13225   8
  -7   3  -6 72.5089 8.80728  13
  -7   3  -6 76.0645 7.81713  10
  -7   3  -6 67.2119 5.56964  11
   7  -3   6 64.8274 9.57787   2
  -8   3  -6 774.436 25.9731  13
  -8   3  -6 724.157 23.7211  10
  -8   3  -6 717.902 21.0752   8
   8  -3   6 728.494 26.7957   2
  -9   3  -6 54.0399 8.21542   8
  -9   3  -6 42.2569 7.53866  10
  -9   3  -6 38.3617 8.40193  13
   9  -3   6 36.5398 9.89707   2
   7   2  -6 0.39404 5.60221   6
   7   2  -6 3.94071 5.43570   1
   7   2  -6 8.11615 5.41156   9
  -7  -2   6 8.59517 6.56406  13
  -7  -2   6 3.62738 6.87242  12
   6   2  -6 804.224 25.7431   9
   6   2  -6 763.262 26.9466   6
   6   2  -6 793.968 27.1233   1
  -6  -2   6 840.647 27.5927  13
  -6  -2   6 790.652 27.7283  12
   5   2  -6 802.176 26.6576   6
   5   2  -6 804.263 26.5865   1
   5   2  -6 833.894 25.0888   9
   5   2  -6 853.590 21.2555   3
  -5  -2   6 860.643 27.2147  12
  -5  -2   6 864.775 27.0193  13
   4   2  -6 172.544 9.92131   9
   4   2  -6 163.772 10.9486   6
   4   2  -6 157.119 7.07467   3
   4   2  -6 177.488 11.4702   1
  -4  -2   6 156.879 11.1782  12
   3   2  -6 52.9288 6.34167   8
   3   2  -6 66.1382 4.82418   3
   3   2  -6 61.4846 7.35188   1
   3   2  -6 62.6044 7.15844   6
   3   2  -6 69.4479 6.29611   9
  -3  -2   6 62.9794 7.60491  12
   2   2  -6 4.37048 2.14439   3
   2   2  -6 -1.8008 2.76336   8
   2   2  -6 -4.1811 3.61820   1
   2   2  -6 -0.7051 2.55195   9
   2   2  -6 0.41470 2.58483   6
  -2  -2   6 -0.3562 3.76901  12
   1   2  -6 0.68721 1.81157   3
   1   2  -6 3.17903 3.41539   1
   1   2  -6 0.67248 3.07701   6
   1   2  -6 2.05261 2.28785   9
   1   2  -6 4.28994 2.90655   8
  -1  -2   6 0.48657 1.65304  12
   0   2  -6 54.5680 5.85529   6
   0   2  -6 52.8389 3.70686   9
   0   2  -6 46.6332 4.51783   8
   0   2  -6 50.6042 5.17260   1
   0   2  -6 46.3181 3.99071   3
  -1   2  -6 550.117 14.5536   8
  -1   2  -6 565.338 14.8200   3
  -1   2  -6 545.572 13.7397  10
  -1   2  -6 542.866 16.9338   6
  -1   2  -6 540.409 15.2422   1
  -2   2  -6 593.509 14.7361  10
  -2   2  -6 599.219 13.0668   5
  -2   2  -6 582.228 17.7327   6
  -2   2  -6 594.596 16.2265   3
   2  -2   6 592.520 18.0008   2
  -3   2  -6 1863.32 41.1164   3
  -3   2  -6 1816.20 39.1090  10
  -3   2  -6 1877.52 42.5688   6
  -3   2  -6 1869.67 38.1886   1
   3  -2   6 1831.19 42.4987   2
  -4   2  -6 2884.05 56.6023   1
  -4   2  -6 2886.34 61.5551   3
  -4   2  -6 2866.47 59.8723  11
  -4   2  -6 2938.43 59.9547  10
  -4   2  -6 2933.99 62.8181   6
   4  -2   6 2830.67 63.0253   2
  -5   2  -6 3331.08 66.4323   8
  -5   2  -6 3308.47 70.8282  13
  -5   2  -6 3257.36 67.6641  11
  -5   2  -6 3299.36 68.9047  10
  -5   2  -6 3329.36 71.4934   6
   5  -2   6 3313.75 72.2298   2
  -6   2  -6 66.7597 6.60900  10
  -6   2  -6 42.7606 4.97603  11
  -6   2  -6 60.4890 5.16369   8
  -6   2  -6 49.8000 7.00627  13
   6  -2   6 54.8243 8.63382   2
  -7   2  -6 286.950 10.6715   8
  -7   2  -6 289.759 10.9568  11
  -7   2  -6 270.817 11.9581   7
  -7   2  -6 291.098 14.3709  13
  -7   2  -6 278.021 12.7041  10
   7  -2   6 272.447 15.7080   2
   7  -2   6 292.682 9.65574   9
  -8   2  -6 4.15716 4.14983  10
  -8   2  -6 0.43171 3.49920   7
  -8   2  -6 3.45821 3.37370  11
  -8   2  -6 5.69281 3.47850   8
  -8   2  -6 -3.8949 5.17141  13
   8  -2   6 5.56723 7.17127   2
  -9   2  -6 83.5845 8.49798   7
  -9   2  -6 96.1398 10.8159  13
  -9   2  -6 71.0270 8.73652  10
   9  -2   6 75.6808 11.2305   2
 -10   2  -6 193.106 15.1171  13
 -10   2  -6 186.172 13.5291  10
  10  -2   6 187.278 16.0502   2
   7   1  -6 444.866 20.4175   1
   7   1  -6 430.585 20.6832   6
   7   1  -6 485.785 20.0346   9
  -7  -1   6 429.422 21.1695  12
  -7  -1   6 450.729 20.3928  13
   6   1  -6 141.268 11.8666   6
   6   1  -6 139.275 10.9309   9
   6   1  -6 130.866 11.6416   1
  -6  -1   6 140.753 12.3080  13
  -6  -1   6 129.501 11.9146  12
   5   1  -6 127.712 11.1370   6
   5   1  -6 118.863 10.6644   1
   5   1  -6 94.0219 8.70707   9
  -5  -1   6 96.5443 9.62520  13
  -5  -1   6 129.536 11.1461  12
   4   1  -6 416.314 16.8148   6
   4   1  -6 425.070 15.5161   9
   4   1  -6 420.832 11.3894   3
   4   1  -6 427.639 16.9710   1
  -4  -1   6 435.166 17.1606  13
  -4  -1   6 421.989 17.1643  12
   3   1  -6 1190.82 32.1431   6
   3   1  -6 1245.16 30.1525   9
   3   1  -6 1224.48 32.0835   1
   3   1  -6 1230.35 25.9679   3
  -3  -1   6 1222.00 32.3118  12
   2   1  -6 497.175 16.9059   6
   2   1  -6 485.169 11.7723   3
   2   1  -6 486.372 16.4856   1
   2   1  -6 504.414 14.8527   9
   1   1  -6 1148.71 25.7483   9
   1   1  -6 1103.86 23.7214   3
   1   1  -6 1113.23 26.5698   8
   1   1  -6 1103.21 27.7839   1
   1   1  -6 1133.87 28.4779   6
   0   1  -6 0.86676 1.66455   3
   0   1  -6 3.67312 2.79411   1
   0   1  -6 -1.8333 1.88700   8
   0   1  -6 -0.7133 2.57022   6
  -1   1  -6 7.14450 2.97701   6
  -1   1  -6 2.58538 2.44886   1
  -1   1  -6 7.17778 1.60088  10
  -1   1  -6 1.02293 1.21756   8
  -1   1  -6 7.65508 2.32420   3
   1  -1   6 6.98598 2.05498   9
  -2   1  -6 3283.11 63.9518   8
  -2   1  -6 3207.43 63.5982  10
  -2   1  -6 3270.08 67.6591   6
  -2   1  -6 3259.79 65.8720   3
  -2   1  -6 3269.49 63.7706   5
  -2   1  -6 3233.23 64.8159   1
  -3   1  -6 1195.41 24.9419   1
  -3   1  -6 1197.85 25.9463  10
  -3   1  -6 1193.19 24.8056   8
  -3   1  -6 1180.85 28.0223   3
  -3   1  -6 1236.09 29.1423   6
  -3   1  -6 1171.30 27.9617  11
   3  -1   6 1220.41 29.9044   2
  -4   1  -6 111.925 4.53052   8
  -4   1  -6 121.513 7.93354   6
  -4   1  -6 109.746 5.93193  10
  -4   1  -6 114.424 6.72613  11
  -4   1  -6 111.413 7.68094   7
   4  -1   6 123.286 9.84958   2
  -5   1  -6 412.291 14.6773   7
  -5   1  -6 419.999 13.4897  11
  -5   1  -6 450.025 11.1301   8
  -5   1  -6 436.318 14.9417  13
  -5   1  -6 423.226 15.2947   6
  -5   1  -6 423.336 13.3738  10
   5  -1   6 412.864 10.4321   9
   5  -1   6 431.745 17.2479   2
  -6   1  -6 19.9257 4.38395  10
  -6   1  -6 25.0922 4.42874  11
  -6   1  -6 18.7158 5.19939  13
  -6   1  -6 34.4056 5.35117   7
   6  -1   6 22.2381 3.06684   9
   6  -1   6 26.7664 7.32112   2
  -7   1  -6 2339.36 49.0983   8
  -7   1  -6 2389.61 54.1495  13
  -7   1  -6 2409.30 53.0406   7
  -7   1  -6 2349.96 53.0122  10
  -7   1  -6 2395.50 51.4109  11
   7  -1   6 2310.57 49.3503   9
   7  -1   6 2322.26 56.0780   2
  -8   1  -6 1282.06 32.8772   7
  -8   1  -6 1274.10 31.4521  11
  -8   1  -6 1294.73 34.6968  13
  -8   1  -6 1259.35 33.7940  10
   8  -1   6 1287.90 30.4536   9
  -9   1  -6 150.893 9.51661  11
  -9   1  -6 135.828 9.80998   7
  -9   1  -6 138.747 12.0530  13
  -9   1  -6 152.626 10.9018  10
   9  -1   6 155.384 9.06307   9
   9  -1   6 144.371 13.2857   2
 -10   1  -6 85.0210 10.0144  10
 -10   1  -6 81.3468 10.3269  13
  10  -1   6 65.0482 11.2245   2
   7   0  -6 24.5149 6.52221   9
   7   0  -6 16.7548 6.67681   1
  -7   0   6 19.5287 6.92247  13
  -7   0   6 20.0869 7.63911  12
   6   0  -6 20.0643 6.30788   6
   6   0  -6 24.5435 6.68943   1
   6   0  -6 20.7796 5.70573   9
  -6   0   6 19.6152 7.18838  12
  -6   0   6 13.5582 6.05917  13
   5   0  -6 81.4241 7.92913   9
   5   0  -6 81.7386 8.83385   1
   5   0  -6 101.200 10.2139   6
  -5   0   6 79.1963 9.14876  13
  -5   0   6 85.4252 9.50164  12
   4   0  -6 423.360 15.5829   9
   4   0  -6 412.782 16.5869   6
   4   0  -6 420.768 16.7465   1
  -4   0   6 407.217 16.6702  13
  -4   0   6 381.787 16.6845  12
   3   0  -6 494.926 16.0080   9
   3   0  -6 491.451 17.3217   1
   3   0  -6 479.919 17.4009   6
  -3   0   6 469.652 17.4899  12
  -3   0   6 490.667 17.2329  13
   2   0  -6 3063.02 65.1604   1
   2   0  -6 3032.20 63.0874   9
   2   0  -6 3016.96 65.3085   6
  -2   0   6 3005.16 65.3632  12
   1   0  -6 2252.24 49.4086   6
   1   0  -6 2194.15 48.9065   1
  -1   0   6 2294.34 49.6397  12
   0   0  -6 136.673 7.23794   1
   0   0  -6 137.387 7.54122   6
  -1   0  -6 1347.98 31.1184   6
  -1   0  -6 1356.43 29.8825   1
  -2   0  -6 15.6628 3.50302  11
  -2   0  -6 16.8624 2.55294   1
  -2   0  -6 17.1422 3.26987   6
   2   0   6 18.9970 1.98881   8
   2   0   6 15.8606 2.02991   9
   2   0   6 20.4625 2.95629   9
  -3   0  -6 14.1301 3.63061   7
  -3   0  -6 22.5740 2.13751   1
  -3   0  -6 24.8103 2.48339  10
  -3   0  -6 18.0657 3.61046  11
  -3   0  -6 23.8653 3.70102   6
  -3   0  -6 21.4137 2.89876   5
   3   0   6 19.5248 2.14449   9
   3   0   6 26.8114 5.03269   2
  -4   0  -6 1240.32 28.8223  11
  -4   0  -6 1225.69 28.8430   6
  -4   0  -6 1198.86 26.6715  10
  -4   0  -6 1204.19 28.4376   4
  -4   0  -6 1215.93 29.9085   7
   4   0   6 1185.04 30.5172   2
   4   0   6 1219.98 25.2748   9
  -5   0  -6 2063.77 45.6733   4
  -5   0  -6 2159.25 46.4765  11
  -5   0  -6 2141.63 47.9377   7
  -5   0  -6 2125.43 46.8886   6
  -5   0  -6 2152.36 46.4925  13
  -5   0  -6 2134.38 45.4354  10
   5   0   6 2110.98 49.0995   2
   5   0   6 2126.80 43.3946   9
  -6   0  -6 1709.42 38.9440  13
  -6   0  -6 1686.54 38.1424  10
  -6   0  -6 1642.22 33.9587   8
  -6   0  -6 1672.77 39.6210   7
  -6   0  -6 1676.37 38.2089  11
  -6   0  -6 1590.80 37.0064   4
   6   0   6 1644.68 41.5149   2
   6   0   6 1685.57 35.8788   9
  -7   0  -6 320.879 13.5373  13
  -7   0  -6 307.408 12.8139  10
  -7   0  -6 316.385 12.5687  11
  -7   0  -6 305.958 13.2504   7
  -7   0  -6 320.801 11.5611   4
   7   0   6 324.236 11.2820   9
   7   0   6 307.130 16.2523   2
  -8   0  -6 392.151 16.1140  13
  -8   0  -6 387.940 15.6558  10
  -8   0  -6 374.054 15.2665   7
  -8   0  -6 407.003 13.3267   4
  -8   0  -6 387.795 14.5185  11
   8   0   6 382.772 18.9644   2
   8   0   6 383.599 13.6043   9
  -9   0  -6 356.569 12.6364   4
  -9   0  -6 362.222 16.4633  13
  -9   0  -6 367.777 15.4574   7
  -9   0  -6 355.640 14.5639  11
  -9   0  -6 349.486 16.0889  10
   9   0   6 366.574 19.6579   2
   9   0   6 341.170 13.6050   9
 -10   0  -6 48.8126 7.24439   7
 -10   0  -6 54.0412 7.38025  11
 -10   0  -6 45.1548 8.49270  13
 -10   0  -6 43.9864 7.77115  10
  10   0   6 34.2828 5.95376   9
  10   0   6 59.2444 10.8358   2
   7  -1  -6 55.6953 8.80745   1
  -7   1   6 53.1735 9.39582  13
  -7   1   6 62.0905 10.4146  12
   6  -1  -6 41.4781 6.70515   9
   6  -1  -6 35.6300 7.33708   1
  -6   1   6 25.1335 7.34023  12
  -6   1   6 25.4547 6.04161  10
  -6   1   6 21.6666 6.64981  13
   5  -1  -6 693.264 23.3214   1
   5  -1  -6 656.481 21.7509   9
   5  -1  -6 654.539 22.9996   6
  -5   1   6 690.166 20.8509  10
  -5   1   6 645.301 22.8698  13
  -5   1   6 680.185 23.4538  12
   4  -1  -6 1093.35 30.6163   6
   4  -1  -6 1155.50 31.0166   1
  -4   1   6 1100.96 30.4455  13
  -4   1   6 1068.04 30.6255  12
  -4   1   6 1084.75 27.5769  10
   3  -1  -6 753.794 22.9215   1
   3  -1  -6 798.187 23.0681   6
  -3   1   6 753.672 22.8979  12
  -3   1   6 759.573 22.6117  13
  -3   1   6 747.169 19.7449  10
   2  -1  -6 247.410 11.2344   6
   2  -1  -6 222.289 11.1418   1
  -2   1   6 242.071 11.4566  12
  -2   1   6 240.070 10.8362  13
   1  -1  -6 1027.56 26.0892   6
   1  -1  -6 1045.66 26.2786   1
  -1   1   6 1050.96 26.5029  12
   0  -1  -6 932.079 23.2610   6
   0  -1  -6 955.757 23.3892   1
   0   1   6 947.053 23.8988  12
  -1  -1  -6 93.8838 5.56323   1
  -1  -1  -6 89.8235 5.37714   5
  -1  -1  -6 94.8285 5.91038   6
  -2  -1  -6 2018.28 44.2984  11
  -2  -1  -6 2066.67 42.1579   1
  -2  -1  -6 2084.73 42.8849   5
  -2  -1  -6 2030.65 45.5322   7
  -2  -1  -6 2076.55 43.3807   6
  -3  -1  -6 2027.90 43.8078   4
  -3  -1  -6 2015.27 40.3234   1
  -3  -1  -6 1993.79 45.1092   7
  -3  -1  -6 2016.22 42.6646   6
  -3  -1  -6 2010.81 42.1407   5
  -3  -1  -6 1991.40 44.0634  11
   3   1   6 2046.03 41.2978   9
   3   1   6 2101.97 45.0515   2
  -4  -1  -6 693.840 16.5675  10
  -4  -1  -6 687.047 17.8229   6
  -4  -1  -6 671.097 19.8407   7
  -4  -1  -6 698.906 19.1051  11
  -4  -1  -6 699.046 18.7402   4
   4   1   6 696.054 20.4001   2
   4   1   6 684.375 16.6198   9
  -5  -1  -6 221.154 9.02151  13
  -5  -1  -6 220.973 9.37420   6
  -5  -1  -6 226.693 10.2077  11
  -5  -1  -6 213.011 10.5706   7
  -5  -1  -6 205.049 8.48317  10
  -5  -1  -6 215.584 9.45961   4
   5   1   6 208.935 8.43285   9
   5   1   6 227.980 12.5755   2
  -6  -1  -6 -0.1493 3.10641   4
  -6  -1  -6 4.24454 4.19819   7
  -6  -1  -6 12.3283 3.76057  10
  -6  -1  -6 8.41702 4.04043  11
  -6  -1  -6 -0.9654 3.39088  13
   6   1   6 7.86155 6.03876   2
   6   1   6 5.03183 3.30522   9
  -7  -1  -6 501.714 15.7595   4
  -7  -1  -6 519.175 16.9415  10
  -7  -1  -6 500.215 16.5511  13
  -7  -1  -6 490.082 17.7704   7
  -7  -1  -6 496.454 17.0128  11
   7   1   6 550.354 20.3158   2
   7   1   6 505.241 15.7284   9
  -8  -1  -6 590.617 20.5149   7
  -8  -1  -6 598.638 20.1016  10
  -8  -1  -6 631.082 18.3055   4
  -8  -1  -6 598.193 19.7935  13
   8   1   6 575.282 22.8199   2
   8   1   6 644.620 18.9979   9
  -9  -1  -6 64.3334 8.26661  10
  -9  -1  -6 58.5718 8.05443  13
  -9  -1  -6 76.6932 8.63687   7
  -9  -1  -6 82.3722 7.19643   4
   9   1   6 78.9523 11.1513   2
   9   1   6 67.5142 7.32666   9
 -10  -1  -6 67.4963 9.26173  10
 -10  -1  -6 59.3071 8.55271  13
 -10  -1  -6 79.8005 9.31801   7
  10   1   6 94.0521 12.4883   2
  10   1   6 80.9746 8.42350   9
   7  -2  -6 273.639 16.4670   1
  -7   2   6 248.836 16.0673  13
  -7   2   6 273.655 14.5915  10
  -7   2   6 238.694 16.9472  12
   6  -2  -6 132.119 11.6530   1
  -6   2   6 92.5395 10.5384  13
  -6   2   6 111.066 9.71893  10
  -6   2   6 107.477 11.3980  12
   5  -2  -6 40.7241 6.87848   1
  -5   2   6 50.7452 8.15029  12
  -5   2   6 51.3279 6.72741  10
  -5   2   6 44.5285 7.40481  13
   4  -2  -6 181.087 11.5711   6
   4  -2  -6 174.128 11.0550   1
  -4   2   6 167.581 11.5789  12
  -4   2   6 164.535 10.8711  13
  -4   2   6 163.587 9.19481  10
   3  -2  -6 23.3925 5.32520   6
   3  -2  -6 28.3983 5.72868   1
  -3   2   6 32.4849 4.55563  10
  -3   2   6 37.3664 6.42195  12
  -3   2   6 40.0166 6.31540  13
   2  -2  -6 1060.39 27.5492   6
   2  -2  -6 1094.48 28.1431   1
  -2   2   6 1069.63 27.7224  12
  -2   2   6 1069.20 24.2645  10
  -2   2   6 1047.55 27.3293  13
   1  -2  -6 4163.19 84.9439   6
   1  -2  -6 4155.57 85.6281   1
  -1   2   6 4208.96 81.1142  10
  -1   2   6 4199.14 84.8449  13
  -1   2   6 4114.84 85.1682  12
   0  -2  -6 2967.63 61.7552   1
   0  -2  -6 2965.12 61.2078   6
   0   2   6 2954.21 61.8377  12
  -1  -2  -6 678.042 18.8076   7
  -1  -2  -6 615.332 17.7613  11
  -1  -2  -6 672.880 17.7113   4
  -1  -2  -6 667.595 17.4856   5
  -1  -2  -6 651.201 16.6094   6
  -1  -2  -6 656.978 17.2004   1
  -2  -2  -6 424.413 13.4692  11
  -2  -2  -6 382.970 11.6525   6
  -2  -2  -6 487.906 13.2742   5
  -2  -2  -6 453.024 13.6848   4
   2   2   6 464.816 9.83221   8
  -3  -2  -6 12.5672 2.48952   6
  -3  -2  -6 13.5802 2.61627   1
  -3  -2  -6 20.7754 3.87559  11
  -3  -2  -6 14.0017 3.54118   4
  -3  -2  -6 3.87671 2.40594   7
  -3  -2  -6 19.9467 3.78827   5
   3   2   6 9.51629 3.80564   2
   3   2   6 11.8450 2.93423   9
  -4  -2  -6 464.727 12.6596   6
  -4  -2  -6 482.001 15.3060  11
  -4  -2  -6 477.341 14.7612   4
   4   2   6 470.752 13.6500   9
   4   2   6 498.069 16.3019   2
   4   2   6 506.856 12.4082   1
  -5  -2  -6 266.871 9.28835   6
  -5  -2  -6 284.233 12.5314   7
  -5  -2  -6 279.303 11.6679  11
  -5  -2  -6 284.658 11.2130   4
   5   2   6 283.008 13.1289   2
   5   2   6 274.470 10.3413   9
  -6  -2  -6 118.164 7.92989   4
  -6  -2  -6 105.367 8.43063  11
  -6  -2  -6 96.7107 8.66647   7
  -6  -2  -6 111.837 6.74922  13
   6   2   6 101.353 7.69014   9
   6   2   6 99.6720 9.54575   2
  -7  -2  -6 160.415 10.4390   7
  -7  -2  -6 156.603 8.69667  13
  -7  -2  -6 144.196 8.82188   4
   7   2   6 179.808 9.53607   9
   7   2   6 145.467 11.6647   2
  -8  -2  -6 292.840 12.5540  13
  -8  -2  -6 240.811 11.3792   4
  -8  -2  -6 253.546 13.4686   7
   8   2   6 268.415 15.9984   2
   8   2   6 280.043 12.5244   9
  -9  -2  -6 805.345 24.1064  13
  -9  -2  -6 807.541 23.0331   4
  -9  -2  -6 792.551 25.8949   7
   9   2   6 814.251 24.3732   9
   9   2   6 832.002 27.7943   2
 -10  -2  -6 -0.9568 5.55949  13
 -10  -2  -6 4.32917 3.91680   4
 -10  -2  -6 1.08172 5.26135   7
  10   2   6 -4.0723 4.51009   9
  10   2   6 5.27537 7.12762   2
   7  -3  -6 24.1277 7.42949   1
  -7   3   6 46.0490 7.86433  10
  -7   3   6 30.7977 8.98894  12
  -7   3   6 41.5395 9.08961  13
   6  -3  -6 82.1646 9.97982   1
  -6   3   6 81.2642 10.4214  12
  -6   3   6 102.047 9.58469  10
  -6   3   6 83.4323 10.2560  13
   5  -3  -6 547.588 20.8896   1
  -5   3   6 562.667 18.7686  10
  -5   3   6 561.922 21.0909  13
  -5   3   6 578.105 21.5082  12
   4  -3  -6 1255.26 34.1951   1
  -4   3   6 1279.03 33.8955  12
  -4   3   6 1232.19 33.5132  13
  -4   3   6 1249.55 31.0690  10
   3  -3  -6 989.162 27.9977   1
  -3   3   6 981.936 24.5679  10
  -3   3   6 1016.10 27.4582  12
  -3   3   6 972.950 27.0152  13
   2  -3  -6 1146.78 30.2150   1
   2  -3  -6 1153.26 29.2614   6
  -2   3   6 1142.13 26.4130  10
  -2   3   6 1172.78 29.4680  12
  -2   3   6 1179.33 29.2916  13
   1  -3  -6 607.390 18.3882   1
   1  -3  -6 585.090 17.1278   6
  -1   3   6 614.555 17.6154  12
  -1   3   6 587.130 14.5369  10
  -1   3   6 582.557 17.0267  13
   0  -3  -6 1993.33 42.3382   6
   0  -3  -6 1983.52 43.5537  11
   0  -3  -6 1950.71 43.5670   5
   0  -3  -6 1934.83 42.6785   4
   0  -3  -6 2018.11 43.9871   1
   0  -3  -6 1997.82 43.8470   7
   0   3   6 1957.64 42.1481  13
   0   3   6 1958.02 39.3781  10
   0   3   6 1993.06 43.0431  12
  -1  -3  -6 0.35996 3.02439   1
  -1  -3  -6 -0.2205 1.24977   6
  -1  -3  -6 4.43010 3.02154   7
  -1  -3  -6 1.46337 3.22598   5
  -1  -3  -6 1.17534 2.81474  11
  -1  -3  -6 -1.6405 2.59012   4
   1   3   6 -1.3083 2.18099  13
   1   3   6 2.13888 1.63491   3
   1   3   6 2.85902 1.24769  10
  -2  -3  -6 315.509 11.0593   1
  -2  -3  -6 351.271 9.63677   6
  -2  -3  -6 367.830 12.2382   4
  -2  -3  -6 359.635 12.5208  11
  -2  -3  -6 367.351 13.1081   7
  -2  -3  -6 351.681 12.2317   5
   2   3   6 360.071 8.60923  10
   2   3   6 350.158 11.8212   2
   2   3   6 370.988 9.25356   8
  -3  -3  -6 116.809 7.97909   7
  -3  -3  -6 120.022 7.61829   5
   3   3   6 112.253 6.89677   9
   3   3   6 117.483 7.51350   2
  -4  -3  -6 175.401 8.85134   4
  -4  -3  -6 166.354 5.74813   6
   4   3   6 167.005 9.78015   2
   4   3   6 170.631 8.58989   9
  -5  -3  -6 188.280 6.73228   6
  -5  -3  -6 199.285 9.85211   4
  -5  -3  -6 184.014 10.3209  11
  -5  -3  -6 188.779 10.9470   7
   5   3   6 188.968 11.4184   2
   5   3   6 184.716 9.39165   9
  -6  -3  -6 75.6802 7.04449   4
  -6  -3  -6 67.7835 7.82002   7
   6   3   6 85.2793 7.28855   9
   6   3   6 82.6385 8.74111   2
  -7  -3  -6 4.23284 3.19523  13
  -7  -3  -6 0.85417 3.61395   4
  -7  -3  -6 2.10509 4.62073   7
   7   3   6 7.76790 6.16313   2
   7   3   6 -0.7538 4.03030   9
  -8  -3  -6 1035.09 30.9420   7
  -8  -3  -6 1092.85 28.5727   4
  -8  -3  -6 1097.86 27.6283  13
   8   3   6 1062.80 29.0083   9
   8   3   6 1058.89 31.2970   2
  -9  -3  -6 28.8177 5.79297   4
  -9  -3  -6 31.2117 7.12993   7
   9   3   6 23.0436 8.09280   2
   9   3   6 24.0389 6.28055   9
 -10  -3  -6 97.2385 10.6177   7
 -10  -3  -6 103.538 9.11389   4
  10   3   6 98.6158 11.7848   2
  10   3   6 100.305 10.1567   9
   6  -4  -6 604.343 23.8098   1
  -6   4   6 586.972 23.6482  12
  -6   4   6 611.738 23.8810  13
  -6   4   6 611.590 21.4728  10
   5  -4  -6 126.953 11.5558   1
  -5   4   6 131.208 9.77975  10
  -5   4   6 125.494 11.3298  13
  -5   4   6 131.180 11.7283  12
   4  -4  -6 16.2980 5.57394   1
  -4   4   6 13.8242 5.75288  13
  -4   4   6 11.6352 4.43818  10
  -4   4   6 9.84392 5.67792  12
   3  -4  -6 27.1357 6.11714   1
  -3   4   6 31.7938 6.17976  13
  -3   4   6 26.7097 6.10240  12
  -3   4   6 28.8214 4.60873  10
   2  -4  -6 635.543 20.2950   1
  -2   4   6 580.286 16.4413  10
  -2   4   6 581.060 18.4462  13
  -2   4   6 629.041 18.8439  12
   1  -4  -6 205.413 8.88358   4
   1  -4  -6 205.076 10.8468   1
   1  -4  -6 182.187 9.87943   5
  -1   4   6 200.501 7.77130  10
  -1   4   6 204.029 9.65114  13
  -1   4   6 197.502 9.47340  12
   0  -4  -6 48.5428 6.07706   1
   0  -4  -6 35.7949 4.78926   7
   0  -4  -6 62.1373 5.84035  11
   0  -4  -6 38.1016 5.51958   5
   0  -4  -6 54.6643 5.49016   4
   0   4   6 52.1749 3.95951  10
   0   4   6 43.5193 3.18608   3
   0   4   6 46.0075 4.93179  12
   0   4   6 40.0259 4.50903  13
  -1  -4  -6 366.159 12.7632   4
  -1  -4  -6 388.122 13.1365  11
  -1  -4  -6 381.420 13.4103   1
  -1  -4  -6 381.198 13.4726   7
  -1  -4  -6 392.827 13.8226   5
   1   4   6 374.998 10.7126  13
   1   4   6 402.646 11.8261  12
   1   4   6 404.035 10.6915   3
   1   4   6 380.580 10.2119  10
   1   4   6 387.222 11.5598   8
  -2  -4  -6 1178.31 28.8577   5
  -2  -4  -6 1146.54 29.5028   7
  -2  -4  -6 1205.85 28.0855   1
  -2  -4  -6 1204.51 29.0132  11
  -2  -4  -6 1188.13 28.4971   4
   2   4   6 1197.28 25.8267   8
   2   4   6 1134.22 27.0908   2
   2   4   6 1159.70 25.3038  10
   2   4   6 1139.35 24.1726  13
  -3  -4  -6 802.789 21.8888  11
  -3  -4  -6 781.049 22.4760   7
  -3  -4  -6 798.084 21.7077   5
   3   4   6 767.362 21.2753   9
   3   4   6 784.257 20.4891   2
   3   4   6 784.363 17.5036   8
  -4  -4  -6 756.843 22.0272   7
  -4  -4  -6 687.101 20.5061  11
  -4  -4  -6 708.476 20.1387   4
   4   4   6 708.305 20.1027   2
   4   4   6 717.060 20.2808   9
   4   4   6 703.591 15.6176   8
  -5  -4  -6 46.3138 5.97034   4
  -5  -4  -6 43.2994 6.61128   7
   5   4   6 41.1652 3.14184   8
   5   4   6 45.7957 6.75024   2
   5   4   6 34.6267 5.75742   9
  -6  -4  -6 314.405 14.8855   7
  -6  -4  -6 320.897 13.4749   4
   6   4   6 336.785 14.7228   2
   6   4   6 324.789 13.5494   9
  -7  -4  -6 4.69530 4.97177   7
  -7  -4  -6 -3.0327 3.85901   4
   7   4   6 -6.9741 5.03096   2
   7   4   6 -1.4545 4.28948   9
  -8  -4  -6 174.866 10.9643   4
  -8  -4  -6 169.300 12.9502   7
   8   4   6 197.293 13.2183   2
   8   4   6 178.554 11.8424   9
  -9  -4  -6 841.573 24.5767   4
  -9  -4  -6 764.000 27.2388   7
   9   4   6 800.289 25.6962   9
   9   4   6 791.973 26.6934   2
   6  -5  -6 116.274 12.1108   1
  -6   5   6 137.715 12.8707  13
  -6   5   6 116.764 10.9230  10
  -6   5   6 146.431 13.1599  12
   5  -5  -6 97.0960 10.7326   1
  -5   5   6 90.9352 8.84096  10
  -5   5   6 92.4896 10.3116  13
  -5   5   6 80.0909 10.0341  12
   4  -5  -6 28.3024 6.59328   1
  -4   5   6 35.2045 5.79226  10
  -4   5   6 52.8569 7.88588  12
  -4   5   6 43.1183 7.47548  13
   3  -5  -6 57.2097 8.10494   1
  -3   5   6 77.1625 8.05327  13
  -3   5   6 81.6539 8.26377  12
  -3   5   6 74.6185 6.95307  10
   2  -5  -6 3.75781 4.98291   1
   2  -5  -6 6.11072 4.21315   5
   2  -5  -6 11.6399 3.51482   4
  -2   5   6 -5.2907 3.84298  12
  -2   5   6 10.6739 4.57251  13
  -2   5   6 3.28227 3.35302  10
   1  -5  -6 998.147 27.0875   5
   1  -5  -6 984.918 25.1359   7
   1  -5  -6 1005.16 27.8785   1
   1  -5  -6 992.434 24.8477   4
  -1   5   6 1013.45 25.0677  12
  -1   5   6 1007.19 21.8394   3
  -1   5   6 1005.74 25.2693  13
  -1   5   6 1035.37 24.4058  10
   0  -5  -6 -3.5146 4.14247   1
   0  -5  -6 -1.9918 3.14950   7
   0  -5  -6 -0.3487 3.02686   4
   0  -5  -6 3.15081 3.30968  11
   0  -5  -6 0.83266 3.95137   5
   0   5   6 0.21720 2.95459  12
   0   5   6 -0.7710 2.35504  10
   0   5   6 3.27566 3.36213  13
   0   5   6 2.34373 2.05639   3
  -1  -5  -6 544.191 17.7482   1
  -1  -5  -6 568.890 17.1200  11
  -1  -5  -6 577.324 17.0065   4
  -1  -5  -6 558.018 17.7956   5
  -1  -5  -6 565.290 17.5123   7
   1   5   6 561.046 14.7559  12
   1   5   6 543.877 14.7232  10
   1   5   6 553.603 14.7444   3
   1   5   6 561.495 13.9535  13
   1   5   6 547.501 15.8220   8
  -2  -5  -6 501.146 17.0401   7
  -2  -5  -6 546.320 16.9599  11
  -2  -5  -6 543.691 17.6049   5
  -2  -5  -6 532.726 16.5738   4
  -2  -5  -6 549.777 17.0294   1
   2   5   6 506.100 14.6217   2
   2   5   6 537.643 13.7931  12
   2   5   6 535.906 14.9353   3
   2   5   6 509.190 14.5246   8
   2   5   6 509.486 14.2183  10
  -3  -5  -6 707.428 21.4516   7
  -3  -5  -6 692.470 20.5639  11
  -3  -5  -6 682.332 20.4149   4
  -3  -5  -6 725.933 21.0909   5
   3   5   6 686.462 18.6622   2
   3   5   6 701.627 20.9862   9
   3   5   6 712.810 17.3494   8
  -4  -5  -6 79.8483 7.75387  11
  -4  -5  -6 69.9442 7.22038   4
  -4  -5  -6 70.2951 7.75146   7
   4   5   6 58.3004 6.40724   2
   4   5   6 56.1454 6.91437   9
   4   5   6 66.0326 4.68691   8
  -5  -5  -6 15.8386 5.53698   7
  -5  -5  -6 17.6429 4.95680   4
   5   5   6 14.6853 4.86321   9
   5   5   6 20.3224 2.89774   8
   5   5   6 17.8891 5.65396   2
  -6  -5  -6 64.3049 7.21177   4
  -6  -5  -6 61.3203 8.15857   7
   6   5   6 63.0869 7.74686   9
   6   5   6 63.5725 7.59357   2
  -7  -5  -6 3.13088 4.37319   4
  -7  -5  -6 -1.8887 4.92066   7
   7   5   6 -3.5110 4.49361   9
   7   5   6 7.82946 5.66680   2
  -8  -5  -6 236.480 12.9336   4
  -8  -5  -6 242.812 15.2303   7
   8   5   6 256.781 14.2568   9
   8   5   6 264.356 14.1248   2
  -9  -5  -6 189.987 14.7155   7
  -9  -5  -6 203.576 12.6158   4
   9   5   6 196.589 13.5586   9
   9   5   6 221.929 14.2505   2
   5  -6  -6 299.384 17.1777   1
  -5   6   6 350.661 17.9147  13
  -5   6   6 389.901 16.2836  10
  -5   6   6 325.309 17.0727  12
   4  -6  -6 33.5120 6.86447   5
   4  -6  -6 27.4294 7.12539   1
  -4   6   6 35.1941 7.32894  13
  -4   6   6 39.8250 6.53200  10
  -4   6   6 34.3063 7.12107  12
   3  -6  -6 470.477 18.3355   5
   3  -6  -6 478.105 19.9914   1
  -3   6   6 485.460 17.6409  12
  -3   6   6 511.191 18.3423  13
  -3   6   6 504.942 17.1920  10
   2  -6  -6 863.155 21.9141   4
   2  -6  -6 832.520 25.1234   5
   2  -6  -6 856.124 26.5029   1
  -2   6   6 835.771 23.0637  10
  -2   6   6 836.489 23.8621  13
  -2   6   6 816.187 22.8959  12
   1  -6  -6 -0.5176 2.88992   7
   1  -6  -6 4.30273 3.30366   4
   1  -6  -6 0.23202 4.95431   1
   1  -6  -6 3.63996 4.23152   5
  -1   6   6 1.52067 2.10613   3
  -1   6   6 2.07505 3.01758  10
  -1   6   6 7.61180 3.77943  12
  -1   6   6 3.35955 4.22278  13
   0  -6  -6 411.620 14.4499   7
   0  -6  -6 454.522 16.8207   1
   0  -6  -6 429.836 14.4550   4
   0  -6  -6 429.300 15.9395   5
   0  -6  -6 407.701 14.1611  11
   0   6   6 418.209 13.4899  10
   0   6   6 408.070 12.2413   3
   0   6   6 420.228 12.6056  12
   0   6   6 424.014 14.8796   8
   0   6   6 416.374 12.9577  13
  -1  -6  -6 281.881 13.3830   1
  -1  -6  -6 278.679 11.7382  11
  -1  -6  -6 281.470 13.0221   5
  -1  -6  -6 290.561 12.5048   7
  -1  -6  -6 295.395 11.9995   4
   1   6   6 274.902 9.41901   2
   1   6   6 265.731 8.91945  13
   1   6   6 290.919 10.2803   3
   1   6   6 275.835 10.4728  10
   1   6   6 292.430 9.05189  12
   1   6   6 280.000 11.5075   8
  -2  -6  -6 519.112 18.0695   5
  -2  -6  -6 499.055 16.8135  11
  -2  -6  -6 529.872 17.6531   7
  -2  -6  -6 537.384 17.2202   4
   2   6   6 495.736 18.2380   9
   2   6   6 500.032 15.2470   8
   2   6   6 499.821 13.8802   2
   2   6   6 493.228 14.9459  10
   2   6   6 487.802 12.5043  12
   2   6   6 476.164 15.0163   3
  -3  -6  -6 7910.99 155.251   4
  -3  -6  -6 7894.92 156.770   7
  -3  -6  -6 7851.60 155.387  11
   3   6   6 7674.17 151.238   2
   3   6   6 7755.11 156.316   9
   3   6   6 7837.13 153.960   3
   3   6   6 7673.19 151.947   8
  -4  -6  -6 307.044 14.1211  11
  -4  -6  -6 298.763 14.4211   7
  -4  -6  -6 304.101 13.5147   4
   4   6   6 299.493 10.3719   8
   4   6   6 312.323 14.2634   9
   4   6   6 293.069 11.5561   2
   4   6   6 311.192 12.6562   3
  -5  -6  -6 493.789 17.6282   4
  -5  -6  -6 475.383 19.1446   7
   5   6   6 480.271 18.2085   9
   5   6   6 494.711 13.9775   8
   5   6   6 486.595 15.6163   2
  -6  -6  -6 152.295 11.0423   4
  -6  -6  -6 161.896 12.5897   7
   6   6   6 165.560 10.2513   2
   6   6   6 152.288 11.5544   9
  -7  -6  -6 406.851 16.9458   4
  -7  -6  -6 408.389 18.9936   7
   7   6   6 425.474 15.8639   2
   7   6   6 384.881 17.4966   9
  -8  -6  -6 50.5587 7.68121   4
  -8  -6  -6 43.0278 8.71474   7
   8   6   6 57.0292 7.69281   2
   8   6   6 45.8585 8.13680   9
  -9  -6  -6 -1.1880 4.87822   4
  -9  -6  -6 -9.1343 5.98052   7
   9   6   6 -3.0726 5.86969   9
   9   6   6 6.23534 6.01424   2
   5  -7  -6 228.499 16.6874   1
   5  -7  -6 237.698 15.2217   5
  -5   7   6 262.170 14.6069  10
   4  -7  -6 504.489 21.7530   1
   4  -7  -6 516.704 20.3339   5
  -4   7   6 520.278 19.2554  10
  -4   7   6 525.738 20.6379  12
  -4   7   6 506.530 20.3427  13
   3  -7  -6 4.96622 5.45504   5
   3  -7  -6 0.72241 5.76431   1
  -3   7   6 0.74740 5.17229  13
  -3   7   6 2.96236 6.67897  12
  -3   7   6 5.95100 4.56763  10
   2  -7  -6 56.5426 8.42766   1
   2  -7  -6 60.5261 7.90038   5
   2  -7  -6 59.0200 6.11312   4
  -2   7   6 70.1808 7.82903  13
  -2   7   6 65.1419 7.22705  10
   1  -7  -6 82.7245 6.78435   7
   1  -7  -6 98.5447 7.55917  11
   1  -7  -6 90.8638 9.16504   5
   1  -7  -6 88.2107 9.55013   1
   1  -7  -6 79.5525 6.97709   4
  -1   7   6 88.7442 7.57293  13
  -1   7   6 82.8892 6.38591   3
  -1   7   6 87.9617 8.34607   8
  -1   7   6 97.1002 7.65738  10
   0  -7  -6 44.9760 5.92269   4
   0  -7  -6 54.4212 5.81984  11
   0  -7  -6 51.0795 7.70552   1
   0  -7  -6 52.0075 6.13617   7
   0  -7  -6 59.8932 7.59847   5
   0   7   6 61.4150 5.53214   3
   0   7   6 46.3875 5.75349  10
   0   7   6 50.6046 6.45307   8
  -1  -7  -6 109.920 9.46662   5
  -1  -7  -6 117.367 8.84194   7
  -1  -7  -6 105.128 8.11770  11
  -1  -7  -6 114.711 8.82280   4
   1   7   6 100.296 6.86165   3
   1   7   6 105.295 7.64415  10
   1   7   6 126.560 8.77736   8
  -2  -7  -6 549.870 19.7399   5
  -2  -7  -6 591.783 19.1042   4
  -2  -7  -6 582.310 19.5173   7
  -2  -7  -6 583.819 18.7507  11
   2   7   6 588.353 17.8250   8
   2   7   6 566.012 20.4271   9
   2   7   6 543.459 17.2562  10
   2   7   6 573.104 17.4796   3
  -3  -7  -6 162.471 10.5379   4
  -3  -7  -6 167.213 10.8353  11
  -3  -7  -6 162.247 11.3208   7
   3   7   6 171.650 11.7314   9
   3   7   6 170.791 9.55772   3
   3   7   6 165.570 8.97006   8
  -4  -7  -6 354.579 15.3810  11
  -4  -7  -6 359.744 16.5189   7
  -4  -7  -6 347.686 15.3218   4
   4   7   6 364.100 16.4005   9
   4   7   6 357.110 14.3077   3
   4   7   6 359.824 12.6343   8
  -5  -7  -6 102.723 9.41044   4
  -5  -7  -6 98.1604 10.4785   7
   5   7   6 103.148 9.10806   3
   5   7   6 122.764 7.38221   8
   5   7   6 116.283 10.5286   9
  -6  -7  -6 10.9259 5.52039   4
  -6  -7  -6 -2.6795 5.54435   7
   6   7   6 0.29036 4.13617   3
   6   7   6 0.85159 5.45313   9
  -7  -7  -6 456.976 18.6790   4
  -7  -7  -6 464.269 20.6686   7
   7   7   6 502.665 20.5921   9
  -8  -7  -6 0.72597 5.37590   4
  -8  -7  -6 -0.6769 6.23628   7
   8   7   6 -10.941 5.64218   9
   4  -8  -6 9.91236 7.33752   1
   4  -8  -6 23.3314 7.57016   5
  -4   8   6 -0.5034 6.53492  13
  -4   8   6 8.16626 5.69278  10
   3  -8  -6 963.567 30.0543   5
   3  -8  -6 991.875 32.4531   1
  -3   8   6 975.569 29.0603  13
  -3   8   6 999.352 30.7352   8
  -3   8   6 959.980 28.7376  10
   2  -8  -6 73.1183 9.15980   5
   2  -8  -6 66.1530 9.64882   1
   2  -8  -6 68.7186 6.77147   4
  -2   8   6 83.0791 8.44138  10
  -2   8   6 65.4934 8.52894   8
  -2   8   6 61.6266 8.33507  13
   1  -8  -6 614.061 18.6603  11
   1  -8  -6 635.899 19.3356   4
   1  -8  -6 687.618 25.8693   7
   1  -8  -6 661.765 24.2249   1
   1  -8  -6 623.891 22.0265   5
  -1   8   6 614.691 20.2495  10
  -1   8   6 609.657 21.3950   8
   0  -8  -6 5.77623 4.34369   4
   0  -8  -6 1.14654 5.08095   5
   0  -8  -6 7.18972 6.05634   1
   0  -8  -6 3.24086 3.57069  11
   0  -8  -6 -1.1036 3.51666   7
   0   8   6 3.27205 4.33482   8
   0   8   6 -0.7415 2.97410   3
   0   8   6 -0.8803 3.49730  10
  -1  -8  -6 64.8657 7.49032   4
  -1  -8  -6 65.5327 8.52936   5
  -1  -8  -6 64.1776 7.48172   7
  -1  -8  -6 80.9940 7.39771  11
   1   8   6 70.5151 6.76357   3
   1   8   6 79.1578 7.56451  10
   1   8   6 73.0445 7.61642   8
  -2  -8  -6 19.9927 6.70311   5
  -2  -8  -6 19.0873 5.72258   7
  -2  -8  -6 26.4879 5.59468  11
  -2  -8  -6 38.6306 6.44769   4
   2   8   6 25.2194 6.52065   9
   2   8   6 31.1309 5.41836  10
   2   8   6 31.2024 5.10875   3
   2   8   6 16.3776 4.69171   8
  -3  -8  -6 22.6677 5.84612  11
  -3  -8  -6 16.7345 6.26609   7
  -3  -8  -6 10.1316 5.42085   4
   3   8   6 20.6070 4.92070   3
   3   8   6 10.6131 4.23707   8
   3   8   6 18.6869 6.38650   9
  -4  -8  -6 147.929 11.4601  11
  -4  -8  -6 145.901 12.4370   7
  -4  -8  -6 157.681 11.2982   4
   4   8   6 154.749 9.20411   8
   4   8   6 126.224 11.2580   9
   4   8   6 150.669 10.3994   3
  -5  -8  -6 -3.3933 5.62385   7
  -5  -8  -6 3.79998 5.07654   4
   5   8   6 -1.8286 4.99147   9
   5   8   6 0.43491 5.70058   8
   5   8   6 1.10958 4.17648   3
  -6  -8  -6 64.8744 10.1037   7
   6   8   6 72.9095 9.90445   9
   6   8   6 59.4912 8.18504   3
  -7  -8  -6 402.688 20.0865   7
   7   8   6 386.747 19.5892   9
   7   8   6 391.486 18.1667   3
   2  -9  -6 5.29389 7.50936   1
   2  -9  -6 16.1086 6.97733   5
  -2   9   6 25.7084 6.06407  10
  -2   9   6 24.7863 7.05533   8
   1  -9  -6 190.652 13.3445   5
   1  -9  -6 190.757 10.9692   4
  -1   9   6 181.163 12.9227   8
  -1   9   6 212.340 12.1917  10
   0  -9  -6 34.8464 5.44740  11
   0  -9  -6 39.6688 6.42284   4
   0  -9  -6 31.7645 5.79247   7
   0  -9  -6 29.3003 7.44091   5
   0   9   6 37.7003 6.93527   8
   0   9   6 33.4753 5.47887   3
   0   9   6 29.4624 5.90269  10
  -1  -9  -6 244.806 15.0328   5
  -1  -9  -6 240.987 12.6749   7
  -1  -9  -6 227.655 11.6838  11
  -1  -9  -6 245.158 13.0134   4
   1   9   6 210.354 11.8838  10
   1   9   6 245.070 15.2676   9
   1   9   6 218.393 11.2977   3
   1   9   6 233.859 13.0636   8
  -2  -9  -6 44.5282 6.74793  11
  -2  -9  -6 54.1636 7.80441   7
  -2  -9  -6 60.7154 7.82260   4
   2   9   6 53.7591 6.81979   3
   2   9   6 40.2361 7.91827   9
   2   9   6 53.9736 7.19320  10
   2   9   6 39.5046 6.42614   8
  -3  -9  -6 139.181 12.3472   7
  -3  -9  -6 123.073 10.2026  11
  -3  -9  -6 108.100 10.2362   4
   3   9   6 114.006 9.21455   8
   3   9   6 102.000 9.55990  10
   3   9   6 112.364 9.90418   3
   3   9   6 110.603 11.3116   9
  -4  -9  -6 -9.5935 5.17675   4
  -4  -9  -6 -2.3815 5.69471   7
  -4  -9  -6 3.38308 5.26669  11
   4   9   6 1.74951 3.99273   8
   4   9   6 5.11563 5.97036   9
   4   9   6 4.81016 4.66529   3
  -5  -9  -6 -1.9047 6.10542   7
   5   9   6 1.25033 4.73858   3
   5   9   6 -7.4160 5.42240   9
  -6  -9  -6 -11.193 6.01238   7
   6   9   6 -1.6006 4.98795   3
   6   9   6 11.6905 7.31454   9
   0 -10  -6 97.0647 11.2753   5
   0 -10  -6 89.8076 9.09361   4
   0  10   6 80.5084 9.02891  10
   0  10   6 81.3996 9.80160   8
  -1 -10  -6 155.462 11.2276   7
  -1 -10  -6 153.753 11.5668   4
  -1 -10  -6 123.585 9.71928  11
   1  10   6 140.676 10.7738  10
   1  10   6 165.227 14.1563   9
   1  10   6 126.554 11.1755   8
   1  10   6 149.489 10.2846   3
  -2 -10  -6 -3.3688 4.56456  11
  -2 -10  -6 1.00890 5.44363   7
  -2 -10  -6 8.29351 6.08324   4
   2  10   6 8.60380 4.64195   3
   2  10   6 2.40213 4.56960  10
   2  10   6 6.02231 6.41551   9
   2  10   6 2.58683 4.95111   8
  -3 -10  -6 -6.9222 5.41727   7
  -3 -10  -6 -1.6428 5.19341  11
  -3 -10  -6 -4.8858 5.52165   4
   3  10   6 0.95788 4.41428   8
   3  10   6 -0.7908 4.18221   3
   3  10   6 -6.1058 5.65563   9
   3  10   6 6.52107 4.75193  10
  -4 -10  -6 27.4727 8.26721   7
   4  10   6 25.8293 6.28604   3
   2   8  -7 169.381 14.6324   6
   2   8  -7 142.294 12.4926   8
   2   8  -7 148.564 13.5189   1
   2   8  -7 160.170 11.7931   3
  -2  -8   7 141.487 11.6035  12
   1   8  -7 222.312 14.7958   6
   1   8  -7 231.623 14.5704   8
   1   8  -7 215.057 13.2480   3
   1   8  -7 245.300 15.8355   1
  -1  -8   7 216.302 13.0610  12
   0   8  -7 482.250 19.6188   3
   0   8  -7 467.888 19.8628   8
   0   8  -7 478.327 19.3271  10
   0   8  -7 534.189 21.4293   1
   0   8  -7 491.806 21.3065   6
   0  -8   7 501.378 18.5606   2
   0  -8   7 506.576 19.5273  12
  -1   8  -7 71.4529 8.82893   3
  -1   8  -7 57.8261 7.96002  10
  -1   8  -7 58.4745 8.48042   8
  -1   8  -7 55.4895 8.65204   6
   1  -8   7 61.9703 8.18109   2
  -2   8  -7 208.390 13.2076   8
  -2   8  -7 198.156 12.4687  10
  -2   8  -7 209.660 14.2276   6
  -2   8  -7 223.911 13.6894   3
   2  -8   7 198.687 13.1652   2
  -3   8  -7 97.2064 10.2310   3
  -3   8  -7 90.9432 9.72396  10
  -3   8  -7 97.4149 9.95741   8
  -3   8  -7 107.551 11.5815   6
   3  -8   7 85.8545 10.0789   2
  -4   8  -7 107.023 10.3102   8
  -4   8  -7 82.9176 9.66268   3
  -4   8  -7 76.4807 10.2857   6
  -4   8  -7 103.749 10.5828  10
   4  -8   7 88.8989 10.7765   2
  -5   8  -7 9.11674 6.47047   6
  -5   8  -7 6.87021 5.42060   3
  -5   8  -7 9.86899 5.19695  10
   5  -8   7 -9.2337 7.22084   2
   3   7  -7 136.293 13.2395   1
   3   7  -7 154.276 13.7107   6
   3   7  -7 131.961 10.1228   9
   3   7  -7 118.815 11.5086   8
   3   7  -7 124.823 10.7082   3
  -3  -7   7 129.563 11.8351  12
   2   7  -7 547.532 22.5567   6
   2   7  -7 590.745 21.8224   8
   2   7  -7 560.760 19.8992   3
   2   7  -7 553.743 22.6119   1
  -2  -7   7 548.208 20.8096  12
   1   7  -7 49.2158 6.89215   3
   1   7  -7 57.2914 8.61628   6
   1   7  -7 35.3554 7.62240   1
   1   7  -7 34.0257 6.66379   8
  -1  -7   7 27.3242 6.30812  12
   0   7  -7 8.98554 5.25751   1
   0   7  -7 4.47511 4.94064   6
   0   7  -7 -0.0761 4.28953   8
   0   7  -7 -1.7526 3.66342   3
   0   7  -7 -3.2344 3.67315  10
  -1   7  -7 -4.8641 4.04857   8
  -1   7  -7 1.74461 3.91912  10
  -1   7  -7 -1.8237 3.92741   3
  -1   7  -7 2.83331 4.75195   6
   1  -7   7 7.04352 4.98391   2
  -2   7  -7 406.812 16.5847  10
  -2   7  -7 423.799 18.7898   6
  -2   7  -7 418.186 16.9794   8
  -2   7  -7 429.329 17.5318   3
   2  -7   7 408.096 17.1549   2
  -3   7  -7 95.4540 10.1443   6
  -3   7  -7 99.6038 9.27716  10
  -3   7  -7 100.509 9.70545   3
  -3   7  -7 107.707 9.60464   8
   3  -7   7 91.6142 9.91622   2
  -4   7  -7 571.787 21.0966  10
  -4   7  -7 627.685 21.1211   8
  -4   7  -7 617.461 23.7912   6
  -4   7  -7 622.596 22.3040   3
   4  -7   7 619.879 22.8931   2
  -5   7  -7 525.314 20.3346  10
  -5   7  -7 524.199 21.2884   3
  -5   7  -7 540.213 19.8663   8
  -5   7  -7 572.853 23.2947   6
   5  -7   7 544.124 22.2066   2
  -6   7  -7 59.9895 8.38271  10
  -6   7  -7 64.1944 9.03668   3
  -6   7  -7 64.9734 8.54286   8
  -6   7  -7 71.1143 10.3673   6
   6  -7   7 71.4235 10.9303   2
   4   6  -7 630.580 24.7546   1
   4   6  -7 601.368 23.9725   6
   4   6  -7 617.304 20.5638   3
   4   6  -7 627.366 21.4547   9
   4   6  -7 642.493 23.5374   8
  -4  -6   7 628.477 23.5704  12
   3   6  -7 -2.4911 5.24464   1
   3   6  -7 -6.5908 3.49015   9
   3   6  -7 -1.2317 3.40616   3
   3   6  -7 5.24176 5.20675   8
   3   6  -7 0.10878 4.50283   6
  -3  -6   7 8.43300 5.22478  12
   2   6  -7 1.20052 4.54790   6
   2   6  -7 4.99139 3.90288   3
   2   6  -7 1.51710 3.75302   9
   2   6  -7 3.26751 5.23328   1
   2   6  -7 3.17439 4.60928   8
  -2  -6   7 8.62674 4.90584  12
   1   6  -7 256.235 10.9184   9
   1   6  -7 276.755 13.4828   8
   1   6  -7 275.047 14.4044   1
   1   6  -7 282.797 14.8901   6
   1   6  -7 279.342 12.5905   3
  -1  -6   7 261.219 13.7675  12
   0   6  -7 239.162 11.8227   3
   0   6  -7 226.981 13.0574   1
   0   6  -7 242.946 12.6452   8
   0   6  -7 223.320 13.2417   6
   0   6  -7 227.411 11.5950  10
  -1   6  -7 831.523 26.6206   6
  -1   6  -7 817.627 23.9858  10
  -1   6  -7 842.823 24.7891   3
  -1   6  -7 830.542 24.4886   8
  -1   6  -7 846.170 25.0810   1
   1  -6   7 811.072 24.4643   2
  -2   6  -7 848.964 27.1936   6
  -2   6  -7 820.668 24.1532  10
  -2   6  -7 852.354 25.1688   3
  -2   6  -7 839.138 24.3659   8
   2  -6   7 833.114 25.1962   2
  -3   6  -7 313.502 15.8890   6
  -3   6  -7 293.093 13.0615   8
  -3   6  -7 282.620 13.7828   3
  -3   6  -7 304.751 13.3224  10
   3  -6   7 277.033 14.7577   2
  -4   6  -7 72.7883 7.93329  10
  -4   6  -7 70.9856 7.97777   3
  -4   6  -7 58.5423 8.59797   6
  -4   6  -7 50.8935 6.85934   8
   4  -6   7 48.7783 8.28965   2
  -5   6  -7 137.778 10.8503   3
  -5   6  -7 104.353 10.9725   6
  -5   6  -7 134.835 9.54082   8
  -5   6  -7 119.123 9.47637  10
   5  -6   7 111.013 11.3204   2
  -6   6  -7 3.58824 4.94600   3
  -6   6  -7 18.4059 6.90235   6
  -6   6  -7 10.5204 5.12217  10
  -6   6  -7 20.6564 5.52903   8
   6  -6   7 -1.1094 7.04554   2
  -7   6  -7 3.71743 4.86740   8
  -7   6  -7 9.53877 6.56519   6
  -7   6  -7 9.84489 5.13413  10
  -7   6  -7 1.64532 4.86891   3
  -7   6  -7 -0.8512 5.99625  13
   7  -6   7 -3.4182 7.72404   2
   5   5  -7 2.94375 5.63166   6
   5   5  -7 -1.3252 4.60225   8
   5   5  -7 0.23969 5.92498   1
   5   5  -7 2.36234 4.94866   9
  -5  -5   7 6.96874 6.24526  12
   4   5  -7 -0.6650 4.00461   9
   4   5  -7 6.93932 5.68588   1
   4   5  -7 1.98207 3.37076   3
   4   5  -7 4.07800 4.63907   6
   4   5  -7 -0.1792 4.36355   8
  -4  -5   7 2.62779 5.23757  12
   3   5  -7 89.9970 9.15682   8
   3   5  -7 83.9705 7.72905   9
   3   5  -7 83.9360 9.65138   6
   3   5  -7 79.7398 9.37544   1
   3   5  -7 82.3662 7.48774   3
  -3  -5   7 68.1552 8.65573  12
   2   5  -7 436.175 17.2015   8
   2   5  -7 441.544 18.4708   6
   2   5  -7 434.523 15.1782   3
   2   5  -7 433.185 14.8262   9
   2   5  -7 446.127 18.5510   1
  -2  -5   7 463.033 18.0961  12
   1   5  -7 1696.19 42.1502   1
   1   5  -7 1701.04 43.4921   6
   1   5  -7 1689.82 39.5357   3
   1   5  -7 1646.33 40.9007   8
   1   5  -7 1680.38 37.3327   9
  -1  -5   7 1687.93 42.1482  12
   0   5  -7 898.341 24.6942   3
   0   5  -7 896.218 27.5672   6
   0   5  -7 912.066 25.4204   8
   0   5  -7 910.065 26.2538   1
   0   5  -7 909.608 21.4146   9
  -1   5  -7 144.184 9.98237   1
  -1   5  -7 142.798 9.03612   3
  -1   5  -7 137.114 9.08168   8
  -1   5  -7 137.842 10.4844   6
  -1   5  -7 135.687 8.30419  10
  -2   5  -7 1.29713 4.20832   6
  -2   5  -7 -1.7369 3.30892   8
  -2   5  -7 1.73503 3.10663  10
  -2   5  -7 1.34955 3.41321   3
  -2   5  -7 2.15711 4.08657   1
   2  -5   7 -9.4650 4.21838   2
  -3   5  -7 497.676 17.4941   3
  -3   5  -7 471.963 16.2742  10
  -3   5  -7 497.918 16.3710   8
  -3   5  -7 516.597 19.6795   6
   3  -5   7 519.312 18.6602   2
  -4   5  -7 649.828 19.5479   8
  -4   5  -7 679.869 21.7760   3
  -4   5  -7 655.197 20.3289  10
  -4   5  -7 646.601 23.2128   6
   4  -5   7 670.790 22.8532   2
  -5   5  -7 82.7155 9.75953   6
  -5   5  -7 98.0776 7.85992   8
  -5   5  -7 93.9214 8.88082   3
  -5   5  -7 95.4596 8.49418  10
   5  -5   7 91.8297 10.4842   2
  -6   5  -7 28.8367 5.89176  10
  -6   5  -7 46.3258 8.29977   6
  -6   5  -7 28.2144 6.98166  13
  -6   5  -7 27.3443 6.02800   3
  -6   5  -7 37.6485 5.75782   8
   6  -5   7 36.3546 8.84835   2
  -7   5  -7 15.6021 6.83350   6
  -7   5  -7 5.34984 4.42360  10
  -7   5  -7 6.30542 4.44137   8
  -7   5  -7 6.00685 5.32541   3
  -7   5  -7 13.8203 6.48123  13
   7  -5   7 2.37354 7.34038   2
  -8   5  -7 135.213 13.6310   6
  -8   5  -7 127.519 10.6609  10
  -8   5  -7 132.979 13.0576  13
   8  -5   7 165.296 15.4356   2
   5   4  -7 1299.40 38.5932   1
   5   4  -7 1333.57 35.8970   9
   5   4  -7 1328.45 37.2885   8
   5   4  -7 1341.43 39.0789   6
  -5  -4   7 1341.07 38.5768  12
   4   4  -7 197.012 13.1249   6
   4   4  -7 231.258 13.1472   8
   4   4  -7 211.579 9.89231   3
   4   4  -7 230.421 11.9464   9
   4   4  -7 238.660 14.1686   1
  -4  -4   7 214.699 13.8151  12
   3   4  -7 313.360 12.7515   9
   3   4  -7 311.148 15.5854   1
   3   4  -7 311.633 11.7813   3
   3   4  -7 285.167 14.9631   6
   3   4  -7 323.258 14.4785   8
  -3  -4   7 291.586 15.0032  12
   2   4  -7 594.251 20.6441   1
   2   4  -7 591.289 19.3588   8
   2   4  -7 570.774 16.9983   9
   2   4  -7 558.124 20.5374   6
   2   4  -7 583.017 16.9609   3
  -2  -4   7 559.811 20.1087  12
   1   4  -7 534.394 14.8907   9
   1   4  -7 547.640 18.9674   1
   1   4  -7 517.595 19.1811   6
   1   4  -7 533.500 16.0568   3
   1   4  -7 510.986 17.3348   8
  -1  -4   7 501.610 18.5638  12
   0   4  -7 739.265 23.5760   6
   0   4  -7 779.390 22.5715   1
   0   4  -7 744.800 20.5843   3
   0   4  -7 749.654 21.4246   8
  -1   4  -7 -1.8640 3.61769   1
  -1   4  -7 14.0210 3.96641   3
  -1   4  -7 3.64227 3.02083  10
  -1   4  -7 2.86840 3.26972   8
  -1   4  -7 6.37050 4.26418   6
  -2   4  -7 18.7884 4.09123   8
  -2   4  -7 23.9921 5.37040   6
  -2   4  -7 9.99449 3.29314  10
  -2   4  -7 22.5151 4.58370   1
  -2   4  -7 12.2645 3.86702   3
   2  -4   7 4.84429 4.91919   2
  -3   4  -7 2923.30 60.9736   1
  -3   4  -7 2930.38 61.2310   8
  -3   4  -7 2867.82 61.5634  10
  -3   4  -7 2928.68 63.3296   3
  -3   4  -7 2921.29 65.7082   6
   3  -4   7 2912.18 64.6712   2
  -4   4  -7 761.782 24.2147   6
  -4   4  -7 731.541 19.9202   8
  -4   4  -7 721.233 20.8186  10
  -4   4  -7 746.776 22.3024   3
   4  -4   7 730.429 23.7345   2
  -5   4  -7 36.1146 5.46459  10
  -5   4  -7 31.1338 6.70115   6
  -5   4  -7 32.9546 6.08141   3
  -5   4  -7 22.9571 4.39946   8
   5  -4   7 30.1877 7.65137   2
  -6   4  -7 4.42161 3.87825   8
  -6   4  -7 14.8618 5.58555  13
  -6   4  -7 3.81630 4.33398   3
  -6   4  -7 8.07166 3.98950  10
  -6   4  -7 3.38477 5.33190   6
   6  -4   7 15.8407 7.26442   2
  -7   4  -7 333.150 16.7717  13
  -7   4  -7 316.415 13.0450   8
  -7   4  -7 337.113 17.1838   6
  -7   4  -7 340.565 14.8526  10
   7  -4   7 353.316 18.4951   2
  -8   4  -7 -1.1287 5.66998  13
  -8   4  -7 10.9454 6.59045   6
  -8   4  -7 1.37967 4.31350  10
   8  -4   7 -2.7533 7.25359   2
   6   3  -7 157.634 13.8778   1
   6   3  -7 166.910 12.4870   9
   6   3  -7 125.598 12.6241   6
  -6  -3   7 146.728 14.0088  12
  -6  -3   7 181.761 14.2796  13
   5   3  -7 364.459 17.8845   6
   5   3  -7 362.198 18.0207   1
   5   3  -7 372.817 16.2215   9
  -5  -3   7 363.247 17.9478  13
  -5  -3   7 347.707 17.7090  12
   4   3  -7 111.943 8.70908   3
   4   3  -7 109.040 9.70487   8
   4   3  -7 78.2638 8.96177   6
   4   3  -7 86.4752 7.96949   9
   4   3  -7 105.629 10.5869   1
  -4  -3   7 87.1912 9.60482  12
   3   3  -7 141.160 9.72458   8
   3   3  -7 108.400 9.71931   1
   3   3  -7 129.311 8.50533   9
   3   3  -7 116.852 9.83394   6
   3   3  -7 130.572 6.93845   3
  -3  -3   7 112.795 10.3239  12
   2   3  -7 678.962 18.0751   3
   2   3  -7 697.264 19.2328   9
   2   3  -7 698.130 21.0666   8
   2   3  -7 715.673 22.5191   1
   2   3  -7 694.087 22.8764   6
  -2  -3   7 713.552 22.7575  12
   1   3  -7 467.020 13.7430   3
   1   3  -7 471.813 15.5255   8
   1   3  -7 413.268 16.8624   6
   1   3  -7 487.882 16.7593   1
   1   3  -7 450.047 13.3482   9
  -1  -3   7 467.469 17.2421  12
   0   3  -7 138.914 9.57715   6
   0   3  -7 137.594 5.76563   9
   0   3  -7 142.321 9.07214   1
   0   3  -7 152.979 7.56837   3
   0   3  -7 152.721 8.39695   8
  -1   3  -7 890.153 22.8187   3
  -1   3  -7 885.312 22.6117   8
  -1   3  -7 882.627 21.7456  10
  -1   3  -7 904.597 23.6791   1
  -1   3  -7 941.281 26.1761   6
  -2   3  -7 89.7252 5.68847  10
  -2   3  -7 92.1692 3.83092   5
  -2   3  -7 90.0560 6.10753   8
  -2   3  -7 92.1101 6.81778   3
  -2   3  -7 97.0710 6.84859   1
  -2   3  -7 89.8608 8.25252   6
   2  -3   7 94.2930 8.60710   2
  -3   3  -7 1622.51 35.5334   8
  -3   3  -7 1620.81 39.9058   6
  -3   3  -7 1646.58 36.1205  10
  -3   3  -7 1603.19 37.7812   3
  -3   3  -7 1642.75 35.4774   1
   3  -3   7 1586.78 39.5340   2
  -4   3  -7 1025.42 28.9151   6
  -4   3  -7 1003.23 25.4631  10
  -4   3  -7 1012.24 24.2788   8
  -4   3  -7 1075.79 27.7887   3
   4  -3   7 1074.46 29.6838   2
  -5   3  -7 885.564 21.8079   8
  -5   3  -7 866.744 25.2147   3
  -5   3  -7 876.988 23.6602  10
  -5   3  -7 923.443 27.0339   6
   5  -3   7 896.127 27.7459   2
  -6   3  -7 56.7445 5.57236   8
  -6   3  -7 55.4928 5.50945  11
  -6   3  -7 61.7237 6.93547  10
  -6   3  -7 56.7487 8.04293   6
  -6   3  -7 56.0839 7.88886  13
   6  -3   7 62.5540 9.41710   2
  -7   3  -7 34.8260 7.35855  13
  -7   3  -7 29.9407 4.68901   8
  -7   3  -7 42.0275 5.01071  11
  -7   3  -7 26.2427 7.13195   6
  -7   3  -7 49.9221 6.64910  10
   7  -3   7 42.7746 9.15605   2
  -8   3  -7 63.6965 8.89692  13
  -8   3  -7 44.4968 6.80889  10
   8  -3   7 45.5230 9.81056   2
  -9   3  -7 59.9919 8.24410  10
  -9   3  -7 81.5498 10.6851  13
   9  -3   7 77.6629 12.1683   2
   6   2  -7 200.876 14.6295   6
   6   2  -7 190.486 13.9982   1
   6   2  -7 212.387 13.3237   9
  -6  -2   7 227.334 14.8247  13
  -6  -2   7 209.401 15.2829  12
   5   2  -7 45.6372 7.93147   6
   5   2  -7 30.3016 6.14936   9
   5   2  -7 44.4982 7.73809   1
  -5  -2   7 44.1156 8.56023  12
  -5  -2   7 39.7718 7.66668  13
   4   2  -7 523.088 17.9266   9
   4   2  -7 522.789 20.0996   6
   4   2  -7 491.417 19.7797   1
  -4  -2   7 495.304 19.9866  12
   3   2  -7 1255.82 33.9448   1
   3   2  -7 1268.90 31.2175   9
   3   2  -7 1232.87 27.6300   3
   3   2  -7 1266.53 34.2009   6
  -3  -2   7 1230.70 34.1494  12
   2   2  -7 229.992 12.2242   1
   2   2  -7 211.609 7.80402   3
   2   2  -7 229.297 12.2629   6
   2   2  -7 227.909 10.7785   8
   2   2  -7 232.302 9.81113   9
  -2  -2   7 243.283 12.5848  12
   1   2  -7 1029.89 23.9934   9
   1   2  -7 1056.58 28.3158   6
   1   2  -7 1010.84 27.0374   1
   1   2  -7 978.282 25.6553   8
   1   2  -7 1009.39 23.1977   3
  -1  -2   7 998.527 27.8043  12
   0   2  -7 437.630 14.8579   1
   0   2  -7 446.555 13.7793   8
   0   2  -7 429.120 15.8547   6
   0   2  -7 439.520 12.5200   3
  -1   2  -7 1.23248 3.27160   6
  -1   2  -7 -1.9203 2.30899   8
  -1   2  -7 -0.7196 2.81778   1
  -1   2  -7 2.89311 2.51921   3
  -1   2  -7 4.20751 2.04169  10
  -2   2  -7 348.005 11.6777   3
  -2   2  -7 333.706 9.84746  10
  -2   2  -7 326.655 13.2152   6
  -2   2  -7 336.949 8.97805   5
  -2   2  -7 339.385 10.4203   8
  -2   2  -7 342.125 11.1921   1
  -3   2  -7 456.697 14.5439   3
  -3   2  -7 444.550 12.4348  10
  -3   2  -7 439.440 15.6859   6
   3  -2   7 433.412 16.3412   2
  -4   2  -7 98.6516 6.20851  10
  -4   2  -7 104.470 8.76977   6
  -4   2  -7 100.681 4.65540   1
  -4   2  -7 99.0691 7.60062   3
   4  -2   7 101.255 9.37547   2
  -5   2  -7 33.1782 6.09323   6
  -5   2  -7 33.1688 4.74459  10
  -5   2  -7 33.0454 4.82209  11
   5  -2   7 38.8991 7.72492   2
  -6   2  -7 16.7241 4.15071  10
  -6   2  -7 9.58388 4.94406  13
  -6   2  -7 3.53889 4.58774   6
  -6   2  -7 5.19006 3.35346  11
  -6   2  -7 9.81246 2.97889   8
   6  -2   7 8.77020 6.58348   2
  -7   2  -7 1018.43 25.7372  11
  -7   2  -7 1012.43 27.4735  10
  -7   2  -7 1044.49 29.2780  13
  -7   2  -7 998.645 29.8543   6
   7  -2   7 933.798 30.8312   2
  -8   2  -7 71.5568 9.02219  13
  -8   2  -7 65.9930 7.84353  10
  -8   2  -7 70.4246 6.87846  11
   8  -2   7 66.8027 10.3433   2
  -9   2  -7 292.251 16.2631  13
  -9   2  -7 289.910 13.2970   7
  -9   2  -7 272.926 14.4264  10
   9  -2   7 280.438 18.3465   2
   6   1  -7 290.034 16.3618   1
   6   1  -7 267.459 14.7265   9
   6   1  -7 275.035 16.6119   6
  -6  -1   7 261.618 15.8562  13
  -6  -1   7 287.588 16.9183  12
   5   1  -7 377.315 16.0028   9
   5   1  -7 344.625 17.2515   6
   5   1  -7 364.059 17.1882   1
  -5  -1   7 377.838 17.4108  13
  -5  -1   7 345.016 17.3558  12
   4   1  -7 370.715 16.5629   6
   4   1  -7 371.430 16.3895   1
   4   1  -7 333.679 14.1347   9
  -4  -1   7 342.357 15.9519  13
  -4  -1   7 335.613 16.0061  12
   3   1  -7 2126.32 50.7562   6
   3   1  -7 2105.27 47.6525   9
   3   1  -7 2135.62 50.4726   1
  -3  -1   7 2086.29 50.5580  12
   2   1  -7 1485.73 36.9308   6
   2   1  -7 1448.61 33.6763   9
   2   1  -7 1451.99 36.3064   1
   2   1  -7 1435.35 29.7939   3
  -2  -1   7 1444.41 36.8511  12
   1   1  -7 364.618 13.8512   1
   1   1  -7 360.423 14.3480   6
   1   1  -7 362.397 9.58416   3
  -1  -1   7 363.784 14.3150  12
   0   1  -7 246.979 11.2405   6
   0   1  -7 238.475 10.3440   1
   0   1  -7 229.116 7.56053   3
   0   1  -7 227.787 8.94121   8
  -1   1  -7 265.765 8.93549   8
  -1   1  -7 267.482 11.2187   6
  -1   1  -7 265.625 10.0657   1
  -1   1  -7 271.458 8.93700   3
  -1   1  -7 269.950 7.17930  10
  -2   1  -7 87.6594 4.56230   8
  -2   1  -7 84.4073 3.90394  10
  -2   1  -7 83.8674 6.90212   6
  -2   1  -7 81.3931 5.28929   1
  -2   1  -7 87.2971 5.69903   3
  -3   1  -7 88.8528 4.67728   1
  -3   1  -7 91.8187 7.23629   6
  -3   1  -7 76.1244 6.40589  11
  -3   1  -7 89.7577 4.56455  10
  -3   1  -7 77.6876 4.45059   5
  -3   1  -7 81.6542 4.08965   8
   3  -1   7 97.1114 8.62979   2
  -4   1  -7 735.348 15.8312   8
  -4   1  -7 734.431 21.1108   6
  -4   1  -7 738.906 17.9760  10
  -4   1  -7 731.270 20.1551  11
   4  -1   7 704.359 22.3477   2
  -5   1  -7 1320.88 32.8744   6
  -5   1  -7 1270.96 26.6061   8
  -5   1  -7 1303.43 33.0861   7
  -5   1  -7 1316.05 30.0912  10
  -5   1  -7 1299.68 31.1072  11
   5  -1   7 1300.83 34.6959   2
  -6   1  -7 208.157 11.1379   7
  -6   1  -7 187.790 10.7157  13
  -6   1  -7 202.958 9.76291  11
  -6   1  -7 182.681 11.3942   6
  -6   1  -7 204.111 9.51352  10
   6  -1   7 185.134 13.8428   2
  -7   1  -7 102.570 9.17996  13
  -7   1  -7 107.684 9.15063   7
  -7   1  -7 105.337 8.19438  11
  -7   1  -7 105.161 8.32368  10
  -7   1  -7 99.5372 9.47089   6
   7  -1   7 94.8647 10.5741   2
  -8   1  -7 -3.1963 3.63600  10
  -8   1  -7 -3.6106 3.67185   7
  -8   1  -7 -0.0973 4.93307  13
  -8   1  -7 1.65255 3.83956  11
   8  -1   7 0.38633 7.33959   2
  -9   1  -7 23.7516 6.65060  13
  -9   1  -7 17.1698 5.10782   7
  -9   1  -7 18.1325 5.57444  10
  -9   1  -7 20.8290 5.17351  11
   9  -1   7 13.8910 8.45722   2
 -10   1  -7 50.1009 8.31562  10
 -10   1  -7 57.0925 8.54961   7
  10  -1   7 49.7538 10.6318   2
   6   0  -7 272.248 16.3319   1
   6   0  -7 275.140 16.5096   6
   6   0  -7 265.590 14.6534   9
  -6   0   7 264.305 16.7044  12
  -6   0   7 268.938 16.3139  13
   5   0  -7 320.338 16.0589   1
   5   0  -7 316.217 14.7894   9
   5   0  -7 318.437 16.2728   6
  -5   0   7 311.853 16.3574  12
  -5   0   7 300.346 16.0687  13
   4   0  -7 119.767 9.11961   9
   4   0  -7 122.815 10.3925   6
   4   0  -7 97.5450 9.69578   1
  -4   0   7 115.547 10.7639  12
  -4   0   7 118.722 10.4368  13
   3   0  -7 8.87706 5.00619   1
   3   0  -7 7.68775 4.62483   6
  -3   0   7 10.3170 4.83916  12
  -3   0   7 -0.4859 4.11868  13
   2   0  -7 1612.93 39.7362   6
   2   0  -7 1630.94 39.3943   1
  -2   0   7 1611.97 39.9237  12
   1   0  -7 46.1097 5.91403   6
   1   0  -7 31.2145 5.30849   1
  -1   0   7 50.9484 6.39972  12
   0   0  -7 613.562 18.6483   6
   0   0  -7 659.455 18.3325   1
  -1   0  -7 1060.46 26.7195   6
  -1   0  -7 1072.94 25.4766   1
  -2   0  -7 191.295 8.79104   6
  -2   0  -7 175.028 8.88249  11
  -2   0  -7 143.940 6.49713   1
  -2   0  -7 171.922 6.93701   5
  -3   0  -7 941.128 24.0557   6
  -3   0  -7 967.878 19.9562  10
  -3   0  -7 956.250 24.5211  11
  -3   0  -7 950.834 20.8114   1
   3   0   7 939.735 19.8366   9
   3   0   7 947.580 25.8100   2
  -4   0  -7 311.305 11.8124   6
  -4   0  -7 294.683 11.7483  11
  -4   0  -7 317.436 12.9307   7
  -4   0  -7 304.074 9.18926  10
   4   0   7 312.373 14.1468   2
   4   0   7 303.897 8.11269   9
  -5   0  -7 1052.27 24.9470  10
  -5   0  -7 1061.69 28.4126   7
  -5   0  -7 1065.84 27.2548   6
  -5   0  -7 1102.01 27.3681  11
   5   0   7 1055.28 23.0119   9
   5   0   7 1077.55 30.0040   2
  -6   0  -7 173.470 9.65599  11
  -6   0  -7 181.879 10.3061   6
  -6   0  -7 163.307 10.1833   7
  -6   0  -7 177.033 8.60670  10
  -6   0  -7 153.849 9.23937  13
   6   0   7 168.701 6.99055   9
   6   0   7 159.591 12.5030   2
  -7   0  -7 21.6027 4.50339   4
  -7   0  -7 15.1026 4.56382  11
  -7   0  -7 21.3893 5.26575  13
  -7   0  -7 16.8056 4.53414  10
  -7   0  -7 20.5092 5.45860   6
  -7   0  -7 19.3001 5.14797   7
   7   0   7 24.3828 3.91213   9
   7   0   7 20.3218 7.16691   2
  -8   0  -7 1290.38 33.5532  10
  -8   0  -7 1294.58 34.3597   7
  -8   0  -7 1268.25 33.7176  13
  -8   0  -7 1217.53 32.3619  11
   8   0   7 1310.41 32.3893   9
   8   0   7 1305.76 37.6086   2
  -9   0  -7 2.23004 4.23880  11
  -9   0  -7 3.79180 4.67875  10
  -9   0  -7 8.09091 4.84517   7
  -9   0  -7 1.37179 5.09968  13
   9   0   7 -6.3691 6.98274   2
 -10   0  -7 102.991 10.8999  13
 -10   0  -7 106.137 10.8288  10
 -10   0  -7 128.210 10.3905  11
 -10   0  -7 114.377 10.5769   7
  10   0   7 124.568 14.0420   2
   6  -1  -7 115.094 11.5547   1
  -6   1   7 131.533 12.8242  12
  -6   1   7 162.127 13.7228  13
   5  -1  -7 5.28216 5.31414   6
   5  -1  -7 5.08213 5.09639   1
  -5   1   7 17.6317 6.10209  13
  -5   1   7 10.5303 6.19628  12
   4  -1  -7 66.3760 8.32141   1
   4  -1  -7 89.3459 9.03910   6
  -4   1   7 93.6740 9.49166  13
  -4   1   7 96.1380 9.73467  12
   3  -1  -7 2041.55 48.5604   6
   3  -1  -7 1982.01 48.3072   1
  -3   1   7 2050.79 48.6287  12
  -3   1   7 2047.73 48.3598  13
   2  -1  -7 528.367 18.1787   6
   2  -1  -7 543.207 18.5691   1
  -2   1   7 563.290 18.9735  12
   1  -1  -7 1051.84 27.4164   6
   1  -1  -7 1067.16 27.5361   1
  -1   1   7 1024.53 27.5712  12
   0  -1  -7 211.430 9.74182   1
   0  -1  -7 219.491 9.92001   6
   0   1   7 211.759 10.3832  12
  -1  -1  -7 908.137 22.5334   1
  -1  -1  -7 935.929 23.3787   6
  -1  -1  -7 909.567 22.4096   5
  -2  -1  -7 1202.23 28.0729   6
  -2  -1  -7 1202.42 26.8075   1
  -2  -1  -7 1200.43 27.3405   5
   2   1   7 1177.23 24.3034   8
  -3  -1  -7 33.7212 4.84598  11
  -3  -1  -7 33.7528 4.77239   4
  -3  -1  -7 30.4734 4.22326   6
  -3  -1  -7 33.1135 3.24406   1
  -3  -1  -7 33.0714 4.23568   5
   3   1   7 32.2884 3.43869   9
   3   1   7 29.9048 5.61865   2
  -4  -1  -7 328.519 12.6912  11
  -4  -1  -7 349.495 11.4872   6
  -4  -1  -7 338.397 12.2867   4
  -4  -1  -7 332.879 13.4119   7
   4   1   7 332.313 14.0626   2
   4   1   7 328.227 9.93822   9
  -5  -1  -7 161.606 10.0917   7
  -5  -1  -7 142.822 8.91766  11
  -5  -1  -7 149.657 8.74630   4
  -5  -1  -7 143.629 6.94132  10
  -5  -1  -7 157.914 8.17401   6
   5   1   7 140.986 6.98774   9
   5   1   7 154.864 11.4198   2
  -6  -1  -7 148.736 8.70616   6
  -6  -1  -7 154.942 10.2539   7
  -6  -1  -7 156.917 8.39456  13
  -6  -1  -7 150.068 9.51456  11
  -6  -1  -7 159.928 8.18118  10
  -6  -1  -7 154.788 8.86592   4
   6   1   7 144.561 7.46895   9
   6   1   7 147.490 11.8762   2
  -7  -1  -7 15.5511 4.41754  13
  -7  -1  -7 8.81251 4.05252  10
  -7  -1  -7 15.1996 4.23980   4
  -7  -1  -7 3.67448 4.28537   7
  -7  -1  -7 16.1748 4.68383   6
  -7  -1  -7 18.0787 4.93623  11
   7   1   7 16.7502 7.05813   2
   7   1   7 11.4431 3.77819   9
  -8  -1  -7 28.6487 5.71983  13
  -8  -1  -7 22.2740 5.37816  10
  -8  -1  -7 27.0494 5.85861  11
  -8  -1  -7 26.5718 6.06256   7
  -8  -1  -7 33.0295 5.37325   4
   8   1   7 24.9079 8.21180   2
   8   1   7 27.9147 4.90377   9
  -9  -1  -7 938.628 27.7350  11
  -9  -1  -7 971.794 26.1364   4
  -9  -1  -7 934.880 28.2602  10
  -9  -1  -7 971.752 29.3132   7
  -9  -1  -7 1001.36 27.9713  13
   9   1   7 954.940 26.1428   9
   9   1   7 1000.97 32.2350   2
 -10  -1  -7 1.72472 5.56265  13
 -10  -1  -7 2.03740 5.01776  10
 -10  -1  -7 0.89310 4.88869  11
 -10  -1  -7 -0.5978 4.97985   7
  10   1   7 7.75095 8.07602   2
   6  -2  -7 303.659 17.0626   1
  -6   2   7 316.456 17.2527  13
  -6   2   7 334.173 18.2901  12
  -6   2   7 322.521 14.9050  10
   5  -2  -7 477.538 20.2364   1
  -5   2   7 514.418 17.6437  10
  -5   2   7 527.137 20.5374  13
  -5   2   7 497.520 20.8754  12
   4  -2  -7 1287.89 35.4093   1
   4  -2  -7 1313.42 35.6363   6
  -4   2   7 1294.20 35.2943  13
  -4   2   7 1289.04 35.5082  12
  -4   2   7 1287.38 31.6226  10
   3  -2  -7 33.3008 6.08777   6
   3  -2  -7 27.6627 5.93237   1
  -3   2   7 26.7617 5.94105  13
  -3   2   7 30.5172 4.52028  10
  -3   2   7 40.5238 6.60044  12
   2  -2  -7 441.047 16.5668   1
   2  -2  -7 448.474 16.2569   6
  -2   2   7 446.443 16.5821  12
  -2   2   7 434.785 12.4413  10
  -2   2   7 472.288 16.2538  13
   1  -2  -7 103.696 7.86252   6
   1  -2  -7 112.845 8.67410   1
  -1   2   7 100.282 7.83766  13
  -1   2   7 108.014 8.26110  12
   0  -2  -7 236.880 10.5482   1
   0  -2  -7 260.955 10.5911   6
   0   2   7 256.598 10.9097  12
  -1  -2  -7 967.890 23.8001   1
  -1  -2  -7 938.575 23.3996   6
  -1  -2  -7 965.648 23.9791   5
  -1  -2  -7 958.229 24.9205  11
  -2  -2  -7 253.824 9.13695   6
  -2  -2  -7 250.194 11.3534   7
  -2  -2  -7 242.604 9.81084   5
  -2  -2  -7 223.948 9.04084   1
   2   2   7 266.194 7.21277   8
  -3  -2  -7 56.5544 4.32040   1
  -4  -2  -7 499.862 16.3960  11
  -4  -2  -7 456.640 15.3138   4
  -4  -2  -7 491.395 13.4504   6
   4   2   7 484.213 13.9101   9
   4   2   7 493.193 17.0053   2
  -5  -2  -7 152.588 9.61746  11
  -5  -2  -7 152.987 7.32763   6
  -5  -2  -7 155.144 8.99248   4
  -5  -2  -7 168.908 10.6489   7
   5   2   7 141.125 10.8752   2
   5   2   7 157.079 8.07803   9
  -6  -2  -7 1280.57 32.4893  11
  -6  -2  -7 1291.92 34.0256   7
  -6  -2  -7 1238.27 29.4240   6
  -6  -2  -7 1243.46 31.3156   4
   6   2   7 1287.28 29.9748   9
   6   2   7 1276.47 34.1575   2
  -7  -2  -7 24.5071 6.08175   7
  -7  -2  -7 27.3169 4.42211  13
  -7  -2  -7 30.3882 5.33087   4
  -7  -2  -7 24.8627 5.63307  11
  -7  -2  -7 21.2837 4.47514   6
   7   2   7 29.9304 7.51607   2
   7   2   7 23.0429 4.60398   9
  -8  -2  -7 614.046 18.8588  13
  -8  -2  -7 657.587 21.4373  11
  -8  -2  -7 656.733 22.5223   7
  -8  -2  -7 609.429 19.6287   4
   8   2   7 629.013 19.5666   9
   8   2   7 636.979 23.5283   2
  -9  -2  -7 54.8799 7.94963  11
  -9  -2  -7 56.8519 8.39047  13
  -9  -2  -7 57.2373 8.66515   7
  -9  -2  -7 67.1497 7.30033   4
   9   2   7 64.6747 10.3862   2
   9   2   7 65.7278 7.44029   9
 -10  -2  -7 52.4519 8.32770  11
 -10  -2  -7 52.9543 7.00184   4
 -10  -2  -7 52.3788 8.64596   7
  10   2   7 50.6563 10.5783   2
  10   2   7 55.7589 7.65671   9
   6  -3  -7 679.926 25.6998   1
  -6   3   7 663.628 22.5725  10
  -6   3   7 742.050 26.9707  12
  -6   3   7 676.395 25.4719  13
   5  -3  -7 488.265 20.6401   1
  -5   3   7 472.736 19.9920  13
  -5   3   7 508.819 17.6762  10
  -5   3   7 498.365 20.7054  12
   4  -3  -7 331.474 16.0522   1
  -4   3   7 353.388 16.3930  12
  -4   3   7 324.421 12.9782  10
  -4   3   7 326.303 15.7145  13
   3  -3  -7 548.346 19.2829   6
   3  -3  -7 555.338 20.0188   1
  -3   3   7 544.270 16.0115  10
  -3   3   7 542.660 18.9457  13
  -3   3   7 521.095 19.0612  12
   2  -3  -7 66.5658 7.78556   1
   2  -3  -7 62.7820 6.75402   6
  -2   3   7 69.9176 5.39326  10
  -2   3   7 66.3984 7.45706  12
  -2   3   7 68.5428 7.33547  13
   1  -3  -7 678.743 19.6749   6
   1  -3  -7 700.987 21.1061   1
  -1   3   7 684.269 20.2773  12
  -1   3   7 679.301 19.6804  13
  -1   3   7 668.382 15.9005  10
   0  -3  -7 480.291 15.9663   5
   0  -3  -7 499.634 16.4290   1
   0  -3  -7 495.263 15.0924   6
   0   3   7 496.903 15.7323  12
   0   3   7 486.481 14.8977  13
  -1  -3  -7 98.2806 6.14487   6
  -1  -3  -7 90.2638 7.09165   4
  -1  -3  -7 94.1181 7.52518   7
  -1  -3  -7 109.236 7.56069  11
  -1  -3  -7 111.351 7.72426   5
  -1  -3  -7 98.5523 7.33402   1
   1   3   7 95.8569 4.33593   3
   1   3   7 102.872 7.01804  12
  -2  -3  -7 30.9685 4.79228   5
  -2  -3  -7 21.8653 4.06795   1
  -2  -3  -7 20.3584 4.52031   7
  -2  -3  -7 25.2242 4.60000   4
  -2  -3  -7 26.6794 4.67118  11
   2   3   7 24.8827 2.65969   8
  -3  -3  -7 6.59595 2.23907   6
  -3  -3  -7 -0.7780 3.80192   5
  -3  -3  -7 -0.8498 1.05983   4
  -3  -3  -7 3.56726 3.67000   7
  -3  -3  -7 -1.1419 1.70178  11
  -3  -3  -7 8.12612 3.14915   1
   3   3   7 5.86378 4.02631   2
   3   3   7 1.81491 3.08079   9
  -4  -3  -7 22.6431 2.89504   6
  -4  -3  -7 27.5385 5.58199   7
  -4  -3  -7 23.2984 4.66729  11
  -4  -3  -7 18.7998 4.59011   4
   4   3   7 27.3817 4.47067   9
   4   3   7 29.7223 5.84928   2
  -5  -3  -7 471.627 16.7100  11
  -5  -3  -7 454.377 17.2683   7
  -5  -3  -7 476.558 16.1281   4
  -5  -3  -7 479.018 12.4052   6
   5   3   7 476.387 17.5804   2
   5   3   7 467.320 15.1385   9
  -6  -3  -7 703.300 22.5986   7
  -6  -3  -7 629.351 19.9228   4
  -6  -3  -7 685.839 21.4522  11
   6   3   7 670.044 19.5356   9
   6   3   7 656.351 22.0697   2
  -7  -3  -7 10.1544 5.08440   7
  -7  -3  -7 -5.4974 3.35122   4
  -7  -3  -7 -3.9066 4.25358  11
   7   3   7 -3.7374 3.91647   9
   7   3   7 3.07195 6.12783   2
  -8  -3  -7 79.2770 8.06842   4
  -8  -3  -7 56.2007 8.16897  11
  -8  -3  -7 69.2223 8.92379   7
   8   3   7 73.7813 10.0968   2
   8   3   7 78.1081 7.80669   9
  -9  -3  -7 2.25121 5.25848   7
  -9  -3  -7 14.2624 5.08001   4
   9   3   7 4.99582 7.06639   2
   9   3   7 -1.9002 4.75558   9
   6  -4  -7 14.7277 7.36778   1
  -6   4   7 19.4473 7.75162  13
  -6   4   7 13.7390 7.83996  12
  -6   4   7 25.2691 6.17285  10
   5  -4  -7 160.679 13.4642   1
  -5   4   7 183.188 14.0058  12
  -5   4   7 189.890 13.9028  13
  -5   4   7 177.436 10.8182  10
   4  -4  -7 8.09054 5.64380   1
  -4   4   7 8.57074 4.05034  10
  -4   4   7 -1.3883 4.93022  13
  -4   4   7 7.78398 5.68129  12
   3  -4  -7 638.521 22.5361   1
  -3   4   7 651.975 21.2711  13
  -3   4   7 645.328 21.4420  12
  -3   4   7 631.694 18.4012  10
   2  -4  -7 38.7070 6.71915   1
  -2   4   7 32.1568 5.72781  13
  -2   4   7 29.5214 4.14332  10
  -2   4   7 33.2917 5.89433  12
   1  -4  -7 37.2651 6.49812   1
   1  -4  -7 33.7980 5.77670   5
  -1   4   7 40.0334 5.72199  12
  -1   4   7 34.9838 3.79135  10
  -1   4   7 38.3774 5.43748  13
   0  -4  -7 213.383 9.41709   6
   0  -4  -7 213.780 10.5921   7
   0  -4  -7 210.964 9.84552   4
   0  -4  -7 216.831 10.8642   5
   0  -4  -7 214.809 11.3211   1
   0  -4  -7 198.738 10.2832  11
   0   4   7 223.393 9.97614  12
   0   4   7 208.107 9.24963  13
   0   4   7 210.310 6.89838  10
  -1  -4  -7 76.0263 5.55280   6
  -1  -4  -7 84.8426 7.08232   4
  -1  -4  -7 77.7254 7.10360   1
  -1  -4  -7 60.0521 6.48227   7
  -1  -4  -7 87.4070 7.71819   5
  -1  -4  -7 76.5874 6.88973  11
   1   4   7 73.2268 3.72398  10
   1   4   7 71.5154 4.26711   3
   1   4   7 78.6297 5.52520  13
   1   4   7 64.9655 5.77951  12
  -2  -4  -7 20.4503 5.05708   5
  -2  -4  -7 11.5815 4.20498   1
  -2  -4  -7 15.6978 4.28063  11
  -2  -4  -7 18.2443 4.77093   7
  -2  -4  -7 18.2840 2.93063   6
  -2  -4  -7 19.3631 4.47449   4
   2   4   7 13.7050 2.87781   8
   2   4   7 20.4094 2.29077  10
   2   4   7 10.8209 3.93858   2
   2   4   7 22.1205 2.98497  13
  -3  -4  -7 244.716 10.0835   1
  -3  -4  -7 233.507 11.0458   4
  -3  -4  -7 242.554 12.1487   7
  -3  -4  -7 226.907 11.4131  11
  -3  -4  -7 254.712 11.3670   5
   3   4   7 235.014 6.96453   8
   3   4   7 240.508 10.9215   9
   3   4   7 229.825 6.61660  13
   3   4   7 233.747 10.6567   2
  -4  -4  -7 1.11723 3.87311  11
  -4  -4  -7 -2.0527 4.11637   7
  -4  -4  -7 -0.1860 3.51665   4
   4   4   7 -0.8101 4.54263   2
   4   4   7 1.79538 3.71272   9
  -5  -4  -7 20.2184 4.79446   4
  -5  -4  -7 27.6219 5.73517   7
  -5  -4  -7 17.1559 5.08962  11
   5   4   7 13.9438 4.59278   9
   5   4   7 17.7926 5.86742   2
  -6  -4  -7 69.2899 7.49620   4
  -6  -4  -7 48.9243 7.41969   7
  -6  -4  -7 69.6659 7.86151  11
   6   4   7 74.3713 7.50052   9
   6   4   7 70.8194 8.26313   2
  -7  -4  -7 203.301 11.6080   4
  -7  -4  -7 224.846 13.3393   7
  -7  -4  -7 196.819 12.8342  11
   7   4   7 219.897 13.6845   2
   7   4   7 205.599 11.8468   9
  -8  -4  -7 238.955 12.7903   4
  -8  -4  -7 233.407 14.6833   7
   8   4   7 272.972 15.7664   2
   8   4   7 253.537 13.2751   9
  -9  -4  -7 127.812 10.6711   4
  -9  -4  -7 137.782 12.7595   7
   9   4   7 137.775 12.6560   2
   9   4   7 147.786 11.3172   9
   5  -5  -7 536.288 22.6361   1
  -5   5   7 485.083 18.5203  10
  -5   5   7 518.956 21.3824  12
  -5   5   7 504.122 21.0670  13
   4  -5  -7 28.3862 7.02663   1
  -4   5   7 15.1683 5.00377  10
  -4   5   7 25.9414 6.96167  13
  -4   5   7 12.7914 6.21991  12
   3  -5  -7 65.1264 8.58219   1
  -3   5   7 91.2018 8.96968  12
  -3   5   7 68.0112 8.21489  13
  -3   5   7 89.0536 7.42247  10
   2  -5  -7 120.174 10.0379   5
   2  -5  -7 110.763 9.91420   1
  -2   5   7 129.365 9.59866  12
  -2   5   7 132.564 7.56753  10
  -2   5   7 123.185 9.17893  13
   1  -5  -7 194.841 11.9424   1
   1  -5  -7 176.280 11.0760   5
   1  -5  -7 197.288 9.47848   4
  -1   5   7 174.869 7.95332  10
  -1   5   7 182.103 9.71246  13
  -1   5   7 175.962 9.58581  12
   0  -5  -7 456.374 16.8777   1
   0  -5  -7 441.896 14.9735   4
   0  -5  -7 442.874 15.5046  11
   0  -5  -7 437.418 15.6016   7
   0  -5  -7 452.348 16.4742   5
   0   5   7 452.421 12.5870  10
   0   5   7 470.585 14.6002  12
   0   5   7 435.727 13.8264  13
  -1  -5  -7 2.77120 4.25361   5
  -1  -5  -7 2.06647 3.37025   4
  -1  -5  -7 4.51772 4.39795   1
  -1  -5  -7 -0.2264 3.47210   7
  -1  -5  -7 6.64945 3.90101  11
   1   5   7 4.75255 2.32680   3
   1   5   7 7.66906 3.17324  12
   1   5   7 5.49875 2.96749  13
   1   5   7 5.42999 3.20174   8
   1   5   7 5.40386 2.39886  10
  -2  -5  -7 1.73364 3.56194   4
  -2  -5  -7 6.72182 4.81236   5
  -2  -5  -7 3.29414 3.90405  11
  -2  -5  -7 4.01412 3.94835   7
  -2  -5  -7 -1.4971 3.99487   1
   2   5   7 13.2805 3.95259   2
   2   5   7 -0.5863 2.41657  12
   2   5   7 1.23036 2.74935   8
   2   5   7 2.32870 2.16291  10
   2   5   7 5.44631 2.78778   3
  -3  -5  -7 77.5091 7.98226   7
  -3  -5  -7 89.0732 8.38003   5
  -3  -5  -7 71.3416 7.31293  11
  -3  -5  -7 63.9472 6.89737   4
   3   5   7 92.2729 8.18721   9
   3   5   7 99.2850 7.45284   2
   3   5   7 79.4222 6.27822   3
   3   5   7 85.6524 5.21605   8
  -4  -5  -7 294.192 12.9215   4
  -4  -5  -7 289.722 13.2803  11
  -4  -5  -7 297.061 14.2807   7
   4   5   7 274.072 12.4198   2
   4   5   7 297.154 13.3141   9
  -5  -5  -7 37.6036 6.88256   7
  -5  -5  -7 25.9174 5.59704   4
  -5  -5  -7 30.6044 6.10840  11
   5   5   7 18.9526 5.79358   2
   5   5   7 35.9486 6.26316   9
  -6  -5  -7 674.180 21.7275   4
  -6  -5  -7 664.658 23.3862   7
  -6  -5  -7 735.484 23.3998  11
   6   5   7 679.532 21.8036   9
   6   5   7 679.241 21.6705   2
  -7  -5  -7 42.8546 6.67797   4
  -7  -5  -7 25.2335 6.74538   7
   7   5   7 30.1474 6.52403   9
   7   5   7 15.7322 6.56025   2
  -8  -5  -7 21.6575 6.00905   4
  -8  -5  -7 12.5202 6.41688   7
   8   5   7 7.66675 6.43009   2
   8   5   7 -1.1783 5.12692   9
  -9  -5  -7 17.0096 7.16946   7
  -9  -5  -7 -0.2758 4.87677   4
   9   5   7 4.69224 5.89540   9
   9   5   7 13.6900 7.06964   2
   4  -6  -7 -5.4134 5.55288   1
   4  -6  -7 1.92583 5.04174   5
  -4   6   7 8.35019 6.01963  12
  -4   6   7 6.48127 4.54165  10
  -4   6   7 4.40649 6.00931  13
   3  -6  -7 82.4728 9.81285   1
   3  -6  -7 75.3762 8.97023   5
  -3   6   7 90.9460 9.20303  12
  -3   6   7 96.2130 9.32881  13
  -3   6   7 94.8033 8.13299  10
   2  -6  -7 38.5570 7.63449   1
   2  -6  -7 47.6836 7.45135   5
  -2   6   7 40.1345 6.59819  13
  -2   6   7 56.7079 6.81291  12
  -2   6   7 57.8964 6.25404  10
   1  -6  -7 155.686 8.98131   4
   1  -6  -7 169.444 12.1642   1
   1  -6  -7 152.448 10.6418   5
  -1   6   7 150.491 9.31446  13
  -1   6   7 149.858 8.26373  10
  -1   6   7 161.251 9.22250  12
   0  -6  -7 257.205 11.3748   4
   0  -6  -7 250.326 11.6431  11
   0  -6  -7 263.238 13.1330   5
   0  -6  -7 272.319 13.7973   1
   0  -6  -7 269.884 11.8538   7
   0   6   7 251.966 9.78467  10
   0   6   7 254.731 10.3226  13
   0   6   7 263.736 11.6516   8
   0   6   7 273.491 10.4580  12
  -1  -6  -7 202.893 11.0815   7
  -1  -6  -7 185.167 11.8488   5
  -1  -6  -7 216.029 12.1695   1
  -1  -6  -7 219.630 10.9317  11
  -1  -6  -7 210.495 10.8474   4
   1   6   7 221.056 8.72156  10
   1   6   7 225.510 8.68911  12
   1   6   7 213.787 8.51201   3
   1   6   7 214.698 9.89930   8
  -2  -6  -7 18.3414 4.85963  11
  -2  -6  -7 6.82219 4.94852   1
  -2  -6  -7 8.46083 4.55889   7
  -2  -6  -7 8.02106 4.36272   4
  -2  -6  -7 -0.2546 4.89726   5
   2   6   7 7.73099 3.68223   2
   2   6   7 7.74708 3.39839   8
   2   6   7 7.73309 3.51838  12
   2   6   7 5.50434 2.87084  10
   2   6   7 6.98928 4.84315   9
   2   6   7 11.3256 3.29217   3
  -3  -6  -7 159.758 10.0801   4
  -3  -6  -7 170.397 11.1345   7
  -3  -6  -7 156.563 10.1721  11
  -3  -6  -7 169.781 11.3046   5
   3   6   7 141.181 7.41105   8
   3   6   7 154.503 8.59986   3
   3   6   7 149.897 10.8006   9
   3   6   7 142.059 8.68733   2
  -4  -6  -7 1211.65 32.2418  11
  -4  -6  -7 1161.95 32.9903   7
  -4  -6  -7 1203.44 31.6398   4
   4   6   7 1169.82 30.2124   3
   4   6   7 1222.10 32.5352   9
   4   6   7 1190.57 29.1238   2
  -5  -6  -7 42.2119 7.45973   7
  -5  -6  -7 40.1888 7.00802  11
  -5  -6  -7 24.8831 5.86632   4
   5   6   7 29.6989 6.09744   2
   5   6   7 46.0949 7.01017   9
  -6  -6  -7 184.190 12.8484   7
  -6  -6  -7 177.217 12.3887  11
  -6  -6  -7 167.970 11.4698   4
   6   6   7 203.496 12.6894   9
   6   6   7 168.031 11.3620   2
  -7  -6  -7 72.9319 8.78712   4
  -7  -6  -7 68.7029 9.66417   7
   7   6   7 65.2072 8.62039   9
   7   6   7 81.6788 8.66537   2
  -8  -6  -7 174.070 12.8491   4
  -8  -6  -7 211.400 14.9016   7
   8   6   7 219.295 13.0361   2
   8   6   7 186.740 13.9030   9
   4  -7  -7 13.9227 7.60180   1
   4  -7  -7 34.2033 7.45222   5
  -4   7   7 16.4847 7.11215  13
   3  -7  -7 16.4255 7.22278   1
   3  -7  -7 8.05791 6.05400   5
  -3   7   7 5.69288 5.97296  13
  -3   7   7 24.3253 7.01400  10
   2  -7  -7 187.788 14.2904   1
   2  -7  -7 185.928 12.5104   5
   2  -7  -7 177.544 9.51972   4
  -2   7   7 198.715 10.7431  10
  -2   7   7 205.400 11.7341  13
   1  -7  -7 11.8820 4.31025   4
   1  -7  -7 19.7536 6.64953   1
   1  -7  -7 17.6536 4.42701   7
   1  -7  -7 23.2899 6.27657   5
  -1   7   7 22.4058 4.74081  10
  -1   7   7 11.6268 5.15392   8
   0  -7  -7 457.443 17.9291   5
   0  -7  -7 424.561 15.4486  11
   0  -7  -7 405.601 15.3396   7
   0  -7  -7 405.179 17.5504   1
   0  -7  -7 417.577 15.3151   4
   0   7   7 417.890 14.3091  10
   0   7   7 422.152 15.8607   8
  -1  -7  -7 237.826 13.3284   5
  -1  -7  -7 246.904 12.3624   7
  -1  -7  -7 276.792 12.6503   4
  -1  -7  -7 242.923 11.8690  11
  -1  -7  -7 230.698 13.6633   1
   1   7   7 268.371 10.2801   3
   1   7   7 264.033 11.8497   8
   1   7   7 248.059 10.5621  10
  -2  -7  -7 42.1592 6.45602  11
  -2  -7  -7 47.7079 7.08813   7
  -2  -7  -7 40.6155 7.16352   5
  -2  -7  -7 38.8417 6.30824   4
   2   7   7 56.3502 5.83667   3
   2   7   7 55.7212 6.06615   8
   2   7   7 37.3994 5.04197  10
   2   7   7 38.2280 6.98586   9
  -3  -7  -7 63.0653 8.06351   7
  -3  -7  -7 67.3395 7.83482  11
  -3  -7  -7 64.8735 7.80453   4
   3   7   7 61.6888 6.34038  10
   3   7   7 65.1400 8.09150   9
   3   7   7 65.6316 6.20025   8
   3   7   7 59.4902 6.47119   3
  -4  -7  -7 93.7799 9.42172   4
  -4  -7  -7 96.8090 9.22369  11
  -4  -7  -7 76.6303 9.26894   7
   4   7   7 84.8042 7.91190   3
   4   7   7 95.2462 9.86786   9
  -5  -7  -7 222.112 13.5011  11
  -5  -7  -7 207.874 12.7447   4
  -5  -7  -7 213.538 14.0470   7
   5   7   7 199.263 13.3387   9
   5   7   7 190.333 11.3201   3
  -6  -7  -7 7.30369 6.18617  11
  -6  -7  -7 25.9563 7.50318   7
  -6  -7  -7 16.6125 5.80673   4
   6   7   7 18.3240 5.41459   3
   6   7   7 20.8930 6.77452   9
  -7  -7  -7 165.448 12.6807   4
  -7  -7  -7 181.146 14.5311   7
   7   7   7 152.842 12.6768   9
   3  -8  -7 43.1844 9.33497   1
   3  -8  -7 70.0714 9.90927   5
  -3   8   7 52.2615 8.61284   8
   2  -8  -7 8.97822 7.19833   1
   2  -8  -7 15.3188 4.85803   4
   2  -8  -7 11.9695 6.30089   5
  -2   8   7 11.4117 6.02400   8
   1  -8  -7 102.386 8.51482   4
   1  -8  -7 93.6432 10.8286   1
   1  -8  -7 95.0042 10.1892   5
  -1   8   7 111.644 10.2531  10
  -1   8   7 100.384 9.52030   8
   0  -8  -7 21.6296 5.50176   4
   0  -8  -7 24.5669 5.37836   7
   0  -8  -7 25.5141 7.68076   1
   0  -8  -7 40.0390 7.47700   5
   0  -8  -7 28.0777 5.48073  11
   0   8   7 29.4813 6.09615   8
   0   8   7 15.0838 4.66808  10
  -1  -8  -7 109.179 9.49460   4
  -1  -8  -7 108.026 10.8914   5
  -1  -8  -7 108.218 9.41719   7
  -1  -8  -7 111.776 9.17515  11
   1   8   7 116.208 9.36763   8
   1   8   7 94.9208 7.96956  10
   1   8   7 103.169 7.66135   3
  -2  -8  -7 652.902 21.5527   4
  -2  -8  -7 648.442 23.2441   5
  -2  -8  -7 664.921 21.3988  11
  -2  -8  -7 652.526 22.1616   7
   2   8   7 637.686 20.0110   8
   2   8   7 646.064 23.4751   9
   2   8   7 605.935 19.5452  10
   2   8   7 679.891 19.9648   3
  -3  -8  -7 541.276 19.7098  11
  -3  -8  -7 565.452 20.0091   4
  -3  -8  -7 505.577 20.2845   7
   3   8   7 521.492 21.1154   9
   3   8   7 541.870 17.6041   8
   3   8   7 511.236 17.9970   3
   3   8   7 557.843 18.0713  10
  -4  -8  -7 1740.38 45.4492   7
  -4  -8  -7 1705.29 43.7293  11
  -4  -8  -7 1721.31 43.6651   4
   4   8   7 1796.04 45.9678   9
   4   8   7 1720.90 42.4951   3
  -5  -8  -7 229.669 14.0755   4
  -5  -8  -7 212.703 13.6803  11
  -5  -8  -7 215.125 14.8365   7
   5   8   7 214.219 14.7429   9
   5   8   7 225.139 12.5895   3
  -6  -8  -7 -4.3887 5.04603   4
  -6  -8  -7 8.97200 6.40001  11
  -6  -8  -7 25.5033 7.65921   7
   6   8   7 -2.3776 4.39179   3
   6   8   7 -3.7563 5.78892   9
   7   8   7 126.819 11.7640   3
   1  -9  -7 372.966 18.0915   5
   1  -9  -7 344.823 14.5029   4
   1  -9  -7 334.451 19.2993   1
  -1   9   7 340.963 16.7471   8
   0  -9  -7 40.6471 6.75504   4
   0  -9  -7 45.6100 6.34339  11
   0  -9  -7 25.2527 7.66600   5
   0   9   7 43.3024 7.75047   8
  -1  -9  -7 4.30476 4.46710  11
  -1  -9  -7 -0.9277 4.48794   7
  -1  -9  -7 -5.7741 4.47089   4
  -1  -9  -7 -2.7875 6.18573   5
   1   9   7 5.64681 6.85256  10
   1   9   7 -1.7990 5.09379   9
   1   9   7 0.00284 4.35724   8
  -2  -9  -7 21.2711 5.66638  11
  -2  -9  -7 21.9724 6.41331   7
  -2  -9  -7 12.5954 5.83334   4
   2   9   7 9.14480 6.16289   9
   2   9   7 22.0994 5.06396   3
   2   9   7 16.5755 5.29040   8
   2   9   7 20.5955 5.47363  10
  -3  -9  -7 154.815 12.8710   7
  -3  -9  -7 149.655 12.1373   4
  -3  -9  -7 167.821 11.9156  11
   3   9   7 157.833 10.3488  10
   3   9   7 133.458 12.3447   9
   3   9   7 152.227 10.7881   3
  -4  -9  -7 52.5915 8.44088  11
  -4  -9  -7 55.3109 8.97035   4
  -4  -9  -7 36.0486 8.40932   7
   4   9   7 48.3624 8.74788   9
   4   9   7 36.7129 6.61286   3
  -5  -9  -7 2.06298 6.10325  11
  -5  -9  -7 3.31543 6.19259   4
  -5  -9  -7 3.57503 6.51112   7
   5   9   7 13.3095 5.60439   3
   5   9   7 6.32602 6.73373   9
  -1   8  -8 0.53800 4.70077   3
  -1   8  -8 -1.6412 5.35302   6
  -1   8  -8 6.61964 6.29012   1
  -1   8  -8 8.38292 5.91650   8
  -1   8  -8 4.43580 4.51571  10
   1  -8   8 13.8677 6.21376   2
  -2   8  -8 5.06129 5.04023   3
  -2   8  -8 3.44246 5.63662   6
  -2   8  -8 0.93718 4.14605  10
  -2   8  -8 -8.0178 4.71737   8
   2  -8   8 5.51901 6.32583   2
  -3   8  -8 6.06519 5.17297   3
  -3   8  -8 0.92824 5.18530   8
  -3   8  -8 6.85062 4.75249  10
  -3   8  -8 11.2842 6.45029   6
   3  -8   8 1.64197 6.90187   2
   2   7  -8 -5.6689 4.63316   8
   2   7  -8 6.42244 4.41387   3
   2   7  -8 -5.3116 4.75589   6
   2   7  -8 -5.7194 5.56329   1
  -2  -7   8 4.26624 5.43583  12
   1   7  -8 227.798 14.7595   1
   1   7  -8 229.904 15.0749   6
   1   7  -8 215.821 12.6195   3
   1   7  -8 224.055 13.8426   8
  -1  -7   8 230.421 13.8707  12
   0   7  -8 292.242 14.2269  10
   0   7  -8 306.341 14.7370   3
   0   7  -8 306.743 17.0435   6
   0   7  -8 332.287 15.6766   8
   0   7  -8 315.153 16.2777   1
   0  -7   8 298.908 15.9197  12
  -1   7  -8 138.102 10.2070  10
  -1   7  -8 146.664 13.2992   6
  -1   7  -8 174.586 11.5257   3
  -1   7  -8 146.824 11.4747   8
  -1   7  -8 158.887 12.0961   1
   1  -7   8 156.690 11.7874   2
  -2   7  -8 305.182 14.2821  10
  -2   7  -8 333.360 15.4233   8
  -2   7  -8 322.232 15.2644   1
  -2   7  -8 310.718 17.0423   6
  -2   7  -8 332.074 15.6073   3
   2  -7   8 311.338 16.2076   2
  -3   7  -8 3.76531 3.88026  10
  -3   7  -8 -3.3901 4.70107   6
  -3   7  -8 3.02415 4.58250   3
  -3   7  -8 7.96583 5.09501   8
   3  -7   8 2.20072 6.21639   2
  -4   7  -8 27.1703 7.24723   6
  -4   7  -8 47.8697 7.28829  10
  -4   7  -8 41.2891 7.48113   3
  -4   7  -8 39.6073 6.90592   8
   4  -7   8 33.0597 8.42197   2
  -5   7  -8 1.50803 5.64031   6
  -5   7  -8 3.40180 4.65327  10
  -5   7  -8 8.06655 5.38543   8
  -5   7  -8 8.42118 5.37350   3
   5  -7   8 0.43805 7.20615   2
   3   6  -8 -9.5942 4.88799   1
   3   6  -8 -2.9178 4.84506   6
   3   6  -8 -4.7065 4.65941   8
   3   6  -8 4.66666 3.90237   3
  -3  -6   8 -2.2482 5.08539  12
   2   6  -8 828.487 26.8065   8
   2   6  -8 827.495 27.9438   1
   2   6  -8 788.086 28.1496   6
   2   6  -8 806.601 24.3027   3
  -2  -6   8 869.502 27.8812  12
   1   6  -8 533.141 21.9299   6
   1   6  -8 551.988 21.3147   1
   1   6  -8 519.399 18.4968   3
   1   6  -8 535.696 20.0616   8
  -1  -6   8 554.894 20.9435  12
   0   6  -8 398.350 16.6587   8
   0   6  -8 415.556 15.9746  10
   0   6  -8 440.991 19.0390   6
   0   6  -8 417.518 16.2756   3
   0   6  -8 402.637 17.5672   1
   0  -6   8 411.467 17.7402  12
  -1   6  -8 19.9080 5.31249   8
  -1   6  -8 22.2818 6.44480   6
  -1   6  -8 23.5607 5.01404  10
  -1   6  -8 14.1514 4.73189   3
  -1   6  -8 19.4005 5.91687   1
   1  -6   8 26.1951 6.43732   2
  -2   6  -8 71.5642 7.81754   8
  -2   6  -8 62.2567 7.55795   3
  -2   6  -8 59.7755 8.41706   6
  -2   6  -8 68.7898 7.32121  10
  -2   6  -8 84.4408 8.72039   1
   2  -6   8 63.8869 8.66230   2
  -3   6  -8 21.8187 5.45613   8
  -3   6  -8 22.5623 6.42471   6
  -3   6  -8 18.9082 4.83616  10
  -3   6  -8 21.0475 5.42015   1
  -3   6  -8 30.4317 6.03157   3
   3  -6   8 14.7434 6.29449   2
  -4   6  -8 255.225 12.7185  10
  -4   6  -8 281.611 16.1372   6
  -4   6  -8 276.350 14.3570   3
  -4   6  -8 282.019 12.9916   8
   4  -6   8 282.597 16.1903   2
  -5   6  -8 192.241 11.2572   8
  -5   6  -8 201.957 11.7010  10
  -5   6  -8 205.626 12.7808   3
  -5   6  -8 191.544 14.1489   6
   5  -6   8 197.159 15.4845   2
  -6   6  -8 141.881 10.4515   8
  -6   6  -8 156.554 11.1575  10
  -6   6  -8 173.815 12.8926   3
  -6   6  -8 170.352 15.0270   6
   6  -6   8 154.350 14.7491   2
   4   5  -8 241.213 14.5672   8
   4   5  -8 247.238 15.9082   1
   4   5  -8 233.843 12.9764   9
   4   5  -8 208.592 14.9570   6
  -4  -5   8 271.993 16.1199  12
   3   5  -8 55.8651 6.44667   3
   3   5  -8 47.2344 6.38615   9
   3   5  -8 61.3437 8.19262   8
   3   5  -8 66.1422 9.31910   6
   3   5  -8 66.0384 9.42787   1
  -3  -5   8 62.6794 8.88802  12
   2   5  -8 -1.7627 3.95343   8
   2   5  -8 -2.7495 3.40697   9
   2   5  -8 0.28852 3.13950   3
   2   5  -8 -8.3755 4.40225   1
   2   5  -8 0.20415 4.61018   6
  -2  -5   8 -2.1998 4.55934  12
   1   5  -8 0.99429 3.22844   3
   1   5  -8 -1.0951 4.07621   6
   1   5  -8 3.03590 4.27587   8
   1   5  -8 -8.0966 4.23476   1
  -1  -5   8 -4.2173 4.12187  12
   0   5  -8 12.2348 4.52247   8
   0   5  -8 14.2562 4.25556   3
   0   5  -8 10.3940 4.13699  10
   0   5  -8 8.61642 4.81970   1
   0   5  -8 8.64847 4.76225   6
  -1   5  -8 540.343 18.6194   1
  -1   5  -8 507.621 17.5719   8
  -1   5  -8 517.050 17.6179   3
  -1   5  -8 523.205 17.0083  10
  -1   5  -8 552.927 20.6143   6
  -2   5  -8 303.118 12.7633   8
  -2   5  -8 286.581 12.0899  10
  -2   5  -8 286.336 13.0034   3
  -2   5  -8 308.429 13.2666   1
  -2   5  -8 312.756 15.3454   6
   2  -5   8 305.145 14.8335   2
  -3   5  -8 362.402 16.9553   6
  -3   5  -8 335.785 14.6386   3
  -3   5  -8 367.986 13.8214  10
  -3   5  -8 353.091 13.6867   1
  -3   5  -8 370.284 13.8642   8
   3  -5   8 341.510 16.4570   2
  -4   5  -8 203.894 10.1294   1
  -4   5  -8 215.238 10.6196   8
  -4   5  -8 213.221 10.8496  10
  -4   5  -8 203.323 13.5776   6
  -4   5  -8 202.964 11.8817   3
   4  -5   8 203.349 14.1215   2
  -5   5  -8 103.912 8.37401  10
  -5   5  -8 106.581 11.2588   6
  -5   5  -8 84.3796 9.02063   3
  -5   5  -8 93.9171 8.01772   8
   5  -5   8 91.9329 11.1062   2
  -6   5  -8 416.817 18.1533   3
  -6   5  -8 438.270 17.1212  10
  -6   5  -8 411.305 15.3690   8
  -6   5  -8 440.126 20.1625   6
   6  -5   8 414.210 20.2980   2
  -7   5  -8 3.65687 4.34127  10
  -7   5  -8 0.20394 5.91530   6
   7  -5   8 14.1449 8.56745   2
   4   4  -8 1.81484 4.49427   8
   4   4  -8 1.59777 4.24589   9
   4   4  -8 -3.4481 4.82485   6
   4   4  -8 -1.7330 5.27924   1
  -4  -4   8 6.35189 5.92002  12
   3   4  -8 31.5084 6.71193   6
   3   4  -8 27.7658 6.93250   1
   3   4  -8 33.9488 5.54814   9
   3   4  -8 37.6589 6.67560   8
  -3  -4   8 23.5451 6.70092  12
   2   4  -8 123.814 7.62800   3
   2   4  -8 137.089 10.9130   1
   2   4  -8 104.750 10.2273   6
   2   4  -8 127.269 7.88785   9
   2   4  -8 120.777 9.62412   8
  -2  -4   8 127.058 11.5456  12
   1   4  -8 540.636 16.6706   3
   1   4  -8 548.019 15.6664   9
   1   4  -8 545.354 20.8508   6
   1   4  -8 551.569 18.5354   8
   1   4  -8 570.341 19.9998   1
  -1  -4   8 553.737 20.3408  12
   0   4  -8 452.888 18.2279   6
   0   4  -8 464.837 17.0513   1
   0   4  -8 428.830 15.6787   8
   0   4  -8 451.832 14.9913   3
  -1   4  -8 3183.74 68.0186   8
  -1   4  -8 3228.73 69.2226   1
  -1   4  -8 3150.49 71.8805   6
  -1   4  -8 3219.44 67.0014  10
  -1   4  -8 3260.89 68.3535   3
  -2   4  -8 2.25531 3.27169   8
  -2   4  -8 -2.1110 3.14972   3
  -2   4  -8 3.19241 3.64577   1
  -2   4  -8 0.91644 4.41968   6
  -2   4  -8 2.78538 2.89431  10
   2  -4   8 3.23549 4.69213   2
  -3   4  -8 53.8200 5.65664   1
  -3   4  -8 47.4081 5.43422  10
  -3   4  -8 53.3006 5.56134   8
  -3   4  -8 43.9018 5.99088   3
  -3   4  -8 58.8281 7.88171   6
   3  -4   8 43.4467 7.42091   2
  -4   4  -8 114.384 6.98927   1
  -4   4  -8 106.302 7.40687   8
  -4   4  -8 110.791 8.94606   3
  -4   4  -8 120.161 7.68817  10
  -4   4  -8 108.206 10.2731   6
   4  -4   8 117.019 11.1674   2
  -5   4  -8 33.3655 6.84144   6
  -5   4  -8 20.3387 5.29351   3
  -5   4  -8 22.8007 4.26946   8
  -5   4  -8 28.7691 5.14096  10
   5  -4   8 23.5317 7.64347   2
  -6   4  -8 7.57271 4.76628   3
  -6   4  -8 1.50338 5.08024   6
  -6   4  -8 8.91511 3.97452  10
   6  -4   8 16.6954 7.60672   2
  -7   4  -8 12.0390 6.02463  13
  -7   4  -8 6.46525 4.18217  10
  -7   4  -8 -5.8180 4.95163   6
   7  -4   8 -16.785 6.46931   2
  -8   4  -8 56.5478 8.09746  10
  -8   4  -8 65.7623 10.2887   6
  -8   4  -8 66.0373 9.87867  13
   8  -4   8 43.6606 10.0266   2
   5   3  -8 481.947 18.9315   9
   5   3  -8 485.107 21.8126   6
   5   3  -8 483.299 21.4376   1
  -5  -3   8 497.782 21.7053  13
  -5  -3   8 504.436 22.3288  12
   4   3  -8 56.3977 8.06411   6
   4   3  -8 83.8772 9.90456   1
   4   3  -8 52.8168 6.93315   9
  -4  -3   8 48.3056 8.16948  12
   3   3  -8 34.9564 6.91186   6
   3   3  -8 42.5036 6.53440   8
   3   3  -8 28.4158 6.78802   1
   3   3  -8 37.2114 5.46916   9
  -3  -3   8 42.6251 7.85446  12
   2   3  -8 64.6869 6.01534   9
   2   3  -8 61.4299 7.17421   8
   2   3  -8 60.9188 8.13682   6
   2   3  -8 68.0806 5.44785   3
   2   3  -8 74.7647 8.70304   1
  -2  -3   8 46.1131 7.29804  12
   1   3  -8 99.1147 6.23854   9
   1   3  -8 81.8984 6.04266   3
   1   3  -8 80.5166 7.44555   8
   1   3  -8 84.0998 8.63015   6
   1   3  -8 104.346 9.22506   1
  -1  -3   8 108.172 10.0410  12
   0   3  -8 766.893 20.0670   3
   0   3  -8 749.987 24.0453   6
   0   3  -8 774.337 21.3519   8
   0   3  -8 746.368 22.5866   1
  -1   3  -8 -1.1653 3.25647   1
  -1   3  -8 2.31136 3.06044   8
  -1   3  -8 4.23453 2.56350  10
  -1   3  -8 -2.4150 3.53713   6
  -1   3  -8 2.41917 2.96221   3
  -2   3  -8 504.389 18.4447   6
  -2   3  -8 504.505 15.7923   1
  -2   3  -8 506.501 16.0730   3
  -2   3  -8 543.910 13.9107   5
  -2   3  -8 512.195 14.4122  10
  -2   3  -8 510.520 15.1246   8
   2  -3   8 498.554 18.6484   2
  -3   3  -8 274.236 10.0246   8
  -3   3  -8 276.293 10.2968   1
  -3   3  -8 282.902 10.1810  10
  -3   3  -8 270.745 11.6597   3
  -3   3  -8 292.200 13.7507   6
   3  -3   8 271.446 14.2641   2
  -4   3  -8 64.2140 7.68916   6
  -4   3  -8 61.5141 6.87293   3
  -4   3  -8 65.9426 5.97296  10
  -4   3  -8 58.6383 5.07562   8
  -4   3  -8 59.8274 4.85087   1
   4  -3   8 55.5397 8.20461   2
  -5   3  -8 2968.17 62.1659  10
  -5   3  -8 2862.32 64.4745   3
  -5   3  -8 2904.72 66.2844   6
  -5   3  -8 2892.87 59.5216   8
   5  -3   8 2883.63 66.8815   2
  -6   3  -8 11.4050 3.96011  10
  -6   3  -8 4.24357 5.10156   6
   6  -3   8 9.56889 6.98209   2
  -7   3  -8 231.143 14.2698   6
  -7   3  -8 207.912 11.2305  10
  -7   3  -8 197.649 12.6833  13
   7  -3   8 217.842 16.0933   2
  -8   3  -8 79.6610 8.58241  10
  -8   3  -8 94.1264 10.4098  13
  -8   3  -8 93.1987 10.7173   6
   8  -3   8 88.1448 12.2200   2
   5   2  -8 192.021 13.9110   1
   5   2  -8 199.110 14.2820   6
   5   2  -8 214.342 12.5785   9
  -5  -2   8 176.969 13.6905  13
  -5  -2   8 167.001 13.7628  12
   4   2  -8 104.693 8.97486   9
   4   2  -8 102.641 10.4366   1
   4   2  -8 116.797 11.1205   6
  -4  -2   8 87.5507 9.98541  12
   3   2  -8 88.4309 9.39509   6
   3   2  -8 85.5248 9.29594   1
   3   2  -8 82.0707 7.42781   9
  -3  -2   8 95.9766 10.0936  12
   2   2  -8 204.042 12.1851   1
   2   2  -8 187.541 12.0276   6
   2   2  -8 191.124 9.31711   9
  -2  -2   8 188.703 11.8994  12
   1   2  -8 1.46472 3.92841   1
   1   2  -8 -1.2933 2.10844   3
   1   2  -8 -1.3754 3.79504   6
   1   2  -8 4.08571 3.35980   8
  -1  -2   8 -0.9692 3.78423  12
   0   2  -8 411.151 16.1178   6
   0   2  -8 371.513 13.0765   8
   0   2  -8 393.865 11.7855   3
   0   2  -8 375.858 14.4286   1
  -1   2  -8 71.1616 7.39621   6
  -1   2  -8 70.6206 6.54987   1
  -1   2  -8 72.1133 4.46734  10
  -1   2  -8 74.4129 5.79328   8
  -1   2  -8 61.8283 5.41220   3
  -2   2  -8 2778.08 61.1575   6
  -2   2  -8 2708.57 57.2454   1
  -2   2  -8 2698.41 54.8305  10
  -2   2  -8 2707.25 56.0639   8
  -2   2  -8 2721.62 57.5474   3
  -3   2  -8 14.0714 2.89399  10
  -3   2  -8 12.0131 3.69449   3
  -3   2  -8 10.8467 4.66376   6
  -3   2  -8 18.3678 3.24545   1
  -3   2  -8 15.7601 2.48932   5
  -3   2  -8 10.1936 2.75449   8
   3  -2   8 21.0152 5.94929   2
  -4   2  -8 1129.63 30.5679   6
  -4   2  -8 1143.80 26.3859  10
  -4   2  -8 1130.85 24.7264   1
   4  -2   8 1114.74 31.5112   2
  -5   2  -8 2313.13 54.3281   6
  -5   2  -8 2365.69 51.8933  11
  -5   2  -8 2343.89 50.3287  10
  -6   2  -8 435.570 15.1533  11
  -6   2  -8 439.231 14.9232  10
  -6   2  -8 429.852 17.5568   6
   6  -2   8 435.394 19.6850   2
  -7   2  -8 4.24083 4.67713  13
  -7   2  -8 -1.2103 4.88035   6
  -7   2  -8 -1.0618 3.22787  11
  -7   2  -8 -0.7052 3.34332  10
   7  -2   8 -8.6638 6.26646   2
  -8   2  -8 32.9750 7.11155  13
  -8   2  -8 28.8528 4.99736  11
  -8   2  -8 22.5203 6.67099   6
  -8   2  -8 29.0386 5.75142  10
   8  -2   8 21.1145 8.57603   2
  -9   2  -8 20.1933 6.12665  10
  -9   2  -8 26.9731 7.39573  13
  -9   2  -8 16.4575 7.08170   6
   9  -2   8 23.3090 9.11871   2
   5   1  -8 106.316 10.0829   9
   5   1  -8 112.235 11.5090   1
   5   1  -8 123.315 12.3111   6
  -5  -1   8 121.378 11.8287  13
  -5  -1   8 115.307 12.3193  12
   4   1  -8 27.5677 6.71444   6
   4   1  -8 20.6336 6.36929   1
   4   1  -8 32.7619 5.86678   9
  -4  -1   8 34.8630 7.22437  13
  -4  -1   8 27.8174 6.95234  12
   3   1  -8 -7.9497 4.10638   1
   3   1  -8 4.11869 4.41670   6
   3   1  -8 -0.9668 3.23761   9
  -3  -1   8 -1.8846 4.36746  12
   2   1  -8 493.759 19.0270   6
   2   1  -8 589.535 19.9271   1
  -2  -1   8 523.782 19.4896  12
   1   1  -8 794.644 24.0197   6
   1   1  -8 771.045 17.5474   3
   1   1  -8 791.911 23.3186   1
  -1  -1   8 748.347 23.6550  12
   0   1  -8 237.378 11.1539   1
   0   1  -8 256.989 12.3349   6
   0   1  -8 237.640 7.94184   3
   0  -1   8 240.738 12.3737  12
  -1   1  -8 551.097 14.4802   3
  -1   1  -8 536.550 14.8303   8
  -1   1  -8 540.045 18.0184   6
  -1   1  -8 522.595 16.3111   1
  -2   1  -8 198.694 10.3077   6
  -2   1  -8 198.575 7.61534   5
  -2   1  -8 191.491 8.40640   1
  -3   1  -8 657.347 15.3311   8
  -3   1  -8 649.560 20.1014   6
  -3   1  -8 697.684 15.5350  10
   3  -1   8 673.474 21.5864   2
  -4   1  -8 1090.26 24.6382  10
  -4   1  -8 1111.95 29.0146   6
  -4   1  -8 1089.74 28.2611  11
  -4   1  -8 1136.97 23.9451   1
   4  -1   8 1060.36 30.2338   2
  -5   1  -8 168.937 9.62006  11
  -5   1  -8 211.428 11.1606   6
  -5   1  -8 179.740 8.11300  10
   5  -1   8 184.484 12.8198   2
  -6   1  -8 328.256 11.9746  10
  -6   1  -8 296.193 12.4917  11
  -6   1  -8 317.748 14.2977   6
  -6   1  -8 322.636 14.4407   7
   6  -1   8 330.558 17.3068   2
  -7   1  -8 263.876 13.3978   7
  -7   1  -8 258.235 11.6010  10
  -7   1  -8 261.920 11.9410  11
  -7   1  -8 251.599 12.8106  13
  -7   1  -8 251.775 13.5620   6
   7  -1   8 235.735 16.0228   2
  -8   1  -8 66.5958 8.10365  13
  -8   1  -8 63.4497 8.42478   6
  -8   1  -8 56.1899 6.90363  10
  -8   1  -8 62.2797 6.98430  11
  -8   1  -8 49.5957 7.52017   7
   8  -1   8 58.6069 10.1502   2
  -9   1  -8 446.471 16.8409  11
  -9   1  -8 461.648 18.1518  10
  -9   1  -8 477.057 19.3489  13
  -9   1  -8 483.104 19.0095   7
  -9   1  -8 451.808 19.9762   6
   9  -1   8 442.827 22.4493   2
   5   0  -8 318.239 17.2289   6
   5   0  -8 293.583 16.6132   1
  -5   0   8 299.368 16.9276  13
  -5   0   8 292.993 17.0877  12
   4   0  -8 562.290 21.3933   1
   4   0  -8 536.811 21.3169   6
  -4   0   8 536.460 21.4274  12
  -4   0   8 512.903 20.6384  13
   3   0  -8 6.31304 4.96433   1
   3   0  -8 6.67754 5.00407   6
  -3   0   8 7.63736 5.03806  12
  -3   0   8 4.88885 4.99642  13
   2   0  -8 872.155 26.2308   6
   2   0  -8 880.332 25.9723   1
  -2   0   8 838.233 26.0666  12
   1   0  -8 398.700 15.5531   6
   1   0  -8 398.752 15.2692   1
  -1   0   8 394.012 15.9870  12
   0   0  -8 489.873 16.4391   1
   0   0  -8 506.699 17.2503   6
   0   0   8 518.446 17.9348  12
  -1   0  -8 287.090 11.1610   1
  -1   0  -8 286.480 12.4011   6
  -2   0  -8 554.787 15.4214   1
  -2   0  -8 573.034 17.3859   6
  -2   0  -8 523.720 14.8666   5
  -3   0  -8 307.360 12.5598  11
  -3   0  -8 300.787 9.93941   5
  -3   0  -8 300.194 12.2011   6
   3   0   8 316.951 13.9306   2
  -4   0  -8 788.373 21.9368   6
  -4   0  -8 792.257 17.8045  10
  -4   0  -8 785.418 22.3176  11
   4   0   8 768.670 23.8801   2
  -5   0  -8 1555.94 33.5743  10
  -5   0  -8 1511.40 36.8618  11
  -5   0  -8 1568.50 39.1572   7
  -5   0  -8 1529.90 36.8540   6
   5   0   8 1545.16 39.6973   2
  -6   0  -8 1579.50 35.3243  10
  -6   0  -8 1563.34 37.7936   6
  -6   0  -8 1511.95 37.4778  11
  -6   0  -8 1531.94 39.3958   7
   6   0   8 1579.11 41.3766   2
  -7   0  -8 3.26464 4.21748   7
  -7   0  -8 -1.1290 3.65934  13
  -7   0  -8 1.52417 3.72204  11
  -7   0  -8 3.41039 4.32068   6
  -7   0  -8 2.93895 3.32764  10
   7   0   8 -1.1620 6.75997   2
  -8   0  -8 195.657 11.2684  11
  -8   0  -8 191.721 10.8847  10
  -8   0  -8 176.047 11.7166   6
  -8   0  -8 200.643 12.4249   7
  -8   0  -8 184.013 11.1181  13
   8   0   8 194.223 15.3783   2
  -9   0  -8 0.97832 5.34135   6
  -9   0  -8 1.80668 4.71475   7
  -9   0  -8 6.21557 5.28823  13
  -9   0  -8 -2.3649 4.10024  11
  -9   0  -8 0.01084 4.18260  10
   9   0   8 -5.8319 7.86303   2
   5  -1  -8 450.426 20.5542   6
   5  -1  -8 463.488 20.3229   1
  -5   1   8 443.868 20.6573  12
  -5   1   8 442.098 19.8359  13
   4  -1  -8 681.210 24.2027   6
   4  -1  -8 682.291 24.2692   1
  -4   1   8 708.637 24.4381  13
  -4   1   8 692.626 24.7256  12
   3  -1  -8 0.51538 4.57253   6
   3  -1  -8 6.97138 4.76205   1
  -3   1   8 4.47489 5.02550  13
  -3   1   8 5.63546 4.92161  12
   2  -1  -8 2332.97 53.9075   1
   2  -1  -8 2340.17 53.9695   6
  -2   1   8 2331.63 53.5722  13
  -2   1   8 2233.43 53.8730  12
   1  -1  -8 204.662 11.1589   1
   1  -1  -8 201.153 11.1080   6
  -1   1   8 210.329 11.5303  12
   0  -1  -8 508.863 16.5881   1
   0  -1  -8 503.883 16.8669   6
   0   1   8 501.711 17.4849  12
  -1  -1  -8 2.02511 3.20940   1
  -1  -1  -8 4.42516 3.29252   6
  -1  -1  -8 5.85721 3.30299   5
  -2  -1  -8 4.49906 3.28919   6
  -2  -1  -8 2.84277 3.11656   5
  -2  -1  -8 -0.0699 3.52261  11
  -2  -1  -8 2.76467 2.80015   1
  -3  -1  -8 1053.08 26.2874   6
  -3  -1  -8 1084.69 25.3781   5
  -3  -1  -8 1025.36 28.7567   7
  -3  -1  -8 1096.53 28.0059  11
   3   1   8 1050.47 28.4785   2
   3   1   8 1073.75 23.8039   9
  -4  -1  -8 176.145 8.85478   6
  -4  -1  -8 190.176 10.3597  11
  -4  -1  -8 183.023 11.0075   7
  -4  -1  -8 191.518 6.13604   1
   4   1   8 188.461 7.22379   9
   4   1   8 180.889 11.7213   2
  -5  -1  -8 2.38910 4.07048   7
  -5  -1  -8 3.37188 3.15654   6
  -5  -1  -8 4.30391 3.75330   4
  -5  -1  -8 1.01065 3.74426  11
   5   1   8 1.96483 2.84713   9
   5   1   8 8.14311 6.04666   2
  -6  -1  -8 228.486 9.50081  10
  -6  -1  -8 213.435 11.5222  11
  -6  -1  -8 215.182 12.4307   7
  -6  -1  -8 222.075 11.0349   4
  -6  -1  -8 246.128 10.8289   6
   6   1   8 248.817 14.9936   2
   6   1   8 212.993 8.59497   9
  -7  -1  -8 14.2452 4.62423   6
  -7  -1  -8 12.6474 4.79704  11
  -7  -1  -8 11.6650 5.17027   7
  -7  -1  -8 20.2368 4.94574   4
  -7  -1  -8 16.4467 4.49714  10
   7   1   8 16.3908 7.48727   2
  -8  -1  -8 732.611 23.3994  11
  -8  -1  -8 758.245 22.4342  13
  -8  -1  -8 757.982 23.0585   6
  -8  -1  -8 783.753 22.8265  10
  -8  -1  -8 715.313 22.0461   4
  -8  -1  -8 739.050 24.8765   7
   8   1   8 751.711 27.3674   2
  -9  -1  -8 296.118 14.6655  11
  -9  -1  -8 346.034 16.6031   7
  -9  -1  -8 331.665 15.2919   6
  -9  -1  -8 291.625 13.3577   4
  -9  -1  -8 293.206 13.9344  13
  -9  -1  -8 278.554 14.1928  10
   9   1   8 322.460 18.7523   2
   5  -2  -8 72.7493 9.78732   1
  -5   2   8 53.7741 8.85893  13
  -5   2   8 67.6102 9.85951  12
   4  -2  -8 331.827 16.5257   1
   4  -2  -8 330.842 16.6065   6
  -4   2   8 323.210 16.3112  13
  -4   2   8 330.846 16.7358  12
   3  -2  -8 147.112 11.5757   1
   3  -2  -8 153.677 11.2921   6
  -3   2   8 142.595 10.9641  13
  -3   2   8 136.709 11.1587  12
   2  -2  -8 201.987 11.6231   6
   2  -2  -8 209.177 12.2044   1
  -2   2   8 187.668 11.8903  12
  -2   2   8 216.849 11.7458  13
   1  -2  -8 2119.61 48.6679   1
   1  -2  -8 2116.99 48.1409   6
  -1   2   8 2033.84 48.3203  12
  -1   2   8 2089.81 47.8398  13
   0  -2  -8 902.191 24.2549   6
   0  -2  -8 902.930 24.1124   5
   0  -2  -8 916.130 24.5957   1
   0   2   8 869.123 24.7534  12
  -1  -2  -8 10.5989 3.76619   6
  -1  -2  -8 11.8342 3.84605   1
  -1  -2  -8 7.92115 3.77674   5
  -2  -2  -8 220.214 9.43259   6
  -2  -2  -8 212.113 9.34008   1
  -2  -2  -8 244.583 12.1444   7
  -2  -2  -8 260.183 11.5712  11
  -2  -2  -8 221.084 10.0021   5
  -3  -2  -8 170.740 10.4065   7
  -3  -2  -8 152.434 9.19130   4
  -3  -2  -8 143.905 7.11029   1
  -3  -2  -8 145.457 9.32028  11
  -3  -2  -8 147.777 7.62602   6
  -3  -2  -8 163.336 8.74338   5
   3   2   8 162.970 10.2045   2
   3   2   8 152.553 7.59855   9
  -4  -2  -8 21.5381 3.31741   1
  -4  -2  -8 26.1805 5.12401  11
  -4  -2  -8 27.7835 3.95561   6
  -4  -2  -8 24.9736 5.00581   4
  -4  -2  -8 15.5523 4.76364   7
   4   2   8 21.6807 6.02995   2
   4   2   8 22.3332 3.80996   9
  -5  -2  -8 162.096 10.3378  11
  -5  -2  -8 158.968 10.5961   7
  -5  -2  -8 163.648 7.82895   6
  -5  -2  -8 168.180 9.93994   4
   5   2   8 170.414 8.21656   9
   5   2   8 174.704 12.2820   2
  -6  -2  -8 177.952 11.7549   7
  -6  -2  -8 203.571 11.4024  11
  -6  -2  -8 184.426 8.75387   6
  -6  -2  -8 183.969 10.6210   4
   6   2   8 168.028 12.7724   2
   6   2   8 198.017 9.06905   9
  -7  -2  -8 210.990 12.6428   7
  -7  -2  -8 205.046 11.9438  11
  -7  -2  -8 224.548 11.6122   4
  -7  -2  -8 215.014 9.97798   6
   7   2   8 203.010 9.85935   9
   7   2   8 207.927 14.3933   2
  -8  -2  -8 2.37206 4.89869   7
  -8  -2  -8 -1.5295 3.92101   4
  -8  -2  -8 -0.5369 4.80700  11
   8   2   8 2.61642 4.17456   9
   8   2   8 3.10043 7.17009   2
  -9  -2  -8 272.300 15.5025   7
  -9  -2  -8 258.384 13.1168   4
  -9  -2  -8 253.169 14.1972  11
   9   2   8 250.101 17.8682   2
   5  -3  -8 12.5712 6.55660   1
  -5   3   8 9.36586 6.25154  13
  -5   3   8 7.03103 6.50041  12
   4  -3  -8 298.862 15.9775   1
  -4   3   8 299.072 16.1624  12
  -4   3   8 296.048 15.4751  13
   3  -3  -8 308.724 15.2260   6
   3  -3  -8 357.273 16.5979   1
  -3   3   8 328.812 15.6740  12
  -3   3   8 339.025 15.3690  13
   2  -3  -8 335.847 15.2313   1
   2  -3  -8 312.268 14.0590   6
  -2   3   8 309.923 14.2468  12
  -2   3   8 311.810 13.9420  13
   1  -3  -8 68.2119 7.42705   1
   1  -3  -8 69.3283 7.05159   6
  -1   3   8 73.7779 7.41041  13
  -1   3   8 55.1310 6.95854  12
   0  -3  -8 515.109 16.5242   6
   0  -3  -8 535.263 17.7846   1
   0  -3  -8 522.615 17.2757   5
   0   3   8 513.980 16.3304  13
   0   3   8 505.875 17.1529  12
  -1  -3  -8 276.923 11.9465   1
  -1  -3  -8 295.347 12.8849  11
  -1  -3  -8 291.304 12.2780   5
  -1  -3  -8 287.303 10.9661   6
   1   3   8 310.012 12.2300  12
   1   3   8 276.756 9.55035   3
  -2  -3  -8 16.6666 4.70826  11
  -2  -3  -8 13.8849 3.96091   1
  -2  -3  -8 11.2271 4.60899   7
  -2  -3  -8 14.3023 4.42545   4
  -2  -3  -8 11.4669 3.31958   6
  -2  -3  -8 5.46988 4.06660   5
   2   3   8 15.5347 2.49499   8
  -3  -3  -8 389.260 12.4467   1
  -3  -3  -8 378.806 15.3577   7
  -3  -3  -8 386.159 14.8608  11
  -3  -3  -8 391.938 14.6048   4
  -3  -3  -8 411.744 11.7512   6
  -3  -3  -8 377.455 13.8421   5
   3   3   8 408.879 15.0894   2
   3   3   8 366.095 13.0489   9
  -4  -3  -8 265.476 11.9672   4
  -4  -3  -8 259.897 13.0143   7
  -4  -3  -8 242.169 12.0148  11
   4   3   8 257.035 12.8021   2
   4   3   8 242.918 10.5544   9
  -5  -3  -8 14.1423 4.41664   4
  -5  -3  -8 21.0037 5.36688  11
  -5  -3  -8 15.0852 5.14867   7
   5   3   8 18.4375 6.23257   2
   5   3   8 18.4603 4.49104   9
  -6  -3  -8 18.5945 5.88519   7
  -6  -3  -8 26.7908 5.86119  11
  -6  -3  -8 12.0176 4.79309   4
   6   3   8 33.7115 5.42500   9
   6   3   8 20.4919 6.76618   2
  -7  -3  -8 -0.0714 4.70917  11
  -7  -3  -8 1.47975 4.86868   7
  -7  -3  -8 2.48211 4.14764   4
   7   3   8 4.21518 6.23275   2
   7   3   8 -0.8324 4.11943   9
  -8  -3  -8 507.627 20.7780   7
  -8  -3  -8 528.727 18.5724   4
  -8  -3  -8 514.087 19.9810  11
   8   3   8 526.442 21.8475   2
   8   3   8 511.721 17.6280   9
  -9  -3  -8 145.175 13.2048   7
  -9  -3  -8 145.852 12.2745  11
  -9  -3  -8 151.176 10.8603   4
   9   3   8 167.637 11.2661   9
   9   3   8 158.245 14.0531   2
   5  -4  -8 41.2341 8.70790   1
  -5   4   8 47.6015 9.20881  12
  -5   4   8 31.9597 8.29703  13
   4  -4  -8 0.57089 5.55892   1
  -4   4   8 6.24309 5.75674  13
  -4   4   8 4.58937 5.92357  12
   3  -4  -8 92.2667 10.0942   1
  -3   4   8 101.075 9.83183  13
  -3   4   8 115.270 10.6065  12
   2  -4  -8 -5.1512 4.64164   1
  -2   4   8 0.48861 4.31269  12
  -2   4   8 4.60318 4.60047  13
   1  -4  -8 107.704 8.65751   6
   1  -4  -8 126.748 9.95054   1
   1  -4  -8 101.393 8.92515   5
  -1   4   8 117.203 8.37966  13
  -1   4   8 117.761 9.37575  12
   0  -4  -8 868.818 24.7928   1
   0  -4  -8 840.986 24.5238   5
   0  -4  -8 825.817 22.4764   6
   0   4   8 862.711 23.5177  12
   0   4   8 832.955 22.3310  13
  -1  -4  -8 250.186 9.88875   6
  -1  -4  -8 266.918 11.9989   1
  -1  -4  -8 249.198 12.0286  11
  -1  -4  -8 243.405 11.8915   5
  -1  -4  -8 238.573 11.2694   4
  -1  -4  -8 249.264 12.3249   7
   1   4   8 240.858 10.6467  12
   1   4   8 250.488 9.70221  13
  -2  -4  -8 36.7966 3.84993   6
  -2  -4  -8 27.9998 5.60344   7
  -2  -4  -8 29.2750 5.40784   4
  -2  -4  -8 30.2475 5.37860   1
  -2  -4  -8 26.0397 5.30643  11
  -2  -4  -8 31.9167 5.84626   5
   2   4   8 28.1481 3.71632  13
   2   4   8 34.2139 3.55019   8
   2   4   8 37.0927 3.86872   3
   2   4   8 34.8611 5.34045   2
  -3  -4  -8 169.753 10.3669   5
  -3  -4  -8 175.040 10.8140   7
  -3  -4  -8 187.806 7.88000   6
  -3  -4  -8 194.783 9.41665   1
  -3  -4  -8 166.314 9.87245   4
  -3  -4  -8 198.831 10.7438  11
   3   4   8 169.942 9.61736   9
   3   4   8 179.852 10.2099   2
  -4  -4  -8 14.7647 4.39234   4
  -4  -4  -8 14.1446 4.98294  11
  -4  -4  -8 10.4503 4.89218   7
   4   4   8 7.33605 5.03018   2
   4   4   8 7.86916 4.10313   9
  -5  -4  -8 483.515 17.0535   4
  -5  -4  -8 446.724 17.1531  11
  -5  -4  -8 436.887 18.0800   7
   5   4   8 425.694 17.0780   2
   5   4   8 484.663 16.1303   9
  -6  -4  -8 60.7620 8.08788   7
  -6  -4  -8 74.1420 8.42600  11
  -6  -4  -8 66.8037 7.71294   4
   6   4   8 70.7432 9.08265   2
   6   4   8 67.7966 7.11824   9
  -7  -4  -8 91.0921 10.2689   7
  -7  -4  -8 102.605 9.83693  11
  -7  -4  -8 117.237 10.0566   4
   7   4   8 110.111 9.18391   9
   7   4   8 122.482 11.2666   2
  -8  -4  -8 134.358 11.5191  11
  -8  -4  -8 131.105 12.0024   7
  -8  -4  -8 144.399 10.7914   4
   8   4   8 145.074 10.9663   9
   8   4   8 149.717 12.7025   2
  -9  -4  -8 153.621 14.0660   7
  -9  -4  -8 127.900 12.0445  11
  -9  -4  -8 135.983 11.2779   4
   9   4   8 138.763 11.1710   9
   9   4   8 167.233 14.4897   2
   4  -5  -8 785.272 27.8583   1
  -4   5   8 762.216 26.1642  12
  -4   5   8 839.376 27.1953  13
   3  -5  -8 427.732 19.2704   1
   3  -5  -8 435.746 18.4203   5
  -3   5   8 454.068 18.2573  12
  -3   5   8 470.395 18.5290  13
   2  -5  -8 80.3214 8.79650   5
   2  -5  -8 75.7721 9.24337   1
  -2   5   8 86.3033 8.35435  13
  -2   5   8 76.3136 8.12350  12
   1  -5  -8 157.116 11.4629   5
   1  -5  -8 148.375 11.7581   1
  -1   5   8 182.864 10.3920  12
  -1   5   8 173.511 10.0292  13
   0  -5  -8 106.153 8.33832   4
   0  -5  -8 97.0871 9.09456   1
   0  -5  -8 102.105 9.56357   5
   0   5   8 101.361 7.75250  12
   0   5   8 109.516 7.56138  13
  -1  -5  -8 938.611 26.2825   1
  -1  -5  -8 928.978 25.9011  11
  -1  -5  -8 892.149 25.1700   4
  -1  -5  -8 883.480 26.0596   7
  -1  -5  -8 907.014 26.1492   5
   1   5   8 934.886 22.5633  13
   1   5   8 940.589 23.8118  12
   1   5   8 900.787 22.8980   8
  -2  -5  -8 30.0928 5.48679   4
  -2  -5  -8 39.6969 6.01629   1
  -2  -5  -8 26.3993 5.97897   5
  -2  -5  -8 29.0930 5.66228  11
  -2  -5  -8 31.2436 6.08775   7
   2   5   8 43.9852 5.86207   2
   2   5   8 32.6073 4.13167   8
   2   5   8 41.7612 4.31008   3
   2   5   8 37.8492 4.82888  12
  -3  -5  -8 14.8540 4.84637   4
  -3  -5  -8 34.1956 6.25985   7
  -3  -5  -8 22.1862 5.31526  11
  -3  -5  -8 31.8029 6.35279   5
   3   5   8 21.8535 4.01057   3
   3   5   8 21.4403 5.18430   9
   3   5   8 17.8828 4.97260   2
  -4  -5  -8 15.5389 5.05887   4
  -4  -5  -8 1.72523 4.56072  11
  -4  -5  -8 12.6111 5.59775   7
   4   5   8 7.40182 5.06324   2
   4   5   8 7.37888 4.44370   9
  -5  -5  -8 156.447 10.8815  11
  -5  -5  -8 126.572 11.0991   7
  -5  -5  -8 143.078 10.0314   4
   5   5   8 148.286 10.0460   9
   5   5   8 136.533 10.8590   2
  -6  -5  -8 210.395 12.1418   4
  -6  -5  -8 216.849 13.5308   7
  -6  -5  -8 224.237 13.0302  11
   6   5   8 249.247 13.6211   2
   6   5   8 211.323 12.0279   9
  -7  -5  -8 4.15237 5.39159  11
  -7  -5  -8 5.61209 5.53003   7
  -7  -5  -8 -3.8388 4.46009   4
   7   5   8 1.04448 6.09045   2
   7   5   8 -2.7421 4.55835   9
  -8  -5  -8 7.75887 6.20510  11
  -8  -5  -8 5.04306 5.08027   4
  -8  -5  -8 3.41876 6.03778   7
   8   5   8 8.15253 6.67393   2
   8   5   8 6.42776 5.76515   9
   3  -6  -8 12.0897 6.05209   5
   3  -6  -8 2.14180 5.77790   1
  -3   6   8 11.3214 5.89918  12
  -3   6   8 18.8304 6.34510  13
   2  -6  -8 7.77533 5.77403   5
   2  -6  -8 11.5451 6.32547   1
  -2   6   8 9.88573 5.18061  12
  -2   6   8 19.6198 5.51916  13
   1  -6  -8 362.010 17.3603   1
   1  -6  -8 396.023 16.9193   5
   1  -6  -8 398.265 14.7730   4
  -1   6   8 397.394 14.9395  12
  -1   6   8 395.354 14.6301  13
   0  -6  -8 22.5771 5.06952   4
   0  -6  -8 26.7324 6.40319   5
   0  -6  -8 25.3538 5.44294   7
   0  -6  -8 14.4465 5.97073   1
   0  -6  -8 20.0164 5.23721  11
   0   6   8 21.8299 4.87753   8
   0   6   8 24.4216 4.75058  12
  -1  -6  -8 43.3902 6.15508   4
  -1  -6  -8 39.7789 6.30827   7
  -1  -6  -8 33.5159 6.58306   1
  -1  -6  -8 37.1212 6.38826  11
  -1  -6  -8 34.4097 6.64546   5
   1   6   8 39.5998 5.30745   8
   1   6   8 30.0263 5.89301  12
  -2  -6  -8 193.249 12.4325   5
  -2  -6  -8 182.530 11.7603   1
  -2  -6  -8 202.798 11.9147   7
  -2  -6  -8 196.035 11.3867  11
  -2  -6  -8 196.401 10.8616   4
   2   6   8 187.118 9.56529   2
   2   6   8 180.518 9.38096   8
   2   6   8 191.854 8.62364   3
  -3  -6  -8 722.254 24.1982   7
  -3  -6  -8 744.554 23.9755   5
  -3  -6  -8 777.818 23.8009  11
  -3  -6  -8 773.208 23.4607   4
   3   6   8 717.479 20.9161   2
   3   6   8 758.347 20.7834   3
   3   6   8 765.635 23.8449   9
  -4  -6  -8 780.732 24.4309   4
  -4  -6  -8 839.255 26.3815   7
  -4  -6  -8 791.545 24.7786  11
   4   6   8 812.105 22.7504   3
   4   6   8 774.219 24.6354   9
   4   6   8 783.795 22.5515   2
  -5  -6  -8 589.587 21.0991  11
  -5  -6  -8 568.076 20.2063   4
  -5  -6  -8 550.708 21.5611   7
   5   6   8 551.041 18.7623   2
   5   6   8 528.538 19.7914   9
  -6  -6  -8 15.0501 6.57912   7
  -6  -6  -8 36.2977 7.25765  11
  -6  -6  -8 26.7001 6.76117   4
   6   6   8 20.7248 6.49656   2
   6   6   8 33.7021 7.23485   9
  -7  -6  -8 98.6100 11.3582   7
  -7  -6  -8 84.6357 9.19425   4
  -7  -6  -8 97.5200 10.3590  11
   7   6   8 92.0289 9.38707   2
   7   6   8 94.2591 9.89899   9
  -8  -6  -8 24.2555 7.56057   7
  -8  -6  -8 22.4671 7.32540  11
  -8  -6  -8 29.1647 7.16552   4
   8   6   8 33.6319 8.43562   2
   8   6   8 27.3282 7.26583   9
   3  -7  -8 44.5294 8.59762   5
   3  -7  -8 36.3096 8.70333   1
  -3   7   8 44.2188 8.13240  13
   2  -7  -8 72.5516 9.65434   5
   2  -7  -8 68.0088 10.0104   1
   1  -7  -8 9.83624 6.06061   5
   1  -7  -8 12.6709 4.49399   4
   1  -7  -8 15.0073 6.63707   1
  -1   7   8 20.9365 5.67465   8
   0  -7  -8 650.369 21.0062  11
   0  -7  -8 657.602 21.3447   7
   0  -7  -8 627.346 23.3269   1
   0  -7  -8 635.512 22.6090   5
   0  -7  -8 673.068 20.8974   4
   0   7   8 651.586 20.6862   8
  -1  -7  -8 22.9383 6.81443   1
  -1  -7  -8 37.4957 6.13092  11
  -1  -7  -8 34.6788 7.33035   5
  -1  -7  -8 28.6385 5.94584   7
  -1  -7  -8 26.0091 5.88011   4
   1   7   8 25.5485 5.22266   8
  -2  -7  -8 350.563 15.7944   7
  -2  -7  -8 328.437 15.0175   4
  -2  -7  -8 335.809 16.6012   5
  -2  -7  -8 387.707 15.7964  11
   2   7   8 363.186 18.3274   3
   2   7   8 360.962 16.7333   9
  -3  -7  -8 263.908 14.7372   7
  -3  -7  -8 292.352 15.3371   5
  -3  -7  -8 287.152 14.1638   4
  -3  -7  -8 270.776 14.1617  11
   3   7   8 276.579 14.7770   9
   3   7   8 270.707 11.7500   3
  -4  -7  -8 222.212 12.9582   4
  -4  -7  -8 235.960 13.8780  11
  -4  -7  -8 252.063 14.7638   7
   4   7   8 234.316 11.7106   3
   4   7   8 249.579 14.6088   9
  -5  -7  -8 5.55265 6.08415   7
  -5  -7  -8 -0.9604 4.92886   4
  -5  -7  -8 5.16399 5.82160  11
   5   7   8 1.98379 4.18886   3
   5   7   8 8.63213 5.59820   9
  -6  -7  -8 94.2751 10.7264  11
  -6  -7  -8 96.2712 11.0804   7
  -6  -7  -8 84.4011 9.61240   4
   6   7   8 95.0774 10.0908   9
   6   7   8 93.7397 9.15534   3
  -7  -7  -8 81.8199 9.87242   4
  -7  -7  -8 81.8466 11.2388   7
  -7  -7  -8 76.8474 10.4677  11
   7   7   8 84.0182 10.1712   9
   1  -8  -8 583.164 22.8153   5
   1  -8  -8 580.770 19.5822   4
   1  -8  -8 613.764 24.2483   1
  -1   8   8 587.407 21.2672   8
   0  -8  -8 5.87660 6.80705   1
   0  -8  -8 4.00724 4.35768   7
   0  -8  -8 3.48122 6.24721   5
   0  -8  -8 3.25613 4.48114   4
   0  -8  -8 4.69316 4.49721  11
   0   8   8 7.05817 4.81529   8
  -1  -8  -8 93.1789 8.85351  11
  -1  -8  -8 94.6331 9.11060   4
  -1  -8  -8 79.3500 9.67990   5
  -1  -8  -8 92.7505 9.25569   7
   1   8   8 80.4626 8.02162   8
  -2  -8  -8 16.1930 6.99221   5
  -2  -8  -8 12.1980 5.59901   4
  -2  -8  -8 12.6350 5.53076  11
  -2  -8  -8 18.7041 5.99927   7
   2   8   8 14.2757 6.48271   9
  -3  -8  -8 45.7352 7.57978   4
  -3  -8  -8 55.9583 7.96330  11
  -3  -8  -8 44.8651 8.01686   7
   3   8   8 44.7286 6.12964   3
   3   8   8 45.9760 8.15825   9
  -4  -8  -8 3613.01 79.8635   4
  -4  -8  -8 3585.14 80.0025  11
  -4  -8  -8 3582.87 81.5972   7
   4   8   8 3660.92 81.7139   9
   4   8   8 3534.07 77.6608   3
  -5  -8  -8 138.092 11.9264   4
  -5  -8  -8 125.627 11.8768  11
  -5  -8  -8 139.222 12.9097   7
   5   8   8 152.080 10.9717   3
   5   8   8 130.078 12.0248   9
  -6  -8  -8 225.116 15.2707  11
  -6  -8  -8 221.804 14.6746   4
  -6  -8  -8 210.949 15.9258   7
   6   8   8 225.586 15.5197   9
   6   8   8 216.190 13.5691   3
  -1  -9  -8 99.6857 9.75573   4
  -1  -9  -8 82.2991 10.8995   5
  -1  -9  -8 95.6404 9.69892   7
  -1  -9  -8 94.1913 9.25549  11
   1   9   8 93.2605 12.3009   8
   1   9   8 93.8369 10.9410   9
  -2  -9  -8 141.412 11.2202  11
  -2  -9  -8 124.535 11.4560   7
  -2  -9  -8 125.604 11.2936   4
  -2  -9  -8 128.751 12.7119   5
   2   9   8 97.4085 11.3235   9
  -3  -9  -8 233.434 14.6657   4
  -3  -9  -8 273.824 15.0696  11
  -3  -9  -8 244.866 15.2758   7
   3   9   8 231.862 15.6805   3
   3   9   8 239.549 15.9277   9
  -1   7  -9 372.547 16.5865   3
  -1   7  -9 349.335 15.6313  10
  -1   7  -9 356.614 19.1462   6
  -1   7  -9 400.003 18.1228   1
  -1   7  -9 343.781 16.3025   8
   1  -7   9 372.625 17.8511   2
  -2   7  -9 2.77229 4.67541   8
  -2   7  -9 -1.1587 5.81915   6
  -2   7  -9 4.27970 4.12590  10
  -2   7  -9 -7.2310 4.94236   1
  -2   7  -9 0.17648 4.34347   3
   2  -7   9 3.91753 6.29560   2
  -3   7  -9 4.42096 4.56492  10
  -3   7  -9 2.43896 5.58835   6
  -3   7  -9 0.98578 5.32730   1
  -3   7  -9 13.5838 5.45109   3
  -3   7  -9 5.29431 4.99568   8
   3  -7   9 4.75163 6.91073   2
   1   6  -9 227.283 13.7501   8
   1   6  -9 228.573 14.6714   1
   1   6  -9 225.894 15.2058   6
   1   6  -9 215.549 11.9349   3
  -1  -6   9 195.301 13.4866  12
   0   6  -9 583.447 21.7326   1
   0   6  -9 534.664 20.0442   8
   0   6  -9 490.334 22.0347   6
   0   6  -9 540.130 18.7788  10
   0   6  -9 547.493 19.2402   3
   0  -6   9 571.512 22.3979  12
  -1   6  -9 1161.84 32.1992   3
  -1   6  -9 1193.66 36.0442   6
  -1   6  -9 1186.57 32.2957   8
  -1   6  -9 1170.35 33.2168   1
  -1   6  -9 1150.24 31.0791  10
   1  -6   9 1198.44 34.0851   2
  -2   6  -9 345.509 15.2790   1
  -2   6  -9 335.206 15.0668   3
  -2   6  -9 323.351 13.8287  10
  -2   6  -9 315.904 14.5589   8
  -2   6  -9 297.555 17.3873   6
   2  -6   9 332.328 17.0232   2
  -3   6  -9 486.625 21.3828   6
  -3   6  -9 457.390 17.2902   8
  -3   6  -9 488.610 17.4893  10
  -3   6  -9 494.889 18.9925   3
  -3   6  -9 473.795 17.7061   1
   3  -6   9 494.151 20.8343   2
  -4   6  -9 40.2423 8.35194   6
  -4   6  -9 31.9530 6.74087   3
  -4   6  -9 35.3383 6.18394   8
  -4   6  -9 28.2742 5.62687  10
   4  -6   9 26.5501 8.25350   2
  -5   6  -9 191.116 13.3609   3
  -5   6  -9 189.828 11.5757  10
  -5   6  -9 174.952 14.4718   6
   5  -6   9 183.778 15.7463   2
   3   5  -9 171.471 14.2427   6
   3   5  -9 193.715 14.2872   1
   3   5  -9 191.843 13.1908   8
  -3  -5   9 176.009 15.2232  12
   2   5  -9 441.511 20.7397   6
   2   5  -9 458.385 20.3103   1
   2   5  -9 435.043 18.3551   8
  -2  -5   9 483.076 20.4974  12
   1   5  -9 1181.19 31.1539   3
   1   5  -9 1246.80 37.0002   6
   1   5  -9 1212.19 33.2926   8
   1   5  -9 1237.16 35.0716   1
  -1  -5   9 1234.40 35.6638  12
   0   5  -9 312.635 14.1965   8
   0   5  -9 298.937 12.8908   3
   0   5  -9 281.831 12.3812  10
   0   5  -9 278.682 14.5725   1
   0   5  -9 301.869 16.4018   6
   0  -5   9 292.921 15.8574  12
  -1   5  -9 111.940 9.86484   1
  -1   5  -9 89.6552 8.25787   8
  -1   5  -9 99.4434 10.6579   6
  -1   5  -9 102.588 8.91061   3
  -1   5  -9 97.6912 8.00684  10
  -2   5  -9 23.1345 5.21688   3
  -2   5  -9 33.9541 7.48480   6
  -2   5  -9 32.5997 5.17408  10
  -2   5  -9 31.7460 6.23120   1
  -2   5  -9 38.3021 5.64580   8
   2  -5   9 40.2454 7.65010   2
  -3   5  -9 254.881 13.0286   3
  -3   5  -9 275.755 12.1766   1
  -3   5  -9 252.280 15.0710   6
  -3   5  -9 255.367 11.5589  10
  -3   5  -9 255.204 11.7222   8
   3  -5   9 274.563 15.3312   2
  -4   5  -9 20.3056 4.88616   8
  -4   5  -9 23.4885 4.83160  10
  -4   5  -9 21.4693 6.73616   6
  -4   5  -9 21.3289 5.47971   3
   4  -5   9 24.9129 7.52163   2
  -5   5  -9 261.940 12.3031  10
  -5   5  -9 240.235 13.6311   3
  -5   5  -9 226.729 15.0086   6
   5  -5   9 254.127 17.0052   2
  -6   5  -9 172.912 14.1611   6
  -6   5  -9 188.721 12.8351   3
  -6   5  -9 172.867 10.9686  10
   6  -5   9 181.184 15.4748   2
   3   4  -9 1059.30 33.6173   6
   3   4  -9 1078.64 33.4142   1
   3   4  -9 1023.37 31.1955   8
  -3  -4   9 1014.62 33.1099  12
   2   4  -9 17.8662 6.27938   1
   2   4  -9 23.5106 5.62225   8
   2   4  -9 23.4845 6.63956   6
  -2  -4   9 22.5349 6.63965  12
   1   4  -9 68.4216 6.45255   3
   1   4  -9 69.2200 7.55836   8
   1   4  -9 52.1221 7.91617   6
   1   4  -9 87.3976 9.28508   1
  -1  -4   9 53.3461 8.17670  12
   0   4  -9 70.0661 6.58025   3
   0   4  -9 79.7435 6.81383  10
   0   4  -9 65.0946 8.53885   6
   0   4  -9 88.9449 8.97076   1
   0   4  -9 76.0607 7.41469   8
   0  -4   9 86.3104 9.69623  12
  -1   4  -9 24.5274 6.17716   6
  -1   4  -9 26.7337 5.55853   1
  -1   4  -9 23.7077 4.80709   3
  -1   4  -9 22.0199 4.67683   8
  -1   4  -9 20.7719 4.07334  10
  -2   4  -9 386.632 14.8358   3
  -2   4  -9 422.212 14.3728   8
  -2   4  -9 373.504 17.5147   6
  -2   4  -9 407.956 13.3927  10
  -2   4  -9 390.833 14.7678   1
   2  -4   9 403.662 17.6957   2
  -3   4  -9 318.116 12.1902   8
  -3   4  -9 303.229 15.7443   6
  -3   4  -9 293.133 13.4329   3
  -3   4  -9 341.518 12.2056  10
  -3   4  -9 348.381 12.7650   1
   3  -4   9 308.772 16.3966   2
  -4   4  -9 121.634 7.72080   8
  -4   4  -9 119.759 11.2816   6
  -4   4  -9 126.624 8.05515  10
  -4   4  -9 120.627 9.54021   3
   4  -4   9 124.860 11.5474   2
  -5   4  -9 56.1988 7.41241   3
  -5   4  -9 42.3954 5.89762  10
  -5   4  -9 32.2938 7.24123   6
   5  -4   9 47.2713 9.11798   2
  -6   4  -9 188.938 13.8206   6
  -6   4  -9 188.241 10.5467  10
   6  -4   9 184.666 15.1973   2
  -7   4  -9 15.6048 4.88788  10
  -7   4  -9 17.2045 7.09257   6
   7  -4   9 15.9732 8.75940   2
   4   3  -9 6.93762 4.66510   9
   4   3  -9 9.81820 6.48355   1
   4   3  -9 1.30572 5.41323   6
  -4  -3   9 14.3056 6.92146  12
   3   3  -9 35.2952 7.55699   1
   3   3  -9 49.3814 6.37537   9
   3   3  -9 37.5717 7.44365   6
  -3  -3   9 47.9360 8.49836  12
   2   3  -9 13.8097 3.87417   9
   2   3  -9 4.91774 4.06433   8
   2   3  -9 2.47861 4.82687   1
   2   3  -9 14.8711 5.76401   6
  -2  -3   9 17.9388 6.54771  12
   1   3  -9 108.922 10.5295   6
   1   3  -9 101.501 8.63319   8
   1   3  -9 98.1084 9.38325   1
  -1  -3   9 115.239 11.0008  12
   0   3  -9 680.600 23.6191   6
   0   3  -9 674.820 20.2481   8
   0   3  -9 692.192 18.8527   3
   0   3  -9 687.392 21.9538   1
   0  -3   9 684.991 23.7042  12
  -1   3  -9 280.797 14.4342   6
  -1   3  -9 269.779 11.0491   8
  -1   3  -9 257.880 12.0577   1
  -1   3  -9 257.010 10.6916   3
  -2   3  -9 77.3904 6.16679  10
  -2   3  -9 72.3137 6.70225   1
  -2   3  -9 70.4270 6.04611   8
  -2   3  -9 70.3793 8.33008   6
  -2   3  -9 75.3293 6.71387   3
   2  -3   9 82.1117 9.02194   2
  -3   3  -9 43.5707 6.91260   6
  -3   3  -9 31.5178 4.27825   8
  -3   3  -9 46.3007 4.70688  10
  -3   3  -9 40.0429 4.81984   1
  -3   3  -9 37.1963 5.61893   3
   3  -3   9 52.3288 8.24885   2
  -4   3  -9 48.1152 7.20999   6
  -4   3  -9 42.1881 6.10200   3
  -4   3  -9 55.1614 5.40500  10
   4  -3   9 35.8386 7.34828   2
  -5   3  -9 24.0683 6.48016   6
  -5   3  -9 17.0097 4.13731  10
   5  -3   9 11.5160 6.76057   2
  -6   3  -9 15.6203 6.29610   6
  -6   3  -9 29.2036 5.00998  10
   6  -3   9 36.8900 9.03616   2
  -7   3  -9 49.2593 8.36850   6
  -7   3  -9 48.1788 6.58194  10
   7  -3   9 34.0356 9.34394   2
  -8   3  -9 21.8168 7.23089   6
  -8   3  -9 12.7830 4.97351  10
   8  -3   9 3.56771 8.76911   2
   4   2  -9 718.885 26.9520   6
   4   2  -9 744.747 23.4884   9
   4   2  -9 727.949 26.5110   1
  -4  -2   9 729.844 26.9419  12
   3   2  -9 18.0530 6.17041   1
   3   2  -9 23.5419 6.42069   6
  -3  -2   9 25.8695 7.05802  12
   2   2  -9 107.845 10.5899   6
   2   2  -9 108.446 10.4268   1
  -2  -2   9 89.9517 9.79952  12
   1   2  -9 292.666 14.8706   6
   1   2  -9 269.878 13.6066   1
  -1  -2   9 290.002 14.4727  12
   0   2  -9 641.596 21.9361   6
   0   2  -9 652.234 20.5014   1
   0   2  -9 633.919 18.7111   8
   0   2  -9 628.200 16.6357   3
   0  -2   9 596.741 21.7742  12
  -1   2  -9 197.473 10.0490   1
  -1   2  -9 196.164 11.6412   6
  -1   2  -9 189.970 8.55945   3
  -1   2  -9 195.411 8.89519   8
  -2   2  -9 668.928 18.8255   3
  -2   2  -9 697.704 17.8281   8
  -2   2  -9 659.336 18.9113   1
  -2   2  -9 627.359 21.6257   6
  -2   2  -9 685.972 16.7148   5
  -3   2  -9 437.569 12.4287   8
  -3   2  -9 435.112 17.0050   6
  -3   2  -9 425.065 13.2584   1
  -3   2  -9 431.392 14.8262   3
   3  -2   9 448.573 18.1383   2
  -4   2  -9 938.709 24.8380  10
  -4   2  -9 854.563 26.0767   6
   4  -2   9 812.597 26.8471   2
  -5   2  -9 287.849 14.0056   6
  -5   2  -9 244.858 9.84271  10
   5  -2   9 260.984 15.4575   2
  -6   2  -9 5.11514 4.93503   6
  -6   2  -9 11.3136 4.45930  11
  -6   2  -9 10.6902 3.82887  10
   6  -2   9 2.19836 6.87944   2
  -7   2  -9 18.7063 4.73272  10
  -7   2  -9 23.8471 6.74154   6
  -7   2  -9 25.2662 5.12662  11
   7  -2   9 11.5927 8.01066   2
  -8   2  -9 330.531 13.9396  11
  -8   2  -9 328.045 14.3759  10
  -8   2  -9 325.524 16.8755   6
   8  -2   9 288.011 19.9551   2
   4   1  -9 357.590 17.9258   1
   4   1  -9 327.490 17.8702   6
  -4  -1   9 365.784 18.3817  13
  -4  -1   9 343.573 18.2151  12
   3   1  -9 168.551 12.6297   1
   3   1  -9 175.320 12.9435   6
  -3  -1   9 194.764 13.2563  12
   2   1  -9 -6.4075 3.85989   1
   2   1  -9 2.20753 4.66116   6
  -2  -1   9 -5.1534 4.14780  12
   1   1  -9 59.3777 7.73954   6
   1   1  -9 46.7505 6.97647   1
  -1  -1   9 49.6464 7.44283  12
   0   1  -9 0.74180 4.01359   6
   0   1  -9 0.17887 3.74478   1
   0  -1   9 -0.2370 4.24765  12
  -1   1  -9 872.745 25.8276   6
  -1   1  -9 873.444 23.8069   1
  -2   1  -9 268.735 12.6357   6
  -2   1  -9 275.369 10.7089   1
  -2   1  -9 253.656 9.37303   5
  -3   1  -9 12.6985 3.18622   1
  -3   1  -9 14.2260 4.76457   6
  -3   1  -9 15.7761 3.10256   5
   3  -1   9 14.7569 5.60525   2
  -4   1  -9 1310.67 34.1156   6
   4  -1   9 1354.91 36.2535   2
  -5   1  -9 488.849 17.1689  11
  -5   1  -9 470.580 17.4603   6
   5  -1   9 489.954 20.4580   2
  -6   1  -9 1100.37 28.6712  10
  -6   1  -9 1118.21 30.8366   6
  -6   1  -9 1088.15 29.4731  11
   6  -1   9 1116.65 33.8899   2
  -7   1  -9 34.9794 5.29307  10
  -7   1  -9 34.7407 6.88910   6
  -7   1  -9 30.6802 5.47029  11
   7  -1   9 23.9557 8.67838   2
  -8   1  -9 72.0095 7.65698  10
  -8   1  -9 72.8362 9.00463   6
  -8   1  -9 73.1127 7.71745  11
   8  -1   9 54.9523 10.6894   2
  -9   1  -9 42.1394 6.97159  10
  -9   1  -9 58.2428 7.35663  11
  -9   1  -9 40.9217 8.15173   6
  -9   1  -9 54.1757 8.39465   7
  -9   1  -9 52.7772 7.92158  13
   9  -1   9 46.0774 11.5493   2
   4   0  -9 116.617 11.6067   6
   4   0  -9 112.105 11.4234   1
  -4   0   9 123.968 12.1634  13
  -4   0   9 127.069 12.4957  12
   3   0  -9 27.0448 6.95335   1
   3   0  -9 22.0441 6.32892   6
  -3   0   9 26.8472 6.64640  12
  -3   0   9 4.95295 5.54404  13
   2   0  -9 203.275 12.8540   1
   2   0  -9 210.609 12.8991   6
  -2   0   9 204.511 12.7055  12
   1   0  -9 55.9735 7.20307   6
   1   0  -9 49.4730 7.09156   1
  -1   0   9 52.3464 7.55066  12
   0   0  -9 702.434 22.3272   6
   0   0  -9 701.182 21.5398   1
   0   0   9 733.896 23.1896  12
  -1   0  -9 416.145 14.6302   1
  -1   0  -9 409.217 13.4633   5
  -1   0  -9 413.613 15.8362   6
  -2   0  -9 -1.8897 3.32181   6
  -2   0  -9 3.27948 3.07967   5
  -2   0  -9 -1.8114 2.78592   1
  -3   0  -9 385.789 11.4707   1
  -3   0  -9 343.561 13.9098   6
  -3   0  -9 385.473 11.7901   5
   3   0   9 328.711 15.5738   2
  -4   0  -9 239.896 11.9640  11
  -4   0  -9 215.140 10.8363   6
   4   0   9 231.118 13.3834   2
  -5   0  -9 64.4332 7.40130  11
  -5   0  -9 58.7027 6.68903   6
   5   0   9 54.8678 8.21495   2
  -6   0  -9 9.16858 4.55267  11
  -6   0  -9 8.50677 4.36130   6
  -6   0  -9 10.4154 5.24165   7
   6   0   9 6.30975 6.76828   2
  -7   0  -9 1.53871 4.02679  11
  -7   0  -9 -6.8845 3.95176   6
  -7   0  -9 7.16600 5.17878   7
  -7   0  -9 0.38615 4.32747  10
   7   0   9 7.52402 7.35953   2
  -8   0  -9 604.519 22.3874   7
  -8   0  -9 581.499 20.2740  10
  -8   0  -9 589.932 20.2834  11
  -8   0  -9 553.862 20.4373   6
   8   0   9 562.193 24.8091   2
  -9   0  -9 9.38088 4.89463  13
  -9   0  -9 2.31920 5.36408   6
  -9   0  -9 6.65018 5.37955  10
  -9   0  -9 8.24412 5.04089  11
  -9   0  -9 17.4116 6.30957   7
   9   0   9 8.52465 8.64314   2
   4  -1  -9 22.9624 7.00589   1
   4  -1  -9 18.3973 6.55822   6
  -4   1   9 44.8133 8.70434  12
  -4   1   9 54.1640 8.54106  13
   3  -1  -9 137.381 11.9088   1
   3  -1  -9 128.701 11.4340   6
  -3   1   9 156.722 12.4014  12
  -3   1   9 145.619 12.1123  13
   2  -1  -9 1739.27 43.6542   1
   2  -1  -9 1705.44 43.5821   6
  -2   1   9 1711.77 43.2923  13
  -2   1   9 1709.81 44.1838  12
   1  -1  -9 715.469 22.3356   1
   1  -1  -9 657.692 22.1286   6
  -1   1   9 683.418 22.8310  12
   0  -1  -9 393.941 15.2409   6
   0  -1  -9 386.912 14.7498   1
   0   1   9 380.316 15.8527  12
  -1  -1  -9 39.5527 5.21198   5
  -1  -1  -9 31.8331 5.08400   1
  -1  -1  -9 41.3724 5.86836   6
  -2  -1  -9 60.2485 5.76685   1
  -2  -1  -9 65.9892 6.52799   6
  -2  -1  -9 51.5764 5.75906   5
  -3  -1  -9 183.705 7.88939   1
  -3  -1  -9 175.527 10.7069  11
  -3  -1  -9 187.420 9.56364   6
  -3  -1  -9 180.410 8.64276   5
   3   1   9 180.330 11.4260   2
   3   1   9 184.004 7.30227   9
  -4  -1  -9 82.0048 8.16613  11
  -4  -1  -9 108.512 9.79051   7
  -4  -1  -9 95.1713 7.45646   6
   4   1   9 92.0089 9.29818   2
  -5  -1  -9 135.043 8.48412   6
  -5  -1  -9 140.695 9.86062  11
  -5  -1  -9 140.876 10.5961   7
   5   1   9 164.936 12.6195   2
  -6  -1  -9 330.394 15.6321   7
  -6  -1  -9 309.920 12.5506   6
  -6  -1  -9 303.997 14.0064  11
   6   1   9 302.598 17.2094   2
  -7  -1  -9 7.30656 4.21868   6
  -7  -1  -9 4.32696 4.92044   7
  -7  -1  -9 2.47592 4.48758  11
   7   1   9 11.1798 7.19391   2
  -8  -1  -9 6.53449 4.88069   6
  -8  -1  -9 3.75459 4.95578   7
  -8  -1  -9 13.2058 5.41572  11
   8   1   9 -0.0573 7.37868   2
  -9  -1  -9 11.2250 5.70987  11
  -9  -1  -9 9.27926 5.94840   7
   9   1   9 9.82244 8.72424   2
   4  -2  -9 255.537 15.6695   6
   4  -2  -9 232.270 15.4643   1
  -4   2   9 224.782 15.1984  12
  -4   2   9 267.561 15.4558  13
   3  -2  -9 162.465 12.7605   1
   3  -2  -9 171.589 12.5439   6
  -3   2   9 158.090 12.4399  12
  -3   2   9 175.709 12.4111  13
   2  -2  -9 8.39907 4.86088   6
   2  -2  -9 -0.2225 4.68522   1
  -2   2   9 8.39849 5.06535  12
  -2   2   9 11.3335 5.16132  13
   1  -2  -9 963.547 26.9418   6
   1  -2  -9 872.881 26.5109   1
  -1   2   9 908.646 27.2541  12
  -1   2   9 919.757 26.3870  13
   0  -2  -9 63.5901 7.05405   1
   0  -2  -9 66.0020 6.99588   6
   0  -2  -9 49.4577 6.39933   5
   0   2   9 73.4643 7.88457  12
  -1  -2  -9 464.117 15.7103   1
  -1  -2  -9 455.813 15.6266   5
  -1  -2  -9 443.039 15.3156   6
   1   2   9 447.427 16.7496  12
  -2  -2  -9 447.398 14.9889   6
  -2  -2  -9 466.372 15.3728   5
  -2  -2  -9 461.335 17.0288  11
  -2  -2  -9 468.443 14.9019   1
  -3  -2  -9 4.24275 4.63006   7
  -3  -2  -9 5.13384 3.30453   6
  -3  -2  -9 11.6847 4.46852  11
  -3  -2  -9 8.66780 3.14630   1
  -3  -2  -9 -0.0081 3.60881   5
   3   2   9 12.9651 3.37019   9
   3   2   9 2.37668 4.76498   2
  -4  -2  -9 136.117 8.65485   5
  -4  -2  -9 132.067 9.97268   7
  -4  -2  -9 99.6506 8.45552   4
  -4  -2  -9 109.693 7.18345   6
  -4  -2  -9 122.617 9.08480  11
   4   2   9 110.669 6.77643   9
   4   2   9 133.772 10.4070   2
  -5  -2  -9 5.70691 3.39524   6
  -5  -2  -9 6.02132 4.48820  11
  -5  -2  -9 3.14000 4.15576   7
  -5  -2  -9 0.77169 3.98189   4
   5   2   9 -1.6078 2.99327   9
   5   2   9 -4.6208 5.27032   2
  -6  -2  -9 307.863 14.6361  11
  -6  -2  -9 334.797 12.0547   6
  -6  -2  -9 320.789 14.1077   4
  -6  -2  -9 330.237 15.9846   7
   6   2   9 326.632 17.2165   2
  -7  -2  -9 149.449 10.4069   4
  -7  -2  -9 124.696 11.3365   7
  -7  -2  -9 137.494 11.0945  11
   7   2   9 136.801 13.0098   2
  -8  -2  -9 23.8802 6.97860   7
  -8  -2  -9 24.7715 5.78227   4
  -8  -2  -9 33.5268 6.95708  11
   8   2   9 25.9623 8.34113   2
  -9  -2  -9 514.575 20.6447  11
  -9  -2  -9 532.240 19.1829   4
  -9  -2  -9 519.927 21.8935   7
   9   2   9 496.820 23.9304   2
   4  -3  -9 16.6874 6.73355   1
  -4   3   9 3.59272 6.22767  12
  -4   3   9 8.29471 5.89273  13
   3  -3  -9 51.6984 8.08717   6
   3  -3  -9 75.5231 9.29128   1
  -3   3   9 65.5441 8.97392  12
  -3   3   9 63.1270 8.65898  13
   2  -3  -9 1238.36 34.3139   1
   2  -3  -9 1209.75 33.3279   6
  -2   3   9 1164.37 32.7786  13
  -2   3   9 1251.43 34.0366  12
   1  -3  -9 81.2054 8.02371   6
   1  -3  -9 89.0549 8.73144   5
   1  -3  -9 93.6509 9.04233   1
  -1   3   9 95.1677 8.63119  13
  -1   3   9 105.506 9.63613  12
   0  -3  -9 264.683 12.6587   5
   0  -3  -9 256.013 13.0200   1
   0  -3  -9 289.955 12.5766   6
   0   3   9 276.164 12.9188  12
   0   3   9 259.939 11.8678  13
  -1  -3  -9 32.4258 4.90174   6
  -1  -3  -9 35.8648 5.80376   1
  -1  -3  -9 37.1988 5.86183   5
   1   3   9 30.5295 5.60430  12
  -2  -3  -9 131.331 10.2696   7
  -2  -3  -9 109.826 7.31768   6
  -2  -3  -9 116.919 9.81007  11
  -2  -3  -9 113.855 8.34656   1
  -2  -3  -9 127.534 8.86145   5
  -3  -3  -9 882.768 21.9566   6
  -3  -3  -9 877.200 22.4414   1
  -3  -3  -9 844.739 24.6981   4
  -3  -3  -9 849.500 25.3389  11
  -3  -3  -9 902.269 24.1925   5
  -3  -3  -9 859.980 26.5123   7
   3   3   9 898.854 23.1008   9
   3   3   9 865.531 25.3528   2
  -4  -3  -9 20.8217 5.21643   5
  -4  -3  -9 17.1873 3.41459   6
  -4  -3  -9 12.8140 4.80339   1
  -4  -3  -9 18.2251 5.09153  11
  -4  -3  -9 20.2034 5.80983   7
  -4  -3  -9 23.8988 5.29501   4
   4   3   9 26.7456 6.33333   2
   4   3   9 23.4793 4.44603   9
  -5  -3  -9 165.213 11.8721   7
  -5  -3  -9 191.699 11.0718   4
  -5  -3  -9 182.596 11.3806  11
   5   3   9 192.172 12.8661   2
   5   3   9 189.402 9.51285   9
  -6  -3  -9 14.6305 5.55300  11
  -6  -3  -9 5.03611 5.21733   7
  -6  -3  -9 12.3861 5.10409   4
   6   3   9 16.5419 7.07509   2
   6   3   9 4.56903 3.99018   9
  -7  -3  -9 14.5274 5.99823  11
  -7  -3  -9 17.1821 5.39399   4
  -7  -3  -9 20.9312 6.59525   7
   7   3   9 14.1537 7.37744   2
   7   3   9 15.4162 5.64758   9
  -8  -3  -9 3.11086 5.09259  11
  -8  -3  -9 -2.4712 4.25277   4
  -8  -3  -9 5.52043 5.80728   7
   8   3   9 -3.8428 7.11341   2
  -9  -3  -9 -12.022 4.73686  11
  -9  -3  -9 5.58329 6.15559   7
   9   3   9 0.69575 7.67427   2
   4  -4  -9 145.438 13.3127   1
  -4   4   9 179.739 13.9410  12
  -4   4   9 166.496 13.4101  13
   3  -4  -9 313.892 17.2990   1
  -3   4   9 287.264 15.3790  13
  -3   4   9 316.888 16.1468  12
   2  -4  -9 34.4271 6.82359   5
   2  -4  -9 43.7929 7.91393   1
  -2   4   9 41.3517 6.88209  13
  -2   4   9 40.9217 7.10537  12
   1  -4  -9 34.1215 6.08187   6
   1  -4  -9 28.8366 6.33259   5
   1  -4  -9 34.3955 6.81601   1
  -1   4   9 21.4157 5.69041  12
  -1   4   9 29.3525 5.68029  13
   0  -4  -9 74.5453 8.30303   5
   0  -4  -9 74.0513 8.20149   1
   0  -4  -9 90.1824 7.77304   6
   0   4   9 68.9104 6.88479  13
   0   4   9 79.0583 7.91929  12
  -1  -4  -9 198.142 11.1993   5
  -1  -4  -9 168.455 8.99968   6
  -1  -4  -9 192.216 10.9746   1
  -1  -4  -9 171.321 11.2758  11
   1   4   9 200.486 9.17676  13
   1   4   9 177.122 10.1451  12
  -2  -4  -9 326.748 14.4000   5
  -2  -4  -9 343.417 11.7291   6
  -2  -4  -9 367.460 15.9248   7
  -2  -4  -9 366.880 14.6254   4
  -2  -4  -9 355.741 15.1620  11
  -2  -4  -9 372.790 13.9832   1
   2   4   9 352.170 13.5046  13
   2   4   9 362.039 14.3730   2
   2   4   9 359.420 13.8326  12
  -3  -4  -9 76.4638 7.94445   4
  -3  -4  -9 69.4222 7.59222   5
  -3  -4  -9 70.2867 6.71208   1
  -3  -4  -9 60.4657 7.58175  11
  -3  -4  -9 66.2821 8.14223   7
   3   4   9 70.7960 7.77871   2
   3   4   9 63.3235 6.68832   9
  -4  -4  -9 68.7257 7.53582   4
  -4  -4  -9 67.1467 8.31357   7
  -4  -4  -9 82.6195 8.63870  11
   4   4   9 81.0658 8.50867   2
   4   4   9 88.5318 7.64123   9
  -5  -4  -9 377.473 15.9586   4
  -5  -4  -9 418.721 17.8802   7
  -5  -4  -9 389.790 16.4397  11
   5   4   9 374.870 16.7554   2
   5   4   9 376.250 14.4530   9
  -6  -4  -9 9.08210 5.30972  11
  -6  -4  -9 6.04985 4.70708   4
  -6  -4  -9 12.8610 5.80068   7
   6   4   9 4.69799 4.36418   9
   6   4   9 13.5979 6.82026   2
  -7  -4  -9 963.743 27.7297   4
  -7  -4  -9 895.832 29.6613   7
  -7  -4  -9 888.487 28.0973  11
   7   4   9 889.590 28.6516   2
   7   4   9 876.739 25.5029   9
  -8  -4  -9 111.744 11.8451   7
  -8  -4  -9 112.679 11.0313  11
  -8  -4  -9 103.729 10.2223   4
   8   4   9 106.439 9.61358   9
   8   4   9 105.640 11.7605   2
   3  -5  -9 431.577 19.3363   5
   3  -5  -9 446.069 20.5082   1
  -3   5   9 407.385 18.0800  13
  -3   5   9 408.699 18.3323  12
   2  -5  -9 253.222 14.3397   5
   2  -5  -9 233.383 14.6720   1
  -2   5   9 241.616 13.1783  13
  -2   5   9 257.573 13.6741  12
   1  -5  -9 14.1421 6.04985   1
   1  -5  -9 3.85833 5.33068   5
  -1   5   9 7.57627 4.56069  12
  -1   5   9 19.5778 5.48621  13
   0  -5  -9 169.209 11.9816   1
   0  -5  -9 158.246 11.7007   5
   0   5   9 171.475 9.60610  13
   0   5   9 185.149 10.3981  12
  -1  -5  -9 127.017 10.4575   1
  -1  -5  -9 113.556 9.79022  11
  -1  -5  -9 117.521 9.42804   4
  -1  -5  -9 140.112 10.4266   7
  -1  -5  -9 132.774 10.3160   5
   1   5   9 125.481 8.56991  12
  -2  -5  -9 4.23298 4.58761   1
  -2  -5  -9 -0.1877 4.39645   7
  -2  -5  -9 -1.0715 4.67808   5
  -2  -5  -9 2.53261 4.11798   4
  -2  -5  -9 -2.6354 4.13364  11
   2   5   9 -0.0720 3.78794   2
   2   5   9 5.25115 3.31475  12
  -3  -5  -9 89.5363 9.12375  11
  -3  -5  -9 88.7030 8.19880   1
  -3  -5  -9 86.5453 8.67166   4
  -3  -5  -9 76.4806 8.92073   7
  -3  -5  -9 78.0977 8.79903   5
   3   5   9 86.0261 8.31651   2
   3   5   9 87.8829 6.48501   3
   3   5   9 94.2358 8.42842   9
  -4  -5  -9 174.568 11.0445   4
  -4  -5  -9 153.597 11.9979   7
  -4  -5  -9 170.993 11.5202  11
   4   5   9 165.183 10.7535   9
   4   5   9 168.249 11.2160   2
  -5  -5  -9 99.8652 9.43130   4
  -5  -5  -9 119.441 11.6620   7
  -5  -5  -9 97.1253 9.91105  11
   5   5   9 101.747 9.12443   9
   5   5   9 117.290 10.1278   2
  -6  -5  -9 363.552 17.0517  11
  -6  -5  -9 346.240 17.5210   7
  -6  -5  -9 343.909 15.8123   4
   6   5   9 345.579 15.2750   9
   6   5   9 371.123 16.9065   2
  -7  -5  -9 269.922 14.4088   4
  -7  -5  -9 264.192 16.2648   7
  -7  -5  -9 277.133 15.2454  11
   7   5   9 253.623 13.6909   9
   7   5   9 248.795 15.1898   2
  -8  -5  -9 31.8258 7.79706  11
  -8  -5  -9 39.5999 8.80498   7
  -8  -5  -9 27.4697 7.00752   4
   8   5   9 27.3849 6.78982   9
   8   5   9 16.6121 7.82784   2
   2  -6  -9 366.138 17.9806   5
   2  -6  -9 327.811 17.6797   1
  -2   6   9 352.989 15.9090  12
  -2   6   9 329.804 15.9964  13
   1  -6  -9 26.1516 7.19909   1
   1  -6  -9 31.6173 7.10147   5
  -1   6   9 37.0533 7.20348  12
   0  -6  -9 59.5535 8.47707   1
   0  -6  -9 53.3175 8.35087   5
   0  -6  -9 57.2848 7.28465   4
   0   6   9 69.0908 7.06419   8
  -1  -6  -9 401.098 16.9661   7
  -1  -6  -9 387.517 16.0562   4
  -1  -6  -9 391.778 17.2317   1
  -1  -6  -9 396.814 17.1797   5
  -1  -6  -9 382.256 16.4265  11
  -2  -6  -9 242.322 13.2182  11
  -2  -6  -9 236.253 13.3681   7
  -2  -6  -9 218.217 13.1215   1
  -2  -6  -9 222.840 12.6243   4
  -2  -6  -9 224.663 13.3124   5
   2   6   9 226.492 11.1632   2
  -3  -6  -9 84.3630 9.56232   5
  -3  -6  -9 73.7583 8.41532   4
  -3  -6  -9 96.9578 9.23766  11
  -3  -6  -9 60.3517 8.37168   7
   3   6   9 83.7380 8.86839   9
   3   6   9 82.9921 8.10397   2
  -4  -6  -9 77.4333 8.77988  11
  -4  -6  -9 79.9267 9.54017   7
  -4  -6  -9 69.4973 8.16789   4
   4   6   9 64.3835 6.76791   3
   4   6   9 60.3161 7.95744   9
   4   6   9 61.2082 8.03491   2
  -5  -6  -9 5.89179 5.38883  11
  -5  -6  -9 23.3897 6.94773   7
  -5  -6  -9 8.09614 5.53481   4
   5   6   9 11.4670 6.03223   2
   5   6   9 12.5885 5.35344   9
  -6  -6  -9 40.2233 7.97200  11
  -6  -6  -9 42.7946 8.52223   7
  -6  -6  -9 40.7647 7.37224   4
   6   6   9 43.9351 7.53707   9
   6   6   9 34.0598 8.50433   2
  -7  -6  -9 234.498 15.9355   7
  -7  -6  -9 222.035 14.0683   4
  -7  -6  -9 219.844 14.6296  11
   7   6   9 218.582 14.1036   9
   1  -7  -9 208.680 15.3203   1
   1  -7  -9 227.567 15.1381   5
  -1   7   9 214.501 12.7395   8
   0  -7  -9 158.586 10.8229   4
   0  -7  -9 154.968 13.0498   5
   0  -7  -9 159.507 13.4388   1
   0   7   9 160.703 11.3729   8
  -1  -7  -9 221.802 14.2031   1
  -1  -7  -9 223.821 12.8386  11
  -1  -7  -9 221.066 12.6596   4
  -1  -7  -9 202.026 14.0838   5
  -1  -7  -9 202.503 12.7826   7
  -2  -7  -9 7.99161 6.44078   5
  -2  -7  -9 7.44340 4.67411  11
  -2  -7  -9 3.85336 4.97742   7
  -2  -7  -9 7.14777 5.23289   4
  -2  -7  -9 8.32114 6.06828   1
   2   7   9 6.61232 5.14014   9
  -3  -7  -9 86.7818 9.93938   7
  -3  -7  -9 60.2559 9.21914   5
  -3  -7  -9 50.1036 7.82319  11
  -3  -7  -9 79.1531 8.88529   4
   3   7   9 54.7518 7.93770   9
  -4  -7  -9 300.859 15.3960   4
  -4  -7  -9 261.073 14.8690  11
  -4  -7  -9 285.523 16.2584   7
   4   7   9 312.303 13.0451   3
   4   7   9 299.918 16.0023   9
  -5  -7  -9 345.498 17.4712  11
  -5  -7  -9 365.353 18.8868   7
  -5  -7  -9 379.255 17.5473   4
   5   7   9 346.637 15.2749   3
   5   7   9 388.961 17.8224   9
  -6  -7  -9 102.669 11.6011  11
  -6  -7  -9 84.4960 10.9636   7
  -6  -7  -9 95.7802 10.2097   4
   6   7   9 79.5538 9.77480   9
   6   7   9 93.4025 9.51807   3
  -1  -8  -9 364.252 16.4494  11
  -1  -8  -9 359.137 16.6721   7
  -1  -8  -9 347.175 16.1522   4
  -1  -8  -9 334.925 18.1695   5
  -1  -8  -9 330.248 17.9129   1
  -2  -8  -9 230.170 13.5697  11
  -2  -8  -9 260.237 15.1001   7
  -2  -8  -9 245.159 16.3824   5
  -2  -8  -9 262.523 14.4734   4
   2   8   9 267.155 15.8939   9
  -3  -8  -9 -4.0654 5.31243   4
  -3  -8  -9 9.74101 6.25358   7
  -3  -8  -9 3.63156 5.52571  11
   3   8   9 6.94164 5.90145   9
  -4  -8  -9 140.366 12.0801   4
  -4  -8  -9 128.738 11.6799  11
  -4  -8  -9 140.105 13.1232   7
   4   8   9 146.451 13.2346   9
  -1   6 -10 11.2120 6.34708   6
  -1   6 -10 13.9100 5.23840   3
   1  -6  10 17.6533 6.70821   2
  -2   6 -10 2.71910 4.62038   8
  -2   6 -10 9.03311 6.11813   6
  -2   6 -10 4.10527 5.31326   1
  -2   6 -10 7.74317 4.85477   3
   2  -6  10 1.87804 6.32279   2
  -3   6 -10 4.49454 4.80386   3
  -3   6 -10 1.51228 5.44465   8
  -3   6 -10 6.05947 6.38899   6
   3  -6  10 -0.5852 6.84831   2
   1   5 -10 57.8592 9.05037   1
   1   5 -10 61.6712 8.03943   8
   1   5 -10 86.0896 10.8873   6
  -1  -5  10 55.9331 9.30715  12
   0   5 -10 153.337 12.3157   1
   0   5 -10 174.042 14.0704   6
   0   5 -10 161.929 11.0617   8
   0  -5  10 161.310 13.8519  12
  -1   5 -10 206.343 11.9503   8
  -1   5 -10 240.789 12.0778   3
  -1   5 -10 226.923 13.2121   1
  -1   5 -10 234.013 15.3614   6
  -2   5 -10 121.018 9.94720   3
  -2   5 -10 103.427 9.47971   1
  -2   5 -10 111.230 11.4414   6
  -2   5 -10 99.6320 8.60407   8
   2  -5  10 97.4196 10.5070   2
  -3   5 -10 198.241 12.0241   3
  -3   5 -10 214.115 15.0944   6
   3  -5  10 217.159 14.9501   2
  -4   5 -10 31.0159 6.47760   3
  -4   5 -10 19.8871 6.78393   6
   4  -5  10 11.1974 7.63730   2
  -5   5 -10 29.8974 7.65320   6
  -5   5 -10 27.4394 6.61008   3
   5  -5  10 25.1615 9.08651   2
   2   4 -10 13.7979 6.57336   6
   2   4 -10 20.3243 5.90071   8
   2   4 -10 28.9659 7.23420   1
  -2  -4  10 8.95590 6.20718  12
   1   4 -10 607.803 21.1198   8
   1   4 -10 616.481 24.4063   6
   1   4 -10 625.038 23.0357   1
  -1  -4  10 619.653 24.1551  12
   0   4 -10 428.935 17.7820   1
   0   4 -10 389.725 15.7220   8
   0   4 -10 420.002 19.7787   6
   0  -4  10 405.122 19.2484  12
  -1   4 -10 279.432 12.3934   3
  -1   4 -10 291.074 13.9920   1
  -1   4 -10 296.932 16.2944   6
  -1   4 -10 314.898 13.1039   8
  -2   4 -10 38.4168 5.91243   1
  -2   4 -10 38.6519 5.64961   3
  -2   4 -10 35.8656 5.31453   8
  -2   4 -10 25.6323 6.54320   6
   2  -4  10 40.1130 7.74587   2
  -3   4 -10 85.3440 10.5559   6
  -3   4 -10 77.8535 7.99345   3
   3  -4  10 72.7441 9.80384   2
  -4   4 -10 5.88766 4.23465   3
  -4   4 -10 3.61023 5.15558   6
   4  -4  10 7.91808 6.31291   2
  -5   4 -10 66.6522 9.44115   6
  -5   4 -10 43.8309 7.16877   3
   5  -4  10 46.7251 9.55591   2
  -6   4 -10 -6.3853 5.04502   6
   6  -4  10 -4.5535 7.51160   2
   2   3 -10 -7.2721 4.91707   6
   2   3 -10 -1.2650 5.07794   1
  -2  -3  10 4.88267 5.39901  12
   1   3 -10 7.55541 4.08538   8
   1   3 -10 5.25791 5.26851   6
   1   3 -10 5.70687 5.04236   1
  -1  -3  10 4.69152 5.41987  12
   0   3 -10 31.3811 6.37787   1
   0   3 -10 35.2537 7.17325   6
   0   3 -10 37.7496 5.48655   8
   0  -3  10 39.9687 7.64483  12
  -1   3 -10 174.828 12.6499   6
  -1   3 -10 189.281 9.31521   3
  -1   3 -10 176.504 10.7957   1
  -1   3 -10 191.788 9.69547   8
  -2   3 -10 54.5877 8.23504   6
  -2   3 -10 63.1726 6.53571   3
  -2   3 -10 59.6594 6.78655   1
  -2   3 -10 53.6806 5.91823   8
   2  -3  10 59.5228 8.42736   2
  -3   3 -10 -3.7450 4.45738   6
  -3   3 -10 0.50736 3.51692   3
   3  -3  10 6.83627 5.84551   2
  -4   3 -10 55.9551 8.08885   6
   4  -3  10 52.2103 8.71754   2
  -5   3 -10 46.4615 7.67224   6
   5  -3  10 50.4514 9.28154   2
  -6   3 -10 47.6609 8.26301   6
   6  -3  10 47.4906 10.1583   2
  -7   3 -10 320.531 17.3476   6
   7  -3  10 319.317 20.8694   2
   3   2 -10 -9.3142 4.82930   6
   3   2 -10 -0.8514 5.52827   1
  -3  -2  10 0.64423 5.60035  12
   2   2 -10 0.46157 5.13384   1
   2   2 -10 3.60857 5.12377   6
  -2  -2  10 6.29240 5.39542  12
   1   2 -10 6.97806 5.01775   1
   1   2 -10 3.63709 4.94682   6
  -1  -2  10 6.88218 4.96893  12
   0   2 -10 33.1728 6.25985   1
   0   2 -10 27.8573 6.54989   6
   0  -2  10 21.6640 6.32047  12
  -1   2 -10 43.2696 6.30117   1
  -1   2 -10 28.4453 6.36553   6
  -2   2 -10 1490.70 35.6806   1
  -2   2 -10 1487.15 39.4714   6
  -3   2 -10 -2.9483 4.09915   6
   3  -2  10 0.53871 5.26076   2
  -4   2 -10 122.794 10.2677   6
   4  -2  10 108.858 11.0583   2
  -5   2 -10 241.296 13.6072   6
   5  -2  10 209.469 15.5908   2
  -6   2 -10 72.4536 8.98515   6
   6  -2  10 59.8069 10.6320   2
  -7   2 -10 15.4761 6.29568   6
   7  -2  10 27.5204 9.32514   2
   3   1 -10 35.0977 7.63292   1
   3   1 -10 21.1665 7.09105   6
  -3  -1  10 27.4046 7.48191  12
   2   1 -10 27.7306 6.81729   1
   2   1 -10 31.6843 7.10889   6
  -2  -1  10 29.6988 7.15579  12
   1   1 -10 6.41625 5.01177   6
   1   1 -10 6.07044 4.89022   1
  -1  -1  10 1.55866 4.68364  12
   0   1 -10 51.6739 6.92459   1
   0   1 -10 32.2728 6.50268   6
   0  -1  10 49.3451 7.74382  12
  -1   1 -10 636.766 22.3431   6
  -1   1 -10 701.291 20.9099   1
  -1   1 -10 667.890 18.7913   5
  -2   1 -10 40.5124 6.53652   6
  -2   1 -10 41.9946 4.79930   5
  -2   1 -10 57.5578 6.17525   1
  -3   1 -10 628.201 21.0613   6
   3  -1  10 606.326 22.2541   2
  -4   1 -10 82.8650 8.98520   6
   4  -1  10 97.3679 10.9191   2
  -5   1 -10 15.7438 5.30088   6
   5  -1  10 0.73890 6.12825   2
  -6   1 -10 2286.78 54.6644   6
  -6   1 -10 2354.28 54.2126  11
   6  -1  10 2322.56 58.5608   2
  -7   1 -10 -5.6183 4.29073   6
  -7   1 -10 1.37491 4.23307  11
   7  -1  10 -1.1958 7.24592   2
  -8   1 -10 178.436 13.1958   6
  -8   1 -10 191.080 11.7378  11
   8  -1  10 190.452 16.4162   2
   3   0 -10 69.3558 9.58867   6
   3   0 -10 93.6879 10.8825   1
  -3   0  10 99.4390 11.4051  12
  -3   0  10 97.0100 10.8684  13
   2   0 -10 86.1288 9.70703   6
   2   0 -10 100.503 10.5324   1
  -2   0  10 88.6313 10.2844  12
   1   0 -10 80.2755 9.02968   6
   1   0 -10 79.5807 8.86096   1
  -1   0  10 72.1936 9.02874  12
   0   0 -10 16.0586 5.53618   6
   0   0 -10 17.5869 5.16736   1
   0   0  10 11.9560 5.37267  12
  -1   0 -10 352.244 15.2830   6
  -1   0 -10 345.415 12.8758   5
  -1   0 -10 361.011 14.1725   1
  -2   0 -10 5.83073 3.46778   1
  -2   0 -10 2.24766 3.31546   5
  -2   0 -10 6.05458 4.32151   6
  -3   0 -10 2073.78 47.1521   1
  -3   0 -10 1955.05 46.1054   6
  -3   0 -10 1869.59 42.0757   5
   3   0  10 1879.80 47.7752   2
  -4   0 -10 11.3117 4.67765   6
   4   0  10 10.7452 6.14661   2
  -5   0 -10 845.541 24.5359   6
  -5   0 -10 806.845 25.2246  11
   5   0  10 844.303 28.1978   2
  -6   0 -10 1296.80 34.0204   6
  -6   0 -10 1297.19 34.6658  11
   6   0  10 1288.83 38.0521   2
  -7   0 -10 148.316 12.9572   7
  -7   0 -10 147.400 11.0001  11
  -7   0 -10 141.357 10.6315   6
   7   0  10 136.540 14.2032   2
  -8   0 -10 42.9502 7.32317   6
  -8   0 -10 51.5537 8.52826   7
  -8   0 -10 40.8954 6.95815  11
   8   0  10 46.0990 10.9019   2
   3  -1 -10 -0.7144 5.46794   6
   3  -1 -10 0.49356 5.30477   1
  -3   1  10 0.61734 5.67712  12
  -3   1  10 3.91403 5.28311  13
   2  -1 -10 5.79702 5.35396   6
   2  -1 -10 -3.0364 4.28802   1
  -2   1  10 4.53462 4.97545  13
  -2   1  10 12.3039 5.74775  12
   1  -1 -10 188.463 12.3333   6
   1  -1 -10 227.030 12.9467   1
  -1   1  10 192.099 12.8795  12
   0  -1 -10 903.957 25.0656   5
   0  -1 -10 880.904 26.4910   6
   0  -1 -10 897.336 26.0879   1
   0   1  10 889.519 27.3386  12
  -1  -1 -10 434.214 15.1985   5
  -1  -1 -10 448.581 15.9113   1
  -1  -1 -10 428.288 16.5472   6
   1   1  10 420.930 17.6664  12
  -2  -1 -10 270.057 11.5476   5
  -2  -1 -10 293.429 12.9294   6
  -2  -1 -10 277.748 11.5555   1
  -3  -1 -10 24.2601 4.59055   5
  -3  -1 -10 23.2230 4.96174   6
  -3  -1 -10 25.7107 4.15888   1
   3   1  10 27.4344 6.80349   2
  -4  -1 -10 121.483 8.79931   6
  -4  -1 -10 125.822 8.22631   5
  -4  -1 -10 161.818 11.0622  11
   4   1  10 122.832 11.0965   2
  -5  -1 -10 385.902 14.6546   6
  -5  -1 -10 381.351 17.4527   7
  -5  -1 -10 393.710 16.2852  11
   5   1  10 397.405 18.7418   2
  -6  -1 -10 317.113 13.2709   6
  -6  -1 -10 301.793 14.5547  11
  -6  -1 -10 312.140 16.4026   7
   6   1  10 304.422 17.5247   2
  -7  -1 -10 226.931 14.6007   7
  -7  -1 -10 206.580 12.8820  11
  -7  -1 -10 206.703 11.2762   6
   7   1  10 212.582 16.6712   2
  -8  -1 -10 95.5470 10.0623  11
  -8  -1 -10 94.7653 10.8868   7
   8   1  10 113.656 13.8059   2
   3  -2 -10 441.620 20.0019   1
   3  -2 -10 389.564 18.9005   6
  -3   2  10 395.945 19.1879  12
  -3   2  10 397.500 18.7444  13
   2  -2 -10 0.32924 4.85848   1
   2  -2 -10 6.44090 5.15545   6
  -2   2  10 7.91624 5.52546  12
  -2   2  10 2.04222 4.95027  13
   1  -2 -10 831.923 25.9596   6
   1  -2 -10 808.968 25.7643   1
  -1   2  10 836.333 26.5759  12
  -1   2  10 784.418 25.2086  13
   0  -2 -10 140.818 10.3486   1
   0  -2 -10 139.147 10.0315   6
   0  -2 -10 142.105 9.95585   5
   0   2  10 143.762 10.9571  12
  -1  -2 -10 124.555 9.31420   1
  -1  -2 -10 112.797 8.89087   5
  -1  -2 -10 121.035 9.03579   6
   1   2  10 131.361 10.8256  12
  -2  -2 -10 11.4868 4.49002   5
  -2  -2 -10 5.51825 3.84373   6
  -2  -2 -10 9.74252 4.08324   1
  -3  -2 -10 24.2235 4.64599   6
  -3  -2 -10 18.3076 5.27012  11
  -3  -2 -10 23.0536 4.06544   1
  -3  -2 -10 15.1991 4.64479   5
   3   2  10 20.9189 6.08080   2
  -4  -2 -10 316.895 14.9844  11
  -4  -2 -10 319.500 12.9679   5
  -4  -2 -10 341.405 16.3612   7
  -4  -2 -10 328.574 12.6141   6
   4   2  10 321.856 16.0655   2
  -5  -2 -10 371.486 16.0466  11
  -5  -2 -10 374.426 13.4859   6
  -5  -2 -10 389.464 17.9814   7
   5   2  10 361.947 17.5855   2
  -6  -2 -10 651.697 22.4419  11
  -6  -2 -10 657.111 21.8243   4
  -6  -2 -10 632.322 23.5352   7
   6   2  10 635.642 24.6502   2
  -7  -2 -10 623.956 21.5643   4
  -7  -2 -10 594.471 21.8011  11
  -7  -2 -10 618.064 23.3486   7
   7   2  10 612.202 24.5571   2
  -8  -2 -10 4.14473 5.17832   4
  -8  -2 -10 -0.3189 5.37996   7
  -8  -2 -10 -0.3256 5.09697  11
   8   2  10 -7.2546 7.21831   2
   3  -3 -10 280.138 16.8526   1
   3  -3 -10 324.522 17.2729   6
  -3   3  10 316.835 16.4763  13
  -3   3  10 322.565 17.2905  12
   2  -3 -10 42.8608 7.54824   6
   2  -3 -10 47.7921 7.97304   1
  -2   3  10 58.3554 8.32409  13
  -2   3  10 59.9673 8.65589  12
   1  -3 -10 909.308 27.6788   5
   1  -3 -10 900.569 28.4025   1
   1  -3 -10 957.584 27.8133   6
  -1   3  10 954.169 27.4953  13
  -1   3  10 939.168 28.7064  12
   0  -3 -10 434.421 17.5378   1
   0  -3 -10 446.976 17.3076   5
   0  -3 -10 440.708 16.7787   6
   0   3  10 443.225 16.4161  13
   0   3  10 435.241 17.5379  12
  -1  -3 -10 389.669 14.9370   6
  -1  -3 -10 417.036 16.1646   1
  -1  -3 -10 418.055 16.1180   5
   1   3  10 400.979 16.2193  12
   1   3  10 411.137 14.8970  13
  -2  -3 -10 21.1241 4.94904   1
  -2  -3 -10 25.2910 4.66858   6
  -2  -3 -10 28.4756 5.55915   5
   2   3  10 20.3444 5.26927  12
  -3  -3 -10 17.6489 5.60911  11
  -3  -3 -10 14.3033 3.72665   6
  -3  -3 -10 15.2894 5.23138   5
  -3  -3 -10 12.1928 4.08610   1
  -3  -3 -10 12.5847 5.51141   7
   3   3  10 15.8766 5.84895   2
   3   3  10 20.4996 4.37718   9
  -4  -3 -10 458.479 16.5571   5
  -4  -3 -10 437.874 18.9826   7
  -4  -3 -10 435.431 17.2213   4
  -4  -3 -10 445.577 17.6326  11
   4   3  10 474.757 15.8903   9
   4   3  10 418.591 18.0141   2
  -5  -3 -10 116.715 10.4668  11
  -5  -3 -10 129.491 10.5623   4
  -5  -3 -10 136.289 11.0586   7
   5   3  10 120.898 11.3848   2
  -6  -3 -10 31.9600 7.24103   7
  -6  -3 -10 29.8511 6.30694   4
  -6  -3 -10 17.1350 6.13879  11
   6   3  10 45.2544 8.70759   2
  -7  -3 -10 390.102 17.6876  11
  -7  -3 -10 381.667 16.5634   4
  -7  -3 -10 375.338 18.6594   7
   7   3  10 331.956 18.8626   2
  -8  -3 -10 148.010 13.6337   7
  -8  -3 -10 150.705 11.8675   4
  -8  -3 -10 120.316 11.6195  11
   8   3  10 140.066 14.1863   2
   2  -4 -10 182.106 12.7934   5
   2  -4 -10 184.555 13.8109   1
  -2   4  10 186.657 13.2515  12
  -2   4  10 156.917 11.4841  13
   1  -4 -10 122.585 11.3296   1
   1  -4 -10 128.124 10.5700   6
   1  -4 -10 104.455 10.1219   5
  -1   4  10 132.568 10.7012  13
  -1   4  10 136.453 10.9732  12
   0  -4 -10 1184.64 32.9967   5
   0  -4 -10 1217.09 33.4425   1
   0  -4 -10 1236.22 31.6662   6
   0   4  10 1192.69 31.1412  13
   0   4  10 1179.88 32.5299  12
  -1  -4 -10 451.485 17.7851   5
  -1  -4 -10 438.618 15.4103   6
  -1  -4 -10 454.066 17.5429   1
   1   4  10 443.824 16.9987  12
   1   4  10 456.639 18.1989  13
  -2  -4 -10 29.1323 5.69462   1
  -2  -4 -10 24.1588 6.06658   5
  -2  -4 -10 21.9562 6.14057  11
   2   4  10 33.4727 5.95076   2
   2   4  10 26.4705 5.48005  12
  -3  -4 -10 328.953 14.5999   4
  -3  -4 -10 275.696 15.4555   7
  -3  -4 -10 312.340 12.7348   1
  -3  -4 -10 309.364 14.1241   5
  -3  -4 -10 301.399 14.8094  11
   3   4  10 286.191 14.1986   2
   3   4  10 304.644 12.9340   9
  -4  -4 -10 11.7363 5.23754  11
  -4  -4 -10 3.51556 4.83424   7
  -4  -4 -10 -4.0174 4.99528   5
  -4  -4 -10 3.52734 4.86918   4
   4   4  10 -6.4408 4.90333   2
   4   4  10 4.41997 4.12848   9
  -5  -4 -10 187.765 13.3849   7
  -5  -4 -10 180.274 11.9760   4
  -5  -4 -10 184.406 12.2497  11
   5   4  10 177.887 13.0938   2
   5   4  10 180.306 10.3904   9
  -6  -4 -10 13.5242 5.66335  11
  -6  -4 -10 -1.6390 5.04250   7
  -6  -4 -10 16.6725 5.84293   4
   6   4  10 -6.0837 6.00176   2
  -7  -4 -10 28.9927 6.75256   4
  -7  -4 -10 28.1715 7.28760   7
  -7  -4 -10 30.3808 7.47082  11
   7   4  10 37.2651 9.01213   2
   2  -5 -10 124.459 12.0174   5
   2  -5 -10 113.980 11.9724   1
  -2   5  10 113.242 10.9589  12
  -2   5  10 113.359 10.5166  13
   1  -5 -10 255.113 14.8869   5
   1  -5 -10 284.992 15.6485   1
  -1   5  10 278.611 19.2459  13
  -1   5  10 269.054 14.0554  12
   0  -5 -10 112.985 10.7400   1
   0  -5 -10 112.767 11.1031   5
   0   5  10 124.776 9.81358  12
  -1  -5 -10 710.601 23.5747   5
  -1  -5 -10 707.428 23.2150   1
   1   5  10 680.730 21.7349  12
  -2  -5 -10 -7.3400 4.26362   4
  -2  -5 -10 4.37244 4.82497  11
  -2  -5 -10 7.72739 5.44985   7
  -2  -5 -10 -4.7803 4.84905   5
  -2  -5 -10 1.93813 4.46292   1
   2   5  10 0.06681 4.09486   2
   2   5  10 -2.2628 3.53614  12
  -3  -5 -10 126.603 10.8973   4
  -3  -5 -10 165.686 11.9582   5
  -3  -5 -10 131.391 10.3140   1
  -3  -5 -10 151.286 11.6327  11
  -3  -5 -10 151.636 12.1289   7
   3   5  10 141.010 9.32706  12
   3   5  10 141.563 10.6981   2
   3   5  10 135.833 10.0180   9
  -4  -5 -10 192.011 13.0293  11
  -4  -5 -10 206.416 12.9257   4
  -4  -5 -10 173.840 13.0318   7
   4   5  10 192.824 11.5182   9
   4   5  10 194.106 12.7018   2
  -5  -5 -10 238.524 13.6812   4
  -5  -5 -10 231.823 14.5422   7
  -5  -5 -10 239.722 14.2498  11
   5   5  10 194.412 13.7398   2
   5   5  10 210.541 12.2578   9
  -6  -5 -10 92.6594 11.1953   7
  -6  -5 -10 117.941 10.7215   4
  -6  -5 -10 122.356 11.6044  11
   6   5  10 93.7620 9.03816   9
   6   5  10 90.0832 10.4709   2
  -7  -5 -10 164.039 13.4345  11
  -7  -5 -10 165.639 13.7366   7
  -7  -5 -10 166.392 13.0058   4
   7   5  10 152.442 13.4396   2
   7   5  10 179.803 15.1494   9
   1  -6 -10 37.0133 8.34089   5
   1  -6 -10 40.1567 8.57295   1
   0  -6 -10 3.85324 5.93141   1
   0  -6 -10 -7.3131 5.57619   5
  -1  -6 -10 312.576 15.1042   4
  -1  -6 -10 316.873 15.9127   1
  -1  -6 -10 317.223 16.2638   5
  -2  -6 -10 129.542 11.8027   5
  -2  -6 -10 133.921 11.4983  11
  -2  -6 -10 111.844 10.2505   4
  -2  -6 -10 117.939 11.4115   7
  -2  -6 -10 113.246 10.1826   1
   2   6  10 104.613 9.60846   2
   2   6  10 111.605 10.3042   9
  -3  -6 -10 180.901 13.1451   4
  -3  -6 -10 151.741 11.9328  11
  -3  -6 -10 158.100 12.5274   7
  -3  -6 -10 147.577 12.5195   5
   3   6  10 153.981 11.3035   9
   3   6  10 155.093 14.2320   2
  -4  -6 -10 521.221 20.5628  11
  -4  -6 -10 533.036 20.6066   4
  -4  -6 -10 539.475 22.1513   7
   4   6  10 517.112 19.9467   9
  -5  -6 -10 202.568 13.4195   4
  -5  -6 -10 146.478 13.4469   7
  -5  -6 -10 188.671 13.4029  11
   5   6  10 204.471 12.8223   9
   5   6  10 191.563 11.6928   3
  -6  -6 -10 546.239 22.5409  11
  -6  -6 -10 547.768 21.4945   4
  -6  -6 -10 595.337 24.4005   7
   6   6  10 602.230 21.6209   9
  -1  -7 -10 273.574 14.3028   4
  -1  -7 -10 277.149 16.0850   1
  -1  -7 -10 252.230 14.7908  11
  -1  -7 -10 262.879 16.4422   5
  -2  -7 -10 984.432 29.3727   4
  -2  -7 -10 929.847 29.4604  11
  -2  -7 -10 978.849 30.7902   7
  -2  -7 -10 927.401 30.1022   5
  -2  -7 -10 969.455 29.7030   1
   2   7  10 956.786 30.1958   9
  -3  -7 -10 163.670 12.8261   4
  -3  -7 -10 167.110 14.0994   5
  -3  -7 -10 172.631 12.7322  11
  -3  -7 -10 169.783 13.4425   7
   3   7  10 182.189 13.0908   9
  -4  -7 -10 19.2531 6.75294   4
  -4  -7 -10 15.7575 6.96033   7
  -4  -7 -10 20.7294 7.01011  11
   4   7  10 14.5856 6.40801   9
  -1   4 -11 300.350 15.1663   1
  -1   4 -11 315.304 17.8511   6
   1  -4  11 337.055 18.1863  12
  -2   4 -11 584.371 23.6358   6
   2  -4  11 563.061 23.3100   2
  -3   4 -11 56.0206 8.92364   6
  -3   4 -11 65.3364 7.68257   3
   3  -4  11 63.7484 10.2463   2
  -4   4 -11 132.823 10.2893   3
  -4   4 -11 123.852 12.7587   6
   4  -4  11 127.400 13.2044   2
   1   3 -11 134.667 12.9911   6
   0   3 -11 509.617 21.7627   6
   0   3 -11 474.398 19.3628   1
   0  -3  11 483.331 21.5634  12
  -1   3 -11 47.9591 7.16101   1
  -1   3 -11 50.2566 8.65039   6
   1  -3  11 41.5187 8.36284  12
  -2   3 -11 25.3949 6.67237   1
  -2   3 -11 20.0723 6.56620   6
   2  -3  11 15.0448 6.47284   2
  -3   3 -11 14.0021 5.92379   6
   3  -3  11 0.82037 5.99678   2
  -4   3 -11 134.264 12.4522   6
   4  -3  11 142.863 13.9209   2
  -5   3 -11 2.98429 5.25326   6
   5  -3  11 0.63967 7.47017   2
   1   2 -11 48.1412 7.94414   1
   1   2 -11 53.9497 8.77873   6
  -1  -2  11 54.3630 9.08952  12
   0   2 -11 30.4530 6.98081   6
   0   2 -11 12.9879 5.65708   1
   0  -2  11 20.0974 6.57519  12
  -1   2 -11 9.81907 5.51678   6
  -1   2 -11 15.8353 5.22437   1
   1  -2  11 20.8287 6.03753  12
  -2   2 -11 18.7263 6.18167   6
  -2   2 -11 17.7485 4.77114   1
   2  -2  11 27.2131 6.94390   2
  -3   2 -11 112.877 10.7502   6
   3  -2  11 145.194 13.0392   2
  -4   2 -11 120.441 10.9212   6
   4  -2  11 148.440 13.2479   2
  -5   2 -11 170.902 12.3122   6
   5  -2  11 141.248 13.5530   2
  -6   2 -11 160.421 12.7332   6
   6  -2  11 150.510 14.9139   2
   2   1 -11 30.7887 7.77120   1
   2   1 -11 36.0206 8.11708   6
   1   1 -11 5.28166 5.36575   6
   1   1 -11 -2.1919 4.79195   1
  -1  -1  11 1.93963 5.23872  12
   0   1 -11 9.77567 5.24464   1
   0   1 -11 8.67214 5.46244   6
   0  -1  11 12.7685 6.03528  12
  -1   1 -11 320.777 14.4910   1
  -1   1 -11 330.921 16.0993   6
  -1   1 -11 319.899 12.4995   5
   1  -1  11 336.042 16.9719  12
  -2   1 -11 138.991 9.10405   1
  -2   1 -11 137.785 11.5310   6
  -3   1 -11 150.262 11.5146   6
   3  -1  11 180.411 13.9454   2
  -4   1 -11 193.745 12.2773   6
   4  -1  11 144.564 13.2112   2
  -5   1 -11 -2.7651 4.46605   6
   5  -1  11 -1.7944 6.39955   2
  -6   1 -11 2.57520 4.84887   6
   6  -1  11 -3.9948 7.14512   2
  -7   1 -11 -6.6725 4.46846   6
  -7   1 -11 1.50603 4.80179  11
   7  -1  11 -9.8791 8.10573   2
   2   0 -11 11.2707 6.50450   1
   2   0 -11 7.66821 5.91010   6
  -2   0  11 -2.7075 5.37439  12
   1   0 -11 131.677 12.1700   6
   1   0 -11 150.339 11.7820   1
  -1   0  11 138.515 12.6514  12
   0   0 -11 305.847 14.6393   1
   0   0 -11 312.560 15.5810   6
   0   0  11 309.389 16.3021  12
  -1   0 -11 779.875 24.8820   6
  -1   0 -11 768.519 22.8989   1
  -1   0 -11 716.571 21.2534   5
   1   0  11 703.170 25.4542  12
  -2   0 -11 65.3173 8.10261   6
  -2   0 -11 52.8153 6.40039   1
  -2   0 -11 62.7312 6.44637   5
  -3   0 -11 696.513 23.0199   6
   3   0  11 693.557 24.7302   2
  -4   0 -11 198.267 11.9362   6
   4   0  11 174.861 14.4047   2
  -5   0 -11 795.964 24.5245   6
   5   0  11 779.003 28.2945   2
  -6   0 -11 400.272 17.3888  11
  -6   0 -11 417.841 16.8962   6
   6   0  11 417.301 21.0880   2
  -7   0 -11 103.999 10.4573  11
  -7   0 -11 98.6481 9.80984   6
   7   0  11 115.525 13.9720   2
   2  -1 -11 263.974 16.0816   6
   2  -1 -11 302.176 16.5587   1
  -2   1  11 277.539 16.7001  12
  -2   1  11 263.072 15.3594  13
   1  -1 -11 24.5599 6.51082   6
   1  -1 -11 30.5339 6.82112   1
  -1   1  11 25.3556 6.90347  12
   0  -1 -11 28.9765 6.16932   1
   0  -1 -11 21.6734 6.23949   6
   0  -1 -11 29.1684 6.00867   5
   0   1  11 20.0021 6.51597  12
  -1  -1 -11 17.7623 5.17631   1
  -1  -1 -11 14.9173 5.26119   6
  -1  -1 -11 20.5732 5.20905   5
   1   1  11 24.4086 6.56555  12
  -2  -1 -11 338.736 14.9992   6
  -2  -1 -11 354.742 13.8332   1
  -2  -1 -11 350.957 13.7977   5
  -3  -1 -11 538.776 17.1668   5
  -3  -1 -11 548.264 19.1007   6
   3   1  11 568.366 21.6632   2
  -4  -1 -11 58.9392 7.14206   6
  -4  -1 -11 64.4207 8.67036   5
   4   1  11 58.0134 9.41013   2
  -5  -1 -11 1190.13 31.2221   6
  -5  -1 -11 1196.01 33.5976  11
   5   1  11 1141.51 35.5011   2
  -6  -1 -11 201.780 13.5619   6
  -6  -1 -11 218.682 13.2519  11
   6   1  11 205.657 16.2110   2
  -7  -1 -11 1009.92 30.4710  11
  -7  -1 -11 1019.42 32.7547   7
   7   1  11 1007.55 34.7008   2
   2  -2 -11 45.0635 8.36766   6
   1  -2 -11 258.755 14.6629   6
   1  -2 -11 252.872 14.8697   1
   1  -2 -11 259.676 13.8692   5
  -1   2  11 224.689 13.8428  13
  -1   2  11 271.579 15.3513  12
   0  -2 -11 282.771 14.0135   5
   0  -2 -11 304.074 15.0951   6
   0  -2 -11 310.817 14.9865   1
   0   2  11 309.018 15.7780  12
  -1  -2 -11 977.958 27.8913   1
  -1  -2 -11 1000.40 28.4831   6
  -1  -2 -11 976.417 27.5746   5
   1   2  11 954.223 29.5674  12
  -2  -2 -11 434.590 16.2676   5
  -2  -2 -11 462.874 16.1316   1
  -2  -2 -11 428.718 16.3753   6
   2   2  11 449.033 18.3898  12
  -3  -2 -11 0.93053 4.20694   5
  -3  -2 -11 5.87828 3.84705   6
   3   2  11 10.2012 5.83127   2
  -4  -2 -11 295.318 13.3446   6
  -4  -2 -11 260.964 12.5081   5
  -4  -2 -11 296.695 15.3621  11
   4   2  11 263.862 15.9255   2
  -5  -2 -11 132.622 11.5666  11
   5   2  11 138.262 12.7464   2
  -6  -2 -11 6.73625 6.04863   7
  -6  -2 -11 8.36347 5.46154  11
   6   2  11 0.95338 7.51078   2
  -7  -2 -11 23.1588 6.98295  11
  -7  -2 -11 28.1422 7.60812   7
   7   2  11 17.0416 8.94195   2
   1  -3 -11 1594.53 41.7179   6
   1  -3 -11 1615.81 41.8152   5
   1  -3 -11 1593.84 42.8209   1
  -1   3  11 1617.22 43.1762  12
  -1   3  11 1535.02 41.0983  13
   0  -3 -11 216.083 12.7496   6
   0  -3 -11 219.110 13.2765   5
   0  -3 -11 230.619 13.6443   1
   0   3  11 245.137 13.0327  13
   0   3  11 227.844 13.7919  12
  -1  -3 -11 456.462 17.7485   5
  -1  -3 -11 424.754 17.3829   1
  -1  -3 -11 470.751 17.2325   6
   1   3  11 432.666 18.2034  12
   1   3  11 471.896 16.9081  13
  -2  -3 -11 36.4092 6.48126   5
  -2  -3 -11 43.3370 6.38515   1
  -2  -3 -11 39.9523 6.00317   6
   2   3  11 49.7109 7.50863  12
   2   3  11 38.7524 6.95725   2
  -3  -3 -11 145.722 10.6724   5
  -3  -3 -11 137.464 11.8058  11
   3   3  11 138.334 11.9880   2
  -4  -3 -11 23.1735 6.32275  11
  -4  -3 -11 18.1513 5.80171   5
  -4  -3 -11 33.8575 7.27856   7
   4   3  11 27.0927 7.39152   2
  -5  -3 -11 4.19122 5.36062  11
  -5  -3 -11 0.66987 5.44553   7
   5   3  11 -9.2437 5.80911   2
  -6  -3 -11 -1.8176 5.03686   4
  -6  -3 -11 4.04019 5.61161   7
  -6  -3 -11 -3.0054 4.81449  11
   6   3  11 10.6178 7.61227   2
  -7  -3 -11 97.5249 10.2787   4
  -7  -3 -11 99.6853 10.6661  11
  -7  -3 -11 119.162 12.5349   7
   7   3  11 104.581 12.9144   2
   1  -4 -11 8.53152 6.09716   5
   1  -4 -11 -3.6925 5.25762   6
   1  -4 -11 0.40663 6.23437   1
  -1   4  11 11.9168 5.82474  12
  -1   4  11 3.64911 4.92539  13
   0  -4 -11 229.337 13.7988   6
   0  -4 -11 190.246 13.5285   1
   0  -4 -11 199.965 13.6076   5
   0   4  11 253.823 14.1044  12
  -1  -4 -11 5.44217 5.61132   5
  -1  -4 -11 2.95048 4.81656   1
   1   4  11 11.6851 5.33204  12
  -2  -4 -11 55.2287 7.18299   1
  -2  -4 -11 69.9258 8.52589   5
   2   4  11 59.3722 7.62458  12
   2   4  11 70.7724 8.37334   2
  -3  -4 -11 83.4976 9.12725   5
  -3  -4 -11 93.4646 10.1503  11
   3   4  11 106.202 10.4391   2
   3   4  11 87.0815 8.76751  12
  -4  -4 -11 2.82332 5.29682   4
  -4  -4 -11 -0.9724 5.05360  11
  -4  -4 -11 -7.3232 5.46275   5
  -4  -4 -11 7.31431 5.87853   7
   4   4  11 -3.2682 5.43084   2
  -5  -4 -11 149.458 12.3034  11
  -5  -4 -11 118.124 12.2137   7
  -5  -4 -11 151.651 12.0126   4
   5   4  11 100.468 11.1438   2
  -6  -4 -11 78.5170 9.56740   4
  -6  -4 -11 65.0811 9.93828   7
  -6  -4 -11 50.5018 8.53848  11
   6   4  11 59.9920 10.0246   2
   0  -5 -11 -0.9316 6.08726   5
   0  -5 -11 -1.7567 5.54388   1
   0   5  11 5.38534 4.84770  12
  -1  -5 -11 153.315 12.7605   5
  -1  -5 -11 133.452 11.4732   1
   1   5  11 156.179 10.9195  12
  -2  -5 -11 93.9061 9.42735   1
  -2  -5 -11 109.897 10.6765   5
   2   5  11 120.603 10.0469  12
   2   5  11 119.610 10.2822   2
  -3  -5 -11 279.003 15.3064   5
  -3  -5 -11 285.912 16.8586   7
  -3  -5 -11 279.484 15.8672  11
  -3  -5 -11 323.496 16.2395   4
   3   5  11 279.310 13.6710   9
   3   5  11 290.453 14.6999  12
   3   5  11 305.006 15.2012   2
  -4  -5 -11 40.8852 7.96298  11
  -4  -5 -11 47.6224 8.90233   7
  -4  -5 -11 30.1664 8.01060   5
  -4  -5 -11 29.1983 7.20514   4
   4   5  11 27.9858 7.46469   2
   4   5  11 41.6284 6.71315   9
  -5  -5 -11 342.287 18.1073   7
  -5  -5 -11 286.014 15.9768   4
  -5  -5 -11 323.426 17.1086  11
   5   5  11 292.170 16.7333   2
  -3  -6 -11 5.94985 6.24236   7
  -3  -6 -11 0.15092 5.58928  11
  -3  -6 -11 15.8935 7.22734   5
  -3  -6 -11 1.44875 5.60110   4
   3   6  11 -2.5239 4.54069   9
  -2   2 -12 295.074 16.8516   6
   2  -2  12 298.664 17.2277   2
  -3   2 -12 136.956 12.4949   6
   3  -2  12 149.670 14.2961   2
  -4   2 -12 128.292 11.8871   6
   4  -2  12 133.204 13.9794   2
  -1   1 -12 168.745 11.5161   1
  -1   1 -12 150.670 12.5216   6
   1  -1  12 134.661 12.9363  12
  -2   1 -12 382.310 18.2713   6
   2  -1  12 402.987 19.7063   2
  -3   1 -12 -2.9928 4.72862   6
   3  -1  12 12.2630 6.61657   2
  -4   1 -12 0.89688 4.84783   6
   4  -1  12 8.92837 7.23902   2
  -5   1 -12 226.139 13.8001   6
   5  -1  12 167.496 15.4303   2
  -1   0 -12 36.4146 7.59727   6
  -1   0 -12 32.4256 5.86380   5
  -1   0 -12 34.8839 6.32160   1
   1   0  12 50.8651 8.84196  12
  -2   0 -12 104.776 10.4992   6
  -3   0 -12 1468.25 39.2719   6
   3   0  12 1446.66 41.2833   2
  -4   0 -12 109.963 10.4510   6
   4   0  12 93.3737 11.9591   2
  -5   0 -12 348.100 16.1292   6
   5   0  12 353.942 20.5187   2
  -1  -1 -12 293.726 13.8489   5
  -1  -1 -12 304.255 15.5051   6
  -1  -1 -12 290.660 14.5031   1
   1   1  12 301.960 16.5593  12
  -2  -1 -12 841.583 24.6270   5
  -2  -1 -12 899.491 27.4087   6
   2   1  12 853.184 28.9045  12
  -3  -1 -12 146.621 10.9727   6
   3   1  12 149.086 13.4794   2
  -4  -1 -12 553.471 19.6895   6
   4   1  12 506.994 22.7982   2
   5   1  12 6.05193 7.81101   2
  -1  -2 -12 63.7883 8.13372   1
  -1  -2 -12 45.1212 7.45008   6
  -1  -2 -12 44.2881 7.21884   5
   1   2  12 55.4011 8.44569  12
  -2  -2 -12 295.811 14.3428   6
  -2  -2 -12 290.002 13.8204   5
   2   2  12 303.505 16.5712   2
   2   2  12 329.191 16.5590  12
  -3  -2 -12 4.27394 4.76744   5
   3   2  12 -4.4320 5.66175   2
   4   2  12 830.279 29.0194   2
  -5  -2 -12 -2.9521 5.36506  11
   5   2  12 15.2612 8.18791   2
  -2  -3 -12 254.440 13.9400   5
   2   3  12 264.722 15.0981   2
   2   3  12 232.315 14.0675  12
  -3  -3 -12 49.8104 7.83607   5
   3   3  12 50.5566 7.81575  12
   3   3  12 59.6185 8.93271   2
  -4  -3 -12 4.39393 5.80095  11
  -4  -3 -12 -7.3420 5.39460   5
   4   3  12 7.06936 6.42652   2
   0   0   0    0.00    0.00   0

 _exptl_absorpt_process_details 'SADABS 2014/4'
 _exptl_absorpt_correction_type   multiscan
 _exptl_absorpt_correction_T_max  0.7454
 _exptl_absorpt_correction_T_min  0.6954
 _exptl_special_details
)
 The following wavelength and cell were deduced by SADABS from the
 direction cosines etc. They are given here for emergency use only:
 CELL 0.71069    8.555    9.071    9.978   85.958   73.730   86.583
)

;
_shelx_hkl_checksum              97585
loop_
_space_group_symop_operation_xyz
'x, y, z'
'-x, -y, -z'
loop_
_atom_site_label
_atom_site_type_symbol
_atom_site_fract_x
_atom_site_fract_y
_atom_site_fract_z
_atom_site_U_iso_or_equiv
_atom_site_adp_type
_atom_site_occupancy
_atom_site_site_symmetry_order
_atom_site_calc_flag
_atom_site_refinement_flags_posn
_atom_site_refinement_flags_adp
_atom_site_refinement_flags_occupancy
_atom_site_disorder_assembly
_atom_site_disorder_group
S1 S 0.55538(4) 0.67399(4) 0.77229(3) 0.01462(11) Uani 1 1 d . . . . .
O1 O -0.40066(12) 0.70893(11) 1.24824(11) 0.0204(2) Uani 1 1 d . . . . .
O2 O -0.17795(12) 0.54038(11) 1.31213(10) 0.0184(2) Uani 1 1 d . . . . .
O3 O 0.65444(12) 0.56406(12) 0.82619(11) 0.0228(2) Uani 1 1 d . . . . .
O4 O 0.60795(12) 0.82404(11) 0.75038(11) 0.0203(2) Uani 1 1 d . . . . .
C1 C 0.53793(18) 0.61419(16) 0.61326(14) 0.0189(3) Uani 1 1 d . . . . .
H1 H 0.6447 0.6157 0.5438 0.028 Uiso 1 1 calc R U . . .
H3 H 0.4603 0.6803 0.5797 0.028 Uiso 1 1 calc R U . . .
H16 H 0.4991 0.5132 0.6278 0.028 Uiso 1 1 calc R U . . .
C2 C 0.36025(16) 0.66620(15) 0.88844(14) 0.0143(3) Uani 1 1 d . . . . .
H15 H 0.3474 0.5938 0.9640 0.017 Uiso 1 1 calc R U . . .
C3 C 0.22623(16) 0.74938(15) 0.88454(14) 0.0136(3) Uani 1 1 d . . . . .
C4 C 0.06848(16) 0.72611(15) 0.99019(14) 0.0140(3) Uani 1 1 d . . . . .
C5 C 0.03282(16) 0.62937(15) 1.10872(14) 0.0147(3) Uani 1 1 d . . . . .
H4 H 0.1154 0.5661 1.1315 0.018 Uiso 1 1 calc R U . . .
C6 C -0.12632(17) 0.62822(15) 1.19213(14) 0.0150(3) Uani 1 1 d . . . . .
C7 C -0.24937(16) 0.72146(15) 1.15691(15) 0.0160(3) Uani 1 1 d . . . . .
C8 C -0.53115(17) 0.79628(18) 1.21548(17) 0.0238(3) Uani 1 1 d . . . . .
H9 H -0.5083 0.9014 1.2113 0.036 Uiso 1 1 calc R U . . .
H8 H -0.6330 0.7769 1.2879 0.036 Uiso 1 1 calc R U . . .
H2 H -0.5416 0.7705 1.1247 0.036 Uiso 1 1 calc R U . . .
C9 C -0.05808(18) 0.44087(16) 1.34724(15) 0.0191(3) Uani 1 1 d . . . . .
H6 H -0.0095 0.3778 1.2692 0.029 Uiso 1 1 calc R U . . .
H7 H -0.1094 0.3790 1.4309 0.029 Uiso 1 1 calc R U . . .
H5 H 0.0270 0.4974 1.3658 0.029 Uiso 1 1 calc R U . . .
C10 C -0.21279(17) 0.81606(15) 1.03816(15) 0.0163(3) Uani 1 1 d . . . . .
H14 H -0.2952 0.8782 1.0137 0.020 Uiso 1 1 calc R U . . .
C11 C -0.05206(17) 0.81784(15) 0.95546(14) 0.0147(3) Uani 1 1 d . . . . .
C12 C 0.02288(17) 0.90582(15) 0.82677(14) 0.0151(3) Uani 1 1 d . . . . .
C13 C 0.19180(16) 0.86785(15) 0.78403(14) 0.0142(3) Uani 1 1 d . . . . .
C14 C 0.28977(17) 0.93787(15) 0.66438(15) 0.0169(3) Uani 1 1 d . . . . .
H13 H 0.4037 0.9153 0.6357 0.020 Uiso 1 1 calc R U . . .
C15 C 0.21889(18) 1.04191(16) 0.58671(15) 0.0198(3) Uani 1 1 d . . . . .
H12 H 0.2849 1.0891 0.5038 0.024 Uiso 1 1 calc R U . . .
C16 C 0.05300(19) 1.07711(16) 0.62932(16) 0.0210(3) Uani 1 1 d . . . . .
H11 H 0.0068 1.1483 0.5753 0.025 Uiso 1 1 calc R U . . .
C17 C -0.04649(18) 1.00963(16) 0.74997(15) 0.0188(3) Uani 1 1 d . . . . .
H10 H -0.1600 1.0344 0.7791 0.023 Uiso 1 1 calc R U . . .
loop_
_atom_site_aniso_label
_atom_site_aniso_U_11
_atom_site_aniso_U_22
_atom_site_aniso_U_33
_atom_site_aniso_U_23
_atom_site_aniso_U_13
_atom_site_aniso_U_12
S1 0.01129(17) 0.01788(19) 0.01315(18) 0.00165(12) -0.00160(12) 0.00006(12)
O1 0.0114(5) 0.0224(5) 0.0233(5) 0.0019(4) 0.0004(4) 0.0016(4)
O2 0.0142(5) 0.0219(5) 0.0156(5) 0.0030(4) 0.0003(4) 0.0010(4)
O3 0.0146(5) 0.0279(6) 0.0226(6) 0.0070(4) -0.0028(4) 0.0034(4)
O4 0.0187(5) 0.0212(5) 0.0211(5) 0.0015(4) -0.0057(4) -0.0048(4)
C1 0.0205(7) 0.0202(7) 0.0134(7) -0.0021(5) 0.0000(5) -0.0013(6)
C2 0.0141(6) 0.0170(6) 0.0101(6) 0.0009(5) -0.0007(5) -0.0010(5)
C3 0.0149(6) 0.0145(6) 0.0114(6) -0.0023(5) -0.0029(5) -0.0016(5)
C4 0.0131(6) 0.0155(6) 0.0128(6) -0.0034(5) -0.0021(5) 0.0002(5)
C5 0.0138(6) 0.0166(6) 0.0134(6) -0.0026(5) -0.0034(5) 0.0018(5)
C6 0.0162(7) 0.0160(6) 0.0119(6) -0.0012(5) -0.0022(5) -0.0013(5)
C7 0.0117(6) 0.0174(6) 0.0175(7) -0.0039(5) -0.0008(5) -0.0008(5)
C8 0.0117(6) 0.0254(8) 0.0316(9) 0.0005(6) -0.0028(6) 0.0032(6)
C9 0.0190(7) 0.0221(7) 0.0151(7) 0.0024(5) -0.0041(6) 0.0003(6)
C10 0.0138(6) 0.0165(6) 0.0191(7) -0.0025(5) -0.0057(5) 0.0019(5)
C11 0.0156(7) 0.0142(6) 0.0146(7) -0.0031(5) -0.0044(5) 0.0002(5)
C12 0.0161(7) 0.0146(6) 0.0151(7) -0.0028(5) -0.0047(5) -0.0009(5)
C13 0.0162(7) 0.0138(6) 0.0139(6) -0.0026(5) -0.0058(5) 0.0002(5)
C14 0.0170(7) 0.0174(7) 0.0155(7) -0.0007(5) -0.0031(5) -0.0011(5)
C15 0.0232(7) 0.0185(7) 0.0167(7) 0.0033(5) -0.0044(6) -0.0037(6)
C16 0.0249(8) 0.0175(7) 0.0224(7) 0.0034(5) -0.0107(6) -0.0001(6)
C17 0.0171(7) 0.0181(7) 0.0222(7) -0.0010(5) -0.0076(6) 0.0015(5)
loop_
_atom_type_symbol
_atom_type_description
_atom_type_scat_dispersion_real
_atom_type_scat_dispersion_imag
_atom_type_scat_source
C C 0.0033 0.0016 'International Tables Vol C Tables 4.2.6.8 and 6.1.1.4'
H H 0.0000 0.0000 'International Tables Vol C Tables 4.2.6.8 and 6.1.1.4'
O O 0.0106 0.0060 'International Tables Vol C Tables 4.2.6.8 and 6.1.1.4'
S S 0.1246 0.1234 'International Tables Vol C Tables 4.2.6.8 and 6.1.1.4'
loop_
_geom_angle_atom_site_label_1
_geom_angle_atom_site_label_2
_geom_angle_atom_site_label_3
_geom_angle
_geom_angle_site_symmetry_1
_geom_angle_site_symmetry_3
_geom_angle_publ_flag
O3 S1 O4 117.73(6) . . ?
O3 S1 C2 105.82(6) . . ?
O4 S1 C2 110.36(6) . . ?
O3 S1 C1 107.51(7) . . ?
O4 S1 C1 108.90(7) . . ?
C2 S1 C1 105.85(7) . . ?
C7 O1 C8 117.21(11) . . ?
C6 O2 C9 116.25(11) . . ?
S1 C1 H1 109.5 . . ?
S1 C1 H3 109.5 . . ?
H1 C1 H3 109.5 . . ?
S1 C1 H16 109.5 . . ?
H1 C1 H16 109.5 . . ?
H3 C1 H16 109.5 . . ?
C3 C2 S1 128.30(11) . . ?
C3 C2 H15 115.8 . . ?
S1 C2 H15 115.8 . . ?
C2 C3 C4 121.45(12) . . ?
C2 C3 C13 133.14(13) . . ?
C4 C3 C13 105.32(11) . . ?
C11 C4 C5 121.26(12) . . ?
C11 C4 C3 109.68(12) . . ?
C5 C4 C3 129.06(12) . . ?
C6 C5 C4 118.03(13) . . ?
C6 C5 H4 121.0 . . ?
C4 C5 H4 121.0 . . ?
O2 C6 C5 124.21(13) . . ?
O2 C6 C7 114.97(12) . . ?
C5 C6 C7 120.81(13) . . ?
O1 C7 C10 124.75(13) . . ?
O1 C7 C6 114.62(12) . . ?
C10 C7 C6 120.63(12) . . ?
O1 C8 H9 109.5 . . ?
O1 C8 H8 109.5 . . ?
H9 C8 H8 109.5 . . ?
O1 C8 H2 109.5 . . ?
H9 C8 H2 109.5 . . ?
H8 C8 H2 109.5 . . ?
O2 C9 H6 109.5 . . ?
O2 C9 H7 109.5 . . ?
H6 C9 H7 109.5 . . ?
O2 C9 H5 109.5 . . ?
H6 C9 H5 109.5 . . ?
H7 C9 H5 109.5 . . ?
C7 C10 C11 118.27(13) . . ?
C7 C10 H14 120.9 . . ?
C11 C10 H14 120.9 . . ?
C4 C11 C10 120.99(13) . . ?
C4 C11 C12 108.36(12) . . ?
C10 C11 C12 130.65(13) . . ?
C17 C12 C13 121.07(13) . . ?
C17 C12 C11 130.19(13) . . ?
C13 C12 C11 108.74(12) . . ?
C14 C13 C12 119.47(13) . . ?
C14 C13 C3 132.65(13) . . ?
C12 C13 C3 107.86(12) . . ?
C13 C14 C15 119.20(13) . . ?
C13 C14 H13 120.4 . . ?
C15 C14 H13 120.4 . . ?
C16 C15 C14 120.65(13) . . ?
C16 C15 H12 119.7 . . ?
C14 C15 H12 119.7 . . ?
C15 C16 C17 120.89(14) . . ?
C15 C16 H11 119.6 . . ?
C17 C16 H11 119.6 . . ?
C12 C17 C16 118.70(13) . . ?
C12 C17 H10 120.7 . . ?
C16 C17 H10 120.7 . . ?
loop_
_geom_bond_atom_site_label_1
_geom_bond_atom_site_label_2
_geom_bond_distance
_geom_bond_site_symmetry_2
_geom_bond_publ_flag
S1 O3 1.4414(11) . ?
S1 O4 1.4414(11) . ?
S1 C2 1.7476(14) . ?
S1 C1 1.7605(14) . ?
O1 C7 1.3642(16) . ?
O1 C8 1.4287(17) . ?
O2 C6 1.3683(17) . ?
O2 C9 1.4258(17) . ?
C1 H1 0.9800 . ?
C1 H3 0.9800 . ?
C1 H16 0.9800 . ?
C2 C3 1.3423(19) . ?
C2 H15 0.9500 . ?
C3 C4 1.4775(18) . ?
C3 C13 1.4897(18) . ?
C4 C11 1.3895(19) . ?
C4 C5 1.3937(19) . ?
C5 C6 1.3829(19) . ?
C5 H4 0.9500 . ?
C6 C7 1.4156(19) . ?
C7 C10 1.384(2) . ?
C8 H9 0.9800 . ?
C8 H8 0.9800 . ?
C8 H2 0.9800 . ?
C9 H6 0.9800 . ?
C9 H7 0.9800 . ?
C9 H5 0.9800 . ?
C10 C11 1.3919(19) . ?
C10 H14 0.9500 . ?
C11 C12 1.4662(19) . ?
C12 C17 1.3817(19) . ?
C12 C13 1.4159(19) . ?
C13 C14 1.388(2) . ?
C14 C15 1.395(2) . ?
C14 H13 0.9500 . ?
C15 C16 1.387(2) . ?
C15 H12 0.9500 . ?
C16 C17 1.390(2) . ?
C16 H11 0.9500 . ?
C17 H10 0.9500 . ?
