#------------------------------------------------------------------------------
#$Date: 2020-05-04 05:44:48 +0300 (Mon, 04 May 2020) $
#$Revision: 251472 $
#$URL: file:///home/coder/svn-repositories/cod/cif/4/03/82/4038233.cif $
#------------------------------------------------------------------------------
#
# This file is available in the Crystallography Open Database (COD),
# http://www.crystallography.net/
#
# All data on this site have been placed in the public domain by the
# contributors.
#
data_4038233
loop_
_publ_author_name
'Mao, Jialin'
'Hai, Yu'
'Ye, Hebo'
'You, Lei'
_publ_section_title
;
 Adaptive Covalent Networks Enabled by Dual Reactivity: The Evolution of
 Reversible Covalent Bonds, Their Molecular Assemblies, and Guest
 Recognition.
;
_journal_issue                   8
_journal_name_full               'The Journal of organic chemistry'
_journal_page_first              5351
_journal_page_last               5361
_journal_paper_doi               10.1021/acs.joc.0c00051
_journal_volume                  85
_journal_year                    2020
_chemical_formula_moiety         'C28 H28 N2 O4 S4'
_chemical_formula_sum            'C28 H28 N2 O4 S4'
_chemical_formula_weight         584.76
_space_group_crystal_system      triclinic
_space_group_IT_number           2
_space_group_name_Hall           '-P 1'
_space_group_name_H-M_alt        'P -1'
_atom_sites_solution_hydrogens   geom
_audit_creation_date             2019-08-07
_audit_creation_method
;
Olex2 1.2-beta
(compiled 2018.05.29 svn.r3508 for OlexSys, GUI svn.r5506)
;
_cell_angle_alpha                68.036(3)
_cell_angle_beta                 75.071(4)
_cell_angle_gamma                81.671(3)
_cell_formula_units_Z            1
_cell_length_a                   8.4938(3)
_cell_length_b                   8.7230(3)
_cell_length_c                   11.1325(4)
_cell_measurement_reflns_used    4493
_cell_measurement_temperature    173(2)
_cell_measurement_theta_max      59.9720
_cell_measurement_theta_min      3.8280
_cell_volume                     738.05(5)
_computing_molecular_graphics    'Olex2 (Dolomanov et al., 2009)'
_computing_publication_material  'Olex2 (Dolomanov et al., 2009)'
_computing_structure_refinement  'XL (Sheldrick, 2008)'
_diffrn_ambient_temperature      173.15
_diffrn_measured_fraction_theta_full 0.962
_diffrn_measured_fraction_theta_max 0.917
_diffrn_measurement_device_type  'Bruker APEX-II CCD'
_diffrn_measurement_method       '\f and \w scans'
_diffrn_radiation_type           GaK\a
_diffrn_radiation_wavelength     1.34139
_diffrn_reflns_av_R_equivalents  0.0366
_diffrn_reflns_av_unetI/netI     0.0414
_diffrn_reflns_Laue_measured_fraction_full 0.962
_diffrn_reflns_Laue_measured_fraction_max 0.917
_diffrn_reflns_limit_h_max       10
_diffrn_reflns_limit_h_min       -10
_diffrn_reflns_limit_k_max       11
_diffrn_reflns_limit_k_min       -11
_diffrn_reflns_limit_l_max       14
_diffrn_reflns_limit_l_min       -13
_diffrn_reflns_number            7161
_diffrn_reflns_point_group_measured_fraction_full 0.962
_diffrn_reflns_point_group_measured_fraction_max 0.917
_diffrn_reflns_theta_full        53.594
_diffrn_reflns_theta_max         60.543
_diffrn_reflns_theta_min         3.820
_diffrn_standards_number         0
_exptl_absorpt_coefficient_mu    2.114
_exptl_absorpt_correction_type   none
_exptl_crystal_density_diffrn    1.316
_exptl_crystal_description       Prism
_exptl_crystal_F_000             306
_refine_diff_density_max         0.910
_refine_diff_density_min         -0.879
_refine_diff_density_rms         0.097
_refine_ls_extinction_method     none
_refine_ls_goodness_of_fit_ref   1.346
_refine_ls_hydrogen_treatment    constr
_refine_ls_matrix_type           full
_refine_ls_number_parameters     174
_refine_ls_number_reflns         3102
_refine_ls_number_restraints     0
_refine_ls_restrained_S_all      1.346
_refine_ls_R_factor_all          0.1067
_refine_ls_R_factor_gt           0.0851
_refine_ls_shift/su_max          0.001
_refine_ls_shift/su_mean         0.000
_refine_ls_structure_factor_coef Fsqd
_refine_ls_weighting_details
'w=1/[\s^2^(Fo^2^)+(0.2000P)^2^] where P=(Fo^2^+2Fc^2^)/3'
_refine_ls_weighting_scheme      calc
_refine_ls_wR_factor_gt          0.2877
_refine_ls_wR_factor_ref         0.3348
_reflns_Friedel_coverage         0.000
_reflns_number_gt                2264
_reflns_number_total             3102
_reflns_threshold_expression     'I > 2\s(I)'
_cod_data_source_file            jo0c00051_si_002.cif
_cod_data_source_block           1F2
_cod_depositor_comments
'Adding full bibliography for 4038227--4038237.cif.'
_cod_database_code               4038233
_shelxl_version_number           2014/6
_shelx_space_group_comment
;
The symmetry employed for this shelxl refinement is uniquely defined
by the following loop, which should always be used as a source of
symmetry information in preference to the above space-group names.
They are only intended as comments.
;
_olex2_refinement_description
;
1. Fixed Uiso
 At 1.2 times of:
  All C(H) groups
 At 1.5 times of:
  All C(H,H,H) groups
2.a Ternary CH refined with riding coordinates:
 C2(H2), C15(H15)
2.b Aromatic/amide H refined with riding coordinates:
 C6(H6), C8(H8), C9(H9), C12(H12), C13(H13), C14(H14)
2.c Idealised Me refined as rotating group:
 C16(H16A,H16B,H16C), C18(H18A,H18B,H18C)
;
_shelx_res_file
;
TITL a in P-1
CELL 1.34139 8.4938 8.723 11.1325 68.036 75.071 81.671
ZERR 1 0.0003 0.0003 0.0004 0.003 0.004 0.003
LATT 1
SFAC C H N O S
DISP C 0.0148 0.007 57.7477
DISP H -0 0 0.6481
DISP N 0.0253 0.0136 110.5121
DISP O 0.0412 0.025 193.9543
DISP S 0.2924 0.4247 3241.7632
UNIT 28 28 2 4 4

L.S. 4
PLAN  20
TEMP -100
GRID
BOND
fmap 2
acta
MERG 2
REM <olex2.extras>
REM <HklSrc "%.\\a.hkl">
REM </olex2.extras>

WGHT    0.200000
FVAR       0.43887
S1    5    0.145250    0.792319    0.765583    11.00000    0.05377    0.08086 =
         0.09026   -0.04541   -0.02177   -0.00217
S2    5    0.430101    0.396824    0.715012    11.00000    0.07740    0.07822 =
         0.08609   -0.04260   -0.02567   -0.00261
C1    1    0.440921    0.736523    0.653663    11.00000    0.05561    0.07066 =
         0.07692   -0.02442   -0.02782   -0.00904
C2    1    0.347276    0.603827    0.648708    11.00000    0.05483    0.08589 =
         0.07010   -0.04132   -0.02142   -0.00545
AFIX  13
H2    2    0.348396    0.627192    0.553444    11.00000   -1.20000
AFIX   0
C3    1    0.026731    0.516473    0.613481    11.00000    0.04553    0.07951 =
         0.08918   -0.04790   -0.01910   -0.00568
N4    3    0.180235    0.636679    0.714727    11.00000    0.04983    0.10277 =
         0.10307   -0.06848   -0.01597   -0.01139
C5    1    0.349159    0.840742    0.713277    11.00000    0.05521    0.06746 =
         0.07653   -0.02629   -0.02641   -0.00447
C6    1    0.608742    0.755050    0.603931    11.00000    0.05550    0.09114 =
         0.08266   -0.03447   -0.02045   -0.00334
AFIX  43
H6    2    0.675001    0.682861    0.562854    11.00000   -1.20000
AFIX   0
O7    4    0.041835    0.917048    0.694106    11.00000    0.06668    0.10281 =
         0.16305   -0.04276   -0.04577    0.01182
C8    1    0.031262    0.650610    0.497413    11.00000    0.05499    0.06841 =
         0.09664   -0.04016   -0.02151   -0.00728
AFIX  43
H8    2    0.054395    0.755301    0.494788    11.00000   -1.20000
AFIX   0
C9    1   -0.003676    0.361842    0.613767    11.00000    0.05447    0.07474 =
         0.09461   -0.03965   -0.02528   -0.00656
AFIX  43
H9    2   -0.004953    0.266214    0.691492    11.00000   -1.20000
AFIX   0
O10   4    0.093916    0.735975    0.909447    11.00000    0.08574    0.14070 =
         0.08523   -0.06138    0.00125   -0.03521
C11   1    0.047343    0.529840    0.740113    11.00000    0.05829    0.11090 =
         0.09461   -0.05867   -0.01744   -0.02131
C12   1    0.413990    0.970021    0.724149    11.00000    0.07781    0.07117 =
         0.09937   -0.03334   -0.03217   -0.00979
AFIX  43
H12   2    0.347274    1.043187    0.763978    11.00000   -1.20000
AFIX   0
C13   1    0.579140    0.988870    0.675032    11.00000    0.08196    0.07437 =
         0.10606   -0.01765   -0.03651   -0.02316
AFIX  43
H13   2    0.627427    1.076341    0.681494    11.00000   -1.20000
AFIX   0
C14   1    0.674863    0.883810    0.617095    11.00000    0.05641    0.08262 =
         0.09868   -0.01638   -0.02459   -0.01704
AFIX  43
H14   2    0.788651    0.898861    0.585190    11.00000   -1.20000
AFIX   0
C15   1    0.461321    0.379736    0.877180    11.00000    0.10790    0.08565 =
         0.08219   -0.02723   -0.03674   -0.00800
AFIX  13
H15   2    0.477416    0.493445    0.872223    11.00000   -1.20000
AFIX   0
C16   1    0.325487    0.314221    0.988188    11.00000    0.10595    0.22268 =
         0.09669   -0.02651   -0.02903   -0.01449
AFIX 137
H16A  2    0.286157    0.218790    0.980507    11.00000   -1.50000
H16B  2    0.237038    0.400067    0.987201    11.00000   -1.50000
H16C  2    0.361690    0.279636    1.071693    11.00000   -1.50000
AFIX   0
C18   1    0.618054    0.277212    0.896511    11.00000    0.08732    0.27653 =
         0.11888   -0.05304   -0.03760    0.01065
AFIX 137
H18A  2    0.661833    0.301803    0.960235    11.00000   -1.50000
H18B  2    0.697592    0.303838    0.811317    11.00000   -1.50000
H18C  2    0.596525    0.159413    0.930536    11.00000   -1.50000
AFIX   0
HKLF 4

REM  a in P-1
REM R1 =  0.0851 for    2264 Fo > 4sig(Fo)  and  0.1067 for all    3102 data
REM    174 parameters refined using      0 restraints

END

WGHT      0.2000      0.0000

REM Highest difference peak  0.910,  deepest hole -0.879,  1-sigma level  0.097
Q1    1   0.0721  0.0629  0.9426  11.00000  0.05    0.91
Q2    1   0.1428  0.4501  0.8720  11.00000  0.05    0.51
Q3    1   0.1236  0.8348  0.6784  11.00000  0.05    0.47
Q4    1   0.3472  0.1725  0.9619  11.00000  0.05    0.45
Q5    1   0.0488  0.4220  0.8285  11.00000  0.05    0.42
Q6    1   0.0316  0.8087  0.8808  11.00000  0.05    0.37
Q7    1   0.4639  0.4034  0.7824  11.00000  0.05    0.36
Q8    1   0.3573  0.3924  0.8570  11.00000  0.05    0.35
Q9    1   0.1930  0.8010  0.8402  11.00000  0.05    0.33
Q10   1  -0.0160  0.8050  0.7815  11.00000  0.05    0.32
Q11   1   0.2719  0.8435  0.7227  11.00000  0.05    0.30
Q12   1  -0.0410  0.5639  0.7563  11.00000  0.05    0.29
Q13   1   0.0255  0.4439  0.6019  11.00000  0.05    0.29
Q14   1   0.5426  0.3815  0.6018  11.00000  0.05    0.29
Q15   1  -0.0729  0.5798  0.8140  11.00000  0.05    0.28
Q16   1   0.2174  0.7581  0.6378  11.00000  0.05    0.27
Q17   1   0.3505  0.8840  0.7032  11.00000  0.05    0.27
Q18   1   0.0654  0.9358  0.6176  11.00000  0.05    0.27
Q19   1   0.3883  0.6603  0.6990  11.00000  0.05    0.26
Q20   1   0.5940  0.4357  0.8543  11.00000  0.05    0.26
;
_shelx_res_checksum              46448
_shelx_hkl_file
;
   0   0  -1  163.16    4.74
   0   0   3  638.97   18.55
   0   0   3  652.12   18.58
   0   0   4   20.19    0.83
   0   0  -4   21.09    0.77
   0   0  -4   22.08    0.77
   0   0  -5  106.62    3.17
   0   0  -5  104.04    3.14
   0   0   6   35.21    1.38
   0   0  -6   36.34    1.30
   0   0  -6   37.10    1.20
   0   0  -6   36.57    1.32
   0   0  -7    3.61    0.31
   0   0   8   16.96    1.61
   0   0  -8   19.13    0.90
   0   0   9    1.16    0.48
   0   0  -9    1.48    0.24
   0   0 -10    1.55    0.25
   0   0  10    2.77    0.68
   0   0  11   -0.20    0.34
   0   0  12    0.21    0.23
   0  -1  12   -0.05    0.22
   0   1 -11    2.68    0.32
   0  -1  11    2.09    0.53
   0  -1  10    0.18    0.37
   0   1 -10   -0.02    0.13
   0   1  -9    3.58    0.39
   0  -1   9    2.60    0.77
   0   1  -8   19.83    0.99
   0   1  -7   17.78    0.74
   0   1  -7   18.48    0.89
   0   1  -6   16.51    0.66
   0   1  -6   16.96    0.78
   0   1  -5   14.41    0.59
   0  -1   5   13.98    0.77
   0   1  -5   15.00    0.68
   0   1  -4    1.03    0.15
   0  -1   4    0.96    0.18
   0   1  -4    0.81    0.12
   0  -1   3   12.98    0.40
   0   1  -3   11.12    0.39
   0  -1   3   11.21    0.62
   0   1  -3   12.91    0.52
   0   1  -3   12.54    0.48
   0  -1   2  207.64    5.99
   0  -1  -2  170.46    4.89
   0  -1  -2  178.14    4.92
   0   1   2  165.26    4.89
   0  -1  -3   83.77    2.59
   0   1   3   86.92    2.47
   0  -1  -3   81.61    2.51
   0  -1  -3   89.14    2.66
   0   1   3   84.72    2.55
   0  -1  -4    1.62    0.09
   0   1   4    2.00    0.34
   0  -1  -4    1.39    0.19
   0  -1  -4    1.41    0.12
   0   1   4    1.88    0.16
   0  -1  -5    1.16    0.13
   0  -1  -5    1.23    0.22
   0   1   5    0.80    0.30
   0   1   5    1.19    0.15
   0   1   6   13.52    1.10
   0  -1  -6   12.18    0.56
   0   1   6   13.55    0.62
   0  -1  -6   12.86    0.56
   0  -1  -7    1.45    0.18
   0   1   7    0.64    0.33
   0  -1  -8    3.98    0.32
   0   1   8    3.67    0.69
   0   1   9    1.13    0.41
   0  -1  -9    1.21    0.19
   0   1  10    2.23    0.55
   0   1  11   -0.15    0.71
   0   1  11    0.24    0.28
   0   1  12    0.14    0.72
   0   1  12    1.87    0.44
   0   1  13   -0.07    0.15
   0  -2  11    2.33    0.55
   0   2 -11    2.23    0.29
   0   2 -10    0.05    0.14
   0   2  -9    3.13    0.39
   0   2  -8    1.26    0.26
   0   2  -8    1.14    0.19
   0   2  -7    0.54    0.19
   0   2  -7    0.48    0.14
   0   2  -6    0.67    0.18
   0   2  -6    0.42    0.12
   0   2  -5    0.15    0.11
   0  -2   5    0.03    0.11
   0   2  -5    0.04    0.09
   0   2  -5    0.02    0.07
   0   2  -5   -0.03    0.11
   0   2  -4    6.16    0.30
   0  -2   4    5.91    0.19
   0   2  -4    5.37    0.19
   0  -2   4    5.34    0.46
   0   2  -3    0.02    0.05
   0   2  -3    0.16    0.09
   0   2  -3    0.02    0.04
   0  -2   3    0.06    0.05
   0   2  -2  115.10    3.41
   0  -2   2  110.07    3.39
   0  -2   1  167.77    4.88
   0  -2   0   72.64    2.18
   0  -2  -2   23.31    0.80
   0   2   2   26.21    0.81
   0  -2  -4   11.50    0.48
   0  -2  -4   10.20    0.47
   0   2   4   10.72    0.64
   0   2   4   11.11    0.40
   0   2   5   33.65    1.05
   0  -2  -5   36.41    1.36
   0   2   5   35.44    1.54
   0  -2  -5   34.36    1.13
   0   2   6   73.12    2.72
   0  -2  -6   75.92    2.48
   0   2   7   78.55    3.16
   0   2   8   39.71    2.05
   0   2   9   11.29    1.03
   0   2  10    0.11    0.24
   0   2  11    2.28    0.51
   0   2  11   -0.44    0.78
   0  -2 -12   -0.05    0.27
   0   2  12    0.05    0.17
   0   2  13    0.10    0.62
   0   2  13    0.03    0.15
   0  -3  11    0.11    0.24
   0   3 -10   -0.05    0.13
   0  -3  10    0.09    0.31
   0   3  -9    0.03    0.14
   0   3  -8    0.03    0.17
   0   3  -8    0.10    0.11
   0   3  -7    4.83    0.49
   0   3  -7    4.99    0.40
   0   3  -6    9.57    0.56
   0   3  -5   35.57    1.35
   0   3  -4    0.94    0.18
   0   3  -4    0.72    0.10
   0   3  -3   12.05    0.39
   0  -3   3   13.49    0.54
   0   3  -3   13.30    0.54
   0   3  -3   12.94    0.37
   0  -3   3   13.62    0.47
   0   3  -3   11.91    0.35
   0  -3   2    0.17    0.09
   0   3  -2    0.15    0.06
   0   3  -2    0.08    0.05
   0   3  -2    0.08    0.05
   0   3  -2    0.06    0.08
   0  -3   2    0.10    0.07
   0  -3   1   66.85    2.17
   0   3  -1   64.57    2.04
   0   3  -1   62.55    2.00
   0  -3   0   60.91    1.85
   0   3   0   56.87    1.86
   0  -3   0   59.19    2.00
   0  -3  -1   45.77    1.49
   0   3   1   47.74    1.50
   0   3   2  157.84    1.49
   0  -3  -2  164.47    1.90
   0   3   3   23.39    0.94
   0   3   3   25.97    0.89
   0   3   4    3.04    0.21
   0  -3  -4    2.89    0.21
   0  -3  -5   28.83    1.05
   0   3   5   29.29    0.98
   0   3   5   28.64    0.98
   0   3   5   31.98    1.28
   0  -3  -5   28.07    1.09
   0   3   6   37.36    1.53
   0  -3  -6   33.25    1.17
   0  -3  -6   36.48    1.42
   0   3   6   30.92    1.06
   0   3   7    3.60    0.45
   0   3   8    6.34    0.65
   0   3   9    4.40    0.61
   0   3  10    3.55    0.55
   0   3  11    6.13    0.70
   0   3  12    1.34    0.35
   0   3  12    0.37    0.72
   0   3  13    1.48    0.32
   0   4 -10    0.75    0.19
   0  -4  10    0.22    0.30
   0   4  -9    0.26    0.17
   0   4  -8    0.43    0.22
   0   4  -8    0.41    0.14
   0   4  -7    0.44    0.16
   0   4  -6    6.72    0.58
   0   4  -6    6.52    0.49
   0   4  -5    0.64    0.18
   0   4  -5    0.70    0.22
   0   4  -4    2.36    0.31
   0   4  -4    2.94    0.30
   0   4  -3   -0.01    0.05
   0  -4   3    0.04    0.09
   0   4  -3    0.10    0.10
   0   4  -3    0.02    0.05
   0   4  -2    0.40    0.13
   0   4  -2    0.25    0.08
   0  -4   2    0.33    0.14
   0   4  -2    0.34    0.09
   0  -4   2    0.31    0.11
   0   4  -1    4.94    0.31
   0  -4   1    5.09    0.41
   0   4  -1    4.53    0.32
   0   4  -1    4.43    0.30
   0  -4   1    4.37    0.37
   0  -4   0    7.32    0.52
   0   4   0    7.91    0.40
   0   4   0    8.48    0.43
   0  -4  -1   33.19    1.35
   0   4   2   25.50    0.88
   0   4   2   26.03    0.97
   0   4   3   32.75    1.19
   0  -4  -3   34.54    1.36
   0   4   4   97.32    1.60
   0   4   4   94.32    1.35
   0   4   5  113.77    3.64
   0   4   5  112.58    3.43
   0  -4  -5  110.16    3.63
   0   4   5  112.79    3.42
   0  -4  -5  113.91    3.45
   0  -4  -5  107.87    3.60
   0  -4  -6   10.02    0.58
   0   4   6    9.33    0.45
   0   4   6    9.65    0.44
   0   4   6   10.18    0.65
   0  -4  -6    8.77    0.54
   0  -4  -6    9.63    0.51
   0  -4  -7  112.56    3.62
   0   4   7  122.18    3.99
   0   4   8    0.09    0.57
   0   4   8    6.04    0.57
   0   4   9    0.55    0.91
   0   4   9   58.44    1.86
   0   4  10    0.04    0.18
   0   4  11    6.19    0.67
   0   4  12    1.22    0.32
   0   4  12    0.12    0.70
   0   4  13    2.42    0.37
   0   5  -9    0.11    0.13
   0  -5   9    0.50    0.39
   0   5  -8    0.02    0.11
   0   5  -7   -0.02    0.14
   0   5  -7   -0.03    0.16
   0   5  -6    0.09    0.15
   0   5  -6    0.12    0.18
   0   5  -5    2.54    0.36
   0   5  -5    2.53    0.32
   0   5  -4    9.90    0.63
   0   5  -4   10.06    0.69
   0   5  -3    2.00    0.20
   0  -5   3    1.90    0.30
   0   5  -3    2.32    0.31
   0  -5   2   66.15    2.38
   0   5  -2   64.15    2.20
   0   5  -2   64.90    2.24
   0   5  -2   60.49    2.09
   0  -5   1   14.67    0.86
   0   5  -1   15.36    0.71
   0   5  -1   13.47    0.69
   0  -5   1   14.50    0.80
   0   5  -1   14.02    0.67
   0  -5   0   73.01    2.54
   0   5   0   66.79    2.25
   0  -5   0   63.73    2.44
   0   5   0   66.26    2.22
   0   5   0   70.82    2.25
   0   5   1   27.75    1.06
   0   5   1   24.70    0.96
   0   5   1   27.12    1.01
   0  -5  -1   28.16    1.28
   0  -5  -1   25.71    1.21
   0  -5  -2   87.36    3.03
   0   5   2   86.35    2.77
   0   5   2   88.62    2.68
   0  -5  -3    2.37    0.32
   0   5   3    2.43    0.18
   0   5   3    2.48    0.25
   0   5   4   78.66    1.40
   0  -5  -4   76.46    1.80
   0   5   5   10.00    0.53
   0  -5  -5    8.86    0.63
   0  -5  -5    9.75    0.67
   0   5   5   10.59    0.63
   0   5   6   28.29    1.05
   0  -5  -6   28.63    1.05
   0   5   6   28.35    0.80
   0  -5  -7   39.85    1.27
   0   5   7   40.92    1.39
   0   5   7   37.46    0.96
   0   5   8    9.68    0.73
   0   5   9    1.22    0.32
   0   5  10    0.67    0.27
   0   5  11   -0.04    0.17
   0   5  12    1.33    0.31
   0   5  12    0.22    0.59
   0   5  13    0.45    0.53
   0   6  -8    0.28    0.15
   0   6  -7    0.08    0.17
   0   6  -7   -0.04    0.12
   0   6  -6    0.61    0.24
   0   6  -6    0.74    0.22
   0   6  -5    1.06    0.25
   0   6  -5    0.90    0.27
   0   6  -4    0.11    0.16
   0   6  -3    8.82    0.61
   0  -6   3    7.18    0.62
   0   6  -3    8.33    0.63
   0   6  -2    4.20    0.40
   0  -6   2    4.34    0.48
   0   6  -2    4.16    0.33
   0   6  -2    4.66    0.43
   0   6  -1    0.02    0.11
   0   6  -1    0.11    0.14
   0   6  -1   -0.05    0.11
   0  -6   1    0.03    0.15
   0   6   0    3.68    0.34
   0   6   0    3.65    0.33
   0  -6   0    4.72    0.50
   0   6   0    3.58    0.32
   0  -6  -1    0.37    0.20
   0   6   1    0.28    0.14
   0   6   1    0.23    0.11
   0  -6  -2    0.37    0.22
   0   6   2    0.02    0.08
   0   6   3    7.07    0.39
   0   6   3    7.33    0.49
   0  -6  -4   21.16    1.04
   0   6   4   19.29    0.75
   0   6   5    0.29    0.13
   0  -6  -5    0.48    0.21
   0   6   6    1.67    0.22
   0  -6  -6    1.96    0.33
   0   6   7    0.07    0.09
   0  -6  -7    0.08    0.14
   0   6   8   28.47    1.20
   0   6   8   25.51    0.78
   0   6   9    6.08    0.59
   0   6  10   10.76    0.81
   0   6  11    0.71    0.24
   0   6  12   -0.10    0.59
   0   6  12    2.32    0.35
   0   7  -6    0.31    0.18
   0   7  -6    0.36    0.16
   0   7  -5    0.07    0.14
   0   7  -5    0.11    0.17
   0   7  -4    0.22    0.17
   0   7  -3    1.37    0.28
   0   7  -3    1.11    0.26
   0  -7   2    0.14    0.18
   0   7  -2    0.28    0.18
   0   7  -2    0.24    0.16
   0  -7   1    8.09    0.72
   0   7  -1    7.03    0.53
   0   7  -1    7.42    0.50
   0   7  -1    7.71    0.58
   0   7   0    7.31    0.51
   0   7   0    5.47    0.44
   0  -7   0    7.19    0.69
   0   7   0    6.37    0.50
   0   7   1    8.51    0.55
   0   7   1    9.65    0.62
   0  -7  -1    9.67    0.81
   0   7   2    1.41    0.25
   0   7   2    1.43    0.21
   0  -7  -2    1.21    0.33
   0   7   3   44.79    1.65
   0   7   3   51.88    1.86
   0  -7  -4   17.86    1.19
   0   7   4   21.94    1.01
   0   7   5   34.44    1.40
   0  -7  -5   32.60    1.67
   0   7   6   46.01    1.71
   0  -7  -6   41.36    1.98
   0   7   7   11.73    0.60
   0  -7  -7   13.14    0.89
   0   7   8   52.00    1.88
   0  -7  -8   57.87    2.28
   0   7  11    0.22    0.10
   0  -7 -11    0.05    0.19
   0   8  -5    0.26    0.13
   0   8  -5    0.18    0.15
   0   8  -4    0.36    0.18
   0   8  -4    0.31    0.16
   0   8  -3    2.54    0.35
   0   8  -3    1.89    0.30
   0   8  -2   -0.42    0.41
   0   8  -2    0.02    0.11
   0  -8   2    0.04    0.16
   0   8  -2    0.05    0.14
   0  -8   1    5.51    0.63
   0   8  -1    5.24    0.49
   0   8   0    3.75    0.40
   0   8   0    4.72    0.40
   0  -8   0    3.77    0.56
   0   8   1    0.49    0.18
   0  -8  -1    0.84    0.31
   0   8   1    0.62    0.19
   0   8   2    0.02    0.14
   0  -8  -2    0.04    0.20
   0   8   2    0.07    0.12
   0   8   3    1.01    0.18
   0  -8  -3    1.62    0.39
   0   8   4    7.94    0.59
   0   8   5    2.12    0.30
   0  -8  -5    2.03    0.42
   0  -8  -6    0.04    0.20
   0   8   6    0.15    0.14
   0  -8  -7    0.41    0.24
   0   8   7    0.83    0.19
   0   8   8   -0.10    0.58
   0  -8  -8    2.85    0.43
   0   8  11    4.22    0.31
   0   9  -3    0.21    0.14
   0   9  -2   -0.06    0.14
   0   9  -1    0.16    0.16
   0  -9   1    0.26    0.19
   0   9   0    0.33    0.17
   0  -9   0    0.38    0.24
   0  -9  -1   -0.05    0.20
   0   9   1   -0.02    0.12
   0   9   2    3.14    0.37
   0  -9  -2    3.18    0.55
   0   9   2    2.80    0.32
   0  -9  -3    2.61    0.50
   0   9   4    0.69    0.21
   0   9   5    6.08    0.51
   0  -9  -5    6.54    0.74
   0  -9  -6    2.80    0.50
   0   9   6    3.51    0.38
   0  -9  -7    6.35    0.71
   0  -9  -8    1.50    0.34
   0   9  11    7.83    0.44
   0  10   0    0.31    0.13
   0 -10   0    0.41    0.19
   0  10   1    0.02    0.10
   0 -10  -1    0.04    0.16
   0 -10  -2    3.77    0.55
   0 -10  -3    0.70    0.30
   0 -10  -4    1.14    0.35
   0 -10  -5    0.47    0.26
   0 -10  -6    1.38    0.36
   0 -10  -7    0.37    0.22
   0 -10  -8    0.14    0.15
   0 -11  -3   -0.07    0.15
   0 -11  -4   -0.11    0.17
   0 -11  -5    0.11    0.17
   0 -11  -6    0.89    0.26
   1 -11  -4    0.11    0.15
   1 -10  -9   -0.04    0.16
  -1  10   8    0.03    0.38
   1 -10  -8    1.15    0.28
   1 -10  -7   -0.04    0.14
   1 -10  -6    1.86    0.40
   1 -10  -5    0.64    0.27
  -1  10   5    0.76    0.20
  -1  10   4   -0.04    0.13
  -1  10   3    0.26    0.15
   1 -10  -3    0.28    0.22
   1 -10  -2   -0.04    0.18
   1 -10  -1    0.04    0.15
   1 -10   0   -0.07    0.14
  -1  10   0    0.10    0.37
  -1  10   0    0.03    0.09
   1  -9  -8    5.24    0.59
  -1   9   7    0.12    0.12
   1  -9  -7    0.17    0.21
   1  -9  -6    2.28    0.45
  -1   9   6    2.93    0.35
   1  -9  -5    0.05    0.24
  -1   9   5    0.09    0.14
  -1   9   4   11.71    0.75
   1  -9  -3    1.42    0.41
  -1   9   2   12.90    0.78
   1  -9  -2   12.03    1.04
  -1   9   1    3.03    0.35
   1  -9  -1    3.58    0.56
  -1   9   1    3.49    0.37
  -1   9   0    1.63    0.27
  -1   9   0    2.31    0.29
   1  -9   0    2.06    0.43
  -1   9  -1    2.54    0.33
   1  -9   1    2.57    0.43
  -1   9  -2    0.13    0.13
  -1   9  -3    0.02    0.11
  -1   8  11   -0.08    0.51
   1  -8 -10   -0.05    0.15
  -1   8   9    0.10    0.56
  -1   8   8    1.99    0.26
   1  -8  -8    2.06    0.38
   1  -8  -7    2.72    0.46
  -1   8   7    3.08    0.34
   1  -8  -6    2.95    0.50
  -1   8   6    3.74    0.39
  -1   8   5    3.10    0.37
   1  -8  -5    2.00    0.44
   1  -8  -4    0.19    0.24
  -1   8   4    0.19    0.15
  -1   8   3    5.80    0.52
   1  -8  -3    5.76    0.70
   1  -8  -2   -0.14    0.25
  -1   8   2    0.05    0.10
  -1   8   2    0.02    0.15
  -1   8   1    1.37    0.25
   1  -8  -1    1.50    0.39
  -1   8   1    2.20    0.32
  -1   8   0    0.77    0.21
  -1   8   0    0.61    0.20
   1  -8   0    0.68    0.28
  -1   8  -1    0.78    0.18
   1  -8   1    0.80    0.29
  -1   8  -1    0.56    0.19
  -1   8  -2    0.10    0.15
   1  -8   2    0.26    0.18
  -1   8  -3    0.13    0.14
  -1   8  -3    0.14    0.14
  -1   8  -4    0.09    0.13
  -1   8  -4    0.40    0.18
  -1   8  -5    0.06    0.11
  -1   7  11    0.09    0.54
  -1   7  10    0.10    0.57
  -1   7   8    0.73    0.16
   1  -7  -8    0.68    0.23
   1  -7  -7    1.13    0.30
  -1   7   7    1.26    0.22
  -1   7   6    2.53    0.31
   1  -7  -6    2.06    0.40
  -1   7   5   17.05    0.90
   1  -7  -5   16.98    1.14
   1  -7  -4    1.45    0.38
  -1   7   4    1.77    0.28
  -1   7   3   38.70    1.59
   1  -7  -2   34.55    1.71
  -1   7   2   29.14    1.20
  -1   7   1   39.39    1.54
  -1   7   1   40.66    1.63
   1  -7  -1   40.67    1.98
  -1   7   0   33.51    1.41
   1  -7   0   37.49    1.81
  -1   7   0   33.14    1.42
   1  -7   1    0.12    0.22
  -1   7  -1    0.14    0.14
  -1   7  -1    0.08    0.12
  -1   7  -1    0.17    0.14
   1  -7   2    3.49    0.49
  -1   7  -2    3.68    0.39
  -1   7  -2    3.26    0.38
  -1   7  -2    3.41    0.33
  -1   7  -3    0.58    0.21
  -1   7  -3    0.51    0.20
  -1   7  -4    3.17    0.38
  -1   7  -4    2.18    0.34
  -1   7  -5    0.24    0.17
  -1   7  -6    1.28    0.27
  -1   7  -6    1.44    0.24
  -1   7  -7   -0.08    0.13
  -1   6  10    0.10    0.58
  -1   6   9    0.10    0.55
  -1   6   7   11.63    0.57
   1  -6  -7   12.02    0.78
   1  -6  -6   10.57    0.75
  -1   6   6   11.24    0.57
   1  -6  -5   19.96    1.02
  -1   6   5   20.55    0.78
   1  -6  -4    2.04    0.36
  -1   6   4    2.68    0.30
  -1   6   3   30.44    1.13
  -1   6   3   34.65    1.34
  -1   6   2    0.84    0.15
   1  -6  -2    0.91    0.26
   1  -6  -1   20.80    1.21
  -1   6   1   21.75    0.99
  -1   6   0   -0.04    0.13
   1  -6   0   -0.03    0.16
  -1   6   0   -0.03    0.09
  -1   6  -1    0.36    0.14
   1  -6   1    0.36    0.19
  -1   6  -1    0.31    0.14
  -1   6  -2    3.46    0.36
  -1   6  -2    3.06    0.34
   1  -6   2    3.81    0.47
  -1   6  -2    3.25    0.31
  -1   6  -3    0.92    0.23
  -1   6  -3    1.01    0.17
   1  -6   3    1.03    0.26
  -1   6  -3    1.12    0.23
  -1   6  -4    0.90    0.25
  -1   6  -5    0.09    0.13
  -1   6  -5    0.06    0.16
  -1   6  -6    0.11    0.14
  -1   6  -6   -0.06    0.17
  -1   6  -7   -0.06    0.12
  -1   6  -7   -0.05    0.15
  -1   6  -8   -0.11    0.11
  -1   6  -8    0.02    0.12
  -1   5  12   -0.10    0.52
  -1   5  11   -0.11    0.54
  -1   5  10    1.14    0.27
  -1   5   9    0.55    0.22
  -1   5   8    0.09    0.52
  -1   5   8    1.35    0.27
   1  -5  -7    1.96    0.29
  -1   5   7    2.36    0.33
  -1   5   7    2.30    0.22
   1  -5  -6    0.32    0.15
  -1   5   6    0.52    0.17
  -1   5   6    0.44    0.13
  -1   5   5    2.10    0.23
   1  -5  -5    1.99    0.32
   1  -5  -4    3.44    0.39
  -1   5   4    3.45    0.30
   1  -5  -3    0.28    0.15
  -1   5   3    0.42    0.13
  -1   5   2   18.66    0.85
   1  -5  -1   53.39    2.10
  -1   5   1   52.67    1.72
  -1   5   0   38.48    1.46
  -1   5   0   37.94    1.38
  -1   5  -1   35.08    1.35
  -1   5  -1   34.22    1.33
   1  -5   2    3.12    0.38
  -1   5  -2    2.70    0.29
  -1   5  -2    2.21    0.25
   1  -5   3   25.34    1.20
  -1   5  -3   23.30    1.08
  -1   5  -3   21.80    0.92
  -1   5  -4   -0.02    0.15
  -1   5  -5   15.42    0.95
  -1   5  -5   17.93    0.91
  -1   5  -6    0.03    0.18
  -1   5  -6   -0.04    0.13
  -1   5  -7    4.27    0.41
  -1   5  -7    3.42    0.45
  -1   5  -8   -0.06    0.11
  -1   5  -8   -0.08    0.15
   1  -5   9    0.17    0.30
  -1   4  13   -0.09    0.55
   1  -4 -13   -0.05    0.29
  -1   4  11    0.58    0.23
  -1   4  11   -0.12    0.70
  -1   4  10    4.41    0.53
  -1   4   9    3.45    0.45
  -1   4   8   50.48    2.07
  -1   4   7    0.22    0.16
   1  -4  -6  115.33    1.99
  -1   4   6  120.01    1.78
  -1   4   6  122.80    2.26
   1  -4  -6  124.05    2.13
   1  -4  -6  129.84    2.22
   1  -4  -5   22.84    1.06
  -1   4   5   23.91    0.92
   1  -4  -5   23.13    1.02
   1  -4  -5   23.47    0.96
  -1   4   5   22.77    1.01
  -1   4   4   90.37    2.87
  -1   4   4   94.96    2.94
  -1   4   4   89.29    2.84
   1  -4  -4   87.95    3.00
   1  -4  -4   93.40    3.07
   1  -4  -3   67.57    2.47
   1  -4  -3   74.72    2.56
  -1   4   3   70.69    2.35
  -1   4   3   77.78    2.35
  -1   4   2  139.64    4.32
  -1   4   2  146.72    4.36
   1  -4  -1  208.43    6.07
   1  -4  -1  183.38    5.94
  -1   4   0   48.46    1.60
   1  -4   0   47.24    1.79
   1  -4   0   46.75    1.72
  -1   4   0   44.89    1.60
  -1   4   0   45.94    1.54
   1  -4   1    9.42    0.56
  -1   4  -1    8.23    0.46
  -1   4  -1    9.28    0.48
  -1   4  -1    9.26    0.48
   1  -4   2    7.02    0.52
   1  -4   2    7.79    0.48
  -1   4  -2    6.82    0.44
  -1   4  -2    6.64    0.40
  -1   4  -2    7.11    0.34
  -1   4  -3    6.16    0.44
   1  -4   3    5.38    0.38
  -1   4  -3    5.81    0.33
   1  -4   3    5.64    0.46
  -1   4  -3    6.07    0.35
  -1   4  -4    0.92    0.21
  -1   4  -4    0.94    0.14
  -1   4  -5    0.61    0.19
  -1   4  -6    0.44    0.20
  -1   4  -6    0.31    0.16
  -1   4  -7    0.22    0.13
  -1   4  -8   -0.02    0.11
  -1   4  -9   -0.03    0.10
  -1   4  -9    0.21    0.16
  -1   4 -10    0.07    0.13
   1  -4  10    0.16    0.35
  -1   3  13    0.27    0.59
  -1   3  11    0.13    0.66
  -1   3  11    4.03    0.52
  -1   3  10   16.41    1.11
  -1   3   9    0.99    0.29
  -1   3   8   54.25    2.28
  -1   3   7   38.97    1.73
   1  -3  -6   45.75    1.53
  -1   3   6   48.08    1.83
   1  -3  -6   43.82    1.69
   1  -3  -5    5.49    0.37
  -1   3   5    5.20    0.41
  -1   3   5    5.24    0.29
   1  -3  -5    4.87    0.35
  -1   3   5    4.77    0.26
   1  -3  -5    5.63    0.34
  -1   3   4   72.54    2.37
   1  -3  -4   77.51    2.43
   1  -3  -4   74.00    2.46
  -1   3   4   76.46    2.35
   1  -3  -4   79.56    2.53
  -1   3   4   79.32    2.50
   1  -3  -3   23.02    0.74
  -1   3   3   23.06    0.63
   1  -3  -3   23.65    0.79
  -1   3   3   24.54    0.61
   1  -3  -2  416.88    3.16
  -1   3   2  415.04    2.49
  -1   3   2  419.46    2.36
  -1   3   1   19.21    0.53
   1  -3  -1   17.83    0.64
   1  -3  -1   18.20    0.68
  -1   3   1   17.23    0.53
  -1   3   0   10.98    0.48
  -1   3   0   10.87    0.49
   1  -3   0   10.65    0.55
   1  -3   0   11.49    0.60
  -1   3  -1   49.00    1.54
   1  -3   1   45.75    1.68
  -1   3  -1   45.51    1.55
   1  -3   1   47.52    1.64
   1  -3   2   11.11    0.54
  -1   3  -2    9.70    0.47
  -1   3  -2   12.41    0.50
   1  -3   2   11.66    0.61
  -1   3  -2   10.22    0.43
  -1   3  -3   26.61    0.95
  -1   3  -3   26.36    0.94
   1  -3   3   27.32    1.00
   1  -3   3   26.62    1.10
  -1   3  -4   15.87    0.62
  -1   3  -4   16.31    0.68
  -1   3  -4   15.77    0.77
  -1   3  -5    4.74    0.41
  -1   3  -5    4.29    0.32
  -1   3  -6   15.91    0.75
  -1   3  -7   -0.02    0.17
  -1   3  -7   -0.02    0.11
  -1   3  -8    5.56    0.53
  -1   3  -8    4.74    0.40
  -1   3  -9    0.36    0.18
  -1   3  -9    0.30    0.12
   1  -3  10   -0.19    0.39
  -1   3 -10    0.02    0.14
  -1   3 -11    0.08    0.11
   1  -3  11    0.06    0.23
  -1   2  12    0.43    0.20
  -1   2  12    0.12    0.64
   1  -2 -12    0.05    0.27
  -1   2  11    2.99    0.49
  -1   2  10   -0.14    0.82
  -1   2  10    1.14    0.34
  -1   2   9    4.43    0.62
  -1   2   8    3.62    0.54
  -1   2   7   10.44    0.84
   1  -2  -6    6.56    0.26
  -1   2   6    6.37    0.60
   1  -2  -6    7.78    0.63
  -1   2   5  175.61    5.45
   1  -2  -5  175.53    4.99
   1  -2  -5  174.02    5.23
   1  -2  -5  189.80    5.41
   1  -2  -4   55.81    1.80
  -1   2   4   53.20    1.65
  -1   2   4   52.27    1.91
   1  -2  -4   54.87    1.72
  -1   2   3    9.00    0.38
   1  -2  -3    9.19    0.44
  -1   2   2  401.84   11.53
   1  -2  -2  400.08   11.62
  -1   2   1   10.19    0.41
   1  -2   0    9.80    0.46
   1  -2   1  320.99    9.39
  -1   2  -1  324.02    9.32
  -1   2  -2   30.46    1.01
   1  -2   2   31.79    1.08
  -1   2  -3  127.00    3.82
  -1   2  -3  130.16    3.79
   1  -2   3  127.97    3.83
   1  -2   4  230.97    6.54
  -1   2  -4  229.76    6.64
   1  -2   5    1.47    0.25
  -1   2  -5    1.75    0.19
  -1   2  -5    1.36    0.09
  -1   2  -6   28.47    1.11
  -1   2  -6   28.68    1.21
  -1   2  -7    0.53    0.19
  -1   2  -7    0.67    0.15
  -1   2  -7    0.72    0.17
  -1   2  -8    0.73    0.16
  -1   2  -8    0.72    0.22
  -1   2  -9    0.15    0.16
   1  -2  10    0.10    0.33
  -1   2 -10    0.03    0.13
   1  -2  11   -0.15    0.30
  -1   2 -11   -0.11    0.14
   1  -2  12   -0.15    0.25
  -1   1  13   -0.08    0.54
  -1   1  12    0.19    0.20
   1  -1 -12   -0.03    0.19
  -1   1  11   -0.15    0.23
  -1   1  10    0.11    0.24
  -1   1   9    0.29    0.25
   1  -1  -8    0.66    0.15
  -1   1   8    0.69    0.33
  -1   1   7   59.54    2.62
   1  -1  -7   64.11    1.77
   1  -1  -6   63.32    2.00
  -1   1   6   56.64    2.67
   1  -1  -6   59.24    2.03
   1  -1  -5   75.49    2.37
   1  -1  -5   77.85    2.74
   1  -1  -5   75.94    2.33
  -1   1   4   17.25    0.57
   1  -1  -4   19.58    0.90
   1  -1  -4   18.89    0.59
   1  -1  -3  210.43    6.38
   1  -1  -3  207.19    6.29
   1  -1  -3  216.97    6.17
   1  -1  -2  199.87    5.92
  -1   1   2  203.78    5.93
   1  -1  -2  205.28    5.89
  -1   1   1   35.37    1.15
  -1   1   0  292.60    8.32
   1  -1   0  283.28    8.30
  -1   1  -1  188.25    5.50
   1  -1   1  188.39    5.47
  -1   1  -3   69.68    2.07
   1  -1   3   70.42    2.08
  -1   1  -4    1.10    0.13
  -1   1  -4    1.15    0.18
   1  -1   4    1.06    0.18
  -1   1  -5   74.43    2.27
   1  -1   5   73.86    2.51
  -1   1  -6    0.82    0.18
  -1   1  -7    6.16    0.46
  -1   1  -8    5.16    0.44
  -1   1  -8    5.32    0.35
   1  -1   9    1.02    0.57
  -1   1  -9    0.86    0.22
   1  -1  10    2.86    0.75
  -1   1 -10    2.37    0.34
   1  -1  11    0.39    0.34
  -1   1 -11    0.08    0.13
   1  -1  12    0.74    0.35
  -1   0  12   -0.12    0.62
  -1   0  12    0.04    0.16
  -1   0  11    0.45    0.31
   1   0 -10    0.29    0.14
  -1   0  10    0.20    0.26
  -1   0   9    0.54    0.39
   1   0  -9   -0.05    0.30
   1   0  -9    0.27    0.13
   1   0  -8    3.59    0.35
  -1   0   8    3.39    0.72
   1   0  -7   16.28    0.78
  -1   0   7   13.33    1.31
   1   0  -6    1.10    0.19
   1   0  -6    1.37    0.19
  -1   0   6    0.83    0.17
   1   0  -5    6.46    0.40
   1   0  -5    6.32    0.37
  -1   0   5    5.52    0.40
  -1   0   4   11.23    0.57
   1   0  -4   12.69    0.55
   1   0  -4   11.85    0.52
  -1   0   3   26.95    0.83
  -1   0   3   28.79    0.86
  -1   0   3   27.77    1.01
   1   0  -2   28.88    1.08
  -1   0   2   26.63    1.02
  -1   0   2   28.83    0.88
   1   0   0   19.67    0.63
  -1   0   0   21.18    0.64
  -1   0  -2   30.59    0.91
   1   0   2   28.64    0.93
   1   0   3 1000.00   28.58
  -1   0  -4  239.83    6.78
  -1   0  -4  234.92    6.75
  -1   0  -5  193.71    5.57
  -1   0  -5  190.83    5.59
  -1   0  -5  201.31    5.72
  -1   0  -6   53.79    1.78
  -1   0  -6   54.88    1.83
   1   0   6   52.13    1.89
  -1   0  -6   55.27    1.86
   1   0   7   50.85    1.86
  -1   0  -7   53.31    1.83
  -1   0  -7   52.53    1.81
  -1   0  -8    3.61    0.34
  -1   0  -8    3.91    0.33
   1   0   8    3.15    0.74
  -1   0  -9    4.05    0.38
   1   0   9    2.38    0.66
   1   0  10    0.09    0.28
  -1   0 -10   -0.02    0.12
  -1   0 -11    1.57    0.24
   1   0  11    1.47    0.50
   1   0  12    1.93    0.49
   1   0  13    0.16    0.21
  -1  -1  12   -0.10    0.64
  -1  -1  11    0.11    0.27
  -1  -1  10    0.24    0.34
   1   1 -10    0.34    0.16
  -1  -1   9    3.13    0.75
   1   1  -9    3.34    0.37
   1   1  -8    0.15    0.15
   1   1  -7    4.71    0.29
   1   1  -7    4.69    0.40
   1   1  -6   31.10    0.72
   1   1  -6   32.05    0.93
   1   1  -5   10.62    0.60
   1   1  -5    9.86    0.46
  -1  -1   5   10.73    0.68
  -1  -1   5    8.93    0.58
   1   1  -5   10.31    0.55
   1   1  -4  105.09    3.42
  -1  -1   4  103.87    3.48
   1   1  -4  108.21    3.28
  -1  -1   4  111.23    3.59
   1   1  -4  113.93    3.38
  -1  -1   3   44.80    1.33
   1   1  -3   46.72    1.50
  -1  -1   3   43.78    1.34
  -1  -1   0  130.88    3.79
  -1  -1  -1   69.27    2.04
   1   1   3    5.92    0.23
  -1  -1  -3    6.38    0.24
   1   1   4   18.02    1.11
   1   1   4   19.82    0.70
   1   1   5  304.86    8.59
  -1  -1  -5  292.23    8.60
  -1  -1  -5  297.99    8.44
  -1  -1  -5  291.53    8.58
  -1  -1  -5  305.45    8.82
  -1  -1  -6   17.29    0.71
   1   1   6   16.50    0.69
   1   1   6   18.41    0.62
  -1  -1  -6   17.59    0.72
   1   1   7    2.86    0.24
  -1  -1  -7    2.92    0.25
   1   1   7    3.35    0.61
  -1  -1  -7    2.77    0.24
  -1  -1  -8    1.94    0.23
  -1  -1  -8    2.22    0.23
   1   1   9   14.36    1.35
  -1  -1  -9   13.46    0.69
   1   1  10    1.97    0.54
  -1  -1 -10    1.39    0.22
   1   1  11    1.53    0.50
   1   1  12   -0.06    0.26
   1   1  13    0.09    0.21
   1   2 -11    0.48    0.15
  -1  -2  11    0.05    0.23
   1   2 -10    2.05    0.30
  -1  -2  10    1.24    0.49
   1   2  -9    0.53    0.20
  -1  -2   9    0.30    0.40
   1   2  -8   11.73    0.77
   1   2  -7    5.77    0.48
   1   2  -7    5.27    0.35
   1   2  -6   29.01    0.78
   1   2  -6   30.14    0.98
   1   2  -5    1.76    0.24
   1   2  -5    2.10    0.21
  -1  -2   4    7.52    0.24
  -1  -2   4    7.11    0.20
  -1  -2   4    7.28    0.56
   1   2  -4    8.28    0.38
   1   2  -3    8.80    0.35
  -1  -2   3    8.74    0.25
   1   2  -2    1.04    0.12
   1   2  -2    0.75    0.12
   1   2  -2    0.73    0.08
   1   2  -2    1.03    0.16
  -1  -2   2    0.75    0.08
  -1  -2   1    0.16    0.05
   1   2  -1    0.18    0.05
   1   2   0    1.54    0.12
   1   2   1   63.70    1.92
   1   2   2    6.41    0.28
  -1  -2  -3   26.22    0.81
  -1  -2  -3   24.77    0.85
   1   2   3   27.79    0.86
  -1  -2  -4   90.07    2.72
   1   2   4   92.92    2.73
  -1  -2  -4   92.50    2.79
   1   2   4   96.16    3.10
   1   2   5   47.30    2.01
  -1  -2  -5   49.64    1.53
  -1  -2  -5   49.09    1.58
   1   2   6  151.89    4.86
  -1  -2  -6  131.27    4.13
  -1  -2  -6  138.45    4.08
  -1  -2  -6  136.87    4.19
  -1  -2  -6  148.58    4.42
  -1  -2  -7   10.06    0.46
  -1  -2  -7   10.09    0.50
  -1  -2  -7   10.05    0.70
   1   2   7   10.93    0.44
   1   2   8   76.55    2.43
  -1  -2  -8   75.49    1.21
   1   2   9   11.45    1.08
   1   2  10   12.53    1.16
   1   2  11    6.12    0.81
   1   2  12    1.01    0.37
   1   2  13    1.43    0.36
  -1  -3  10    0.08    0.29
   1   3 -10    0.04    0.13
   1   3  -9    0.78    0.23
  -1  -3   9    0.70    0.50
   1   3  -8    0.08    0.16
   1   3  -8   -0.02    0.09
   1   3  -7    0.10    0.11
   1   3  -7    0.11    0.18
   1   3  -6   -0.02    0.14
   1   3  -6    0.02    0.10
   1   3  -6   -0.17    0.17
   1   3  -5    1.53    0.21
   1   3  -5    0.02    0.12
   1   3  -4    0.13    0.08
   1   3  -4    0.14    0.12
   1   3  -4   -0.02    0.11
   1   3  -3   40.76    0.85
   1   3  -3   43.74    1.00
   1   3  -2   28.29    0.96
   1   3  -2   26.94    1.06
  -1  -3   2   27.58    0.95
   1   3  -1   11.46    0.43
   1   3  -1   12.50    0.42
   1   3  -1   12.25    0.37
  -1  -3   1   12.17    0.38
  -1  -3   0  217.82    6.35
   1   3   0  220.06    6.35
   1   3   0  210.14    6.36
   1   3   0  216.97    6.35
   1   3   0  221.00    6.36
  -1  -3  -1  234.63    6.84
   1   3   2  567.45   16.43
   1   3   2  578.38   16.35
   1   3   2  561.52   16.35
   1   3   3  130.38    1.64
  -1  -3  -3  130.13    1.64
   1   3   3  140.49    1.66
   1   3   3  139.26    1.95
  -1  -3  -4   47.77    1.60
   1   3   4   49.58    1.78
  -1  -3  -4   50.83    1.58
   1   3   4   52.05    1.58
   1   3   4   48.24    1.57
   1   3   5    2.42    0.17
  -1  -3  -5    2.36    0.17
  -1  -3  -5    2.39    0.17
  -1  -3  -5    2.16    0.20
   1   3   5    2.29    0.31
   1   3   5    2.22    0.16
  -1  -3  -6  170.58    5.07
  -1  -3  -6  169.32    5.18
   1   3   6  184.03    5.62
  -1  -3  -7    0.58    0.11
  -1  -3  -7    0.68    0.18
  -1  -3  -7    0.65    0.11
   1   3   7    0.76    0.25
   1   3   8   40.86    2.00
   1   3   8   42.46    1.39
   1   3   9    8.69    0.85
   1   3  10    1.21    0.39
   1   3  11    0.21    0.27
   1   3  12    0.39    0.27
   1   3  13    0.12    0.18
  -1  -4  10   -0.30    0.25
   1   4  -9    0.99    0.24
  -1  -4   9    0.55    0.42
   1   4  -8   -0.03    0.15
   1   4  -8    0.09    0.10
   1   4  -7    7.55    0.54
   1   4  -7    8.80    0.69
   1   4  -6    5.81    0.47
   1   4  -5   18.04    0.89
   1   4  -5   18.34    1.00
   1   4  -4    3.04    0.30
   1   4  -4    3.75    0.38
   1   4  -3    0.20    0.23
  -1  -4   3    2.11    0.26
   1   4  -3    0.02    0.13
   1   4  -3    2.16    0.24
   1   4  -3    2.46    0.29
   1   4  -3    2.21    0.19
  -1  -4   2    6.15    0.43
   1   4  -2    6.57    0.32
   1   4  -2    5.94    0.39
   1   4  -1    0.25    0.08
   1   4  -1    0.20    0.08
  -1  -4   1    0.25    0.08
   1   4  -1    0.23    0.09
   1   4  -1    0.15    0.09
   1   4   0    0.23    0.09
   1   4   0    0.08    0.08
  -1  -4   0    0.02    0.06
   1   4   0    0.17    0.08
   1   4   0    0.20    0.08
  -1  -4  -1   85.51    2.55
   1   4   1   77.06    2.49
   1   4   1   77.26    2.51
   1   4   1   79.94    2.53
   1   4   1   87.19    2.56
   1   4   2    0.40    0.10
  -1  -4  -2    0.45    0.10
   1   4   2    0.48    0.09
   1   4   2    0.55    0.11
   1   4   3    8.91    0.44
  -1  -4  -3    8.92    0.44
   1   4   3    9.56    0.45
   1   4   4   58.75    1.82
  -1  -4  -4   56.08    1.82
   1   4   4   54.97    1.96
   1   4   4   53.51    1.81
   1   4   5    1.83    0.26
   1   4   5    2.03    0.18
  -1  -4  -5    2.03    0.16
  -1  -4  -5    2.09    0.19
   1   4   5    2.02    0.18
  -1  -4  -6    3.63    0.34
   1   4   6    3.75    0.25
   1   4   6    4.50    0.43
   1   4   6    3.83    0.25
  -1  -4  -6    3.59    0.25
  -1  -4  -7    0.38    0.12
   1   4   7    0.92    0.25
   1   4   8   14.37    0.98
   1   4   9    0.28    0.23
   1   4   9    0.05    0.07
   1   4  10   10.57    0.92
   1   4  11    1.10    0.35
   1   4  12    9.52    0.86
   1   4  13    0.04    0.17
   1   5  -9    0.16    0.13
  -1  -5   9    0.07    0.26
   1   5  -8    0.11    0.10
   1   5  -7    1.03    0.22
   1   5  -6    0.15    0.18
   1   5  -6    0.20    0.15
   1   5  -5    4.20    0.43
   1   5  -5    4.83    0.50
   1   5  -4    0.12    0.14
   1   5  -4    0.18    0.19
   1   5  -3    0.24    0.17
  -1  -5   3    0.38    0.15
   1   5  -2   11.03    0.66
   1   5  -2   11.14    0.63
  -1  -5   2   11.47    0.73
   1   5  -1    5.17    0.39
  -1  -5   1    5.04    0.48
   1   5  -1    5.26    0.40
   1   5  -1    5.40    0.35
   1   5   0   27.61    1.05
   1   5   0   27.70    1.07
  -1  -5   0   29.48    1.31
  -1  -5   0   27.99    1.06
   1   5   0   25.29    1.05
   1   5   0   25.58    1.06
   1   5   1   82.88    2.77
   1   5   1   83.37    2.71
   1   5   1   91.03    2.79
   1   5   1   89.93    2.76
  -1  -5  -1   86.48    2.78
  -1  -5  -2    7.43    0.43
   1   5   2    6.74    0.38
   1   5   3  195.75    2.80
   1   5   3  198.73    2.79
   1   5   4    0.87    0.14
  -1  -5  -4    0.86    0.15
   1   5   4    0.84    0.15
   1   5   5  153.93    4.86
   1   5   5  148.46    4.63
   1   5   5  156.80    4.65
  -1  -5  -5  150.65    4.90
  -1  -5  -6   11.15    0.70
   1   5   6   11.69    0.55
   1   5   6   11.65    0.73
   1   5   7   66.20    2.42
  -1  -5  -7   58.73    2.26
   1   5   8   15.25    0.98
   1   5   9   57.78    2.43
   1   5  10    4.68    0.58
   1   5  10    4.11    0.30
   1   5  11    5.63    0.65
   1   5  12    4.59    0.57
   1   5  13   -0.03    0.16
   1   6  -8    0.20    0.14
   1   6  -7    0.23    0.17
   1   6  -7    0.16    0.12
   1   6  -6    0.81    0.21
   1   6  -6    1.61    0.31
   1   6  -5    1.50    0.32
   1   6  -5    1.41    0.27
   1   6  -4    1.07    0.29
   1   6  -4    1.13    0.26
   1   6  -3    3.11    0.39
   1   6  -2    0.41    0.18
   1   6  -2    0.42    0.17
  -1  -6   2    0.29    0.18
  -1  -6   1    0.03    0.17
   1   6  -1    0.28    0.16
   1   6  -1    0.10    0.09
   1   6  -1    0.04    0.11
   1   6   0   21.94    0.99
   1   6   0   22.21    0.95
  -1  -6   0   23.97    1.23
   1   6   0   20.44    0.95
   1   6   1   53.87    1.83
  -1  -6  -1   57.41    2.20
   1   6   1   49.62    1.81
   1   6   1   48.11    1.75
   1   6   2   19.38    0.83
  -1  -6  -2   19.12    1.10
   1   6   3   19.49    0.81
   1   6   3   21.25    0.92
  -1  -6  -4    0.09    0.15
   1   6   4    0.23    0.13
   1   6   5    5.27    0.38
  -1  -6  -5    4.60    0.49
   1   6   6    1.31    0.19
  -1  -6  -6    1.14    0.26
  -1  -6  -7    3.78    0.46
   1   6   7    5.25    0.52
  -1  -6  -8   36.99    1.22
   1   6   8   39.23    1.39
   1   6   9    3.27    0.46
   1   6  10    6.07    0.40
   1   6  10    5.65    0.61
   1   6  11    1.21    0.33
   1   6  11    0.73    0.14
   1   6  12    0.55    0.24
   1   6  13    1.84    0.32
   1   7  -6    0.72    0.18
   1   7  -6    0.62    0.20
   1   7  -5   -0.02    0.15
   1   7  -5   -0.08    0.15
   1   7  -4    1.32    0.30
   1   7  -3    0.03    0.15
   1   7  -3    0.05    0.15
  -1  -7   2    0.20    0.18
   1   7  -2    0.02    0.15
   1   7  -2    0.05    0.13
  -1  -7   1    1.91    0.36
   1   7  -1    1.31    0.27
   1   7  -1    1.40    0.26
  -1  -7   0    5.54    0.62
   1   7   0    5.64    0.44
   1   7   0    6.18    0.50
   1   7   0    5.98    0.44
   1   7   1    2.35    0.28
  -1  -7  -1    2.52    0.42
   1   7   1    2.14    0.28
  -1  -7  -2    2.66    0.44
   1   7   2    2.03    0.26
   1   7   2    2.07    0.27
   1   7   3    4.05    0.33
  -1  -7  -3    4.23    0.53
  -1  -7  -4   16.66    1.13
   1   7   4   19.20    0.91
  -1  -7  -5    0.14    0.20
   1   7   5    0.05    0.12
  -1  -7  -6   67.34    2.87
   1   7   6   77.17    2.54
  -1  -7  -7   31.84    1.59
  -1  -7  -8    6.21    0.60
   1   7  11    7.76    0.46
   1   8  -5   -0.08    0.12
   1   8  -5    0.13    0.12
   1   8  -4    0.40    0.17
   1   8  -3    0.16    0.15
   1   8  -3    0.05    0.15
   1   8  -2    3.28    0.39
   1   8  -2    2.53    0.34
   1   8  -1    0.23    0.15
   1   8  -1    0.24    0.16
  -1  -8   1   -0.04    0.17
  -1  -8   0    6.50    0.69
   1   8   0    6.19    0.52
  -1  -8  -1    0.68    0.29
   1   8   1    0.64    0.19
  -1  -8  -2   10.81    0.91
   1   8   2    9.47    0.63
   1   8   2    9.09    0.60
  -1  -8  -3    0.84    0.32
   1   8   3    1.09    0.20
   1   8   4    4.92    0.44
  -1  -8  -5    0.22    0.20
   1   8   5    0.25    0.15
   1   8   6    2.81    0.32
  -1  -8  -6    1.97    0.43
  -1  -8  -7    0.16    0.20
  -1  -8  -8    2.44    0.41
   1   8   8   -0.29    0.44
  -1  -8  -9    0.06    0.15
   1   8  11   -0.01    0.08
   1   9  -3    0.21    0.14
   1   9  -2    0.13    0.15
   1   9  -1    0.41    0.18
  -1  -9   1    0.39    0.19
  -1  -9   0    1.22    0.33
   1   9   0    0.99    0.23
   1   9   1    0.11    0.14
  -1  -9  -1    0.40    0.24
  -1  -9  -2    1.30    0.38
   1   9   2    1.78    0.26
  -1  -9  -3    0.62    0.31
  -1  -9  -5    3.18    0.52
  -1  -9  -6    1.70    0.40
  -1  -9  -7    2.00    0.41
  -1  -9  -8    0.71    0.27
  -1  -9  -9    1.45    0.30
   1   9  11    0.97    0.17
   1  10  -1    0.08    0.11
   1  10   0    0.21    0.13
  -1 -10   0    0.06    0.12
  -1 -10  -1    1.99    0.40
   1  10   1    1.70    0.25
  -1 -10  -2   -0.04    0.18
  -1 -10  -3    2.05    0.43
  -1 -10  -4    0.66    0.30
   1  10   5    1.02    0.56
  -1 -10  -6    1.57    0.39
  -1 -10  -7    3.79    0.55
  -1 -10  -8    0.59    0.24
  -1 -10  -9    4.55    0.50
   1  10  10    2.29    0.25
  -1 -11  -3    0.57    0.22
  -1 -11  -4    0.19    0.19
  -1 -11  -6    0.48    0.24
  -1 -11  -7    0.34    0.19
   2 -10  -7    4.52    0.54
   2 -10  -6    0.45    0.23
  -2  10   6    0.52    0.15
  -2  10   5    2.89    0.33
   2 -10  -5    3.32    0.53
  -2  10   4    0.33    0.16
  -2  10   3    0.93    0.21
   2 -10  -3    0.91    0.30
   2 -10  -2    0.57    0.27
  -2  10   2    0.71    0.18
   2 -10  -1   -0.08    0.16
   2 -10   0   -0.03    0.15
   2  -9  -8    0.03    0.12
  -2   9   8    0.10    0.10
   2  -9  -8    0.05    0.12
   2  -9  -7    0.25    0.19
  -2   9   7   -0.02    0.12
   2  -9  -6    0.14    0.17
  -2   9   6    0.17    0.14
   2  -9  -5    1.37    0.37
  -2   9   5    1.56    0.28
   2  -9  -4    0.15    0.22
  -2   9   4    0.29    0.17
   2  -9  -3    2.50    0.50
   2  -9  -2    0.05    0.17
  -2   9   2   -0.02    0.14
   2  -9  -1    5.06    0.66
  -2   9   1    4.02    0.38
  -2   9   1    4.86    0.45
   2  -9   0   -0.05    0.17
  -2   9   0   -0.06    0.12
  -2   9   0    0.04    0.13
  -2   9  -1    2.76    0.29
  -2   9  -1    2.48    0.32
   2  -9   1    3.52    0.51
  -2   9  -2    0.82    0.19
  -2   9  -3    0.59    0.17
  -2   8   8    9.43    0.56
   2  -8  -8    8.82    0.77
  -2   8   7    4.20    0.40
   2  -8  -7    3.42    0.51
  -2   8   6    6.19    0.51
   2  -8  -6    5.55    0.68
   2  -8  -5    5.05    0.66
  -2   8   5    6.15    0.52
   2  -8  -4    3.30    0.55
  -2   8   4    3.48    0.41
  -2   8   3    4.72    0.47
   2  -8  -2    3.14    0.54
  -2   8   2    2.45    0.29
  -2   8   1    1.00    0.25
  -2   8   1    0.57    0.17
   2  -8   0    7.54    0.80
  -2   8   0    8.36    0.58
  -2   8   0    8.25    0.60
  -2   8  -1    2.80    0.33
   2  -8   1    2.53    0.47
  -2   8  -1    2.82    0.34
   2  -8   2    0.65    0.24
  -2   8  -2    0.51    0.15
  -2   8  -2    0.67    0.20
  -2   8  -3    1.00    0.23
  -2   8  -4   -0.06    0.11
  -2   8  -4    0.08    0.12
  -2   7  11   -0.16    0.51
  -2   7  10   -0.09    0.51
  -2   7   9   -0.09    0.59
  -2   7   8    0.65    0.68
  -2   7   7    7.99    0.55
   2  -7  -7    8.81    0.78
  -2   7   6    0.19    0.16
   2  -7  -6   -0.04    0.16
   2  -7  -5    0.56    0.25
  -2   7   5    0.96    0.23
  -2   7   4    0.62    0.20
   2  -7  -4    0.79    0.29
  -2   7   3    1.61    0.28
   2  -7  -2    6.24    0.71
  -2   7   2    5.44    0.40
  -2   7   1    3.55    0.39
  -2   7   1    3.55    0.34
   2  -7  -1    4.44    0.59
   2  -7   0    0.83    0.30
  -2   7   0    0.38    0.18
  -2   7   0    0.88    0.20
  -2   7  -1    0.02    0.12
   2  -7   1    0.30    0.22
  -2   7  -1    0.17    0.15
  -2   7  -2    2.60    0.35
   2  -7   2    3.10    0.49
  -2   7  -2    3.06    0.33
  -2   7  -2    2.45    0.32
  -2   7  -3    2.82    0.29
  -2   7  -3    3.36    0.39
   2  -7   3    3.33    0.47
  -2   7  -3    3.21    0.38
  -2   7  -4    1.44    0.28
  -2   7  -4    1.44    0.28
  -2   7  -5    1.31    0.28
  -2   7  -6    0.76    0.21
  -2   7  -6    0.60    0.19
  -2   6  10   -0.09    0.58
  -2   6   9   -0.10    0.62
   2  -6  -7   27.35    1.38
  -2   6   7   23.84    1.05
  -2   6   6    8.37    0.54
   2  -6  -6    6.97    0.66
  -2   6   5   24.98    1.09
   2  -6  -5   20.52    1.26
   2  -6  -4   34.29    1.71
  -2   6   4   35.73    1.46
   2  -6  -3    0.41    0.22
  -2   6   3    0.40    0.18
  -2   6   2   61.99    2.23
   2  -6  -2   58.51    2.52
  -2   6   1    1.78    0.27
   2  -6  -1    1.52    0.35
  -2   6   0   25.89    1.10
   2  -6   0   28.62    1.52
  -2   6   0   30.74    1.26
   2  -6   1    7.19    0.69
  -2   6  -1    7.77    0.54
  -2   6  -1    6.91    0.49
   2  -6   2   16.35    1.06
  -2   6  -2   15.67    0.84
  -2   6  -2   15.94    0.82
   2  -6   3    0.81    0.25
  -2   6  -3    0.94    0.19
  -2   6  -3    1.19    0.25
  -2   6  -4    3.27    0.40
  -2   6  -4    3.54    0.39
  -2   6  -5    0.30    0.19
  -2   6  -6    0.39    0.19
  -2   6  -6    0.36    0.17
  -2   6  -7   -0.08    0.16
  -2   6  -7   -0.06    0.12
  -2   6  -8    0.02    0.13
  -2   6  -8    0.06    0.10
  -2   5  12    0.24    0.53
  -2   5  10    0.20    0.50
  -2   5   9    0.29    0.51
   2  -5  -8    0.05    0.15
  -2   5   8    0.09    0.58
   2  -5  -7   40.25    1.67
  -2   5   7   36.41    1.37
   2  -5  -6    0.79    0.22
  -2   5   6    0.50    0.14
  -2   5   5   20.42    0.86
   2  -5  -5   21.97    1.11
   2  -5  -4   15.02    0.92
  -2   5   4   13.73    0.72
  -2   5   3    4.94    0.37
   2  -5  -3    4.85    0.49
  -2   5   2    2.75    0.29
   2  -5  -1   11.30    0.79
  -2   5   0    0.24    0.10
   2  -5   0    0.45    0.20
  -2   5   0    0.26    0.14
  -2   5  -1   11.63    0.64
  -2   5  -1   10.89    0.60
   2  -5   1   12.02    0.83
   2  -5   2    0.03    0.12
  -2   5  -2   -0.02    0.10
  -2   5  -2    0.03    0.10
   2  -5   3    0.44    0.18
  -2   5  -3    0.34    0.15
  -2   5  -3    0.28    0.12
  -2   5  -4    1.22    0.25
  -2   5  -4    1.21    0.18
  -2   5  -4    1.09    0.16
  -2   5  -5    0.65    0.23
  -2   5  -6    3.16    0.36
  -2   5  -6    3.06    0.40
  -2   5  -7    0.06    0.16
  -2   5  -7    0.26    0.15
  -2   5  -8    0.32    0.15
  -2   5  -8    0.22    0.18
  -2   5  -9   -0.03    0.09
   2  -5   9   -0.08    0.31
  -2   4  12   -0.18    0.53
  -2   4   9    0.11    0.61
  -2   4   8   -0.10    0.50
  -2   4   6    3.56    0.29
   2  -4  -6    3.59    0.31
   2  -4  -5    0.11    0.11
  -2   4   5    0.06    0.34
  -2   4   5    0.03    0.07
   2  -4  -5    0.13    0.08
  -2   4   5    0.14    0.09
  -2   4   5    0.03    0.06
   2  -4  -5    0.23    0.08
   2  -4  -4    9.62    0.63
   2  -4  -4    9.02    0.52
  -2   4   4    9.15    0.47
  -2   4   4    9.54    0.44
   2  -4  -3   47.39    1.36
  -2   4   3   46.94    1.04
   2  -4  -3   44.06    1.17
  -2   4   3   47.81    0.98
   2  -4  -2   32.48    1.42
  -2   4   2   32.48    1.19
  -2   4   2   32.38    1.23
   2  -4  -1  169.76    5.39
   2  -4  -1  161.40    5.25
  -2   4   1  170.50    5.14
  -2   4   1  171.78    5.10
   2  -4   0   18.77    0.89
  -2   4   0   16.83    0.79
   2  -4   0   18.95    0.99
  -2   4   0   19.16    0.79
   2  -4   1   95.67    3.44
   2  -4   1  103.92    3.31
  -2   4  -1  101.42    3.18
  -2   4  -1  101.48    3.21
  -2   4  -2   26.04    1.03
   2  -4   2   26.20    1.24
   2  -4   2   24.91    1.08
  -2   4  -2   26.23    1.01
  -2   4  -3    5.67    0.38
   2  -4   3    6.12    0.42
  -2   4  -3    6.02    0.34
   2  -4   3    5.94    0.52
  -2   4  -4   13.94    0.62
  -2   4  -4   12.30    0.60
   2  -4   4   13.40    0.80
  -2   4  -4   14.33    0.77
  -2   4  -5   10.63    0.56
  -2   4  -5   10.18    0.68
  -2   4  -6    9.94    0.57
  -2   4  -6   10.77    0.74
  -2   4  -7    1.90    0.34
  -2   4  -7    2.17    0.29
  -2   4  -8    0.17    0.13
   2  -4   9   -0.21    0.39
  -2   4  -9   -0.02    0.10
  -2   4  -9    0.05    0.14
  -2   4 -10    0.18    0.13
  -2   3  12   -0.19    0.62
   2  -3 -12    0.05    0.34
  -2   3  10   -0.12    0.59
  -2   3   9   -0.23    0.58
  -2   3   8   -0.20    0.66
  -2   3   8    5.54    0.52
  -2   3   7    1.13    0.85
  -2   3   7   92.31    1.88
   2  -3  -6    1.35    0.15
   2  -3  -6    0.95    0.15
  -2   3   5   18.50    0.80
   2  -3  -5   18.20    0.86
   2  -3  -5   15.79    0.69
   2  -3  -5   18.94    0.88
  -2   3   5   17.31    0.70
  -2   3   5   16.70    0.67
   2  -3  -5   17.38    0.74
   2  -3  -4    0.42    0.11
  -2   3   4    0.40    0.11
   2  -3  -4    0.49    0.10
  -2   3   4    0.33    0.09
  -2   3   4    0.14    0.31
  -2   3   4    0.40    0.09
   2  -3  -4    0.46    0.12
   2  -3  -4    0.36    0.13
  -2   3   3   33.39    0.79
  -2   3   3   33.80    0.75
   2  -3  -3   34.24    1.03
   2  -3  -3   33.79    0.89
   2  -3  -2    0.07    0.07
   2  -3  -2    0.05    0.11
  -2   3   2    0.07    0.09
  -2   3   2    0.17    0.08
   2  -3  -1  109.66    3.50
  -2   3   1  113.55    3.42
  -2   3   1  109.45    3.39
   2  -3   0   35.06    1.32
   2  -3   0   36.45    1.43
   2  -3   1   87.21    3.07
  -2   3  -1   94.77    2.87
   2  -3   1   92.68    2.96
  -2   3  -1   92.95    2.89
  -2   3  -2    9.44    0.48
   2  -3   2   10.16    0.62
   2  -3   2    9.67    0.51
  -2   3  -2   10.19    0.47
  -2   3  -3   12.92    0.60
   2  -3   3   14.28    0.64
  -2   3  -3   14.29    0.60
   2  -3   4    2.06    0.27
  -2   3  -4    2.16    0.20
  -2   3  -4    2.00    0.19
   2  -3   4    2.05    0.19
  -2   3  -4    2.23    0.19
  -2   3  -5    1.26    0.18
   2  -3   5    0.71    0.20
  -2   3  -6    5.14    0.38
  -2   3  -6    4.57    0.44
  -2   3  -7   -0.05    0.11
  -2   3  -8    0.48    0.16
  -2   3  -8    0.40    0.21
  -2   3  -9    0.02    0.09
  -2   3  -9   -0.03    0.15
  -2   3 -10   -0.05    0.14
   2  -3  11    0.13    0.24
  -2   3 -11    0.56    0.17
  -2   2  11    0.12    0.57
  -2   2   9   12.91    0.96
  -2   2   8   16.96    0.98
  -2   2   8    0.11    0.62
  -2   2   7    9.85    0.72
   2  -2  -7    5.99    0.42
  -2   2   6    7.33    0.58
   2  -2  -6    6.76    0.41
  -2   2   5    1.45    0.23
   2  -2  -5    1.37    0.16
   2  -2  -5    1.90    0.31
   2  -2  -5    1.41    0.14
  -2   2   5    1.71    0.13
   2  -2  -5    1.66    0.25
   2  -2  -4   19.02    0.82
  -2   2   4   16.85    0.65
   2  -2  -4   19.03    0.70
   2  -2  -4   16.50    0.68
  -2   2   4   16.90    0.66
   2  -2  -4   18.93    0.81
   2  -2  -3   82.56    1.35
  -2   2   3   83.36    1.26
   2  -2  -3   82.02    1.41
   2  -2  -3   81.83    1.26
   2  -2  -3   80.04    1.54
   2  -2  -2    1.28    0.15
   2  -2  -2    1.01    0.17
  -2   2   2    1.38    0.14
  -2   2   2    1.46    0.19
  -2   2   1    0.84    0.15
   2  -2  -1    0.57    0.14
  -2   2   1    0.47    0.09
   2  -2   0  183.55    5.46
   2  -2   0  176.50    5.35
   2  -2   1   12.11    0.54
  -2   2  -1   11.92    0.59
  -2   2  -1   11.84    0.59
  -2   2  -1   11.24    0.49
   2  -2   1   12.08    0.61
  -2   2  -2  383.29   10.85
   2  -2   2  360.83   10.67
  -2   2  -2  358.69   10.63
   2  -2   2  378.78   10.82
  -2   2  -3   19.53    0.91
   2  -2   3   19.50    0.73
   2  -2   3   19.78    0.87
  -2   2  -3   19.17    0.72
  -2   2  -3   18.11    0.70
  -2   2  -4  190.54    5.76
   2  -2   4  197.29    5.97
  -2   2  -4  196.06    5.75
   2  -2   4  201.28    5.77
  -2   2  -5  127.41    3.74
  -2   2  -5  120.68    3.61
   2  -2   5  114.87    3.90
  -2   2  -6   29.33    1.14
  -2   2  -7   84.94    2.85
  -2   2  -7   89.02    2.98
  -2   2  -8    1.81    0.25
  -2   2  -8    2.08    0.32
  -2   2  -9    5.35    0.40
  -2   2  -9    6.63    0.55
  -2   2 -10    0.60    0.21
   2  -2  10    0.10    0.37
   2  -2  11    0.77    0.41
  -2   2 -11    0.84    0.21
   2  -2  12   -0.05    0.25
  -2   1  12   -0.28    0.51
   2  -1 -12   -0.03    0.17
   2  -1 -11   -0.08    0.28
   2  -1 -10    0.29    0.39
  -2   1  10   -0.14    0.67
  -2   1   9    1.76    0.42
  -2   1   8    2.77    0.51
   2  -1  -8    3.21    0.29
   2  -1  -7    8.12    0.46
  -2   1   7    6.70    0.74
   2  -1  -7    7.66    0.52
   2  -1  -6   35.47    1.36
  -2   1   6   32.50    1.75
   2  -1  -6   37.21    1.28
   2  -1  -5    3.91    0.29
  -2   1   5    3.24    0.44
  -2   1   5    3.40    0.17
   2  -1  -5    3.30    0.24
   2  -1  -4   75.47    2.40
   2  -1  -4   74.43    2.34
  -2   1   3    1.23    0.14
   2  -1  -3    1.30    0.12
   2  -1  -3    1.33    0.14
   2  -1  -2  101.44    3.07
   2  -1  -2  108.34    3.25
  -2   1   2  105.96    3.13
   2  -1  -2   96.54    3.14
  -2   1   1   27.81    0.97
   2  -1  -1   26.64    0.92
   2  -1   1   28.42    0.96
  -2   1  -2    5.90    0.38
  -2   1  -2    5.59    0.32
   2  -1   2    5.65    0.28
  -2   1  -3   39.32    1.35
   2  -1   3   38.35    1.28
   2  -1   3   41.54    1.30
  -2   1  -4    5.90    0.43
   2  -1   4    4.78    0.32
  -2   1  -4    4.92    0.25
   2  -1   4    5.05    0.27
  -2   1  -4    5.25    0.31
  -2   1  -5   48.58    1.54
   2  -1   5   45.29    1.65
  -2   1  -5   47.37    1.48
  -2   1  -5   51.14    1.83
   2  -1   5   50.94    1.57
  -2   1  -6   84.79    2.93
  -2   1  -6   85.03    2.63
  -2   1  -7    3.99    0.28
  -2   1  -7    4.62    0.39
  -2   1  -8   34.52    1.43
   2  -1   9    3.80    0.87
  -2   1  -9    2.95    0.36
  -2   1 -10    0.33    0.16
   2  -1  10   -0.10    0.39
  -2   1 -11    0.18    0.14
   2  -1  11    0.32    0.36
   2  -1  12    0.30    0.28
  -2   0  11   -0.12    0.57
   2   0 -10   -0.04    0.23
  -2   0  10   -0.05    0.24
  -2   0   9    1.00    0.37
   2   0  -9    1.66    0.25
  -2   0   8    8.70    1.03
   2   0  -8   12.07    0.66
   2   0  -7   26.18    1.21
   2   0  -7   27.97    1.13
   2   0  -6   22.20    1.01
   2   0  -6   21.88    0.94
   2   0  -5   85.65    2.69
   2   0  -5   83.49    2.76
   2   0  -5   82.95    2.55
  -2   0   5   84.01    2.81
   2   0  -4    0.58    0.09
  -2   0   4    0.59    0.06
   2   0  -4    0.57    0.12
  -2   0   4    0.69    0.14
   2   0  -4    0.88    0.15
  -2   0   4    0.53    0.08
   2   0  -3    3.14    0.23
   2   0  -3    3.06    0.22
  -2   0   3    3.17    0.19
  -2   0   2  130.53    3.93
  -2   0   2  128.71    3.85
   2   0  -2  131.56    3.88
   2   0  -2  130.86    4.00
  -2   0   1  405.56   11.77
   2   0  -1  418.46   11.95
   2   0   0  766.51   22.42
   2   0   0  792.48   22.36
   2   0   1    1.66    0.11
  -2   0  -2    0.26    0.06
  -2   0  -3  131.60    3.89
  -2   0  -4   81.26    2.47
  -2   0  -4   81.69    2.47
  -2   0  -4   85.10    2.66
   2   0   4   80.59    2.45
  -2   0  -5   29.88    1.02
  -2   0  -5   30.15    1.05
   2   0   5   30.58    1.03
  -2   0  -6   35.18    1.24
  -2   0  -6   35.25    1.21
  -2   0  -6   39.01    1.45
   2   0   6   37.38    1.18
   2   0   7   17.88    0.84
  -2   0  -7   21.95    0.99
  -2   0  -7   21.07    0.82
  -2   0  -7   19.32    0.84
  -2   0  -8   11.23    0.61
  -2   0  -8   11.57    0.64
  -2   0  -9    4.29    0.38
   2   0   9    4.57    0.88
  -2   0  -9    4.12    0.39
  -2   0 -10    7.61    0.55
   2   0  10    7.80    1.09
  -2   0 -11    0.02    0.11
   2   0  11    0.08    0.31
   2   0  12    4.60    0.72
   2   0  13   -0.32    0.53
   2   0  13    0.35    0.24
   2   1 -10    0.02    0.11
  -2  -1  10   -0.06    0.22
   2   1  -9    1.17    0.23
  -2  -1   9    0.90    0.41
   2   1  -8   -0.04    0.22
  -2  -1   8    0.17    0.33
   2   1  -8    0.15    0.13
   2   1  -7    0.04    0.12
   2   1  -6    2.56    0.34
   2   1  -6    2.75    0.30
   2   1  -6    1.91    0.19
   2   1  -5    0.36    0.14
   2   1  -5    0.71    0.16
   2   1  -5    0.48    0.10
   2   1  -4   18.44    0.84
  -2  -1   4   18.22    0.61
   2   1  -4   16.43    0.76
   2   1  -4   16.77    0.68
  -2  -1   3   15.08    0.56
  -2  -1   3   16.85    0.58
   2   1  -3   17.38    0.64
  -2  -1   3   16.40    0.78
   2   1  -3   17.90    0.74
  -2  -1   3   16.23    0.84
   2   1  -3   16.66    0.70
  -2  -1   2    5.55    0.43
  -2  -1   2    5.97    0.27
  -2  -1   2    6.32    0.28
   2   1  -2    5.86    0.30
  -2  -1   2    6.99    0.40
   2   1  -2    7.50    0.38
   2   1  -2    6.30    0.34
  -2  -1   1   66.74    1.95
  -2  -1   1   59.99    2.04
  -2  -1   1   64.48    2.17
  -2  -1   0  154.41    4.55
  -2  -1  -3    4.26    0.18
  -2  -1  -4  225.31    6.47
   2   1   4  212.64    6.98
   2   1   4  214.90    6.36
  -2  -1  -4  215.49    6.40
   2   1   4  223.97    6.41
  -2  -1  -4  222.42    6.45
  -2  -1  -4  233.90    6.41
  -2  -1  -5    4.34    0.31
   2   1   5    3.12    0.19
  -2  -1  -5    3.90    0.24
  -2  -1  -5    3.97    0.21
   2   1   5    3.43    0.50
   2   1   5    3.90    0.21
  -2  -1  -5    3.81    0.19
   2   1   6   24.91    0.92
  -2  -1  -6   27.36    1.00
  -2  -1  -6   29.27    1.13
  -2  -1  -6   27.19    0.88
   2   1   6   28.27    0.93
  -2  -1  -7    2.21    0.22
   2   1   7    2.00    0.18
   2   1   7    2.33    0.18
  -2  -1  -7    2.35    0.22
   2   1   8    0.32    0.28
  -2  -1  -8    0.40    0.14
  -2  -1  -8    0.21    0.10
  -2  -1  -8    0.18    0.11
  -2  -1  -8    0.33    0.12
   2   1   9    4.30    0.73
  -2  -1  -9    4.27    0.36
  -2  -1  -9    3.91    0.34
   2   1  10    0.07    0.32
  -2  -1 -10    0.14    0.11
   2   1  11   -0.14    0.34
   2   1  12    0.06    0.28
   2   1  13    0.37    0.24
  -2  -2  11   -0.10    0.59
  -2  -2  10    0.12    0.20
   2   2 -10    0.85    0.20
   2   2  -9    0.40    0.18
  -2  -2   9    0.17    0.30
   2   2  -9   -0.03    0.17
   2   2  -8    1.64    0.29
   2   2  -7   23.26    0.98
   2   2  -7   26.25    1.21
   2   2  -6    8.08    0.48
   2   2  -6    9.29    0.62
   2   2  -5   65.89    1.17
   2   2  -5   61.86    1.37
   2   2  -4    0.85    0.19
   2   2  -4    0.72    0.17
   2   2  -4    0.82    0.14
   2   2  -3    6.54    0.42
  -2  -2   3    5.80    0.23
  -2  -2   3    5.36    0.41
  -2  -2   3    6.80    0.54
   2   2  -3    5.98    0.32
  -2  -2   2    2.62    0.28
   2   2  -2    2.80    0.21
   2   2  -2    2.75    0.26
  -2  -2   2    2.71    0.33
   2   2  -2    2.49    0.23
  -2  -2   1  262.51    7.35
   2   2  -1  240.26    7.41
   2   2   0   14.99    0.58
  -2  -2   0   16.44    0.58
  -2  -2  -1  487.64   14.00
  -2  -2  -2  118.14    3.45
  -2  -2  -3   43.47    1.37
   2   2   4   46.97    1.67
  -2  -2  -4   48.39    1.39
  -2  -2  -4   49.14    1.35
   2   2   5   32.42    1.09
  -2  -2  -5   34.73    1.18
  -2  -2  -6   25.26    1.02
  -2  -2  -6   24.06    0.91
  -2  -2  -6   22.75    0.79
   2   2   6   24.10    0.83
  -2  -2  -7    1.71    0.20
   2   2   7    1.18    0.34
  -2  -2  -7    2.23    0.24
  -2  -2  -7    1.54    0.11
  -2  -2  -7    1.68    0.18
   2   2   7    1.85    0.16
  -2  -2  -8    3.09    0.29
   2   2   8    3.30    0.56
  -2  -2  -8    3.72    0.35
  -2  -2  -8    2.85    0.26
   2   2   8    2.81    0.21
  -2  -2  -8    2.78    0.24
   2   2   9   23.68    1.58
  -2  -2  -9   21.32    0.93
   2   2  10    3.76    0.66
   2   2  10   -0.13    0.70
   2   2  11   11.27    1.10
   2   2  11    4.59    1.28
   2   2  12    2.02    0.48
   2   2  13    2.28    0.45
   2   2  13   -0.22    0.71
   2   2  14    1.28    0.29
   2   3 -10    0.64    0.18
  -2  -3  10    0.49    0.29
  -2  -3   9   -0.09    0.30
   2   3  -9   -0.09    0.15
   2   3  -8    0.59    0.22
   2   3  -7    0.11    0.16
   2   3  -7    0.18    0.12
   2   3  -6   10.99    0.55
   2   3  -6   11.43    0.69
   2   3  -5    2.64    0.28
   2   3  -4   10.99    0.59
   2   3  -3    5.38    0.46
   2   3  -3    5.22    0.36
  -2  -3   3    4.23    0.25
   2   3  -3    5.28    0.40
   2   3  -2    2.76    0.23
   2   3  -2    2.42    0.24
  -2  -3   2    2.54    0.18
   2   3  -1   15.21    0.73
  -2  -3   1   14.46    0.60
   2   3  -1   15.58    0.68
   2   3   0   28.26    0.77
   2   3   0   26.66    0.64
   2   3   0   26.18    0.66
   2   3   1   64.95    2.01
   2   3   1   66.46    2.08
   2   3   1   62.23    2.00
   2   3   2   27.69    0.98
   2   3   2   32.99    1.05
   2   3   3  242.10    3.70
   2   3   3  245.69    3.93
  -2  -3  -3  244.58    3.62
   2   3   4    2.13    0.69
  -2  -3  -4   81.65    1.09
  -2  -3  -5  318.12    3.17
  -2  -3  -5  314.73    3.30
   2   3   6    0.73    0.22
  -2  -3  -6    0.74    0.11
  -2  -3  -6    0.84    0.11
   2   3   7   80.58    2.46
  -2  -3  -7   80.26    2.70
   2   3   7   82.11    3.05
  -2  -3  -7   78.53    2.48
  -2  -3  -7   77.13    2.40
   2   3   8    0.89    0.29
  -2  -3  -8    0.91    0.19
  -2  -3  -8    0.86    0.14
  -2  -3  -8    1.05    0.18
   2   3   8    0.94    0.13
   2   3   9   64.36    2.79
  -2  -3  -9   58.68    2.05
   2   3   9   61.92    1.97
   2   3  10    0.21    0.28
   2   3  11    7.17    0.84
   2   3  12    0.26    0.25
   2   3  12   -0.13    0.66
   2   3  13    3.79    0.56
   2   3  14   -0.26    0.51
   2   3  14    0.10    0.18
  -2  -4   9   -0.08    0.26
   2   4  -9    0.06    0.13
   2   4  -8    0.24    0.17
   2   4  -7    0.31    0.21
   2   4  -7    0.17    0.13
   2   4  -6    2.76    0.33
   2   4  -5   -0.03    0.22
   2   4  -5   -0.04    0.11
   2   4  -4   15.17    0.66
   2   4  -4   15.82    0.77
   2   4  -3    1.95    0.24
   2   4  -3    2.72    0.31
  -2  -4   2   11.61    0.54
   2   4  -2   12.51    0.67
   2   4  -1   23.11    0.69
  -2  -4   1   22.69    0.59
   2   4  -1   22.27    0.71
   2   4   0    6.17    0.36
   2   4   0    5.79    0.36
  -2  -4   0    5.66    0.34
   2   4   0    5.54    0.36
   2   4   1    4.00    0.28
  -2  -4  -1    4.43    0.29
   2   4   1    4.72    0.30
   2   4   1    3.71    0.26
   2   4   2   61.20    1.97
  -2  -4  -2   62.79    2.01
   2   4   2   61.32    1.93
   2   4   2   63.06    2.02
   2   4   3  120.95    3.90
  -2  -4  -3  131.92    3.92
  -2  -4  -4  124.42    3.80
   2   4   4  121.53    3.71
  -2  -4  -4  132.79    3.83
   2   4   4  127.67    3.84
   2   4   5    7.79    0.40
  -2  -4  -5    7.52    0.40
   2   4   5    8.78    0.56
  -2  -4  -5    7.53    0.28
  -2  -4  -5    7.77    0.39
  -2  -4  -6   39.96    1.14
  -2  -4  -6   38.83    1.05
   2   4   6   39.98    1.43
  -2  -4  -7   32.78    1.27
   2   4   7   33.46    1.56
  -2  -4  -7   32.35    1.13
  -2  -4  -7   33.14    1.15
   2   4   8   14.53    0.61
   2   4   8   13.04    0.94
  -2  -4  -8   12.61    0.58
   2   4   9    0.04    0.07
   2   4   9    0.17    0.23
   2   4   9   -0.20    0.68
   2   4  10    0.16    0.08
   2   4  10    0.14    0.26
   2   4  10   -0.11    0.58
   2   4  11    6.66    0.77
   2   4  12    0.09    0.23
   2   4  13   -0.04    0.20
   2   4  13   -0.22    0.70
   2   4  14    0.09    0.17
   2   5  -8    0.35    0.18
   2   5  -7    0.15    0.12
   2   5  -6    2.81    0.35
   2   5  -6    3.13    0.42
   2   5  -5    1.85    0.35
   2   5  -5    1.84    0.29
   2   5  -4    6.99    0.59
   2   5  -4    6.20    0.50
   2   5  -3    3.73    0.38
   2   5  -3    4.48    0.45
  -2  -5   2   22.90    1.11
   2   5  -2   20.31    1.02
   2   5  -1   35.41    1.38
   2   5  -1   34.71    1.38
   2   5   0    2.69    0.28
   2   5   0    2.65    0.27
   2   5   1   57.08    1.90
   2   5   1   53.38    1.85
  -2  -5  -1   56.15    1.89
   2   5   2   41.51    1.44
  -2  -5  -2   41.02    1.47
   2   5   2   40.99    1.39
   2   5   3   13.84    0.62
   2   5   3   12.69    0.56
  -2  -5  -3   12.46    0.53
  -2  -5  -4   93.03    1.93
   2   5   4   87.25    1.83
  -2  -5  -4   89.96    2.02
   2   5   5    3.13    0.35
  -2  -5  -5    2.94    0.25
  -2  -5  -5    2.57    0.24
   2   5   6   18.63    1.00
  -2  -5  -7   16.19    0.79
   2   5   7   15.00    0.85
   2   5   8   47.16    2.06
   2   5   9    0.79    0.30
   2   5   9    0.64    0.14
   2   5  10   62.23    2.68
   2   5  10   62.22    2.08
   2   5  11    5.52    0.36
   2   5  11    6.74    0.72
   2   5  12   13.65    1.03
   2   5  13    3.62    0.49
   2   5  13   -0.10    0.64
   2   5  14    0.77    0.24
   2   6  -7    0.14    0.16
   2   6  -7    0.15    0.12
   2   6  -6    0.05    0.15
   2   6  -6    0.02    0.12
   2   6  -5    0.17    0.19
   2   6  -5    0.19    0.16
   2   6  -4    0.17    0.19
   2   6  -4   -0.02    0.15
   2   6  -3    0.05    0.15
  -2  -6   2    0.06    0.16
   2   6  -2   -0.09    0.16
   2   6  -2   -0.02    0.14
  -2  -6   1   17.97    1.06
   2   6  -1   19.36    0.95
   2   6  -1   19.03    0.95
   2   6   0    7.08    0.50
  -2  -6   0    6.44    0.60
   2   6   0    6.42    0.46
   2   6   1   15.89    0.78
   2   6   1   15.84    0.74
   2   6   2   29.99    1.15
   2   6   2   27.70    1.06
   2   6   3   44.09    1.53
   2   6   3   38.60    1.43
   2   6   4   41.88    1.43
   2   6   6    0.07    0.49
  -2  -6  -6   14.70    0.84
  -2  -6  -7    9.43    0.67
   2   6   7   10.64    0.73
   2   6   8   25.70    1.37
  -2  -6  -8   25.22    1.24
   2   6   9    6.40    0.65
   2   6  10    2.82    0.27
   2   6  10    2.75    0.47
   2   6  11    7.66    0.73
   2   6  11    6.57    0.42
   2   6  12    0.64    0.26
   2   6  13    0.13    0.19
   2   6  13    0.09    0.57
   2   6  14    0.38    0.17
   2   7  -6    0.02    0.14
   2   7  -6    0.12    0.11
   2   7  -5    1.05    0.25
   2   7  -5    1.22    0.24
   2   7  -4    0.35    0.20
   2   7  -4    0.26    0.18
   2   7  -3    3.84    0.44
   2   7  -2    0.93    0.25
  -2  -7   2    0.98    0.27
   2   7  -2    0.85    0.23
   2   7  -1   19.68    1.03
  -2  -7   1   21.10    1.25
   2   7  -1   23.59    1.10
  -2  -7   0    4.19    0.54
   2   7   0    4.58    0.44
   2   7   0    4.96    0.42
   2   7   1   17.46    0.84
   2   7   1   18.61    0.92
  -2  -7  -2    2.18    0.42
   2   7   2    1.69    0.24
   2   7   3   20.07    0.90
  -2  -7  -3   22.69    1.30
   2   7   4    0.14    0.09
  -2  -7  -5    1.55    0.35
  -2  -7  -6    7.58    0.68
   2   7   6    0.08    0.55
  -2  -7  -7    0.17    0.19
   2   7   7    0.26    0.57
  -2  -7  -8   10.41    0.80
   2   7   9    0.10    0.61
   2   7  10    8.43    0.51
   2   7  10    8.89    0.77
   2   7  11    3.98    0.52
   2   7  11    4.09    0.33
   2   7  12    4.61    0.33
   2   8  -4    0.19    0.14
   2   8  -4    0.51    0.19
   2   8  -3    0.05    0.14
   2   8  -3   -0.12    0.16
   2   8  -2    0.32    0.17
   2   8  -2    0.37    0.19
   2   8  -1    0.26    0.16
  -2  -8   1    0.07    0.15
   2   8  -1    0.15    0.16
   2   8   0    0.02    0.14
  -2  -8   0    0.08    0.18
  -2  -8  -1   -0.13    0.23
   2   8   1   -0.02    0.13
   2   8   2   -0.04    0.12
  -2  -8  -2    0.22    0.25
   2   8   2    0.54    0.50
   2   8   3    2.18    0.27
  -2  -8  -3    1.66    0.41
  -2  -8  -5    6.82    0.73
   2   8   6    0.19    0.44
  -2  -8  -6    1.10    0.35
  -2  -8  -7    4.72    0.60
  -2  -8  -8    2.05    0.39
  -2  -8  -9   10.29    0.80
   2   8  10    0.14    0.11
   2   8  11   -0.10    0.58
   2   8  11    7.05    0.42
   2   8  12    0.44    0.12
   2   8  12    0.17    0.51
   2   9  -3    0.16    0.12
   2   9  -2    1.88    0.28
   2   9  -1    1.42    0.27
   2   9   0    2.06    0.31
  -2  -9   0    2.47    0.43
   2   9   1    1.29    0.25
  -2  -9  -1    1.92    0.41
  -2  -9  -2    2.40    0.48
   2   9   2    1.96    0.28
  -2  -9  -3    3.39    0.56
   2   9   3    2.46    0.30
  -2  -9  -4    0.43    0.29
  -2  -9  -6    1.83    0.42
  -2  -9  -7    1.09    0.32
  -2  -9  -8   -0.12    0.19
  -2  -9  -9   -0.03    0.16
   2   9  10    0.52    0.15
   2   9  11    0.29    0.13
  -2 -10   0   -0.09    0.15
   2  10   0    0.11    0.12
  -2 -10  -1   -0.04    0.16
   2  10   1   -0.11    0.12
  -2 -10  -2    0.53    0.25
   2  10   2    0.19    0.12
  -2 -10  -3   -0.04    0.23
  -2 -10  -4    0.68    0.28
  -2 -10  -6    3.51    0.55
  -2 -10  -7    0.17    0.22
  -2 -10  -8    7.05    0.70
   2  10   9    2.65    0.28
  -2 -10  -9    2.03    0.35
   2  10  10    2.61    0.26
  -2 -11  -3    0.24    0.18
  -2 -11  -4    1.15    0.31
  -2 -11  -6    2.50    0.42
   2  11   6    2.12    0.22
   2  11   7    0.16    0.09
  -2 -11  -7    0.24    0.18
   3 -10  -5    0.12    0.16
  -3  10   5    0.02    0.10
  -3  10   4    3.16    0.33
   3 -10  -4    2.74    0.48
   3 -10  -3    0.68    0.27
  -3  10   2    0.95    0.19
   3 -10  -2    1.19    0.32
   3 -10  -1    0.11    0.16
  -3   9   7    1.65    0.24
   3  -9  -7    1.69    0.35
   3  -9  -6    1.15    0.32
  -3   9   6    1.21    0.23
   3  -9  -5    0.34    0.23
  -3   9   5    0.91    0.23
   3  -9  -4    1.47    0.39
  -3   9   4    1.66    0.29
  -3   9   3    0.05    0.14
   3  -9  -2    0.05    0.22
  -3   9   2   -0.02    0.13
   3  -9  -1    0.44    0.27
  -3   9   1    0.52    0.18
  -3   9   0    0.33    0.14
   3  -9   0   -0.05    0.17
  -3   9   0    0.44    0.17
  -3   9  -1   -0.05    0.10
  -3   9  -1    0.18    0.11
   3  -9   1    0.08    0.15
  -3   9  -2    0.99    0.20
  -3   8   7   -0.02    0.11
   3  -8  -7   -0.04    0.19
  -3   8   6    0.13    0.12
   3  -8  -6    0.19    0.21
   3  -8  -6    0.05    0.14
  -3   8   5    0.15    0.15
   3  -8  -5    0.20    0.24
  -3   8   4    0.26    0.17
   3  -8  -4    0.37    0.25
  -3   8   3    2.70    0.36
   3  -8  -2    2.08    0.46
   3  -8  -1    7.42    0.82
  -3   8   1    5.63    0.46
  -3   8   1    7.59    0.60
   3  -8   0    4.39    0.64
  -3   8   0    4.04    0.43
  -3   8   0    3.73    0.38
   3  -8   1    0.33    0.24
  -3   8  -1    0.19    0.15
  -3   8  -1    0.26    0.15
   3  -8   2    0.47    0.24
  -3   8  -2    0.37    0.17
  -3   8  -2    0.35    0.14
  -3   8  -3    0.42    0.17
  -3   8  -4    0.35    0.16
  -3   8  -5    0.31    0.14
  -3   7  10   -0.14    0.45
  -3   7   9   -0.16    0.50
  -3   7   7    8.10    0.55
   3  -7  -7    9.00    0.80
  -3   7   6    0.22    0.15
   3  -7  -6    0.27    0.22
   3  -7  -5    2.97    0.51
  -3   7   5    4.74    0.44
  -3   7   4    0.20    0.16
   3  -7  -4    0.14    0.23
  -3   7   3    6.62    0.56
   3  -7  -3    5.17    0.68
   3  -7  -2    0.15    0.22
   3  -7  -1   10.50    0.95
  -3   7   1    9.73    0.70
   3  -7   0    2.08    0.44
  -3   7   0    2.29    0.33
  -3   7  -1   -0.07    0.13
   3  -7   1    0.05    0.20
  -3   7  -2   -0.02    0.12
   3  -7   2    0.13    0.18
  -3   7  -2    0.04    0.11
   3  -7   3    0.45    0.22
  -3   7  -3    0.05    0.14
  -3   7  -3    0.09    0.13
  -3   7  -3    0.21    0.11
  -3   7  -4    0.07    0.13
  -3   7  -4   -0.02    0.13
  -3   7  -5    0.06    0.13
  -3   7  -5    0.05    0.13
  -3   7  -6   -0.08    0.13
  -3   7  -6    0.02    0.12
  -3   6   7    0.07    0.09
   3  -6  -7    0.07    0.14
  -3   6   7   -0.25    0.56
  -3   6   6    0.20    0.14
   3  -6  -6    0.16    0.17
   3  -6  -5    0.14    0.10
  -3   6   5    0.28    0.15
   3  -6  -4    1.97    0.39
  -3   6   4    1.88    0.28
   3  -6  -3    6.30    0.69
  -3   6   3    5.59    0.49
  -3   6   2    3.21    0.37
   3  -6  -1   26.29    1.52
   3  -6   0    6.83    0.71
  -3   6   0    6.44    0.53
  -3   6  -1   24.92    1.16
  -3   6  -1   22.73    1.05
  -3   6  -2    0.84    0.21
  -3   6  -2    0.64    0.18
   3  -6   2    0.71    0.26
   3  -6   3    9.17    0.81
  -3   6  -3    8.46    0.56
  -3   6  -3    8.93    0.62
  -3   6  -4    0.33    0.19
  -3   6  -5    2.72    0.38
  -3   6  -6    0.08    0.16
  -3   6  -6    0.07    0.15
  -3   6  -7    0.66    0.21
  -3   6  -7    0.70    0.18
   3  -6   8    0.22    0.28
  -3   6  -8   -0.02    0.11
   3  -5 -12    0.05    0.27
  -3   5  11   -0.15    0.47
   3  -5  -6   51.32    2.15
  -3   5   6   48.56    1.81
   3  -5  -5    1.41    0.20
  -3   5   5    1.76    0.24
   3  -5  -4   26.79    1.45
  -3   5   4   29.54    1.23
   3  -5  -3    5.70    0.59
  -3   5   3    6.21    0.47
  -3   5   2   65.75    2.33
   3  -5  -1   18.93    1.14
   3  -5   0   62.08    2.52
  -3   5   0   60.89    2.21
   3  -5   1    1.15    0.29
  -3   5  -1    1.66    0.25
  -3   5  -2   20.64    0.97
   3  -5   2   21.33    1.23
   3  -5   3    7.17    0.66
  -3   5  -3    7.93    0.55
  -3   5  -3    6.19    0.46
  -3   5  -4    2.99    0.30
   3  -5   4    2.01    0.36
  -3   5  -4    2.70    0.25
  -3   5  -4    2.82    0.35
  -3   5  -5    3.57    0.30
  -3   5  -5    3.11    0.39
  -3   5  -6    0.22    0.16
  -3   5  -7    0.47    0.20
  -3   5  -7    0.47    0.18
  -3   5  -8    0.05    0.14
  -3   5  -8   -0.02    0.12
  -3   5  -9    0.17    0.15
   3  -5   9    0.08    0.26
   3  -4 -12   -0.04    0.28
  -3   4  10   -0.09    0.56
  -3   4   9   -0.10    0.52
  -3   4   8    0.27    0.55
  -3   4   7    0.57    0.60
  -3   4   6   39.51    1.03
   3  -4  -6   44.22    1.45
   3  -4  -5    3.47    0.41
   3  -4  -5    2.72    0.25
  -3   4   5    2.92    0.28
  -3   4   4   20.20    0.91
   3  -4  -4   20.82    1.14
   3  -4  -3   -0.03    0.12
  -3   4   3   -0.13    0.28
  -3   4   3    0.06    0.10
   3  -4  -2   13.13    0.87
  -3   4   2   15.78    0.75
  -3   4   1   28.32    1.15
   3  -4   0   43.54    1.86
   3  -4   1    3.48    0.42
  -3   4  -1    3.61    0.32
  -3   4  -2   18.85    0.88
   3  -4   2   21.19    1.13
   3  -4   3   14.34    0.91
  -3   4  -3   13.81    0.70
  -3   4  -4    9.38    0.54
  -3   4  -4   10.26    0.51
   3  -4   4   10.25    0.74
  -3   4  -5    4.78    0.35
  -3   4  -5    4.98    0.47
  -3   4  -6    3.16    0.30
  -3   4  -6    3.40    0.40
  -3   4  -7    0.03    0.16
  -3   4  -7    0.02    0.10
  -3   4  -8    2.61    0.32
   3  -4   9    0.87    0.50
  -3   4  -9    0.92    0.18
   3  -4  10    0.07    0.24
  -3   4 -10    0.24    0.14
   3  -3 -11    0.06    0.33
  -3   3  10    0.10    0.54
   3  -3  -6    0.32    0.11
  -3   3   6   -0.07    0.41
  -3   3   5    6.07    0.38
   3  -3  -5    5.79    0.38
   3  -3  -5    6.28    0.40
   3  -3  -5    6.50    0.53
   3  -3  -4    0.03    0.12
   3  -3  -4    2.58    0.33
   3  -3  -4    2.42    0.22
  -3   3   4    2.33    0.22
  -3   3   4    0.04    0.27
   3  -3  -4    2.04    0.22
  -3   3   4    2.06    0.20
   3  -3  -3    2.56    0.27
  -3   3   3    2.68    0.24
   3  -3  -3    2.21    0.31
   3  -3  -3    2.07    0.23
   3  -3  -2    1.49    0.26
   3  -3  -2    1.58    0.20
  -3   3   2    1.64    0.20
  -3   3   1   12.70    0.62
   3  -3   0   53.66    1.86
   3  -3   0   50.09    2.01
   3  -3   1  151.01    4.77
  -3   3  -1  141.61    4.47
   3  -3   1  149.23    4.54
   3  -3   2    3.64    0.40
   3  -3   2    3.48    0.30
  -3   3  -2    3.91    0.30
  -3   3  -2    3.31    0.27
  -3   3  -3   23.20    0.92
  -3   3  -3   22.22    0.93
   3  -3   3   24.31    1.17
   3  -3   3   23.99    0.96
  -3   3  -4   30.21    1.14
  -3   3  -4   30.42    1.12
   3  -3   4   30.50    1.38
  -3   3  -5    0.22    0.10
  -3   3  -6    2.70    0.28
  -3   3  -7    4.25    0.37
  -3   3  -8    0.20    0.12
   3  -3   9    1.91    0.74
  -3   3  -9    2.39    0.28
  -3   3  -9    2.79    0.38
  -3   3 -10    0.07    0.13
   3  -3  10    0.17    0.35
  -3   3 -11    0.08    0.12
   3  -3  11   -0.06    0.22
   3  -2 -12    0.03    0.18
   3  -2 -10    0.13    0.37
  -3   2  10   -0.22    0.57
  -3   2   9    0.44    0.62
   3  -2  -7   29.84    1.25
   3  -2  -6    0.80    0.17
   3  -2  -5   27.62    1.29
   3  -2  -5   30.86    1.05
   3  -2  -5   29.67    1.14
   3  -2  -4   15.98    0.90
   3  -2  -4   16.73    0.64
   3  -2  -4   16.51    0.79
  -3   2   4   15.73    0.58
   3  -2  -4   17.38    0.54
   3  -2  -4   15.60    0.58
  -3   2   3   17.23    0.60
  -3   2   3   17.52    0.73
   3  -2  -3   16.72    0.62
   3  -2  -3   17.88    0.73
   3  -2  -3   17.86    0.84
   3  -2  -3   16.75    0.61
   3  -2  -3   18.19    0.82
   3  -2  -2  119.40    3.65
  -3   2   2  122.17    3.73
   3  -2  -2  110.52    3.78
  -3   2   2  118.17    3.56
   3  -2  -2  110.88    3.58
  -3   2   1   24.14    1.01
   3  -2  -1   25.83    1.11
  -3   2   1   22.50    0.88
  -3   2   0    8.86    0.52
   3  -2   0    7.99    0.44
  -3   2   0    8.70    0.50
   3  -2   0    7.43    0.53
  -3   2   0    7.91    0.41
   3  -2   1    2.77    0.31
  -3   2  -1    2.20    0.25
  -3   2  -1    2.80    0.30
   3  -2   1    2.58    0.22
  -3   2  -1    2.51    0.21
   3  -2   2   35.06    1.37
  -3   2  -2   31.52    1.25
  -3   2  -2   31.66    1.32
  -3   2  -2   31.27    1.12
   3  -2   2   29.64    1.14
  -3   2  -3    4.53    0.37
  -3   2  -3    4.28    0.41
   3  -2   3    4.55    0.30
   3  -2   3    4.81    0.42
  -3   2  -3    4.31    0.29
   3  -2   4    0.29    0.12
  -3   2  -4    0.31    0.09
  -3   2  -4    0.34    0.14
   3  -2   4    0.24    0.07
  -3   2  -5   33.07    1.20
  -3   2  -5   36.02    1.18
  -3   2  -5   35.02    1.20
  -3   2  -6    5.84    0.39
  -3   2  -7   34.97    1.36
  -3   2  -8   29.25    1.23
  -3   2  -8   28.77    1.32
  -3   2  -9    0.48    0.20
   3  -2   9    0.11    0.39
  -3   2  -9    0.45    0.16
   3  -2  10    7.75    1.15
  -3   2 -10    9.60    0.67
  -3   2 -11    0.44    0.17
   3  -2  11    0.58    0.36
   3  -2  12    0.05    0.23
   3  -1 -11   -0.04    0.22
  -3   1  11   -0.09    0.61
   3  -1  -9    0.18    0.37
  -3   1   9   -0.13    0.65
   3  -1  -8    3.58    0.39
   3  -1  -8    0.06    0.38
   3  -1  -7   20.26    0.88
   3  -1  -7   22.70    0.73
   3  -1  -6    0.81    0.15
   3  -1  -6    0.80    0.18
   3  -1  -5    0.45    0.14
   3  -1  -5    0.35    0.10
   3  -1  -4    5.69    0.35
   3  -1  -4    5.48    0.30
   3  -1  -4    4.69    0.24
   3  -1  -4    5.70    0.56
  -3   1   4    4.91    0.27
  -3   1   4    4.71    0.33
   3  -1  -3    6.40    0.36
   3  -1  -3    5.79    0.42
   3  -1  -3    6.38    0.53
   3  -1  -3    6.38    0.28
  -3   1   3    6.60    0.38
   3  -1  -3    6.08    0.31
  -3   1   3    6.06    0.31
   3  -1  -2   24.75    1.06
   3  -1  -2   26.09    1.10
   3  -1  -2   23.24    0.86
   3  -1  -2   25.60    0.83
   3  -1  -2   25.44    0.91
  -3   1   2   23.52    0.95
   3  -1  -1  110.42    3.40
   3  -1  -1  109.01    3.57
  -3   1   1  108.22    3.43
   3  -1  -1  105.80    3.34
   3  -1   0   94.73    2.96
  -3   1   0   95.94    3.00
   3  -1   1   98.69    3.12
   3  -1   1  105.40    3.35
  -3   1  -1  109.19    3.29
   3  -1   1  100.76    3.09
  -3   1  -2   86.17    2.69
   3  -1   2   83.18    2.83
   3  -1   2   80.65    2.60
   3  -1   2   81.12    2.60
  -3   1  -3   62.68    2.03
   3  -1   3   62.54    1.94
   3  -1   3   55.74    1.90
   3  -1   3   56.47    2.13
  -3   1  -4    0.30    0.08
   3  -1   4    0.31    0.09
   3  -1   4    0.36    0.06
   3  -1   4    0.31    0.12
  -3   1  -4    0.32    0.10
  -3   1  -5   49.44    1.74
  -3   1  -5   51.01    1.63
  -3   1  -5   53.89    1.99
  -3   1  -5   47.70    1.62
   3  -1   5   52.59    1.68
  -3   1  -6    0.80    0.13
  -3   1  -6    1.38    0.26
   3  -1   6    1.10    0.15
  -3   1  -7   66.65    2.52
  -3   1  -7   66.15    2.15
   3  -1   8    1.02    0.52
   3  -1   9   10.14    1.30
  -3   1  -9   10.98    0.70
  -3   1 -10    0.33    0.17
   3  -1  10    0.09    0.33
  -3   1 -11    0.15    0.15
  -3   1 -12    0.82    0.18
   3   0 -11   -0.03    0.15
  -3   0  10    0.12    0.64
   3   0  -9    0.04    0.29
  -3   0   9   -0.13    0.64
   3   0  -8    0.02    0.11
   3   0  -8   -0.03    0.16
   3   0  -7    3.04    0.38
   3   0  -7    2.87    0.30
   3   0  -6   33.38    1.09
   3   0  -6   33.98    0.95
   3   0  -5    2.03    0.26
   3   0  -5    2.00    0.17
   3   0  -5    1.93    0.22
   3   0  -4  130.53    3.92
   3   0  -4  139.48    4.13
  -3   0   4  138.16    3.99
   3   0  -4  126.26    3.96
  -3   0   4  126.35    3.88
   3   0  -4  133.65    4.03
   3   0  -3  186.91    5.07
   3   0  -3  171.85    4.93
   3   0  -3  177.86    5.02
  -3   0   3  187.02    5.02
  -3   0   2  138.69    4.03
   3   0  -2  130.49    3.94
   3   0  -2  135.78    4.04
   3   0  -2  129.02    3.98
   3   0  -1  824.47   22.90
   3   0  -1  736.28   23.12
  -3   0   1  800.00   22.90
   3   0  -1  862.64   22.99
   3   0  -1  793.11   22.83
   3   0  -1  770.67   23.17
   3   0  -1  779.59   22.85
  -3   0   0  154.28    4.44
   3   0   0  156.86    4.37
   3   0   0  149.89    4.69
   3   0   0  152.14    4.44
  -3   0  -1  134.25    4.18
   3   0   1  141.45    4.15
   3   0   1  136.75    4.13
   3   0   2   72.31    2.57
  -3   0  -2   71.78    2.35
  -3   0  -2   80.33    2.45
   3   0   2   76.90    2.32
  -3   0  -3    0.97    0.13
   3   0   3    1.36    0.22
   3   0   3    1.15    0.13
  -3   0  -3    0.88    0.16
   3   0   4    0.96    0.12
  -3   0  -4    1.12    0.19
  -3   0  -4    0.80    0.12
   3   0   5   54.37    1.73
  -3   0  -5   50.67    1.67
  -3   0  -5   53.68    1.92
   3   0   5   52.24    1.65
  -3   0  -6    1.12    0.14
  -3   0  -6    0.97    0.14
  -3   0  -6    0.97    0.10
  -3   0  -6    1.16    0.24
   3   0   6    1.13    0.15
  -3   0  -7    4.64    0.32
  -3   0  -7    5.34    0.49
   3   0   7    5.40    0.33
   3   0   8    4.67    0.84
  -3   0  -8    4.52    0.34
  -3   0  -8    4.73    0.47
  -3   0  -8    4.74    0.37
   3   0   9    5.79    0.95
  -3   0  -9    5.50    0.44
  -3   0  -9    5.36    0.44
  -3   0 -10    0.15    0.15
  -3   0 -10    0.02    0.12
  -3   0 -11    1.73    0.26
   3   0  13    1.10    0.32
   3   1  -9    0.06    0.11
   3   1  -9    0.04    0.20
   3   1  -8    0.04    0.22
   3   1  -8    2.85    0.33
   3   1  -7    0.04    0.24
   3   1  -7   -0.02    0.12
   3   1  -7    0.03    0.15
  -3  -1   7   -0.28    0.32
   3   1  -6   13.85    0.82
   3   1  -6   11.92    0.57
   3   1  -6   11.97    0.70
   3   1  -5   57.85    2.17
   3   1  -5   58.52    1.93
   3   1  -5   59.12    2.07
   3   1  -4    8.88    0.55
   3   1  -4    9.14    0.46
   3   1  -4    8.83    0.52
   3   1  -3    9.86    0.55
  -3  -1   3    9.03    0.55
  -3  -1   3   10.76    0.46
   3   1  -3    9.98    0.46
   3   1  -3    8.83    0.45
  -3  -1   3    9.86    0.65
  -3  -1   3    9.50    0.41
   3   1  -3    8.98    0.49
   3   1  -2   66.63    2.05
  -3  -1   2   62.05    2.06
   3   1  -2   59.65    1.98
  -3  -1   2   59.10    2.17
  -3  -1   2   54.08    1.89
   3   1  -2   59.93    1.99
   3   1  -2   63.68    1.94
  -3  -1   2   66.07    1.95
   3   1  -1   35.08    0.67
  -3  -1   1   34.40    0.92
   3   1  -1   34.71    0.79
  -3  -1   1   36.40    0.70
  -3  -1   0   63.07    1.93
   3   1   0   64.10    1.83
  -3  -1   0   60.40    1.80
   3   1   0   63.14    1.93
   3   1   0   58.96    1.80
   3   1   1   31.83    1.06
   3   1   1   33.66    1.12
  -3  -1  -1   31.46    1.10
  -3  -1  -1   32.54    1.09
   3   1   1   29.69    1.06
   3   1   2   29.33    0.98
  -3  -1  -2   29.55    0.94
   3   1   2   28.83    0.99
  -3  -1  -3   11.08    0.46
   3   1   3   10.89    0.44
   3   1   3   10.12    0.37
   3   1   3   11.43    0.55
   3   1   3   11.49    0.44
  -3  -1  -4   24.42    0.80
   3   1   4   23.43    0.85
   3   1   4   21.91    1.10
   3   1   4   23.80    0.76
  -3  -1  -5    5.59    0.30
   3   1   5    4.79    0.56
   3   1   5    4.63    0.19
  -3  -1  -5    4.96    0.27
   3   1   5    4.82    0.30
  -3  -1  -5    6.26    0.32
  -3  -1  -5    5.67    0.40
   3   1   5    4.94    0.28
  -3  -1  -6   40.08    1.24
   3   1   6   37.26    1.92
  -3  -1  -6   39.54    1.46
  -3  -1  -6   37.62    1.27
  -3  -1  -6   36.00    1.17
   3   1   6   38.82    1.23
  -3  -1  -7   10.64    0.67
   3   1   7    8.77    0.91
  -3  -1  -7    9.34    0.50
   3   1   7    9.56    0.46
  -3  -1  -8   29.58    1.34
  -3  -1  -8   26.85    1.10
  -3  -1  -8   27.91    1.10
   3   1   8   28.29    1.04
  -3  -1  -9   13.98    0.70
  -3  -1  -9   13.61    0.83
  -3  -1  -9   13.25    0.71
  -3  -1  -9   13.96    0.72
  -3  -1 -10    5.87    0.44
  -3  -1 -10    4.34    0.39
  -3  -1 -11    0.89    0.18
   3   1  12    0.31    0.31
   3   1  12    0.26    0.66
   3   1  13    0.47    0.27
   3   2 -10    0.25    0.12
   3   2  -9   -0.04    0.12
   3   2  -8    0.02    0.14
  -3  -2   8    0.15    0.27
   3   2  -7    2.10    0.31
   3   2  -6    4.96    0.52
   3   2  -6    3.92    0.33
   3   2  -6    4.57    0.44
   3   2  -5    8.39    0.65
   3   2  -5    7.71    0.55
   3   2  -5    7.96    0.47
   3   2  -4   37.73    1.52
   3   2  -4   34.61    1.30
   3   2  -4   35.00    1.40
   3   2  -3   30.68    1.25
  -3  -2   3   28.77    1.02
   3   2  -3   28.37    1.08
   3   2  -3   28.38    1.15
   3   2  -2  289.05    7.92
  -3  -2   2  253.47    7.92
   3   2  -2  280.40    7.77
  -3  -2   2  248.42    8.12
  -3  -2   2  277.45    7.71
  -3  -2   2  239.04    7.68
  -3  -2   1    6.99    0.44
  -3  -2   1    6.81    0.53
   3   2  -1    6.43    0.36
   3   2  -1    6.65    0.37
   3   2  -1    7.65    0.41
  -3  -2   1    7.11    0.35
   3   2   0  278.64    2.21
   3   2   0  286.03    2.26
  -3  -2   0  303.79    2.35
   3   2   0  262.43    2.04
  -3  -2   0  289.71    2.01
   3   2   1    9.21    0.38
   3   2   1    8.94    0.36
   3   2   1    8.49    0.36
  -3  -2  -1    8.30    0.36
   3   2   1    8.90    0.31
   3   2   2  534.58   14.74
   3   2   2  534.13   14.63
   3   2   2  504.26   14.58
   3   2   3    6.61    0.41
   3   2   3    6.99    0.39
   3   2   3    6.66    0.32
  -3  -2  -3    7.23    0.35
   3   2   4   10.98    0.44
   3   2   4   10.82    0.51
   3   2   4   10.84    0.63
  -3  -2  -4   10.82    0.47
   3   2   4   10.73    0.45
   3   2   5    3.05    0.38
  -3  -2  -5    3.07    0.19
   3   2   5    2.69    0.22
  -3  -2  -5    2.74    0.20
   3   2   5    2.87    0.20
  -3  -2  -6   71.81    2.17
  -3  -2  -6   66.09    2.13
   3   2   6   69.08    2.16
  -3  -2  -7    0.60    0.09
   3   2   7    0.67    0.12
   3   2   7    0.78    0.30
  -3  -2  -7    0.59    0.13
  -3  -2  -7    0.80    0.17
  -3  -2  -8    8.35    0.51
  -3  -2  -8    8.71    0.48
  -3  -2  -8    9.51    0.63
   3   2   8    8.97    0.45
  -3  -2  -9    2.00    0.26
  -3  -2  -9    2.03    0.31
  -3  -2  -9    1.53    0.22
   3   2   9    2.10    0.21
  -3  -2 -10    0.44    0.15
  -3  -2 -11    0.16    0.13
   3   2  11    0.27    0.60
   3   2  11    0.12    0.28
   3   2  12    0.80    0.38
   3   2  13    0.05    0.19
   3   2  13   -0.11    0.62
   3   2  14    0.07    0.16
   3   3  -9    1.21    0.24
   3   3  -8   -0.03    0.19
   3   3  -8    0.03    0.14
  -3  -3   8    0.08    0.25
   3   3  -7    4.27    0.34
   3   3  -7    3.95    0.43
   3   3  -6    2.56    0.28
   3   3  -6    3.76    0.41
   3   3  -5   19.73    0.92
   3   3  -5   20.49    1.06
   3   3  -4    1.94    0.33
   3   3  -4    1.59    0.22
   3   3  -3   28.50    1.30
   3   3  -3   27.43    1.11
  -3  -3   2    6.43    0.48
   3   3  -2    6.17    0.36
   3   3  -2    6.71    0.41
   3   3  -1   42.76    1.06
  -3  -3   1   43.49    1.12
   3   3  -1   43.38    0.94
   3   3   0   44.03    1.57
  -3  -3   0   44.99    1.61
   3   3   0   43.50    1.48
   3   3   0   42.99    1.50
   3   3   0   46.47    1.35
   3   3   1  285.95    2.49
  -3  -3  -1  265.08    2.22
  -3  -3  -1  291.10    2.53
   3   3   1  288.71    2.25
   3   3   1  277.79    2.24
   3   3   1  265.62    1.82
   3   3   2  134.24    3.95
   3   3   2  128.40    4.02
  -3  -3  -2  140.41    4.01
   3   3   2  133.86    4.00
  -3  -3  -2  134.93    4.04
   3   3   2  130.27    4.00
   3   3   3    1.13    0.12
  -3  -3  -3    1.22    0.09
   3   3   3    1.38    0.18
   3   3   3    1.23    0.13
   3   3   3    1.26    0.13
  -3  -3  -3    1.27    0.13
  -3  -3  -3    1.05    0.14
   3   3   4    0.38    0.08
   3   3   4    0.30    0.07
  -3  -3  -4    0.30    0.09
   3   3   4    0.41    0.14
  -3  -3  -4    0.32    0.09
   3   3   4    0.71    0.27
   3   3   5  108.79    3.61
   3   3   5  112.17    3.25
  -3  -3  -5  106.92    3.33
  -3  -3  -5  105.07    3.31
   3   3   5  111.57    3.29
   3   3   6    0.44    0.10
   3   3   6    0.73    0.23
  -3  -3  -6    0.49    0.13
   3   3   6    0.38    0.40
   3   3   7   12.13    0.89
  -3  -3  -7   12.78    0.55
   3   3   7   13.89    0.58
  -3  -3  -8   47.11    1.79
  -3  -3  -8   49.26    1.70
   3   3   8   50.83    1.68
   3   3   9    0.27    0.10
  -3  -3  -9    0.07    0.11
  -3  -3  -9    0.10    0.10
  -3  -3  -9    0.09    0.11
   3   3  10   22.78    1.52
  -3  -3 -10   21.57    0.96
   3   3  10   22.28    0.89
   3   3  11    2.37    0.51
   3   3  12    0.48    0.69
   3   3  12   10.01    0.92
   3   3  13    0.36    0.25
   3   3  14    2.69    0.42
   3   3  14    0.32    0.56
   3   4  -9    0.45    0.15
   3   4  -8    0.02    0.14
  -3  -4   8   -0.39    0.28
   3   4  -7    2.12    0.35
   3   4  -7    1.93    0.25
   3   4  -6    0.06    0.18
   3   4  -6    0.06    0.13
   3   4  -5    1.89    0.28
   3   4  -5    0.04    0.26
   3   4  -4    0.07    0.18
   3   4  -4   -0.03    0.22
   3   4  -4    0.10    0.12
   3   4  -3    3.22    0.32
   3   4  -3    3.44    0.36
   3   4  -2    0.79    0.19
   3   4  -2    1.02    0.19
   3   4  -1   11.84    0.65
  -3  -4   1   10.34    0.44
   3   4  -1   10.33    0.52
   3   4   0    0.49    0.07
   3   4   0    0.57    0.14
   3   4   0    0.62    0.17
   3   4   0    0.42    0.13
  -3  -4   0    0.55    0.12
   3   4   1    0.51    0.09
   3   4   1    0.68    0.13
   3   4   1    0.49    0.15
   3   4   1    0.58    0.13
   3   4   2    0.17    0.07
   3   4   2    0.14    0.09
  -3  -4  -2    0.17    0.06
   3   4   2    0.15    0.08
   3   4   3   47.95    1.65
  -3  -4  -3   52.60    1.64
   3   4   3   51.08    1.62
   3   4   4    3.30    0.32
  -3  -4  -4    3.06    0.14
   3   4   4    3.42    0.22
  -3  -4  -4    3.86    0.25
   3   4   5   91.88    3.03
  -3  -4  -5   90.81    2.79
   3   4   5   87.79    2.67
  -3  -4  -5   84.19    2.79
   3   4   6    1.11    0.15
  -3  -4  -6    0.97    0.16
   3   4   6    1.36    0.26
  -3  -4  -6    0.73    0.13
  -3  -4  -7   54.67    1.80
  -3  -4  -7   55.16    1.65
  -3  -4  -7   56.15    1.71
   3   4   7   60.33    1.72
  -3  -4  -8   16.79    0.83
  -3  -4  -8   16.24    0.70
   3   4   8   18.51    0.75
   3   4   9   11.30    0.93
  -3  -4  -9   11.15    0.57
  -3  -4  -9   13.27    0.74
   3   4   9   11.64    0.57
  -3  -4 -10    1.20    0.18
   3   4  10    1.41    0.39
   3   4  10    1.41    0.19
   3   4  11    1.77    0.43
   3   4  12    0.05    0.26
   3   4  12   -0.23    0.64
   3   4  13    0.30    0.23
   3   4  14    0.03    0.17
   3   5  -8    0.40    0.17
   3   5  -7    0.02    0.10
   3   5  -6    2.34    0.30
   3   5  -5    4.43    0.42
   3   5  -5    4.12    0.48
   3   5  -4    4.20    0.41
   3   5  -4    3.23    0.41
   3   5  -3   12.20    0.64
   3   5  -3   12.06    0.70
   3   5  -2    0.09    0.14
   3   5  -1    2.29    0.28
   3   5  -1    2.43    0.30
   3   5   0    9.32    0.54
   3   5   0    8.84    0.53
   3   5   0    7.97    0.36
   3   5   1   21.10    0.90
   3   5   1   20.34    0.87
   3   5   2   27.80    1.08
   3   5   2   28.21    1.05
  -3  -5  -3   23.96    0.88
   3   5   3   23.15    0.92
   3   5   3   24.21    0.89
   3   5   4   14.24    0.53
  -3  -5  -4   14.16    0.54
   3   5   5    0.17    0.14
   3   5   5    0.14    0.07
  -3  -5  -5    0.21    0.10
  -3  -5  -6    3.21    0.29
  -3  -5  -7    0.49    0.14
  -3  -5  -8    4.16    0.37
   3   5   8    4.25    0.52
   3   5   8    3.86    0.30
   3   5   9    0.83    0.16
   3   5   9    0.87    0.32
   3   5  10    1.14    0.35
   3   5  10    1.36    0.19
   3   5  11   13.42    1.05
   3   5  11   13.77    0.66
   3   5  12    1.47    0.39
   3   5  12    0.21    0.60
   3   5  13   14.83    0.97
   3   5  13    1.31    0.79
   3   5  14    0.37    0.19
   3   6  -6    0.90    0.24
   3   6  -6    1.23    0.22
   3   6  -5    0.39    0.21
   3   6  -5    0.57    0.20
   3   6  -4    5.73    0.51
   3   6  -4    7.01    0.60
   3   6  -3    0.03    0.18
   3   6  -3    0.38    0.19
   3   6  -2    0.59    0.22
  -3  -6   2    0.82    0.24
   3   6  -1    0.76    0.20
   3   6  -1    0.87    0.22
   3   6   0    0.24    0.15
   3   6   0    0.50    0.17
   3   6   1    0.30    0.12
   3   6   1    0.28    0.13
   3   6   2    1.11    0.17
   3   6   2    1.25    0.20
   3   6   3   28.64    1.12
   3   6   4   15.09    0.68
  -3  -6  -5   50.70    1.69
   3   6   5   46.33    1.60
   3   6   6    3.16    0.80
   3   6   7   69.17    1.94
   3   6   7    7.49    1.33
   3   6   8    9.02    0.49
  -3  -6  -8    7.54    0.61
   3   6   8    7.81    0.69
   3   6   9   11.35    0.88
   3   6   9    9.82    0.56
   3   6  10    0.67    0.16
   3   6  10    0.48    0.26
   3   6  10    0.10    0.53
   3   6  11    2.10    0.42
   3   6  11    2.28    0.25
   3   6  12    6.49    0.68
   3   6  12    6.28    0.40
   3   6  13    3.03    0.46
   3   6  14    0.72    0.23
   3   6  14   -0.14    0.50
   3   7  -5    0.07    0.14
   3   7  -5    0.08    0.13
   3   7  -4    2.17    0.34
   3   7  -4    2.01    0.31
   3   7  -3    0.11    0.15
   3   7  -2    7.89    0.62
   3   7  -2    8.44    0.63
   3   7  -1    0.02    0.14
  -3  -7   1    0.07    0.18
   3   7  -1   -0.10    0.18
   3   7   0   10.33    0.68
  -3  -7   0   10.41    0.84
   3   7   0   10.25    0.65
   3   7   1    0.61    0.17
   3   7   1    0.64    0.20
   3   7   2   41.03    1.59
   3   7   3    0.63    0.16
   3   7   4   48.88    1.73
  -3  -7  -7   27.07    1.46
  -3  -7  -8    1.57    0.33
   3   7   8    0.09    0.49
   3   7   9    4.27    0.36
  -3  -7  -9    3.92    0.46
   3   7  10    0.65    0.17
   3   7  10    0.20    0.23
   3   7  11    0.03    0.09
   3   7  11    0.12    0.24
   3   7  12    0.53    0.13
   3   7  12    0.58    0.26
   3   7  12   -0.09    0.53
   3   7  13    0.16    0.53
   3   8  -4    0.33    0.15
   3   8  -4    0.17    0.13
   3   8  -3    0.24    0.15
   3   8  -2    0.18    0.16
   3   8  -2    0.28    0.17
   3   8  -1    0.22    0.14
  -3  -8   1    0.28    0.18
   3   8  -1    0.37    0.18
   3   8   0    0.42    0.15
  -3  -8   0    0.47    0.24
   3   8   0    0.22    0.16
  -3  -8  -1    3.25    0.51
   3   8   1    2.30    0.33
   3   8   2    2.16    0.22
   3   8   2    2.51    0.31
  -3  -8  -2    2.63    0.47
   3   8   3    2.31    0.29
  -3  -8  -3    2.59    0.49
   3   8   4    2.28    0.27
  -3  -8  -4    2.20    0.45
  -3  -8  -5    3.06    0.50
  -3  -8  -6    2.21    0.45
  -3  -8  -7    8.30    0.79
  -3  -8  -8    3.85    0.52
   3   8   9    0.32    0.13
  -3  -8  -9    0.34    0.19
   3   8  10    8.26    0.53
   3   8  11    0.20    0.12
   3   8  12    6.36    0.40
   3   9  -2    0.04    0.13
   3   9  -1    1.14    0.24
  -3  -9   0   -0.04    0.17
   3   9   0   -0.02    0.14
  -3  -9  -1    3.78    0.54
   3   9   1    3.04    0.36
   3   9   2    0.84    0.21
  -3  -9  -2    0.76    0.32
   3   9   3    1.09    0.21
  -3  -9  -3    1.07    0.37
   3   9   3    1.31    0.18
   3   9   4    0.88    0.17
  -3  -9  -4    0.85    0.34
  -3  -9  -6    2.92    0.50
   3   9   7    7.37    0.50
  -3  -9  -7    5.87    0.70
  -3  -9  -8    0.56    0.25
  -3  -9  -9    5.50    0.60
   3   9   9    6.52    0.46
   3   9  10    3.15    0.31
   3   9  11    2.05    0.24
   3   9  12    0.14    0.09
   3  10   0    0.44    0.15
   3  10   1    1.26    0.22
  -3 -10  -1    0.80    0.26
   3  10   2    0.17    0.12
  -3 -10  -2    0.31    0.21
  -3 -10  -3    1.26    0.35
  -3 -10  -4    0.18    0.23
   3  10   5    0.85    0.16
   3  10   6   -0.09    0.10
  -3 -10  -6    0.17    0.24
   3  10   7    0.11    0.11
  -3 -10  -7   -0.04    0.19
   3  10   8    0.06    0.10
  -3 -10  -8    0.11    0.18
  -3 -10  -9   -0.03    0.16
   3  10  10    0.12    0.11
  -3 -11  -4    0.28    0.20
  -3 -11  -5    2.23    0.40
  -3 -11  -6   -0.04    0.17
  -3 -11  -7    0.88    0.26
  -4   9   6    2.07    0.26
   4  -9  -6    2.09    0.40
   4  -9  -5    4.49    0.60
  -4   9   5    4.28    0.40
   4  -9  -4    0.14    0.21
  -4   9   4    0.24    0.15
  -4   9   3    3.72    0.39
   4  -9  -2    0.10    0.21
  -4   9   2   -0.02    0.13
   4  -9  -1    0.14    0.21
  -4   9   1    0.37    0.16
   4  -9   0    0.04    0.16
  -4   9   0    0.07    0.10
   4  -9   1    0.08    0.15
   4  -8  -7    0.26    0.19
  -4   8   7    0.07    0.10
  -4   8   6    1.99    0.28
   4  -8  -6    2.21    0.43
  -4   8   5    0.14    0.14
   4  -8  -5    0.25    0.25
  -4   8   4    1.82    0.31
   4  -8  -4    1.18    0.38
  -4   8   3    0.44    0.19
   4  -8  -3    0.33    0.29
   4  -8  -2    0.06    0.23
  -4   8   1    0.18    0.16
   4  -8  -1    0.11    0.22
  -4   8   0    0.14    0.16
   4  -8   0    0.10    0.23
  -4   8   0    0.11    0.12
  -4   8  -1    0.08    0.13
   4  -8   1    0.10    0.20
  -4   8  -1    0.02    0.11
   4  -8   2    0.98    0.30
  -4   8  -2    0.77    0.19
  -4   8  -2    0.91    0.19
  -4   8  -3    0.55    0.17
  -4   8  -4    0.55    0.15
  -4   7   7    1.67    0.25
   4  -7  -7    1.89    0.37
   4  -7  -6    5.68    0.68
  -4   7   6    5.95    0.49
  -4   7   5    0.10    0.16
   4  -7  -5    0.10    0.23
   4  -7  -4   11.96    1.06
  -4   7   4   13.29    0.82
  -4   7   3    1.11    0.27
   4  -7  -3    0.48    0.29
  -4   7   2   13.44    0.85
   4  -7  -1    1.36    0.39
  -4   7   1    1.24    0.28
  -4   7   0    1.74    0.32
   4  -7   0    2.09    0.48
  -4   7  -1    0.61    0.20
   4  -7   1    0.52    0.27
  -4   7  -2    1.67    0.27
   4  -7   2    2.07    0.45
  -4   7  -3    0.11    0.11
  -4   7  -3    0.15    0.12
   4  -7   3   -0.04    0.15
  -4   7  -4    0.57    0.19
  -4   7  -4    0.33    0.16
  -4   7  -5    0.04    0.12
  -4   7  -5    0.12    0.13
   4  -6 -10    0.16    0.32
   4  -6  -6    0.13    0.20
  -4   6   6    0.10    0.13
  -4   6   5    9.24    0.60
   4  -6  -5    8.64    0.82
  -4   6   4    2.70    0.36
   4  -6  -4    2.23    0.46
   4  -6  -3    2.20    0.45
  -4   6   3    2.11    0.33
  -4   6   2    0.27    0.19
   4  -6  -1    1.73    0.41
   4  -6   0    0.29    0.22
  -4   6   0   -0.07    0.17
   4  -6   1    0.58    0.31
  -4   6  -1    0.93    0.24
  -4   6  -1    0.68    0.17
  -4   6  -2   -0.05    0.13
   4  -6   2    0.14    0.22
  -4   6  -2    0.15    0.13
  -4   6  -3    0.74    0.19
   4  -6   3    1.17    0.33
  -4   6  -3    1.13    0.23
  -4   6  -4    1.77    0.24
   4  -6   4    1.94    0.38
  -4   6  -4    2.11    0.32
  -4   6  -5    0.35    0.17
  -4   6  -6    1.92    0.29
  -4   6  -6    2.54    0.34
  -4   6  -7   -0.02    0.12
  -4   6  -7   -0.11    0.13
   4  -6   7   -0.07    0.25
   4  -5 -11    0.09    0.30
   4  -5 -10    0.06    0.34
  -4   5   6    0.39    0.15
   4  -5  -6    0.28    0.13
   4  -5  -6    0.61    0.23
   4  -5  -5    9.93    0.86
   4  -5  -5    9.55    0.60
  -4   5   5   11.83    0.68
   4  -5  -4    0.93    0.31
  -4   5   4    0.72    0.19
   4  -5  -4    0.82    0.19
   4  -5  -3   50.54    2.33
  -4   5   3   51.30    1.96
   4  -5  -2   30.04    1.65
  -4   5   2   31.07    1.35
  -4   5   1   27.47    1.25
   4  -5  -1   25.83    1.53
   4  -5   0   20.06    1.27
  -4   5   0   19.25    0.99
   4  -5   1   10.72    0.90
  -4   5  -1    9.06    0.63
   4  -5   2    2.96    0.48
  -4   5  -2    3.74    0.38
   4  -5   3    4.51    0.57
  -4   5  -3    4.22    0.39
   4  -5   4    2.44    0.42
  -4   5  -4    2.17    0.27
  -4   5  -4    1.86    0.21
  -4   5  -4    2.50    0.34
  -4   5  -5    7.65    0.46
  -4   5  -5    8.27    0.63
  -4   5  -6    2.19    0.34
  -4   5  -6    2.54    0.25
  -4   5  -7    0.57    0.21
  -4   5  -8    0.40    0.18
   4  -5   8    0.16    0.28
  -4   5  -8    0.20    0.12
  -4   5  -9   -0.06    0.11
  -4   4   8    0.38    0.51
  -4   4   6   10.95    0.56
   4  -4  -6   12.33    0.84
   4  -4  -5   29.20    1.47
  -4   4   5   26.49    1.14
   4  -4  -5   25.87    1.14
   4  -4  -4    5.17    0.56
   4  -4  -4    6.08    0.42
  -4   4   4    5.40    0.41
   4  -4  -3   66.35    2.70
  -4   4   3   66.58    2.33
   4  -4  -2    0.76    0.27
  -4   4   2    0.74    0.18
  -4   4   1   56.14    2.03
   4  -4   0    1.30    0.32
  -4   4  -1   23.21    1.07
   4  -4   1   25.81    1.39
   4  -4   2    1.83    0.36
  -4   4  -2    1.51    0.24
   4  -4   3    1.28    0.32
  -4   4  -3    1.83    0.25
  -4   4  -4    0.29    0.13
   4  -4   4    0.14    0.16
  -4   4  -5    0.04    0.10
  -4   4  -5    0.07    0.10
  -4   4  -6    0.03    0.16
  -4   4  -6   -0.02    0.10
  -4   4  -7    0.46    0.21
  -4   4  -7    0.41    0.14
  -4   4  -8   -0.11    0.15
   4  -4   8    0.10    0.33
  -4   4  -8   -0.03    0.10
   4  -4   9    1.00    0.44
  -4   4  -9    0.64    0.16
  -4   4 -10   -0.04    0.11
   4  -4  10    0.05    0.19
   4  -3 -10    0.06    0.33
   4  -3  -9    0.07    0.36
   4  -3  -7    0.23    0.13
   4  -3  -6   25.93    0.88
  -4   3   6    0.52    0.62
   4  -3  -5    0.86    0.18
  -4   3   5    0.29    0.12
   4  -3  -5    0.88    0.25
   4  -3  -4    6.67    0.44
  -4   3   4    6.02    0.42
   4  -3  -4    6.58    0.61
   4  -3  -3   22.59    1.25
   4  -3  -3   24.60    1.02
  -4   3   3   24.47    1.02
   4  -3  -2    4.35    0.49
  -4   3   2    4.54    0.36
  -4   3   1    0.80    0.17
   4  -3   0   33.53    1.56
  -4   3   0   30.99    1.25
   4  -3   1    2.99    0.40
  -4   3  -1    2.60    0.27
   4  -3   2   39.00    1.71
  -4   3  -2   34.63    1.37
   4  -3   3   44.12    1.89
  -4   3  -3   40.75    1.54
  -4   3  -4    7.00    0.46
   4  -3   4    7.29    0.64
  -4   3  -5   17.46    0.81
   4  -3   5   20.41    1.12
  -4   3  -6    1.64    0.22
  -4   3  -7    2.06    0.26
   4  -3   8    0.60    0.44
  -4   3  -8    0.43    0.16
  -4   3  -9    0.05    0.13
   4  -3   9   -0.09    0.30
  -4   3  -9    0.02    0.11
  -4   3 -10    0.74    0.21
   4  -3  10    1.05    0.42
  -4   3 -11    0.49    0.16
   4  -3  11    0.44    0.28
   4  -2 -11   -0.03    0.20
   4  -2  -8    0.82    0.56
   4  -2  -7    4.23    0.42
   4  -2  -6   61.47    2.22
   4  -2  -5   14.55    0.64
  -4   2   5    0.34    0.43
  -4   2   4    3.56    0.29
   4  -2  -4    3.82    0.33
   4  -2  -3   10.51    0.74
   4  -2  -3   10.00    0.55
  -4   2   3    9.20    0.62
  -4   2   3   10.38    0.53
   4  -2  -3    9.56    0.51
   4  -2  -2    1.46    0.19
   4  -2  -2    1.56    0.28
   4  -2  -2    1.10    0.23
  -4   2   2    1.27    0.22
  -4   2   2    1.22    0.17
   4  -2  -2    0.93    0.15
   4  -2  -1   10.39    0.72
  -4   2   1    8.68    0.59
   4  -2  -1   10.17    0.56
   4  -2  -1    8.99    0.51
   4  -2  -1    9.89    0.60
  -4   2   1    9.08    0.53
  -4   2   1    9.28    0.50
   4  -2   0  201.57    6.05
  -4   2   0  204.59    6.21
  -4   2   0  194.25    6.13
  -4   2   0  200.25    6.01
   4  -2   1    6.03    0.55
   4  -2   1    6.15    0.40
  -4   2  -1    6.45    0.48
  -4   2  -1    6.97    0.51
   4  -2   2   89.74    3.27
  -4   2  -2   93.30    3.19
   4  -2   2   90.42    2.94
  -4   2  -2   93.55    2.94
  -4   2  -2   94.27    3.13
  -4   2  -3    0.86    0.19
   4  -2   3    0.61    0.12
  -4   2  -3    0.77    0.21
  -4   2  -3    0.67    0.14
   4  -2   3    0.77    0.21
  -4   2  -4    1.71    0.25
   4  -2   4    1.09    0.25
  -4   2  -4    1.32    0.18
  -4   2  -4    0.91    0.24
   4  -2   5    8.80    0.67
  -4   2  -5    7.83    0.66
  -4   2  -5    8.11    0.46
  -4   2  -6    5.48    0.33
  -4   2  -7   -0.05    0.12
   4  -2   8    0.20    0.36
  -4   2  -8    0.22    0.14
  -4   2  -9    0.18    0.15
   4  -2   9   -0.09    0.37
  -4   2  -9    0.30    0.15
  -4   2 -10    0.85    0.22
   4  -2  10    0.87    0.47
  -4   2 -10    1.24    0.22
  -4   2 -11    0.63    0.18
   4  -2  11    0.90    0.37
   4  -1 -11    0.15    0.19
   4  -1 -10    0.04    0.22
   4  -1  -9    0.15    0.35
   4  -1  -8    2.22    0.34
   4  -1  -7   22.13    0.99
   4  -1  -7   28.13    0.85
   4  -1  -6   50.40    1.42
   4  -1  -6   51.85    1.17
   4  -1  -5   23.88    1.10
   4  -1  -5   24.95    0.98
   4  -1  -4   19.43    0.90
   4  -1  -4   21.28    0.77
  -4   1   4   19.78    0.81
   4  -1  -4   20.80    0.84
   4  -1  -3    8.63    0.50
   4  -1  -3    9.54    0.43
   4  -1  -3    6.85    0.67
  -4   1   3    8.02    0.52
   4  -1  -3    8.27    0.68
   4  -1  -3    9.59    0.47
  -4   1   3    8.77    0.46
   4  -1  -2    1.68    0.34
   4  -1  -2    1.02    0.20
   4  -1  -2    0.72    0.23
   4  -1  -2    0.93    0.22
  -4   1   2    1.20    0.19
   4  -1  -2    1.30    0.18
   4  -1  -1   72.79    2.46
   4  -1  -1   71.76    2.65
  -4   1   1   71.06    2.55
  -4   1   1   74.12    2.49
   4  -1  -1   69.96    2.73
   4  -1  -1   67.80    2.52
   4  -1   0   52.65    1.94
   4  -1   0   52.09    1.99
  -4   1   0   49.81    1.99
   4  -1   1    0.46    0.17
   4  -1   1    0.43    0.10
  -4   1  -1    0.43    0.15
   4  -1   2    4.75    0.26
   4  -1   2    4.91    0.47
  -4   1  -2    5.32    0.39
  -4   1  -2    5.82    0.47
   4  -1   2    4.79    0.32
   4  -1   3    1.15    0.29
  -4   1  -3    1.96    0.24
  -4   1  -3    2.30    0.32
   4  -1   3    1.57    0.28
   4  -1   3    2.26    0.22
  -4   1  -4   62.98    2.28
  -4   1  -4   62.12    2.47
   4  -1   4   67.78    2.19
   4  -1   5    4.41    0.47
  -4   1  -5    3.17    0.32
  -4   1  -5    4.70    0.48
  -4   1  -5    3.44    0.26
   4  -1   5    3.31    0.29
  -4   1  -6   45.50    1.51
  -4   1  -6   45.37    1.91
  -4   1  -6   42.82    1.49
   4  -1   6   44.57    1.58
   4  -1   7    6.40    0.97
  -4   1  -7    8.06    0.68
  -4   1  -7    7.09    0.42
   4  -1   8    3.25    0.75
  -4   1  -8    3.02    0.27
  -4   1  -9    0.05    0.14
   4  -1   9   -0.09    0.37
   4  -1  10    3.42    0.72
  -4   1 -10    2.69    0.34
  -4   1 -11    0.35    0.16
   4  -1  11    0.20    0.37
  -4   1 -12    1.29    0.22
   4  -1  12    2.07    0.47
   4   0  -8    0.37    0.14
   4   0  -8    0.21    0.17
   4   0  -8    0.10    0.26
  -4   0   8   -0.22    0.63
   4   0  -7    0.04    0.10
   4   0  -7   -0.09    0.16
   4   0  -6    0.91    0.19
   4   0  -6    1.37    0.26
   4   0  -5    7.09    0.51
   4   0  -5    7.39    0.35
   4   0  -5    7.04    0.43
   4   0  -4    7.26    0.48
   4   0  -4    7.08    0.34
   4   0  -4    6.51    0.39
   4   0  -4    6.35    0.39
   4   0  -3   75.45    1.51
   4   0  -3   74.88    1.27
   4   0  -3   76.29    1.58
  -4   0   3   77.49    1.51
   4   0  -3   76.39    1.42
   4   0  -2   32.27    1.17
   4   0  -2   30.61    1.09
  -4   0   2   30.11    1.15
  -4   0   1    3.78    0.30
   4   0  -1    4.01    0.38
   4   0  -1    3.63    0.29
   4   0  -1    3.66    0.33
   4   0  -1    3.80    0.25
  -4   0   1    4.53    0.29
   4   0  -1    4.13    0.28
   4   0   0  138.94    4.28
   4   0   0  143.90    4.42
  -4   0   0  136.16    4.39
  -4   0   0  131.93    4.36
   4   0   0  139.56    4.29
  -4   0  -1  124.34    4.11
   4   0   1  117.02    4.05
   4   0   1  117.66    4.41
  -4   0  -1  125.61    4.13
   4   0   1  126.61    4.02
  -4   0  -2  100.11    3.22
   4   0   2  101.22    3.12
   4   0   2  101.65    3.58
  -4   0  -2  107.09    3.30
  -4   0  -3   38.37    1.37
   4   0   3   39.56    1.69
  -4   0  -3   34.06    1.43
   4   0   3   37.89    1.30
   4   0   4   12.99    0.91
  -4   0  -4   14.55    0.79
   4   0   4   15.82    0.67
  -4   0  -4   14.79    0.69
   4   0   5    3.07    0.50
   4   0   5    3.86    0.35
  -4   0  -5    4.02    0.41
  -4   0  -5    3.74    0.31
   4   0   5    4.29    0.31
   4   0   6   44.39    2.43
  -4   0  -6   47.98    1.79
  -4   0  -6   51.86    1.72
  -4   0  -6   57.53    2.18
   4   0   6   53.07    1.77
  -4   0  -7    7.39    0.64
   4   0   7    7.05    0.88
  -4   0  -7    6.96    0.42
   4   0   7    6.97    0.44
   4   0   8    4.27    0.75
  -4   0  -8    4.89    0.52
  -4   0  -8    4.03    0.33
  -4   0  -8    4.38    0.36
   4   0   8    4.27    0.33
  -4   0  -9    5.42    0.39
   4   0   9    4.31    0.77
  -4   0  -9    5.67    0.55
  -4   0  -9    4.85    0.41
   4   0  10    0.44    0.37
  -4   0 -10    0.76    0.20
  -4   0 -10    0.91    0.21
  -4   0 -11    0.08    0.11
   4   0  11    0.07    0.29
  -4   0 -11    0.19    0.13
  -4   0 -12    0.09    0.10
   4   0  12   -0.06    0.24
   4   0  12    0.22    0.56
   4   0  13    0.28    0.21
   4   1  -8    0.04    0.25
   4   1  -8    1.96    0.27
   4   1  -7    3.96    0.48
   4   1  -7    4.63    0.43
   4   1  -6    4.38    0.47
   4   1  -6    5.95    0.45
   4   1  -5   36.38    1.59
   4   1  -5   35.28    1.31
   4   1  -5   37.98    1.47
   4   1  -4   17.46    0.90
   4   1  -4   15.96    0.71
   4   1  -4   16.72    0.81
  -4  -1   3   10.47    0.49
   4   1  -3   10.87    0.59
   4   1  -3   10.37    0.47
   4   1  -3   10.28    0.50
   4   1  -3   11.46    0.54
  -4  -1   3   10.29    0.43
   4   1  -2   18.26    0.69
   4   1  -2   18.81    0.68
  -4  -1   2   18.21    0.61
   4   1  -2   19.09    0.59
   4   1  -2   18.24    0.63
  -4  -1   2   17.77    0.57
   4   1  -1  143.89    1.74
  -4  -1   1  148.33    1.89
   4   1  -1  146.91    1.86
   4   1  -1  148.37    1.57
  -4  -1   0   19.53    0.83
   4   1   0   20.45    0.84
   4   1   0   20.06    0.89
   4   1   0   20.94    0.80
   4   1   0   21.52    0.95
   4   1   0   22.06    0.77
  -4  -1  -1  284.11    9.07
   4   1   1  295.29    9.05
   4   1   1  302.05    9.04
   4   1   1  290.57    8.99
   4   1   2    3.50    0.24
   4   1   2    3.08    0.23
   4   1   2    3.84    0.35
   4   1   2    3.36    0.24
   4   1   2    3.24    0.23
  -4  -1  -3   63.08    2.03
   4   1   3   61.57    1.95
   4   1   3   58.77    1.90
   4   1   4   12.54    0.74
   4   1   4   12.67    0.47
   4   1   4   15.86    0.73
  -4  -1  -4   14.63    0.63
   4   1   4   14.23    0.59
   4   1   5   38.99    1.78
   4   1   5   37.08    1.46
  -4  -1  -5   43.44    1.62
   4   1   5   42.82    1.41
  -4  -1  -5   41.26    1.44
  -4  -1  -6    3.42    0.28
   4   1   6    2.88    0.47
   4   1   6    2.96    0.26
  -4  -1  -6    3.87    0.28
  -4  -1  -6    4.34    0.41
  -4  -1  -6    3.34    0.24
   4   1   6    3.70    0.28
   4   1   7    6.52    0.76
  -4  -1  -7    6.91    0.42
  -4  -1  -7    7.91    0.62
   4   1   7    7.08    0.43
   4   1   8    5.39    0.74
  -4  -1  -8    6.01    0.41
  -4  -1  -8    5.78    0.57
   4   1   8    6.01    0.41
  -4  -1  -9   10.49    0.76
   4   1   9    9.74    1.04
  -4  -1  -9    8.98    0.55
  -4  -1  -9    9.17    0.56
   4   1   9    9.23    0.53
  -4  -1 -10    2.23    0.27
   4   1  10    2.25    0.56
  -4  -1 -10    2.32    0.36
  -4  -1 -10    2.82    0.31
  -4  -1 -10    3.00    0.33
   4   1  11    4.95    0.76
  -4  -1 -11    5.21    0.43
  -4  -1 -11    4.50    0.40
   4   1  12    1.45    0.45
   4   1  13    1.63    0.39
   4   1  13    1.29    0.62
   4   2  -9   -0.02    0.10
   4   2  -8    0.88    0.22
   4   2  -8   -0.03    0.19
   4   2  -7    0.45    0.18
   4   2  -6    5.47    0.58
   4   2  -6    5.88    0.41
   4   2  -6    6.63    0.54
   4   2  -5    0.28    0.17
   4   2  -5    0.45    0.20
   4   2  -5    0.42    0.14
   4   2  -5   -0.03    0.21
   4   2  -4    0.41    0.16
   4   2  -4    0.34    0.18
   4   2  -4    0.39    0.14
   4   2  -3   27.28    1.23
   4   2  -3   26.70    1.06
   4   2  -3   26.25    1.13
  -4  -2   2    3.99    0.29
   4   2  -2    4.29    0.32
   4   2  -2    4.37    0.32
  -4  -2   2    3.49    0.26
   4   2  -1    4.37    0.37
   4   2  -1    4.47    0.32
  -4  -2   1    4.68    0.36
  -4  -2   1    3.93    0.41
   4   2  -1    5.31    0.37
  -4  -2   1    5.12    0.33
  -4  -2   1    4.97    0.32
   4   2  -1    5.29    0.26
   4   2   0    4.78    0.35
  -4  -2   0    5.14    0.34
  -4  -2   0    4.96    0.32
  -4  -2   0    4.42    0.40
   4   2   0    5.24    0.37
   4   2   0    4.91    0.33
  -4  -2   0    4.17    0.30
   4   2   0    5.03    0.27
   4   2   1  138.27    3.68
   4   2   1  134.15    3.63
  -4  -2  -1  136.67    3.84
   4   2   1  136.59    3.65
  -4  -2  -1  130.88    3.66
   4   2   1  136.63    3.56
   4   2   2   24.87    0.88
   4   2   2   23.37    0.87
  -4  -2  -2   24.20    0.94
   4   2   2   25.31    1.00
   4   2   2   26.28    0.91
  -4  -2  -2   24.98    0.91
   4   2   2   24.10    0.84
   4   2   3   98.20    3.08
   4   2   3   98.05    3.00
  -4  -2  -3   94.26    2.95
   4   2   3  106.55    3.18
   4   2   3   92.74    2.98
  -4  -2  -3   98.27    3.04
   4   2   3  104.09    3.00
   4   2   4    1.51    0.22
   4   2   4    1.46    0.15
   4   2   4    1.59    0.20
  -4  -2  -4    2.00    0.19
  -4  -2  -4    1.77    0.18
   4   2   4    1.93    0.17
   4   2   5   59.03    2.32
   4   2   5   60.96    2.11
  -4  -2  -5   62.72    2.06
  -4  -2  -5   65.68    2.08
  -4  -2  -5   59.58    2.05
   4   2   5   61.45    2.03
  -4  -2  -6    2.81    0.24
   4   2   6    2.57    0.38
   4   2   6    2.33    0.23
  -4  -2  -6    2.89    0.23
   4   2   6    2.77    0.23
   4   2   7    5.62    0.62
  -4  -2  -7    5.73    0.39
  -4  -2  -7    6.73    0.52
  -4  -2  -7    5.62    0.33
   4   2   7    6.05    0.37
   4   2   8    6.98    0.76
  -4  -2  -8    5.79    0.43
  -4  -2  -8    6.34    0.55
   4   2   8    6.48    0.40
  -4  -2  -9   22.27    1.02
  -4  -2  -9   21.43    0.97
   4   2   9   23.27    0.96
  -4  -2 -10    4.64    0.41
   4   2  10    4.62    0.74
  -4  -2 -10    5.45    0.53
  -4  -2 -10    4.67    0.39
   4   2  10    4.36    0.35
  -4  -2 -10    4.71    0.38
   4   2  11    5.70    0.79
  -4  -2 -11    6.29    0.46
   4   2  12   -0.05    0.25
   4   3  -9    0.12    0.11
   4   3  -8    1.56    0.26
   4   3  -8   -0.04    0.21
   4   3  -7    0.56    0.20
   4   3  -7   -0.04    0.21
   4   3  -6    1.21    0.29
   4   3  -6    1.33    0.22
   4   3  -5    1.35    0.27
   4   3  -5    2.10    0.40
   4   3  -5    1.63    0.25
   4   3  -4   17.29    0.93
   4   3  -4   17.78    0.70
   4   3  -4   17.99    0.81
   4   3  -3    5.48    0.51
   4   3  -3    6.40    0.41
   4   3  -2   42.73    1.58
   4   3  -2   43.72    1.65
   4   3  -1   12.15    0.69
  -4  -3   1   11.24    0.66
   4   3  -1   11.26    0.58
   4   3  -1   11.58    0.62
  -4  -3   1   10.20    0.53
   4   3   0  100.53    1.68
  -4  -3   0   98.35    1.64
   4   3   0   98.63    1.52
  -4  -3   0   99.39    1.42
   4   3   0   98.30    1.10
   4   3   1  156.73    2.23
  -4  -3  -1  168.63    2.13
   4   3   1  148.37    2.04
   4   3   1  171.28    2.31
   4   3   1  149.85    2.05
  -4  -3  -1  158.18    2.06
   4   3   1  142.80    1.75
   4   3   2   74.56    2.39
  -4  -3  -2   77.63    2.35
   4   3   2   78.54    2.50
   4   3   2   76.71    2.40
   4   3   2   78.04    2.45
  -4  -3  -2   69.45    2.40
   4   3   2   73.71    2.32
   4   3   3  105.08    3.19
   4   3   3   99.84    3.08
   4   3   3  102.35    3.04
   4   3   4   27.18    1.03
   4   3   4   28.22    1.19
   4   3   4   30.26    1.17
  -4  -3  -4   27.35    1.08
   4   3   5  109.42    3.75
   4   3   5  110.39    3.46
  -4  -3  -5  112.48    3.53
  -4  -3  -5  110.02    3.53
   4   3   5  110.84    3.48
  -4  -3  -6   33.88    1.26
   4   3   6   31.95    1.50
  -4  -3  -6   32.16    1.22
   4   3   6   33.57    1.21
   4   3   7   15.40    1.01
  -4  -3  -7   15.66    0.75
  -4  -3  -7   17.83    0.74
   4   3   7   15.93    0.71
   4   3   8    3.95    0.52
   4   3   8    4.57    0.85
  -4  -3  -8    4.29    0.42
   4   3   8    3.98    0.31
   4   3   9    3.68    0.56
  -4  -3  -9    4.29    0.39
  -4  -3  -9    4.51    0.34
  -4  -3  -9    4.32    0.45
   4   3   9    4.25    0.33
   4   3  10    1.30    0.19
   4   3  10    0.81    0.35
  -4  -3 -10    1.21    0.24
  -4  -3 -10    1.27    0.20
   4   3  10    0.51    0.67
  -4  -3 -10    1.51    0.31
   4   3  11    7.16    0.82
  -4  -3 -11    5.64    0.43
   4   3  11    7.25    1.29
   4   3  13    0.09    0.51
   4   4  -8    1.79    0.27
   4   4  -7    0.07    0.14
   4   4  -7   -0.03    0.19
   4   4  -6    3.23    0.34
   4   4  -6    2.91    0.40
   4   4  -5    0.04    0.24
   4   4  -5    0.72    0.19
   4   4  -4    2.56    0.31
   4   4  -4   -0.04    0.25
   4   4  -3    7.61    0.49
   4   4  -3    8.58    0.58
   4   4  -2    3.64    0.43
   4   4  -2    3.88    0.35
   4   4  -2    4.13    0.39
   4   4  -1    2.42    0.34
   4   4  -1    2.50    0.29
   4   4   0   31.04    1.32
   4   4   0   30.21    1.18
  -4  -4   0   28.95    1.27
   4   4   0   29.89    1.19
   4   4   0   29.17    0.99
   4   4   1    1.27    0.22
  -4  -4  -1    1.23    0.20
   4   4   1    1.05    0.17
   4   4   1    1.44    0.19
   4   4   1    1.28    0.13
   4   4   2    0.89    0.15
   4   4   2    0.83    0.17
   4   4   2    1.22    0.17
  -4  -4  -2    0.86    0.12
  -4  -4  -2    0.94    0.15
   4   4   2    1.16    0.13
   4   4   3   10.24    0.51
  -4  -4  -3   11.72    0.50
   4   4   3   11.51    0.52
   4   4   3   10.82    0.48
   4   4   4   17.29    0.87
   4   4   4   17.45    0.72
  -4  -4  -4   17.57    0.73
   4   4   4   19.09    1.15
   4   4   4   19.17    0.74
   4   4   5    1.91    0.17
   4   4   5    1.53    0.25
  -4  -4  -5    1.91    0.20
   4   4   5    1.57    0.40
   4   4   6    9.85    0.68
   4   4   6    9.74    0.45
  -4  -4  -6   10.02    0.54
   4   4   6   10.45    0.51
  -4  -4  -7   18.85    0.86
   4   4   7   19.21    1.09
   4   4   7   19.38    0.80
  -4  -4  -8   27.30    1.18
  -4  -4  -8   27.90    1.06
   4   4   8   28.72    1.11
   4   4   9    4.06    0.56
  -4  -4  -9    3.71    0.30
  -4  -4  -9    3.71    0.41
   4   4   9    3.71    0.31
   4   4  10   39.67    2.04
  -4  -4 -10   37.76    1.47
  -4  -4 -10   40.29    1.73
   4   4  10   42.09    1.51
  -4  -4 -11    8.06    0.50
   4   4  11    8.72    0.51
   4   4  14    0.35    0.22
   4   5  -7   -0.02    0.13
   4   5  -6    0.97    0.20
   4   5  -5    2.06    0.35
   4   5  -5    1.89    0.29
   4   5  -4    0.89    0.26
   4   5  -4    1.06    0.24
   4   5  -3    6.21    0.48
   4   5  -3    6.10    0.52
   4   5  -2    8.20    0.53
   4   5  -2    8.19    0.58
   4   5  -1   33.07    1.40
   4   5   0   17.46    0.86
   4   5   0   18.10    0.88
   4   5   1   17.06    0.81
   4   5   1   17.42    0.81
   4   5   1   16.75    0.65
   4   5   2   42.10    1.57
   4   5   2   42.59    1.53
   4   5   2   44.06    1.45
   4   5   3   36.73    1.35
  -4  -5  -3   36.05    1.27
   4   5   3   36.02    1.31
   4   5   3   37.64    1.28
   4   5   4   76.13    2.54
  -4  -5  -4   82.43    2.55
   4   5   4   80.22    2.53
   4   5   5   28.55    1.06
  -4  -5  -5   29.40    1.12
   4   5   5   29.94    1.09
   4   5   6   28.67    1.33
  -4  -5  -6   27.31    1.12
  -4  -5  -7   31.42    1.24
   4   5   7   33.71    1.51
   4   5   7   34.30    1.19
   4   5   8   54.58    2.28
  -4  -5  -8   54.12    1.97
   4   5   8   56.73    1.89
   4   5   9    2.07    0.39
  -4  -5  -9    2.24    0.30
   4   5   9    2.55    0.26
  -4  -5 -10   25.10    1.11
   4   5  10   23.99    0.89
   4   5  11    1.09    0.19
   4   5  11    1.61    0.66
   4   5  12    0.15    0.10
   4   5  12    0.36    0.53
   4   5  13    2.76    0.45
   4   5  14    1.24    0.30
   4   6  -6    0.15    0.16
   4   6  -6    0.05    0.09
   4   6  -5   -0.10    0.16
   4   6  -5   -0.06    0.14
   4   6  -4    2.52    0.34
   4   6  -4    2.69    0.38
   4   6  -3    3.67    0.41
   4   6  -3    2.64    0.38
  -4  -6   2    9.17    0.72
   4   6  -2    9.08    0.67
   4   6  -1   31.14    1.37
   4   6  -1   30.38    1.38
   4   6   0    2.96    0.34
   4   6   0    2.29    0.31
   4   6   1   10.00    0.63
   4   6   1   10.48    0.61
   4   6   2    0.30    0.13
   4   6   2    0.30    0.10
   4   6   2    0.36    0.15
   4   6   3    8.83    0.54
   4   6   3    8.92    0.49
   4   6   3    9.65    0.49
   4   6   4   27.09    1.03
   4   6   4   25.33    1.05
   4   6   5    2.24    0.24
  -4  -6  -5    1.98    0.23
   4   6   5    1.95    0.21
  -4  -6  -6   14.87    0.74
   4   6   6   15.50    0.72
  -4  -6  -7   18.54    0.88
   4   6   7   21.06    0.87
   4   6   8    2.75    0.43
  -4  -6  -8    2.10    0.28
   4   6   8    2.41    0.27
   4   6   9    0.79    0.18
   4   6  10    2.38    0.75
   4   6  10    5.11    0.39
   4   6  11    1.07    0.20
   4   6  12    1.62    0.37
   4   6  12    2.25    0.25
   4   6  13    1.99    0.38
   4   6  13    1.60    0.64
   4   6  14    0.81    0.23
   4   7  -5    0.12    0.12
   4   7  -5    0.02    0.11
   4   7  -4   -0.02    0.14
   4   7  -4   -0.13    0.15
   4   7  -3    0.56    0.21
   4   7  -3    1.10    0.25
   4   7  -2    0.20    0.17
   4   7  -1    0.29    0.18
  -4  -7   1    0.49    0.23
   4   7  -1    0.37    0.19
   4   7   0    2.80    0.35
   4   7   0    2.78    0.34
   4   7   1    2.44    0.33
   4   7   1    2.42    0.30
   4   7   2    1.09    0.20
   4   7   2    0.96    0.15
   4   7   2    1.24    0.24
   4   7   3   35.44    1.42
   4   7   3   35.15    1.30
   4   7   4    2.62    0.28
   4   7   4    2.09    0.24
   4   7   5   52.69    1.77
   4   7   5   46.01    1.70
   4   7   6    7.42    0.48
   4   7   8    0.30    0.14
   4   7   8    0.08    0.49
  -4  -7  -9    8.78    0.71
   4   7   9   11.60    0.60
   4   7  10    0.18    0.55
   4   7  10    4.15    0.35
   4   7  11    5.73    0.42
   4   7  12    0.78    0.16
   4   7  13    0.07    0.46
   4   8  -3    0.10    0.12
   4   8  -3   -0.04    0.12
   4   8  -2    0.83    0.20
   4   8  -2    0.78    0.22
   4   8  -1    0.54    0.19
   4   8  -1    0.73    0.21
  -4  -8   0    1.22    0.32
   4   8   0    1.80    0.30
   4   8   0    1.76    0.27
   4   8   1    0.22    0.13
  -4  -8  -1    0.38    0.25
   4   8   1    0.16    0.15
  -4  -8  -2    3.95    0.57
   4   8   2    4.01    0.40
   4   8   3    2.67    0.32
   4   8   3    2.86    0.26
   4   8   4    3.17    0.33
   4   8   4    3.70    0.31
   4   8   5    1.92    0.24
   4   8   6    2.13    0.26
  -4  -8  -7    2.21    0.43
   4   8   7    2.62    0.29
  -4  -8  -8    0.60    0.26
   4   8   9    0.05    0.12
  -4  -8  -9    0.32    0.20
   4   8  10    0.19    0.12
   4   8  11    0.86    0.17
   4   8  12    1.18    0.19
   4   9  -2    0.24    0.13
   4   9  -1    0.06    0.13
  -4  -9   0    0.13    0.16
   4   9   0   -0.04    0.13
  -4  -9  -1    0.04    0.20
   4   9   1    0.37    0.17
  -4  -9  -2    0.04    0.20
   4   9   2    0.09    0.14
  -4  -9  -3    0.46    0.27
   4   9   3    0.39    0.16
  -4  -9  -4    3.66    0.56
   4   9   4    3.16    0.32
   4   9   4    3.84    0.31
   4   9   5    1.44    0.21
  -4  -9  -6    8.18    0.82
   4   9   6    7.92    0.51
   4   9   7    0.12    0.12
  -4  -9  -7    0.22    0.25
  -4  -9  -8    9.66    0.84
   4   9   8   11.36    0.64
  -4  -9  -9    2.15    0.39
   4   9  10    2.43    0.27
   4   9  11    3.09    0.29
   4  10   1   -0.02    0.10
  -4 -10  -2    0.25    0.19
   4  10   2    0.26    0.13
  -4 -10  -3    0.24    0.21
  -4 -10  -4    1.01    0.33
   4  10   5    0.81    0.15
  -4 -10  -5    0.82    0.29
  -4 -10  -6    3.62    0.54
   4  10   6    4.61    0.35
  -4 -10  -7    1.05    0.32
   4  10   7    1.80    0.23
  -4 -10  -8    5.73    0.63
   4  10   8    7.98    0.48
   4  10   9    0.27    0.12
  -4 -10  -9    0.03    0.14
  -4 -11  -5    0.36    0.18
   5  -9  -4    0.80    0.28
  -5   9   4    0.78    0.18
  -5   9   3    0.22    0.13
   5  -9  -3    0.22    0.20
   5  -9  -2    1.01    0.31
   5  -9  -1    0.25    0.20
  -5   9   1    0.31    0.13
  -5   8   6    0.10    0.12
   5  -8  -6    0.08    0.16
   5  -8  -5    2.26    0.45
  -5   8   5    2.96    0.34
  -5   8   4    0.23    0.16
   5  -8  -4    0.20    0.22
  -5   8   3    3.26    0.38
   5  -8  -3    2.77    0.52
  -5   8   1    2.91    0.37
   5  -8  -1    2.99    0.55
  -5   8   0    1.68    0.28
   5  -8   0    1.48    0.41
  -5   8  -1    0.06    0.11
   5  -8   1   -0.09    0.17
  -5   8  -1    0.10    0.11
   5  -8   2   -0.16    0.18
  -5   8  -2    0.10    0.11
  -5   8  -2   -0.02    0.10
  -5   8  -3    0.24    0.12
  -5   7   6    0.04    0.11
   5  -7  -6   -0.04    0.15
  -5   7   5    0.63    0.19
   5  -7  -5    0.71    0.28
  -5   7   4   -0.05    0.13
   5  -7  -4    0.05    0.19
   5  -7  -4   -0.02    0.11
  -5   7   3    1.34    0.29
   5  -7  -3    1.82    0.45
  -5   7   2    0.11    0.16
   5  -7  -1    1.27    0.39
  -5   7   0    1.27    0.28
   5  -7   0    1.41    0.40
   5  -7   1    3.79    0.62
  -5   7  -1    4.12    0.44
  -5   7  -2    0.04    0.13
   5  -7   2   -0.05    0.19
  -5   7  -3    0.65    0.17
   5  -7   3    0.97    0.30
  -5   7  -4   -0.02    0.13
  -5   7  -5    0.56    0.17
   5  -6  -8    0.29    0.35
   5  -6  -6    9.18    0.86
  -5   6   6    7.56    0.55
  -5   6   5    0.65    0.19
   5  -6  -5    0.45    0.25
   5  -6  -5    0.11    0.12
   5  -6  -4    6.12    0.75
  -5   6   4    7.33    0.57
   5  -6  -3    1.37    0.40
  -5   6   3    1.89    0.33
   5  -6  -2   17.37    1.35
  -5   6   2   18.40    1.02
   5  -6  -1    5.56    0.76
   5  -6   0   14.42    1.19
  -5   6   0   13.94    0.87
   5  -6   1    9.44    0.93
  -5   6  -1    6.95    0.58
  -5   6  -2    0.46    0.18
   5  -6   2    0.53    0.26
  -5   6  -2    0.42    0.16
   5  -6   3    0.93    0.32
  -5   6  -3    1.43    0.25
  -5   6  -3    1.56    0.27
  -5   6  -4    0.35    0.14
   5  -6   4    0.44    0.21
  -5   6  -4    0.51    0.17
  -5   6  -5   -0.07    0.12
  -5   6  -6    0.04    0.12
  -5   6  -7    0.40    0.15
  -5   6  -7    0.29    0.12
   5  -5  -9   -0.10    0.31
   5  -5  -7   -0.12    0.32
   5  -5  -6    3.88    0.57
  -5   5   6    3.87    0.36
   5  -5  -5    1.55    0.39
   5  -5  -5    0.65    0.18
  -5   5   5    1.18    0.23
   5  -5  -4    0.79    0.32
  -5   5   4    0.63    0.22
   5  -5  -4    0.55    0.18
   5  -5  -3    7.36    0.80
   5  -5  -3    6.31    0.52
  -5   5   3    6.85    0.56
   5  -5  -2    2.45    0.48
  -5   5   2    2.96    0.36
  -5   5   1    4.92    0.48
   5  -5   0   -0.05    0.22
   5  -5   1    2.85    0.53
  -5   5  -1    2.86    0.37
   5  -5   2   -0.10    0.19
  -5   5  -2   -0.02    0.14
   5  -5   3    0.39    0.24
  -5   5  -3    0.24    0.15
   5  -5   4    1.27    0.34
  -5   5  -4    1.12    0.22
  -5   5  -5   -0.03    0.16
  -5   5  -6    0.97    0.24
  -5   5  -7   -0.02    0.13
  -5   5  -8    0.94    0.22
  -5   5  -8    0.91    0.19
   5  -4 -10   -0.12    0.25
   5  -4  -8   -0.06    0.33
   5  -4  -7    0.06    0.37
   5  -4  -6    1.34    0.24
   5  -4  -5   13.08    1.02
  -5   4   5   11.90    0.70
   5  -4  -5   12.14    0.73
   5  -4  -4   49.80    2.32
   5  -4  -4   50.56    1.90
  -5   4   4   48.15    1.89
   5  -4  -3    0.86    0.31
   5  -4  -3    1.63    0.27
  -5   4   3    1.41    0.26
  -5   4   2   53.73    2.06
   5  -4  -2   57.97    2.55
  -5   4   1    0.22    0.16
   5  -4   0   56.54    2.57
   5  -4   1    0.27    0.25
  -5   4  -1    0.36    0.17
  -5   4  -2    9.15    0.63
   5  -4   2   11.33    0.94
   5  -4   3    0.04    0.15
  -5   4  -3   -0.02    0.12
   5  -4   4    9.56    0.86
  -5   4  -4    8.72    0.59
  -5   4  -5    1.03    0.20
   5  -4   5    0.93    0.28
   5  -4   6    0.25    0.32
  -5   4  -6    0.69    0.16
  -5   4  -7    0.05    0.13
   5  -4   7   -0.08    0.28
  -5   4  -7    0.06    0.10
  -5   4  -8    0.03    0.13
   5  -4   8    0.07    0.24
  -5   4  -8   -0.01    0.09
  -5   4  -9    0.02    0.12
   5  -4   9    0.15    0.24
  -5   4  -9    0.09    0.10
   5  -3 -10    0.08    0.23
   5  -3  -8    0.30    0.38
   5  -3  -7    3.33    0.38
   5  -3  -6    6.73    0.51
   5  -3  -6    0.81    0.52
   5  -3  -5   51.20    1.92
   5  -3  -5   49.55    2.33
  -5   3   5   48.53    1.81
   5  -3  -4    1.73    0.39
   5  -3  -4    1.57    0.25
  -5   3   4    1.60    0.24
   5  -3  -3   54.13    2.15
   5  -3  -3   53.39    1.69
  -5   3   3   52.87    1.67
   5  -3  -2   47.26    1.86
   5  -3  -2   49.66    1.39
   5  -3  -1   22.32    1.34
  -5   3   1   22.07    1.02
   5  -3   0   15.65    1.09
  -5   3   0   15.73    0.81
   5  -3   1    0.12    0.15
   5  -3   2   10.71    0.88
  -5   3  -2   10.91    0.65
   5  -3   3    0.04    0.15
  -5   3  -3    0.02    0.12
   5  -3   4    0.12    0.17
  -5   3  -4    0.09    0.11
   5  -3   5    0.37    0.21
  -5   3  -5    0.53    0.15
   5  -3   6   -0.08    0.33
   5  -3   7    0.25    0.31
  -5   3  -7    0.41    0.14
   5  -3   8    1.04    0.44
  -5   3  -8    1.67    0.24
   5  -3   9    0.39    0.27
  -5   3  -9    0.32    0.14
  -5   3 -10    0.26    0.15
   5  -3  10    0.10    0.26
   5  -2  -9   -0.05    0.26
   5  -2  -8   -0.03    0.13
   5  -2  -7    0.18    0.15
   5  -2  -6   -0.06    0.36
   5  -2  -6    1.06    0.25
   5  -2  -5   11.61    0.71
   5  -2  -4    7.79    0.55
  -5   2   4    7.99    0.50
   5  -2  -3    6.42    0.69
   5  -2  -3    7.47    0.75
   5  -2  -3    8.72    0.56
  -5   2   3    7.96    0.50
   5  -2  -2    4.10    0.53
   5  -2  -2    4.23    0.37
  -5   2   2    4.38    0.36
   5  -2  -1   35.67    1.61
   5  -2  -1   33.95    1.40
  -5   2   1   32.87    1.16
  -5   2   0    0.28    0.13
   5  -2   0    0.22    0.12
  -5   2   0    0.17    0.12
   5  -2   1   95.02    3.45
  -5   2  -1   86.86    3.14
   5  -2   2    0.83    0.27
  -5   2  -2    0.76    0.21
  -5   2  -2    0.84    0.17
   5  -2   3   83.11    3.09
  -5   2  -3   79.84    2.91
  -5   2  -3   73.29    2.57
   5  -2   4   23.09    1.32
  -5   2  -4   22.56    1.25
  -5   2  -4   20.33    0.94
   5  -2   5   37.02    1.81
  -5   2  -5   33.97    1.33
   5  -2   6    1.47    0.48
  -5   2  -6    1.86    0.23
  -5   2  -6    2.41    0.23
   5  -2   7    7.46    1.03
  -5   2  -7    8.47    0.47
   5  -2   8    2.12    0.59
  -5   2  -8    2.97    0.32
  -5   2  -9    0.53    0.20
   5  -2   9    0.14    0.30
  -5   2  -9    0.34    0.15
  -5   2 -10    0.56    0.19
   5  -2  10    0.30    0.29
  -5   2 -10    0.38    0.14
  -5   2 -11   -0.02    0.12
   5  -2  11   -0.09    0.22
   5  -1  -8   -0.08    0.14
   5  -1  -8   -0.05    0.26
   5  -1  -7    2.26    0.34
   5  -1  -7    0.11    0.31
   5  -1  -6   13.41    0.85
   5  -1  -6   14.24    0.71
   5  -1  -5    4.18    0.43
   5  -1  -5    4.24    0.35
   5  -1  -4   31.96    1.34
   5  -1  -4   29.11    1.35
  -5   1   4   31.66    1.20
   5  -1  -3   10.15    0.63
  -5   1   3   10.79    0.57
   5  -1  -2   28.79    1.11
   5  -1  -2   16.73    1.25
   5  -1  -1   95.97    3.30
  -5   1   1   94.43    3.30
   5  -1  -1  105.26    3.85
   5  -1   0    3.24    0.33
   5  -1   0    3.26    0.31
  -5   1   0    3.52    0.36
   5  -1   1    1.31    0.33
   5  -1   1    1.41    0.20
  -5   1  -1    1.98    0.29
   5  -1   2  130.20    4.68
  -5   1  -2  137.60    4.49
   5  -1   3   -0.01    0.10
   5  -1   3    0.15    0.17
  -5   1  -3    0.14    0.13
   5  -1   4   15.28    1.05
  -5   1  -4   14.54    0.93
   5  -1   4   12.53    0.67
  -5   1  -5   20.74    0.87
   5  -1   5   20.45    0.92
   5  -1   6    0.53    0.16
   5  -1   6    0.06    0.24
   5  -1   6    0.18    0.12
  -5   1  -6    0.32    0.12
  -5   1  -6    0.18    0.22
  -5   1  -6    0.28    0.11
   5  -1   7    9.42    1.05
  -5   1  -7   11.01    0.86
  -5   1  -7   10.01    0.54
   5  -1   8    0.07    0.28
  -5   1  -8    0.24    0.11
  -5   1  -8    0.56    0.27
   5  -1   9    5.26    0.82
   5  -1  10    0.06    0.28
  -5   1 -10   -0.07    0.15
  -5   1 -11    0.84    0.20
   5  -1  11    1.18    0.39
   5  -1  12    0.08    0.17
   5   0 -10    0.08    0.18
   5   0  -9    0.03    0.21
   5   0  -8    0.84    0.26
   5   0  -7    0.90    0.26
   5   0  -7    1.68    0.25
   5   0  -6    4.14    0.45
   5   0  -6    4.18    0.36
   5   0  -5    0.24    0.14
   5   0  -5    0.37    0.19
   5   0  -5   -0.04    0.28
   5   0  -4    4.55    0.42
   5   0  -4    4.99    0.32
   5   0  -4    4.57    0.37
   5   0  -4    4.68    0.37
   5   0  -3    0.03    0.10
   5   0  -3   -0.04    0.11
   5   0  -3   -0.03    0.22
   5   0  -3    0.35    0.14
   5   0  -3   -0.03    0.07
   5   0  -2    2.73    0.29
   5   0  -2    3.06    0.25
   5   0  -2    3.03    0.36
   5   0  -2    2.77    0.26
   5   0  -1   59.60    2.01
   5   0  -1   64.05    2.23
   5   0   0   68.81    2.55
   5   0   0   74.52    2.49
   5   0   0   69.11    2.64
  -5   0   0   73.51    2.59
   5   0   1   30.68    1.24
  -5   0  -1   32.03    1.33
   5   0   1   31.44    1.21
   5   0   2   76.93    2.60
   5   0   2   80.62    2.60
   5   0   3  102.23    3.26
   5   0   3  103.90    3.34
   5   0   4   22.46    0.86
  -5   0  -4   24.16    1.18
   5   0   4   24.86    0.97
   5   0   5   42.73    1.97
  -5   0  -5   46.03    1.99
   5   0   5   47.33    1.70
   5   0   6   17.42    1.22
   5   0   6   19.58    0.95
  -5   0  -6   19.34    1.18
   5   0   6   21.25    0.92
   5   0   7    4.41    0.65
  -5   0  -7    4.02    0.33
  -5   0  -7    5.08    0.58
   5   0   7    4.64    0.38
   5   0   8   11.71    1.08
  -5   0  -8   10.48    0.84
  -5   0  -8   10.47    0.58
   5   0   8    9.68    0.59
   5   0   9   11.29    1.15
  -5   0  -9   12.31    0.92
  -5   0  -9   12.22    0.66
  -5   0  -9   12.88    0.70
   5   0  10    0.06    0.26
  -5   0 -10    0.26    0.12
  -5   0 -10    0.41    0.16
  -5   0 -11    1.55    0.25
   5   0  11    1.25    0.41
  -5   0 -11    1.32    0.23
  -5   0 -12    0.15    0.11
   5   0  12    0.09    0.20
   5   1  -9   -0.03    0.18
   5   1  -8    0.35    0.14
   5   1  -7    0.51    0.18
   5   1  -7    0.10    0.17
   5   1  -6    3.36    0.47
   5   1  -6    3.74    0.39
   5   1  -5    2.05    0.36
   5   1  -5    2.27    0.23
   5   1  -5    2.80    0.32
   5   1  -4   13.83    0.76
   5   1  -4   15.59    0.58
   5   1  -4   14.39    0.66
   5   1  -3   17.91    0.81
   5   1  -3   16.59    0.67
   5   1  -3   16.84    0.62
   5   1  -3   17.08    0.71
   5   1  -2   46.42    1.80
   5   1  -2   46.73    1.66
   5   1  -2   49.77    1.81
   5   1  -2   48.32    1.72
   5   1  -1    4.74    0.33
   5   1  -1    4.49    0.40
   5   1  -1    5.58    0.38
   5   1   0   67.56    2.22
   5   1   0   69.67    2.47
   5   1   0   72.79    2.21
   5   1   1    3.06    0.28
  -5  -1  -1    3.11    0.29
   5   1   1    2.95    0.25
   5   1   2  149.61    4.81
   5   1   2  144.55    5.06
   5   1   2  146.34    4.84
   5   1   2  152.14    4.83
   5   1   3   27.50    1.05
   5   1   3   26.73    1.02
   5   1   3   28.26    1.25
  -5  -1  -3   28.35    1.13
   5   1   4   19.32    0.81
   5   1   4   18.32    0.89
   5   1   4   20.53    0.99
  -5  -1  -4   23.12    1.05
   5   1   4   21.81    0.88
   5   1   5    3.56    0.26
   5   1   5    3.33    0.39
   5   1   5    3.78    0.36
  -5  -1  -5    3.97    0.41
   5   1   5    3.84    0.32
   5   1   6   66.07    2.28
  -5  -1  -6   64.99    2.19
  -5  -1  -6   65.13    2.50
   5   1   6   70.82    2.26
   5   1   7    1.67    0.39
  -5  -1  -7    1.88    0.22
   5   1   7    1.71    0.24
  -5  -1  -7    1.42    0.31
   5   1   8   19.82    1.40
  -5  -1  -8   21.54    0.98
  -5  -1  -8   25.04    1.37
   5   1   8   24.20    1.02
   5   1   9    0.80    0.18
   5   1   9    0.49    0.31
  -5  -1  -9    1.06    0.20
  -5  -1  -9    0.77    0.19
  -5  -1  -9    0.88    0.29
   5   1  10    0.91    0.37
  -5  -1 -10    0.75    0.19
  -5  -1 -10    0.96    0.21
   5   1  10    0.31    0.67
  -5  -1 -10    1.40    0.31
   5   1  11    0.05    0.25
  -5  -1 -11    0.17    0.13
  -5  -1 -11   -0.06    0.13
   5   1  12    2.69    0.51
  -5  -1 -12    2.27    0.27
   5   1  13    0.22    0.20
   5   2  -9   -0.10    0.21
   5   2  -8    0.20    0.13
   5   2  -7    0.07    0.23
   5   2  -7    4.87    0.44
   5   2  -6    0.59    0.19
   5   2  -6    0.25    0.22
   5   2  -5   22.48    1.30
   5   2  -5   23.75    1.02
   5   2  -5   25.16    1.17
   5   2  -4    0.11    0.14
   5   2  -4    0.12    0.18
   5   2  -4    0.14    0.12
   5   2  -3   58.46    2.31
   5   2  -3   59.15    2.08
   5   2  -3   63.74    2.21
   5   2  -2   17.18    0.80
   5   2  -2   17.66    0.84
   5   2  -2   17.65    0.86
   5   2  -1   17.11    0.74
   5   2  -1   16.03    0.60
   5   2  -1   17.29    0.70
   5   2  -1   15.33    0.44
   5   2   0   42.39    1.11
   5   2   0   40.19    0.95
   5   2   0   41.59    1.14
   5   2   0   39.10    0.98
   5   2   0   44.05    0.86
   5   2   1   29.06    1.17
   5   2   1   25.79    1.29
   5   2   1   32.53    1.29
   5   2   1   34.18    1.19
   5   2   1   29.21    1.09
   5   2   2   23.72    0.94
   5   2   2   22.18    0.90
   5   2   2   23.06    1.07
   5   2   2   23.37    1.06
   5   2   2   23.89    0.90
   5   2   3    0.69    0.13
   5   2   3    0.55    0.16
   5   2   3    0.74    0.14
   5   2   4   22.02    0.94
   5   2   4   22.71    0.87
   5   2   4   23.04    1.01
   5   2   5    0.19    0.11
   5   2   5    0.10    0.12
   5   2   5    0.14    0.10
   5   2   6    3.21    0.40
   5   2   6    2.87    0.30
  -5  -2  -6    3.29    0.38
   5   2   6    3.46    0.29
   5   2   7    1.00    0.18
   5   2   7    0.87    0.26
  -5  -2  -7    0.82    0.17
  -5  -2  -7    0.99    0.25
   5   2   8    1.84    0.39
  -5  -2  -8    2.11    0.26
   5   2   8    1.90    0.67
   5   2   8    2.13    0.26
  -5  -2  -8    2.00    0.33
   5   2   9    0.19    0.13
   5   2   9    0.38    0.25
  -5  -2  -9    0.09    0.14
  -5  -2  -9    0.23    0.19
   5   2  10    2.52    0.53
  -5  -2 -10    3.14    0.34
  -5  -2 -10    3.34    0.33
  -5  -2 -10    2.20    0.40
   5   2  10    3.45    0.33
   5   2  11    4.46    0.66
  -5  -2 -11    3.98    0.47
  -5  -2 -11    3.56    0.36
  -5  -2 -11    3.99    0.37
   5   2  12    5.50    0.69
  -5  -2 -12    5.68    0.43
   5   2  13    0.08    0.18
   5   3  -8   -0.02    0.11
   5   3  -8    0.03    0.18
   5   3  -7    0.05    0.13
   5   3  -7   -0.04    0.25
   5   3  -6    0.95    0.25
   5   3  -6    0.97    0.18
   5   3  -5    0.03    0.17
   5   3  -5    0.08    0.20
   5   3  -5   -0.04    0.19
   5   3  -5    0.13    0.12
   5   3  -4    5.44    0.58
   5   3  -4    5.79    0.42
   5   3  -4    5.67    0.49
   5   3  -3    2.15    0.28
   5   3  -2    2.28    0.28
   5   3  -1   15.28    0.76
   5   3  -1   15.72    0.64
   5   3  -1   16.66    0.69
   5   3   0   12.22    0.64
   5   3   0   11.59    0.56
   5   3   0   12.10    0.42
   5   3   1    0.66    0.16
   5   3   1    0.69    0.12
   5   3   1    0.75    0.17
  -5  -3  -1    1.02    0.21
   5   3   1    0.87    0.18
   5   3   1    0.73    0.15
   5   3   2   46.98    1.67
   5   3   2   45.03    1.60
  -5  -3  -2   43.19    1.73
   5   3   2   48.63    1.64
   5   3   2   44.83    1.53
   5   3   3   36.64    1.38
   5   3   3   38.56    1.37
   5   3   3   40.78    1.53
   5   3   3   38.06    1.33
   5   3   4   20.42    0.89
   5   3   4   19.58    0.79
   5   3   4   22.57    0.96
   5   3   4   20.01    0.79
   5   3   5    8.54    0.58
   5   3   5    9.92    0.50
   5   3   5   10.36    0.60
  -5  -3  -5   10.24    0.53
   5   3   6    9.98    0.69
  -5  -3  -6   11.23    0.58
   5   3   6   10.84    0.56
   5   3   7    9.53    0.74
  -5  -3  -7   11.39    0.62
   5   3   7   11.01    0.58
   5   3   8   16.30    1.12
  -5  -3  -8   18.63    1.06
   5   3   8   18.04    0.84
   5   3   9    0.34    0.14
   5   3   9    0.39    0.26
  -5  -3  -9    0.17    0.15
  -5  -3  -9    0.16    0.14
   5   3  10    0.07    0.13
   5   3  10    0.05    0.19
  -5  -3 -10    0.12    0.14
  -5  -3 -10    0.08    0.10
  -5  -3 -10   -0.07    0.15
   5   3  11    1.46    0.23
   5   3  11    1.92    0.45
  -5  -3 -11    1.26    0.24
  -5  -3 -11    1.55    0.23
   5   3  11    1.78    0.71
  -5  -3 -11    1.16    0.29
   5   3  12   -0.09    0.25
  -5  -3 -12   -0.06    0.11
   5   3  12   -0.17    0.54
   5   3  13    0.12    0.22
   5   4  -7    0.02    0.13
   5   4  -7    0.13    0.19
   5   4  -6    0.42    0.19
   5   4  -6    0.47    0.14
   5   4  -5    3.07    0.34
   5   4  -5    2.86    0.39
   5   4  -4    0.05    0.23
   5   4  -4    0.67    0.20
   5   4  -3    3.30    0.35
   5   4  -3    3.49    0.40
   5   4  -2    3.29    0.46
   5   4  -2    3.41    0.36
   5   4  -2    3.33    0.38
   5   4  -1    0.22    0.15
   5   4  -1    0.26    0.20
   5   4  -1    0.41    0.17
   5   4   0   26.05    1.03
   5   4   0   27.32    0.88
   5   4   1   30.47    1.36
   5   4   1   31.86    1.25
   5   4   1   32.70    1.27
   5   4   1   30.54    1.10
   5   4   2   32.42    1.35
   5   4   2   32.36    1.26
   5   4   2   34.19    1.27
   5   4   2   32.22    1.16
   5   4   3   83.14    2.71
  -5  -4  -3   86.98    2.67
   5   4   3   85.99    2.66
   5   4   4    0.06    0.09
   5   4   4   -0.02    0.09
   5   4   5    1.19    0.16
   5   4   5    1.06    0.20
  -5  -4  -5    1.23    0.19
   5   4   5    1.10    0.17
   5   4   6   16.65    0.92
  -5  -4  -6   17.47    0.78
   5   4   6   14.90    0.72
   5   4   7    7.55    0.64
  -5  -4  -7    7.82    0.51
   5   4   7    7.77    0.48
   5   4   8    0.09    0.12
   5   4   8    0.07    0.19
  -5  -4  -8    0.02    0.12
   5   4   9    9.75    0.84
  -5  -4  -9    8.67    0.60
  -5  -4  -9    8.20    0.49
  -5  -4  -9    9.44    0.72
   5   4   9    9.24    0.56
   5   4  10    5.75    0.67
  -5  -4 -10    5.67    0.40
  -5  -4 -10    5.76    0.57
   5   4  10    5.73    0.43
   5   4  11    7.67    0.81
  -5  -4 -11    8.06    0.59
  -5  -4 -11    9.48    0.77
  -5  -4 -11    7.82    0.50
   5   4  11    9.06    0.55
   5   4  12    1.24    0.35
  -5  -4 -12    1.24    0.19
   5   4  13    1.69    0.38
   5   4  14   -0.03    0.16
   5   5  -6    1.83    0.29
   5   5  -6    1.32    0.20
   5   5  -5    1.07    0.21
   5   5  -4    0.54    0.22
   5   5  -4    0.68    0.20
   5   5  -3    4.02    0.42
   5   5  -3    4.44    0.47
   5   5  -2   27.97    1.27
   5   5  -2   26.87    1.29
   5   5  -1    8.95    0.63
   5   5   0   19.48    0.95
   5   5   0   19.13    0.94
   5   5   1   31.54    1.48
   5   5   1   34.66    1.37
   5   5   1   34.91    1.37
   5   5   1   31.93    1.15
   5   5   2    1.30    0.21
   5   5   2    0.85    0.22
   5   5   2    1.16    0.21
   5   5   2    1.27    0.16
   5   5   3   35.96    1.36
  -5  -5  -3   35.74    1.26
   5   5   3   38.89    1.38
   5   5   3   36.93    1.28
   5   5   4    5.74    0.40
  -5  -5  -4    6.41    0.39
   5   5   4    5.84    0.38
   5   5   5   20.59    0.89
   5   5   5   21.55    0.91
   5   5   6   81.31    2.62
  -5  -5  -6   83.26    2.73
   5   5   7   72.49    2.83
  -5  -5  -7   68.73    2.57
   5   5   7   75.60    2.54
   5   5   8    4.12    0.50
  -5  -5  -8    3.68    0.37
   5   5   8    4.17    0.36
   5   5   9   42.43    2.07
  -5  -5  -9   43.78    1.82
   5   5   9   48.68    1.76
   5   5  10    0.48    0.15
   5   5  10    0.57    0.29
  -5  -5 -10    0.57    0.19
  -5  -5 -10    0.90    0.25
   5   5  11   21.73    1.33
  -5  -5 -11   21.17    1.16
   5   5  11   20.28    0.93
   5   5  12    0.32    0.13
   5   5  12    0.24    0.21
   5   5  13    6.05    0.63
   5   5  14   -0.03    0.15
   5   6  -5    0.09    0.15
   5   6  -5   -0.02    0.10
   5   6  -4    0.13    0.16
   5   6  -4    0.10    0.14
   5   6  -3    0.58    0.22
   5   6  -3    1.13    0.25
   5   6  -2    4.51    0.46
   5   6  -2    4.12    0.45
   5   6  -1    4.06    0.43
   5   6   0   14.57    0.84
   5   6   0   15.04    0.84
   5   6   1    5.38    0.47
   5   6   1    5.38    0.45
   5   6   2   37.10    1.47
   5   6   2   35.73    1.42
   5   6   2   35.70    1.28
   5   6   3    0.42    0.15
   5   6   3    0.58    0.14
   5   6   3    0.48    0.15
   5   6   4   51.69    1.83
   5   6   4   49.88    1.76
   5   6   5    1.10    0.19
   5   6   5    1.24    0.19
  -5  -6  -5    0.87    0.17
   5   6   6   55.88    1.96
  -5  -6  -6   59.43    2.07
   5   6   6   62.54    2.07
  -5  -6  -7   11.08    0.65
  -5  -6  -8   11.50    0.69
   5   6   8   11.25    0.64
   5   6   9    1.92    0.38
  -5  -6  -9    1.86    0.28
   5   6   9    0.92    0.54
   5   6   9    1.96    0.26
   5   6  10    5.35    0.62
   5   6  10    6.31    0.46
   5   6  11    0.66    0.18
   5   6  11    0.63    0.27
   5   6  11    0.90    0.52
  -5  -6 -11    0.58    0.19
   5   6  12    0.12    0.11
   5   6  12    0.19    0.22
   5   6  13    0.03    0.16
   5   7  -4    1.29    0.24
   5   7  -4    1.08    0.21
   5   7  -3    0.09    0.15
   5   7  -3    0.04    0.13
   5   7  -2    1.88    0.31
   5   7  -1    0.53    0.20
   5   7  -1    0.35    0.17
  -5  -7   1    0.10    0.16
   5   7   0    0.07    0.14
   5   7   0    0.02    0.14
   5   7   1    0.15    0.15
   5   7   1   -0.02    0.15
   5   7   2    0.50    0.17
   5   7   2    0.20    0.16
   5   7   3    0.98    0.20
   5   7   3    0.84    0.15
   5   7   3    0.83    0.20
   5   7   4    0.99    0.17
   5   7   4    0.82    0.18
   5   7   5    0.12    0.11
   5   7   5    0.24    0.12
  -5  -7  -6    7.01    0.48
   5   7   6    8.07    0.51
  -5  -7  -7    1.99    0.26
   5   7   7    2.52    0.28
   5   7   9    2.19    0.27
   5   7  10    2.92    0.32
   5   7  11    0.34    0.14
  -5  -7 -11    0.50    0.18
   5   7  12    3.61    0.32
   5   8  -2    0.08    0.12
   5   8  -1    0.47    0.17
   5   8  -1    0.63    0.21
   5   8   0   -0.04    0.12
  -5  -8   0    0.11    0.16
   5   8   0    0.23    0.18
  -5  -8  -1    1.16    0.34
   5   8   1    1.91    0.30
   5   8   1    1.94    0.27
   5   8   2    1.18    0.24
   5   8   3    0.74    0.20
   5   8   4    0.95    0.17
   5   8   4    0.97    0.20
   5   8   5   12.21    0.66
   5   8   5   13.10    0.67
   5   8   6    4.40    0.37
   5   8   7    9.34    0.57
  -5  -8  -8    1.99    0.42
   5   8   8    2.68    0.30
  -5  -8  -9    1.66    0.36
   5   8  10    2.83    0.31
   5   8  11    0.34    0.14
   5   8  12    0.04    0.09
   5   9  -1    0.65    0.17
   5   9   0    0.40    0.16
  -5  -9  -1    3.25    0.47
   5   9   1    3.17    0.35
  -5  -9  -2    0.12    0.21
   5   9   2    0.08    0.12
  -5  -9  -3    1.44    0.38
   5   9   3    1.32    0.23
  -5  -9  -4    0.23    0.25
   5   9   4   -0.02    0.11
   5   9   5    1.16    0.19
  -5  -9  -5    0.98    0.35
   5   9   6    0.17    0.11
  -5  -9  -6    0.37    0.24
   5   9   7    1.27    0.21
  -5  -9  -7    0.96    0.34
   5   9   8    0.35    0.14
  -5  -9  -8    0.52    0.25
   5   9   9    0.51    0.16
  -5  -9  -9    0.17    0.17
   5   9  11    2.01    0.24
  -5 -10  -3    0.18    0.18
  -5 -10  -4    0.12    0.19
  -5 -10  -5    1.88    0.40
   5  10   6    1.13    0.17
  -5 -10  -7    3.40    0.49
   5  10   7    3.76    0.32
   5  10   8    0.73    0.16
  -5 -10  -8    0.31    0.21
  -5 -10  -9    1.64    0.31
   5  10   9    2.54    0.26
  -6   8   4    2.29    0.29
   6  -8  -4    2.31    0.44
  -6   8   3    0.04    0.13
   6  -8  -3    0.10    0.18
  -6   8   2    2.78    0.32
   6  -8  -2    0.74    0.19
  -6   8   1    0.24    0.15
   6  -8  -1   -0.05    0.18
   6  -8  -1    0.10    0.13
  -6   8   0    0.32    0.14
   6  -8   0    0.28    0.24
   6  -8   1    0.21    0.18
  -6   7   5    2.28    0.29
   6  -7  -5    1.37    0.38
  -6   7   4    1.69    0.28
   6  -7  -4    1.27    0.36
  -6   7   3    0.02    0.14
   6  -7  -3    0.11    0.23
   6  -7  -3   -0.05    0.12
  -6   7   2    0.59    0.21
   6  -7  -2    0.80    0.34
   6  -7  -2    0.48    0.18
   6  -7  -1    1.15    0.36
  -6   7   0    1.02    0.25
   6  -7   0    0.95    0.35
  -6   7  -1    0.18    0.17
   6  -7   1    0.05    0.20
  -6   7  -2    0.84    0.20
   6  -7   2    0.59    0.28
  -6   7  -3    0.02    0.09
   6  -7   3   -0.04    0.18
  -6   7  -4    0.51    0.15
  -6   6   5    0.54    0.18
   6  -6  -5    0.15    0.12
   6  -6  -5    0.74    0.32
   6  -6  -4    0.11    0.18
  -6   6   4    0.34    0.17
   6  -6  -4    0.12    0.13
   6  -6  -3    5.15    0.71
  -6   6   3    4.37    0.46
   6  -6  -2    1.87    0.47
   6  -6  -2    1.26    0.27
  -6   6   2    1.94    0.32
  -6   6   1    7.10    0.61
   6  -6   0    3.30    0.61
  -6   6   0    4.31    0.47
   6  -6   1    3.39    0.61
  -6   6  -1    3.04    0.39
   6  -6   2    0.78    0.33
  -6   6  -2    1.26    0.27
  -6   6  -3    0.67    0.19
   6  -6   3    0.68    0.30
  -6   6  -3    0.90    0.20
  -6   6  -4    0.78    0.18
   6  -6   4    0.76    0.30
  -6   6  -4    1.09    0.22
  -6   6  -5    0.42    0.15
   6  -5  -8    0.16    0.24
   6  -5  -7    0.41    0.31
   6  -5  -6    0.29    0.13
   6  -5  -5    3.44    0.40
   6  -5  -5    4.34    0.71
   6  -5  -4    2.12    0.32
   6  -5  -4    2.91    0.55
  -6   5   4    2.45    0.34
   6  -5  -3   13.32    0.83
  -6   5   3   14.36    0.86
   6  -5  -3   14.00    1.20
   6  -5  -2    1.17    0.40
   6  -5  -2    1.70    0.30
  -6   5   2    1.46    0.28
  -6   5   1   15.21    0.92
   6  -5   0    1.65    0.45
  -6   5  -1   12.57    0.83
   6  -5   1   14.23    1.20
   6  -5   2    0.92    0.36
  -6   5  -2    0.54    0.20
   6  -5   3    0.11    0.24
  -6   5  -3    0.36    0.17
  -6   5  -4    0.31    0.16
   6  -5   4    0.52    0.28
  -6   5  -5    0.02    0.15
  -6   5  -6    0.44    0.17
  -6   5  -7    0.32    0.15
   6  -4  -8    0.15    0.26
   6  -4  -7    0.18    0.25
   6  -4  -6    0.34    0.15
   6  -4  -5    0.36    0.17
  -6   4   5    0.43    0.16
   6  -4  -4    1.25    0.42
   6  -4  -4    1.38    0.27
  -6   4   4    1.06    0.24
   6  -4  -3    7.88    0.87
   6  -4  -3    6.73    0.56
  -6   4   3    6.85    0.56
   6  -4  -2    3.23    0.39
   6  -4  -2    2.35    0.51
  -6   4   2    2.74    0.36
   6  -4  -1   34.84    2.01
  -6   4   1   34.11    1.52
   6  -4   0    7.75    0.86
  -6   4   0    7.59    0.61
   6  -4   1   13.43    1.12
  -6   4  -1   10.15    0.71
   6  -4   2    0.71    0.31
  -6   4  -2    1.05    0.25
   6  -4   3    2.20    0.48
  -6   4  -3    1.59    0.28
   6  -4   4   -0.05    0.18
  -6   4  -4    0.02    0.13
  -6   4  -5    1.39    0.24
   6  -4   5    1.50    0.41
  -6   4  -6    0.70    0.16
  -6   4  -7    1.60    0.29
  -6   4  -7    1.62    0.22
  -6   4  -8   -0.07    0.14
  -6   4  -8    0.03    0.08
  -6   4  -9    0.21    0.14
   6  -3  -9   -0.03    0.19
   6  -3  -8   -0.08    0.26
   6  -3  -7   -0.05    0.15
   6  -3  -7    0.05    0.25
   6  -3  -6    5.56    0.48
   6  -3  -6    0.33    0.32
   6  -3  -5    0.66    0.20
  -6   3   5    0.52    0.16
   6  -3  -4   14.85    0.86
  -6   3   4   14.48    0.80
   6  -3  -3    2.78    0.35
   6  -3  -3    2.21    0.52
  -6   3   3    2.48    0.32
   6  -3  -2   70.00    3.12
   6  -3  -2   68.93    2.53
  -6   3   2   69.32    2.50
   6  -3  -1    0.10    0.22
   6  -3  -1    0.28    0.19
  -6   3   1    0.07    0.16
  -6   3   0   91.60    3.16
   6  -3   1   13.65    1.13
   6  -3   2   33.62    1.89
  -6   3  -2   32.03    1.41
   6  -3   3   13.68    1.12
  -6   3  -3   12.20    0.74
   6  -3   4    0.32    0.26
  -6   3  -4    0.47    0.18
   6  -3   5    1.29    0.38
  -6   3  -5    0.77    0.20
  -6   3  -7    0.02    0.09
  -6   3  -8    0.13    0.11
  -6   3  -9    0.08    0.10
  -6   3 -10    0.02    0.11
   6  -2  -9    0.03    0.20
   6  -2  -7    1.75    0.30
   6  -2  -7    0.05    0.28
   6  -2  -6   10.68    0.69
   6  -2  -6    0.33    0.37
   6  -2  -5    2.38    0.34
   6  -2  -5    2.07    0.30
   6  -2  -4    0.12    0.14
   6  -2  -4   -0.04    0.23
  -6   2   4    0.02    0.09
   6  -2  -3    4.18    0.42
  -6   2   3    4.09    0.38
   6  -2  -2    9.03    0.94
   6  -2  -2    9.86    0.66
  -6   2   2   10.00    0.63
   6  -2  -1   19.38    1.40
   6  -2  -1   19.94    1.00
  -6   2   1   20.50    0.97
  -6   2   0    0.72    0.20
  -6   2   0    0.49    0.17
   6  -2   1   11.94    1.04
  -6   2  -1   11.42    0.79
  -6   2  -1   11.95    0.70
   6  -2   2    5.58    0.70
  -6   2  -2    4.58    0.52
  -6   2  -2    5.57    0.45
   6  -2   3   -0.05    0.20
  -6   2  -3    0.14    0.21
  -6   2  -3   -0.06    0.11
  -6   2  -4   26.49    1.47
  -6   2  -4   25.04    1.15
  -6   2  -5    0.50    0.17
  -6   2  -5    0.24    0.26
   6  -2   6   11.40    0.80
  -6   2  -6   11.69    0.66
  -6   2  -6   12.09    0.61
  -6   2  -7    9.92    0.53
   6  -2   8    0.15    0.23
  -6   2  -8    0.20    0.13
   6  -2   9    0.28    0.22
  -6   2  -9    0.52    0.16
  -6   2 -10    0.50    0.18
   6  -2  10    0.43    0.22
  -6   2 -10    0.35    0.14
   6  -1  -8    0.16    0.15
   6  -1  -8    0.04    0.22
   6  -1  -7    0.63    0.22
   6  -1  -7   -0.04    0.24
   6  -1  -6    0.03    0.15
   6  -1  -5   -0.03    0.17
   6  -1  -5    0.09    0.25
   6  -1  -4    0.08    0.13
   6  -1  -4   -0.04    0.25
   6  -1  -4    0.15    0.13
  -6   1   4    0.38    0.13
   6  -1  -3   13.30    0.75
  -6   1   3   12.52    0.64
   6  -1  -2    8.40    0.58
  -6   1   2    8.21    0.52
   6  -1  -1    9.39    0.62
   6  -1   0    1.23    0.40
   6  -1   0    0.33    0.16
  -6   1   0    1.07    0.22
   6  -1   1   53.68    2.00
  -6   1  -1   52.76    2.14
   6  -1   2   19.87    1.36
  -6   1  -2   15.48    0.98
   6  -1   3   68.68    3.05
  -6   1  -3   70.28    2.75
  -6   1  -4   30.61    1.58
  -6   1  -5   30.67    1.61
  -6   1  -5   28.71    1.21
   6  -1   6   38.24    1.68
  -6   1  -6   39.08    1.49
   6  -1   7    0.72    0.29
  -6   1  -7    1.04    0.18
  -6   1  -7    1.03    0.31
   6  -1   8    0.34    0.25
  -6   1  -8    0.78    0.17
  -6   1  -8    1.03    0.31
   6  -1   9   -0.05    0.20
  -6   1  -9    0.04    0.11
  -6   1 -10    0.57    0.19
   6  -1  10    0.41    0.25
  -6   1 -10    0.65    0.18
  -6   1 -11    0.10    0.12
   6  -1  11    0.07    0.17
  -6   1 -11    0.05    0.11
   6   0  -9    0.03    0.18
   6   0  -8    0.06    0.14
   6   0  -7    1.74    0.34
   6   0  -6    0.10    0.17
   6   0  -6    0.04    0.27
   6   0  -5   17.78    1.07
   6   0  -5   20.29    0.96
   6   0  -4    0.14    0.15
   6   0  -4   -0.04    0.22
   6   0  -4   -0.02    0.09
   6   0  -4   -0.04    0.12
   6   0  -3    1.31    0.27
   6   0  -3    1.61    0.21
   6   0  -3    0.97    0.22
   6   0  -2    4.73    0.44
   6   0  -2    5.14    0.36
   6   0  -2    5.76    0.52
   6   0  -1    0.21    0.16
   6   0   0    6.42    0.49
   6   0   0    6.69    0.62
  -6   0   0    6.56    0.53
   6   0   1   15.75    0.83
  -6   0  -1   14.84    0.91
   6   0   2   11.58    0.63
  -6   0  -2   11.70    0.76
   6   0   2   10.84    0.60
   6   0   3    1.27    0.20
  -6   0  -3    1.00    0.25
   6   0   4    5.18    0.53
   6   0   4    5.75    0.44
   6   0   5   15.52    0.93
  -6   0  -5   17.65    1.14
   6   0   5   14.63    0.79
   6   0   6    1.64    0.26
   6   0   6    1.56    0.28
   6   0   7    0.51    0.19
   6   0   7    0.38    0.23
  -6   0  -7    0.28    0.13
  -6   0  -7    0.41    0.28
  -6   0  -7    0.13    0.10
   6   0   8   16.52    1.17
  -6   0  -8   15.72    0.78
  -6   0  -8   15.80    1.13
   6   0   8   15.95    0.84
   6   0   9    0.24    0.25
  -6   0  -9    0.05    0.10
  -6   0  -9    0.07    0.11
  -6   0  -9   -0.04    0.20
   6   0  10    2.69    0.49
  -6   0 -10    2.59    0.28
  -6   0 -10    2.10    0.28
  -6   0 -11    0.54    0.17
   6   0  11    0.63    0.27
  -6   0 -11    0.55    0.16
   6   0  12    0.10    0.15
  -6   0 -12    0.07    0.10
   6   1  -8    0.03    0.19
   6   1  -7    0.76    0.18
   6   1  -7    0.23    0.19
   6   1  -6    0.77    0.21
   6   1  -6    0.21    0.20
   6   1  -5    0.37    0.17
   6   1  -5    0.34    0.20
   6   1  -5    0.12    0.24
   6   1  -4    0.26    0.16
   6   1  -4    0.15    0.16
   6   1  -4    0.04    0.22
   6   1  -4    0.12    0.12
   6   1  -3   17.05    0.93
   6   1  -3   19.95    0.75
   6   1  -3   18.20    0.81
   6   1  -3   20.27    0.85
   6   1  -2    3.55    0.32
   6   1  -2    2.99    0.34
   6   1  -2    3.04    0.34
   6   1  -1   20.71    0.86
   6   1  -1   21.66    1.04
   6   1  -1   22.17    0.94
   6   1   0    0.15    0.12
   6   1   0    0.07    0.16
   6   1   0    0.13    0.14
   6   1   0    0.06    0.11
  -6  -1   0    0.02    0.10
   6   1   1   17.79    0.91
   6   1   1   17.78    0.84
   6   1   2    1.20    0.19
   6   1   2    1.42    0.22
   6   1   2    1.82    0.28
   6   1   2    1.25    0.26
  -6  -1  -2    1.54    0.26
   6   1   3   43.28    1.56
   6   1   3   44.73    1.80
  -6  -1  -3   44.79    1.78
   6   1   4   20.09    0.89
   6   1   4   20.74    1.08
  -6  -1  -4   21.84    1.13
   6   1   5  115.26    3.73
  -6  -1  -5  120.67    3.90
   6   1   5  115.61    3.56
   6   1   6    1.14    0.22
   6   1   6    0.58    0.19
   6   1   6    0.88    0.20
  -6  -1  -6    0.65    0.25
   6   1   7   40.54    1.89
   6   1   7   34.35    1.58
  -6  -1  -7   45.57    1.62
  -6  -1  -7   52.74    2.19
   6   1   7   48.25    1.71
   6   1   8    0.32    0.17
   6   1   8   -0.12    0.18
  -6  -1  -8    0.14    0.12
  -6  -1  -8    0.17    0.21
   6   1   9   12.48    1.03
  -6  -1  -9   13.83    0.75
  -6  -1  -9   14.84    1.06
   6   1   9   16.05    0.81
   6   1  10    2.63    0.48
  -6  -1 -10    3.16    0.48
  -6  -1 -10    3.36    0.34
  -6  -1 -10    3.25    0.33
   6   1  10    3.12    0.33
  -6  -1 -11    2.57    0.28
  -6  -1 -11    3.18    0.33
  -6  -1 -11    2.63    0.31
   6   1  12    0.49    0.24
  -6  -1 -12    0.61    0.15
   6   2  -8    0.04    0.22
   6   2  -7    0.06    0.12
   6   2  -7    0.04    0.21
   6   2  -6    0.22    0.19
   6   2  -6   -0.08    0.21
   6   2  -5    0.14    0.15
   6   2  -5    0.15    0.19
   6   2  -5   -0.06    0.10
   6   2  -4   33.11    1.39
   6   2  -4   33.80    0.98
   6   2  -3    4.11    0.49
   6   2  -3    4.30    0.36
   6   2  -3    4.36    0.41
   6   2  -2   45.36    1.68
   6   2  -2   48.19    1.78
   6   2  -1   29.24    1.37
   6   2  -1   29.74    1.22
   6   2  -1   31.30    1.34
   6   2   0   56.78    1.75
   6   2   0   53.24    1.55
   6   2   0   56.72    1.77
   6   2   0   52.26    1.44
   6   2   1   71.89    2.56
   6   2   1   75.93    2.69
   6   2   2   12.55    0.68
   6   2   2   12.78    0.65
   6   2   2   13.08    0.65
   6   2   3    9.17    0.54
   6   2   3   10.16    0.55
   6   2   3    9.31    0.65
   6   2   3   10.16    0.56
   6   2   4   30.91    1.24
   6   2   4   33.96    1.45
   6   2   4   35.96    1.33
   6   2   5   13.27    0.65
   6   2   5   14.52    0.75
   6   2   5   16.77    0.87
  -6  -2  -5   18.77    0.99
   6   2   6    0.25    0.15
   6   2   6    0.02    0.11
   6   2   6   -0.02    0.11
  -6  -2  -6    0.12    0.11
  -6  -2  -6    0.09    0.15
   6   2   7    6.19    0.58
   6   2   7    5.58    0.44
  -6  -2  -7    5.69    0.60
   6   2   7    7.46    0.51
   6   2   8    6.20    0.63
  -6  -2  -8    5.86    0.45
  -6  -2  -8    7.41    0.70
   6   2   8    7.34    0.52
   6   2   9    0.08    0.13
   6   2   9    0.08    0.18
  -6  -2  -9    0.08    0.13
  -6  -2  -9   -0.04    0.21
   6   2  10   -0.02    0.14
   6   2  10    0.09    0.21
  -6  -2 -10    0.18    0.13
  -6  -2 -10    0.14    0.12
  -6  -2 -10   -0.04    0.19
   6   2  11    0.17    0.22
  -6  -2 -11    0.10    0.12
  -6  -2 -11    0.27    0.13
  -6  -2 -11    0.17    0.15
   6   2  12    0.62    0.28
  -6  -2 -12    1.04    0.19
   6   2  13    0.39    0.23
   6   3  -7   -0.07    0.11
   6   3  -7    0.07    0.22
   6   3  -6    0.60    0.20
   6   3  -6   -0.05    0.27
   6   3  -5    0.69    0.22
   6   3  -5    0.35    0.22
   6   3  -5    0.80    0.17
   6   3  -4    4.30    0.54
   6   3  -4    3.90    0.37
   6   3  -4    4.20    0.45
   6   3  -3    7.81    0.55
   6   3  -3    7.51    0.60
   6   3  -2    8.20    0.66
   6   3  -2    8.51    0.53
   6   3  -1    0.93    0.23
   6   3  -1    0.69    0.24
   6   3  -1    1.02    0.21
   6   3   0   17.67    0.98
   6   3   0   18.10    0.88
   6   3   0   17.77    0.75
   6   3   1   24.10    0.95
   6   3   1   27.44    1.01
   6   3   1   27.00    0.93
   6   3   1   24.96    0.73
   6   3   2    9.59    0.60
   6   3   2    8.85    0.54
   6   3   2    9.50    0.52
   6   3   3    5.07    0.40
   6   3   3    4.95    0.38
   6   3   3    5.21    0.47
   6   3   3    5.65    0.39
   6   3   4   35.50    1.31
   6   3   4   36.28    1.50
   6   3   4   35.86    1.32
   6   3   5    5.66    0.44
   6   3   5    6.41    0.51
   6   3   6   16.26    0.90
  -6  -3  -6   17.68    0.83
   6   3   6   17.36    0.83
  -6  -3  -7    0.03    0.17
   6   3   7    0.07    0.12
   6   3   7    0.08    0.16
  -6  -3  -7    0.03    0.11
   6   3   8    4.24    0.51
  -6  -3  -8    4.95    0.54
   6   3   8    4.87    0.41
   6   3   9    1.28    0.24
   6   3   9    0.92    0.29
  -6  -3  -9    0.77    0.25
   6   3  10   13.82    1.02
  -6  -3 -10   12.96    0.77
  -6  -3 -10   12.44    0.69
   6   3  10   14.72    0.79
   6   3  11    2.79    0.47
  -6  -3 -11    3.09    0.46
  -6  -3 -11    3.38    0.36
  -6  -3 -11    3.17    0.31
   6   3  11    2.76    0.32
   6   3  12    4.03    0.54
  -6  -3 -12    3.64    0.33
   6   3  13    0.13    0.18
   6   4  -6   -0.02    0.13
   6   4  -6   -0.04    0.22
   6   4  -5    0.05    0.15
   6   4  -5   -0.04    0.24
   6   4  -5    0.03    0.09
   6   4  -4    2.59    0.31
   6   4  -4    3.95    0.43
   6   4  -3   -0.05    0.27
   6   4  -3    0.19    0.14
   6   4  -2    0.35    0.19
   6   4  -2    0.40    0.25
   6   4  -2    0.56    0.20
   6   4  -1    1.64    0.28
   6   4  -1    1.44    0.33
   6   4  -1    2.23    0.30
   6   4   0    3.78    0.44
   6   4   0    3.87    0.38
   6   4   1   23.42    1.21
   6   4   1   24.40    1.11
   6   4   1   26.43    1.15
   6   4   1   25.70    0.99
   6   4   2    7.72    0.58
   6   4   2    8.34    0.54
   6   4   2    9.09    0.56
   6   4   2    7.28    0.45
   6   4   3   59.74    1.94
   6   4   3   54.91    1.85
   6   4   4   63.67    2.21
  -6  -4  -4   67.35    2.21
   6   4   4   63.37    2.18
   6   4   5   17.30    0.78
  -6  -4  -5   17.36    0.80
   6   4   5   15.10    0.76
   6   4   6   11.50    0.74
  -6  -4  -6   12.95    0.69
   6   4   7    6.20    0.56
  -6  -4  -7    5.74    0.45
   6   4   7    5.99    0.45
   6   4   8    5.11    0.54
  -6  -4  -8    4.60    0.42
   6   4   8    5.07    0.41
   6   4   9    5.81    0.61
  -6  -4  -9    5.10    0.46
  -6  -4  -9    5.65    0.59
   6   4   9    5.44    0.44
   6   4  10    1.95    0.39
  -6  -4 -10    1.59    0.22
   6   4  10    1.81    0.27
  -6  -4 -10    2.20    0.40
   6   4  11    1.53    0.26
   6   4  11    1.24    0.34
  -6  -4 -11    1.18    0.25
  -6  -4 -11    1.64    0.22
  -6  -4 -11    1.98    0.38
   6   4  12    0.10    0.11
   6   4  12    0.07    0.19
  -6  -4 -12    0.01    0.08
   6   4  13    0.44    0.21
   6   5  -5    1.00    0.23
   6   5  -5    0.82    0.17
   6   5  -4    0.65    0.18
   6   5  -3    2.49    0.33
   6   5  -3    3.18    0.40
   6   5  -2    0.11    0.18
   6   5  -2    0.20    0.16
   6   5  -1    4.23    0.55
   6   5  -1    5.38    0.47
   6   5  -1    5.47    0.51
   6   5   0    4.85    0.55
   6   5   0    5.79    0.49
   6   5   1    0.63    0.20
   6   5   1    0.61    0.24
   6   5   1    0.37    0.17
   6   5   2    0.92    0.21
   6   5   2    0.83    0.16
   6   5   2    0.69    0.22
   6   5   2    0.82    0.20
   6   5   3   -0.01    0.09
   6   5   3   -0.02    0.11
   6   5   3   -0.02    0.13
  -6  -5  -3    0.04    0.09
   6   5   4   11.98    0.68
  -6  -5  -4   13.91    0.67
   6   5   4   12.70    0.66
   6   5   5    0.64    0.16
   6   5   5    0.41    0.14
  -6  -5  -5    0.62    0.17
   6   5   6   22.04    0.94
  -6  -5  -6   20.78    0.97
   6   5   6   22.80    1.00
  -6  -5  -7    0.30    0.15
   6   5   8    1.62    0.25
   6   5   8    1.28    0.31
  -6  -5  -8    1.55    0.26
   6   5   9    2.13    0.39
  -6  -5  -9    2.04    0.30
   6   5   9    2.67    0.31
   6   5  10   22.29    1.29
  -6  -5 -10   20.45    1.06
  -6  -5 -10   22.81    1.26
   6   5  10   21.99    1.01
   6   5  11    1.83    0.37
  -6  -5 -11    1.65    0.28
   6   5  11    1.79    0.26
  -6  -5 -11    1.41    0.30
   6   5  12   13.47    0.94
   6   5  12   13.51    0.72
   6   5  13    0.27    0.19
   6   6  -4    0.02    0.14
   6   6  -4    0.09    0.11
   6   6  -3    0.51    0.21
   6   6  -3    0.56    0.17
   6   6  -2    2.04    0.31
   6   6  -2    2.41    0.34
   6   6  -1    0.13    0.16
   6   6   0    1.82    0.30
   6   6   0    1.60    0.29
   6   6   1    0.38    0.18
   6   6   1    0.36    0.19
   6   6   2    0.78    0.20
   6   6   2    0.62    0.20
   6   6   3   18.42    0.92
   6   6   3   18.12    0.80
   6   6   4    2.25    0.29
   6   6   4    1.88    0.23
   6   6   5   40.41    1.56
  -6  -6  -5   40.30    1.55
   6   6   6    4.18    0.35
  -6  -6  -6    4.14    0.37
   6   6   6    4.34    0.37
  -6  -6  -7    4.09    0.38
   6   6   7    4.82    0.41
  -6  -6  -8    1.48    0.25
  -6  -6  -9   16.51    0.91
   6   6   9   18.55    0.90
  -6  -6 -10    2.99    0.35
  -6  -6 -10    2.54    0.40
   6   6  10    2.69    0.31
   6   6  11   12.55    0.92
  -6  -6 -11   14.03    0.91
   6   6  11   13.51    0.73
   6   6  12    3.86    0.48
   6   6  12    3.74    0.35
   6   7  -3    0.34    0.16
   6   7  -3    0.44    0.16
   6   7  -2    1.38    0.25
   6   7  -2    1.37    0.26
   6   7  -1    1.23    0.26
   6   7   0    3.11    0.38
   6   7   0    3.46    0.39
   6   7   1    2.49    0.33
   6   7   1    2.38    0.32
   6   7   2    3.60    0.38
   6   7   2    3.13    0.35
   6   7   3    9.17    0.61
   6   7   4    1.18    0.19
   6   7   4    1.00    0.21
   6   7   5    6.49    0.46
   6   7   5    6.80    0.46
   6   7   6   -0.02    0.11
   6   7   6    0.15    0.11
   6   7   7    0.06    0.12
  -6  -7  -7    0.04    0.11
   6   7   8    0.02    0.12
  -6  -7  -8    0.06    0.11
   6   7  10   -0.06    0.13
   6   7  11    0.29    0.14
  -6  -7 -11    0.34    0.16
   6   7  12    0.97    0.18
   6   8  -1   -0.02    0.12
   6   8  -1    0.02    0.12
   6   8   0    0.08    0.12
  -6  -8   0    0.06    0.14
   6   8   0    0.06    0.13
   6   8   1    0.10    0.12
  -6  -8  -1    0.27    0.21
   6   8   1    0.13    0.14
   6   8   2    0.11    0.13
   6   8   3    0.46    0.18
   6   8   4    1.84    0.27
   6   8   4    1.85    0.22
   6   8   5    5.05    0.40
   6   8   5    6.35    0.43
   6   8   6    1.60    0.24
   6   8   7    0.72    0.18
   6   8   8    3.92    0.37
   6   8   9    0.90    0.19
  -6  -8  -9    0.61    0.25
   6   8  10    1.91    0.27
   6   8  11    1.22    0.20
  -6  -8 -11    1.04    0.23
   6   8  12    7.61    0.47
  -6  -9  -1    0.47    0.20
   6   9   1    0.62    0.17
  -6  -9  -2    0.88    0.28
   6   9   2    0.80    0.19
  -6  -9  -3    0.40    0.23
   6   9   3    0.67    0.17
  -6  -9  -4    6.38    0.69
   6   9   4    5.44    0.42
  -6  -9  -5    0.09    0.22
   6   9   6    6.44    0.43
   6   9   7    0.44    0.15
  -6  -9  -7    0.33    0.24
  -6  -9  -8    3.12    0.48
   6   9   8    3.85    0.34
   6   9   9    0.42    0.14
  -6  -9  -9    0.42    0.21
   6   9  10   -0.02    0.10
   6   9  11    0.36    0.12
  -6 -10  -4    0.03    0.17
  -6 -10  -5   -0.04    0.18
  -6 -10  -7    0.65    0.25
  -6 -10  -8    0.28    0.18
  -7   7   4    1.24    0.22
  -7   7   3    1.46    0.25
   7  -7  -3    1.03    0.35
  -7   7   2    0.50    0.18
   7  -7  -2    0.20    0.13
   7  -7  -1    0.11    0.12
   7  -7   0    0.27    0.24
   7  -7   0    0.09    0.13
  -7   7  -1    0.10    0.11
   7  -7   1    0.16    0.19
   7  -7   1   -0.02    0.12
   7  -7   2    0.05    0.18
  -7   6   5    0.72    0.17
   7  -6  -5    0.11    0.11
  -7   6   4   -0.08    0.14
   7  -6  -4   -0.02    0.13
  -7   6   3    0.99    0.24
   7  -6  -3    0.47    0.19
   7  -6  -3    0.88    0.38
   7  -6  -2    0.19    0.26
   7  -6  -2    0.10    0.14
  -7   6   2    0.20    0.17
  -7   6   1   -0.03    0.15
   7  -6  -1    0.10    0.15
   7  -6   0    0.06    0.27
   7  -6   0    0.05    0.15
   7  -6   1    0.06    0.24
  -7   6  -1    0.07    0.14
  -7   6  -2    1.49    0.26
   7  -6   2    1.48    0.45
  -7   6  -3    1.33    0.23
   7  -6   3    1.52    0.41
   7  -5  -5    0.30    0.16
  -7   5   5    2.16    0.28
   7  -5  -4    4.25    0.45
  -7   5   4    8.86    0.59
   7  -5  -3    0.26    0.28
   7  -5  -3   -0.03    0.15
  -7   5   3    0.13    0.15
   7  -5  -2    4.23    0.45
   7  -5  -2    3.15    0.65
  -7   5   2    4.26    0.46
   7  -5  -1    1.15    0.27
  -7   5   1    0.84    0.25
   7  -5   0    5.34    0.83
   7  -5   0    5.23    0.51
   7  -5   1    2.16    0.55
  -7   5  -1    2.60    0.38
   7  -5   2    6.01    0.86
  -7   5  -2    6.73    0.56
   7  -5   3    0.38    0.32
  -7   5  -3    0.45    0.18
  -7   5  -4    4.49    0.41
  -7   5  -5    1.04    0.22
  -7   5  -6    0.22    0.13
   7  -4  -6   -0.02    0.13
   7  -4  -5    4.25    0.45
   7  -4  -5    8.29    0.70
   7  -4  -4    0.26    0.17
  -7   4   4    0.46    0.18
   7  -4  -3    2.69    0.37
  -7   4   3    2.59    0.36
   7  -4  -2    0.77    0.44
   7  -4  -2    1.00    0.25
  -7   4   2    0.82    0.23
   7  -4  -1    0.21    0.32
   7  -4  -1    0.25    0.19
  -7   4   1    0.41    0.21
   7  -4   0    0.37    0.19
  -7   4   0    0.80    0.24
   7  -4   1    0.14    0.23
   7  -4   2    4.78    0.78
  -7   4  -2    6.30    0.55
   7  -4   3    2.84    0.62
  -7   4  -3    3.27    0.39
   7  -4   4    0.38    0.28
  -7   4  -4    0.19    0.15
  -7   4  -5    0.08    0.13
  -7   4  -6    0.13    0.09
  -7   4  -7    0.44    0.17
  -7   4  -7    0.34    0.11
  -7   4  -8    0.52    0.17
   7  -3  -7    0.09    0.11
   7  -3  -6    0.61    0.21
   7  -3  -6   -0.07    0.22
   7  -3  -5    0.49    0.19
   7  -3  -5    0.41    0.18
   7  -3  -4    0.38    0.19
   7  -3  -4   -0.09    0.18
   7  -3  -4    0.71    0.26
  -7   3   4    0.56    0.18
   7  -3  -3    1.94    0.33
  -7   3   3    1.88    0.30
   7  -3  -2    1.68    0.32
  -7   3   2    1.60    0.30
   7  -3  -1   13.02    1.27
   7  -3  -1   11.21    0.78
  -7   3   1   12.97    0.80
  -7   3   0    0.03    0.15
   7  -3   1   40.25    2.38
   7  -3   2    4.70    0.79
  -7   3  -2    5.48    0.51
   7  -3   3   12.14    1.22
  -7   3  -3   13.70    0.83
  -7   3  -4    2.51    0.33
  -7   3  -5    2.21    0.31
  -7   3  -6    0.04    0.10
  -7   3  -7    2.82    0.29
  -7   3  -8   -0.02    0.10
  -7   3  -9    0.87    0.16
   7  -2  -7    0.74    0.21
   7  -2  -7    0.03    0.20
   7  -2  -6    0.22    0.17
   7  -2  -5    5.25    0.50
   7  -2  -5    0.86    0.32
   7  -2  -4    5.27    0.50
   7  -2  -4    5.23    0.52
  -7   2   4    4.63    0.40
   7  -2  -3    7.54    0.61
   7  -2  -3    6.22    0.68
  -7   2   3    7.36    0.55
   7  -2  -2   10.79    0.76
  -7   2   2   11.11    0.72
   7  -2  -1   30.75    1.43
  -7   2   1   30.81    1.38
  -7   2   0    0.33    0.18
   7  -2   1    4.87    0.47
   7  -2   1    4.42    0.75
  -7   2  -1    4.28    0.44
   7  -2   2    1.30    0.26
  -7   2  -2    1.14    0.29
  -7   2  -3    1.66    0.37
  -7   2  -3    1.51    0.28
  -7   2  -4    0.53    0.27
  -7   2  -4    0.42    0.17
  -7   2  -5    0.22    0.15
   7  -2   6    0.22    0.17
  -7   2  -6    0.51    0.14
  -7   2  -6    0.18    0.12
  -7   2  -7    0.08    0.09
  -7   2  -8    0.14    0.11
  -7   2  -9    1.38    0.21
  -7   2 -10    0.11    0.13
  -7   2 -10    0.08    0.09
   7  -1  -8   -0.03    0.20
   7  -1  -7    0.55    0.21
   7  -1  -6    1.87    0.32
   7  -1  -6    0.08    0.23
   7  -1  -5    0.03    0.17
   7  -1  -5    0.04    0.24
   7  -1  -4    2.28    0.36
   7  -1  -4    1.65    0.27
   7  -1  -3    0.36    0.18
   7  -1  -3    0.03    0.19
   7  -1  -3    0.37    0.18
  -7   1   3    0.31    0.14
   7  -1  -2    1.13    0.27
   7  -1  -2    1.38    0.33
  -7   1   2    1.19    0.24
   7  -1  -1   15.20    1.14
  -7   1   1   20.74    0.99
   7  -1   0    7.03    0.57
  -7   1   0    6.91    0.53
   7  -1   1    6.90    0.55
  -7   1  -1    6.87    0.61
   7  -1   2   19.29    1.00
  -7   1  -2   18.93    1.15
   7  -1   3   19.43    1.00
  -7   1  -3   19.82    1.22
  -7   1  -3   19.27    0.98
   7  -1   4    8.09    0.58
   7  -1   4    7.61    0.74
  -7   1  -4    8.18    0.77
  -7   1  -4    8.17    0.58
   7  -1   5    6.05    0.62
  -7   1  -5    6.14    0.68
  -7   1  -5    5.24    0.45
   7  -1   6    2.41    0.37
  -7   1  -6    2.34    0.29
  -7   1  -6    2.20    0.44
  -7   1  -7    0.44    0.14
  -7   1  -7    0.24    0.12
  -7   1  -8    5.46    0.40
  -7   1  -9    4.27    0.34
  -7   1  -9    5.08    0.41
  -7   1 -10    1.00    0.19
  -7   1 -11    0.86    0.16
   7   0  -7   -0.11    0.15
   7   0  -6    0.23    0.18
   7   0  -6   -0.04    0.22
   7   0  -5    0.29    0.20
   7   0  -4    2.63    0.40
   7   0  -4    1.04    0.21
   7   0  -3    2.05    0.36
   7   0  -3    1.55    0.28
  -7   0   3    1.63    0.25
   7   0  -2    5.35    0.52
   7   0  -2    5.46    0.53
   7   0  -1   22.96    1.21
   7   0  -1   27.22    1.37
   7   0   0   31.36    1.39
   7   0   0   30.05    1.44
   7   0   0   29.37    1.55
   7   0   1   11.22    0.72
  -7   0  -1   10.89    0.80
   7   0   2   65.66    2.67
  -7   0  -2   70.54    2.69
   7   0   3    0.21    0.15
   7   0   3    0.19    0.22
  -7   0  -3    0.08    0.19
   7   0   4   27.85    1.25
   7   0   4   26.83    1.45
   7   0   5    0.02    0.16
   7   0   5    0.15    0.14
   7   0   5    0.06    0.15
  -7   0  -5    0.04    0.21
   7   0   6    6.86    0.49
   7   0   6    7.11    0.61
  -7   0  -6    8.64    0.82
  -7   0  -6    7.46    0.52
   7   0   6    7.76    0.58
   7   0   7    0.49    0.17
  -7   0  -7    0.74    0.18
  -7   0  -7    0.51    0.15
  -7   0  -8    2.74    0.31
  -7   0  -8    2.68    0.49
  -7   0  -9    0.12    0.10
  -7   0  -9   -0.04    0.18
  -7   0 -10    0.14    0.11
  -7   0 -10    0.19    0.13
  -7   0 -11    0.15    0.12
  -7   0 -11    0.11    0.10
   7   1  -7   -0.04    0.20
   7   1  -6    1.53    0.33
   7   1  -6    0.04    0.26
   7   1  -5    2.19    0.40
   7   1  -4   -0.03    0.19
   7   1  -3    3.03    0.44
   7   1  -3    2.69    0.30
   7   1  -3    1.99    0.29
   7   1  -2    0.20    0.21
   7   1  -2    0.52    0.17
   7   1  -2    0.57    0.20
   7   1  -1    0.08    0.15
   7   1  -1    0.03    0.20
   7   1  -1    0.20    0.14
   7   1  -1    0.25    0.17
   7   1   0    0.58    0.21
   7   1   0    0.64    0.23
   7   1   1   25.56    1.25
   7   1   1   29.46    1.45
  -7  -1  -1   26.45    1.32
   7   1   2    7.95    0.57
   7   1   2    7.68    0.67
  -7  -1  -2    8.76    0.68
   7   1   2    7.70    0.53
   7   1   3    3.68    0.37
   7   1   3    3.81    0.47
  -7  -1  -3    4.03    0.47
   7   1   3    3.61    0.37
   7   1   4   23.86    1.11
   7   1   4   29.44    1.39
  -7  -1  -4   27.61    1.44
   7   1   4   25.05    1.15
   7   1   5    1.82    0.29
   7   1   5    1.36    0.22
   7   1   5    1.67    0.32
  -7  -1  -5    1.74    0.36
   7   1   6    5.04    0.49
  -7  -1  -6    5.33    0.64
   7   1   6    6.01    0.51
   7   1   7    0.27    0.17
   7   1   7    0.63    0.19
  -7  -1  -7    0.37    0.16
  -7  -1  -8    5.56    0.44
  -7  -1  -8    6.14    0.71
  -7  -1  -8    4.85    0.39
   7   1   8    5.74    0.50
   7   1   9    1.27    0.25
  -7  -1  -9    1.61    0.25
  -7  -1  -9    1.87    0.40
  -7  -1 -10    7.06    0.72
  -7  -1 -10    8.58    0.55
  -7  -1 -10    8.83    0.55
  -7  -1 -11   -0.02    0.09
  -7  -1 -11   -0.05    0.11
  -7  -1 -12    2.00    0.24
   7   2  -6    0.07    0.16
   7   2  -5    0.51    0.23
   7   2  -5   -0.05    0.25
   7   2  -5    0.20    0.16
   7   2  -4    0.96    0.30
   7   2  -4    1.26    0.21
   7   2  -4    1.25    0.26
   7   2  -3    1.49    0.29
   7   2  -3    1.54    0.25
   7   2  -2   -0.04    0.25
   7   2  -2    0.19    0.15
   7   2  -1   29.03    1.24
   7   2  -1   28.55    1.00
   7   2  -1   28.70    1.14
   7   2   0    7.72    0.63
   7   2   0    8.45    0.56
   7   2   0    9.22    0.67
   7   2   1    2.40    0.34
   7   2   1    3.07    0.43
   7   2   1    3.09    0.39
  -7  -2  -1    2.79    0.36
   7   2   1    2.05    0.26
   7   2   2   16.10    0.89
   7   2   2   18.14    0.86
  -7  -2  -2   18.61    1.02
   7   2   2   16.19    0.82
   7   2   3   13.95    0.75
   7   2   3   15.34    0.91
  -7  -2  -3   16.12    0.95
   7   2   4   11.07    0.76
  -7  -2  -4   11.70    0.83
   7   2   4   10.58    0.64
   7   2   5   27.56    1.27
  -7  -2  -5   26.16    1.35
   7   2   6    1.08    0.25
   7   2   6    0.87    0.24
  -7  -2  -6    0.44    0.22
   7   2   7   22.52    1.20
   7   2   7   35.85    1.37
  -7  -2  -8   10.47    0.65
  -7  -2  -8   10.47    0.92
   7   2   8   11.46    0.71
   7   2   9    1.76    0.29
   7   2   9    1.50    0.32
  -7  -2  -9    1.28    0.25
  -7  -2  -9    2.18    0.45
   7   2  10    2.93    0.43
  -7  -2 -10    3.33    0.35
  -7  -2 -10    3.57    0.53
  -7  -2 -10    3.89    0.35
   7   2  10    3.87    0.39
   7   2  11    0.23    0.14
   7   2  11    0.22    0.19
  -7  -2 -11    0.09    0.12
  -7  -2 -11    0.30    0.14
  -7  -2 -11    0.28    0.20
   7   2  12    0.77    0.23
  -7  -2 -12    0.77    0.16
   7   3  -6    0.04    0.22
   7   3  -5    2.70    0.34
   7   3  -4    0.35    0.18
   7   3  -4    0.23    0.23
   7   3  -4    0.21    0.13
   7   3  -3    9.32    0.61
   7   3  -3   11.37    0.74
   7   3  -2    1.66    0.31
   7   3  -2    1.06    0.32
   7   3  -2    1.85    0.27
   7   3  -1   18.86    1.02
   7   3  -1   20.19    0.83
   7   3   0    1.22    0.28
   7   3   0    1.06    0.22
   7   3   1   20.71    1.12
   7   3   1   21.76    0.94
   7   3   2    8.47    0.62
   7   3   2    9.41    0.58
   7   3   2    7.29    0.50
   7   3   3    0.21    0.13
   7   3   3    0.33    0.16
   7   3   3    0.51    0.16
   7   3   3    0.38    0.19
   7   3   4   11.16    0.73
   7   3   4    9.54    0.60
   7   3   5   30.57    1.40
   7   3   5   28.75    1.27
  -7  -3  -6    0.96    0.28
  -7  -3  -6    1.27    0.23
  -7  -3  -7    8.29    0.56
  -7  -3  -7    6.93    0.69
   7   3   7    8.22    0.60
   7   3   8    5.52    0.53
  -7  -3  -8    6.18    0.49
  -7  -3  -8    6.32    0.67
   7   3   8    7.31    0.56
   7   3   9    1.73    0.33
   7   3   9    2.27    0.32
  -7  -3  -9    2.10    0.42
   7   3  10    3.68    0.47
  -7  -3 -10    4.13    0.40
  -7  -3 -10    4.58    0.60
  -7  -3 -10    4.36    0.36
   7   3  10    4.69    0.43
   7   3  11    3.23    0.44
  -7  -3 -11    3.36    0.48
  -7  -3 -11    3.13    0.35
  -7  -3 -11    3.63    0.33
   7   3  11    3.43    0.36
   7   3  12   -0.06    0.14
  -7  -3 -12    0.07    0.10
  -7  -3 -12    0.03    0.13
   7   4  -5    0.06    0.14
   7   4  -4    2.11    0.33
   7   4  -4    2.58    0.28
   7   4  -3    0.23    0.19
   7   4  -3    0.32    0.15
   7   4  -2    0.04    0.21
   7   4  -2   -0.05    0.27
   7   4  -2    0.04    0.14
   7   4  -1    1.76    0.32
   7   4  -1    0.95    0.31
   7   4  -1    1.54    0.26
   7   4   0    0.40    0.19
   7   4   0    0.20    0.19
   7   4   0    0.28    0.17
   7   4   1    0.62    0.23
   7   4   2    3.82    0.44
   7   4   2    4.76    0.42
   7   4   2    4.77    0.37
   7   4   3    3.74    0.36
   7   4   3    3.37    0.33
   7   4   4   26.26    1.15
  -7  -4  -4   24.96    1.10
   7   4   4   28.02    1.17
   7   4   5    0.65    0.20
  -7  -4  -5    0.65    0.17
  -7  -4  -6   99.12    3.35
   7   4   6  104.50    3.41
  -7  -4  -7   38.44    1.54
   7   4   8    9.19    0.71
  -7  -4  -8   11.02    0.67
  -7  -4  -8   11.02    0.87
   7   4   8   11.80    0.72
   7   4   9   20.16    1.17
  -7  -4  -9   21.96    1.09
  -7  -4  -9   21.81    1.31
   7   4  10    0.07    0.14
   7   4  10    0.06    0.17
  -7  -4 -10    0.12    0.11
  -7  -4 -10    0.04    0.16
   7   4  11    6.33    0.60
  -7  -4 -11    5.86    0.48
  -7  -4 -11    6.01    0.65
  -7  -4 -11    5.88    0.41
   7   4  11    6.28    0.49
   7   4  12    2.62    0.38
  -7  -4 -12    2.21    0.35
   7   4  12    2.73    0.30
   7   5  -4    0.37    0.13
   7   5  -3   -0.02    0.15
   7   5  -3    0.08    0.12
   7   5  -2   11.46    0.70
   7   5  -2   11.47    0.76
   7   5  -1    0.42    0.21
   7   5  -1    0.55    0.20
   7   5   0   11.49    0.90
   7   5   0   14.98    0.88
   7   5   1    4.03    0.50
   7   5   1    4.31    0.43
   7   5   1    5.47    0.49
   7   5   2    4.83    0.52
   7   5   2    5.96    0.49
   7   5   3    9.58    0.60
   7   5   3    9.71    0.56
   7   5   4    2.78    0.32
  -7  -5  -4    2.66    0.28
   7   5   4    3.23    0.33
   7   5   5    1.27    0.23
  -7  -5  -5    1.24    0.21
   7   5   5    1.58    0.26
  -7  -5  -6   18.10    0.89
   7   5   6   18.10    0.90
  -7  -5  -7    1.63    0.26
   7   5   7    2.01    0.28
  -7  -5  -8    0.64    0.19
   7   5   9   -0.04    0.14
  -7  -5  -9   -0.04    0.15
  -7  -5  -9    0.08    0.17
   7   5  10    0.45    0.18
  -7  -5 -10    0.33    0.18
  -7  -5 -10    0.11    0.16
   7   5  11    1.59    0.32
  -7  -5 -11    1.40    0.27
  -7  -5 -11    1.91    0.37
   7   5  11    2.12    0.30
   7   5  12    0.07    0.12
   7   5  12    0.03    0.16
  -7  -5 -12    0.03    0.13
   7   6  -3    0.58    0.20
   7   6  -3    0.35    0.14
   7   6  -2    1.79    0.29
   7   6  -2    1.50    0.25
   7   6  -1   -0.03    0.16
   7   6  -1   -0.02    0.14
   7   6   0    0.05    0.16
   7   6   1    2.34    0.32
   7   6   1    1.80    0.30
   7   6   2    0.36    0.16
   7   6   3    4.26    0.40
   7   6   3    3.82    0.34
   7   6   4    0.16    0.13
   7   6   4    0.18    0.13
   7   6   5    0.67    0.18
   7   6   5    0.54    0.18
  -7  -6  -5    0.53    0.15
   7   6   6   -0.02    0.14
   7   6   6    0.02    0.10
  -7  -6  -6    0.04    0.12
  -7  -6  -7    4.89    0.42
   7   6   7    4.58    0.41
  -7  -6  -8    6.51    0.51
   7   6   8    6.92    0.52
   7   6   9    0.45    0.18
  -7  -6  -9    0.37    0.16
  -7  -6 -10    5.67    0.49
  -7  -6 -10    7.33    0.67
   7   6  10    6.43    0.50
   7   6  11    0.60    0.19
  -7  -6 -11    0.87    0.26
  -7  -6 -12    4.61    0.50
   7   6  12    4.94    0.40
   7   7  -2   -0.05    0.11
   7   7  -2   -0.06    0.12
   7   7  -1    2.42    0.32
   7   7   0    0.09    0.13
   7   7   0    0.13    0.14
   7   7   1    4.53    0.43
   7   7   2    2.31    0.32
   7   7   3    0.93    0.22
   7   7   4    6.53    0.49
   7   7   4    5.74    0.42
   7   7   5    8.61    0.56
   7   7   5    8.98    0.56
   7   7   6    6.11    0.45
   7   7   6    6.66    0.48
  -7  -7  -7    7.88    0.52
   7   7   7    8.46    0.55
  -7  -7  -8    6.70    0.49
   7   7   8    6.54    0.49
  -7  -7  -9    0.20    0.14
  -7  -7 -10    3.84    0.47
   7   7  10    4.01    0.38
   7   7  11    0.29    0.14
  -7  -7 -11    0.23    0.15
   7   8   0    0.28    0.14
  -7  -8  -1    0.97    0.27
   7   8   1    1.02    0.21
   7   8   2   -0.06    0.12
   7   8   3    0.02    0.11
   7   8   4    0.96    0.20
   7   8   5    1.07    0.19
   7   8   5    1.17    0.21
   7   8   6    0.79    0.18
   7   8   7    0.05    0.11
   7   8   8    0.86    0.20
   7   8   9   -0.05    0.12
  -7  -8 -10   -0.03    0.12
   7   8  11    1.94    0.25
  -7  -9  -3    0.13    0.17
   7   9   3    0.32    0.13
  -7  -9  -4    0.37    0.21
   7   9   4    0.22    0.11
  -7  -9  -5    2.04    0.40
  -7  -9  -7    4.07    0.53
   7   9   7    3.99    0.33
   7   9   8    0.04    0.10
  -7  -9  -8   -0.03    0.17
   7   9   9    0.22    0.12
  -8   6   2    0.18    0.13
   8  -6  -2    0.04    0.12
  -8   6   1    1.18    0.23
   8  -6  -1    0.66    0.20
   8  -6   0    0.02    0.14
  -8   6  -1    0.08    0.12
   8  -6   1    0.13    0.13
   8  -5  -4   -0.06    0.12
  -8   5   4    0.02    0.11
   8  -5  -4    0.06    0.14
   8  -5  -3    0.14    0.13
  -8   5   3    0.19    0.13
   8  -5  -2    0.17    0.15
  -8   5   2    0.19    0.16
   8  -5  -1    0.34    0.18
  -8   5   1    0.65    0.22
   8  -5   0   -0.05    0.14
  -8   5   0    0.03    0.14
  -8   5  -1    0.05    0.15
   8  -5   2    1.60    0.29
  -8   5  -2    2.04    0.31
   8  -5   3    1.55    0.28
  -8   5  -3    2.12    0.29
  -8   5  -4    1.41    0.22
   8  -5   4    1.25    0.25
   8  -5   4    1.03    0.26
   8  -4  -5    0.23    0.15
  -8   4   4    3.98    0.37
   8  -4  -4    3.92    0.46
   8  -4  -3    0.47    0.20
  -8   4   3    0.60    0.19
   8  -4  -3    0.72    0.27
   8  -4  -2    3.96    0.44
  -8   4   2    5.13    0.48
   8  -4  -1    2.86    0.40
  -8   4   1    2.83    0.38
   8  -4   0    1.71    0.30
  -8   4   0    1.42    0.29
   8  -4   2    0.47    0.21
  -8   4  -2    0.11    0.15
   8  -4   3    0.11    0.15
  -8   4  -3    0.15    0.15
   8  -4   4   -0.07    0.14
  -8   4  -4    0.02    0.12
   8  -4   4    0.04    0.17
   8  -4   5    0.33    0.16
  -8   4  -5    0.51    0.16
   8  -4   5    0.26    0.16
   8  -4   6    0.61    0.17
  -8   4  -6    0.66    0.13
   8  -3  -6    0.98    0.22
   8  -3  -5    0.52    0.19
   8  -3  -4    2.13    0.34
  -8   3   4    1.91    0.27
   8  -3  -4    2.05    0.33
   8  -3  -3    0.39    0.19
   8  -3  -3    0.56    0.24
  -8   3   3    0.11    0.14
   8  -3  -2   -0.12    0.17
   8  -3  -2    0.04    0.20
  -8   3   2    0.03    0.14
   8  -3  -1    3.68    0.45
  -8   3   1    3.15    0.40
  -8   3   0    1.21    0.27
   8  -3   1    1.18    0.28
  -8   3  -1    1.41    0.29
   8  -3   2    0.28    0.18
  -8   3  -2    0.08    0.15
   8  -3   3    0.83    0.25
  -8   3  -3    1.40    0.27
   8  -3   4    2.80    0.38
  -8   3  -4    2.50    0.34
   8  -3   4    2.28    0.44
   8  -3   5    0.19    0.16
  -8   3  -5    0.04    0.12
   8  -3   5    0.07    0.16
   8  -3   6    4.42    0.42
  -8   3  -7    0.17    0.09
  -8   3  -8    0.83    0.19
   8  -2  -6    0.40    0.18
   8  -2  -6    0.08    0.18
   8  -2  -5    0.03    0.15
   8  -2  -4    0.89    0.26
   8  -2  -4    1.02    0.22
   8  -2  -3    3.99    0.46
   8  -2  -3    4.78    0.53
  -8   2   3    4.47    0.42
   8  -2  -2   13.05    0.87
  -8   2   2   13.99    0.85
   8  -2  -1    0.09    0.23
  -8   2   1    0.13    0.14
   8  -2   0   11.48    0.97
  -8   2   0   10.35    0.74
   8  -2   1    0.09    0.16
  -8   2  -1    0.03    0.16
   8  -2   2    7.74    0.63
   8  -2   3    1.25    0.28
   8  -2   3    0.84    0.33
  -8   2  -3    0.90    0.23
   8  -2   4    1.50    0.28
   8  -2   4    1.28    0.35
  -8   2  -4    1.19    0.25
   8  -2   5    0.36    0.16
   8  -2   5    0.44    0.21
  -8   2  -5    0.56    0.18
   8  -2   6    2.20    0.31
  -8   2  -6    2.17    0.29
   8  -2   6    2.20    0.35
  -8   2  -6    2.53    0.28
  -8   2  -7    0.04    0.08
  -8   2  -8    0.21    0.11
  -8   2  -9    0.14    0.10
   8  -1  -6   -0.03    0.15
   8  -1  -5    4.65    0.49
   8  -1  -5    0.26    0.23
   8  -1  -4    0.19    0.19
   8  -1  -4   -0.03    0.18
   8  -1  -3    7.71    0.65
   8  -1  -3    6.15    0.57
  -8   1   3    7.13    0.53
   8  -1  -2    2.73    0.39
   8  -1  -2    2.24    0.38
  -8   1   2    2.71    0.34
   8  -1  -1    0.20    0.21
  -8   1   1    0.52    0.19
   8  -1   0    0.31    0.18
   8  -1   0    0.74    0.28
  -8   1   0    0.56    0.20
   8  -1   1    1.67    0.32
  -8   1  -1    2.16    0.33
   8  -1   2    0.41    0.20
   8  -1   2    0.36    0.25
  -8   1  -2    0.28    0.19
   8  -1   3    0.29    0.18
   8  -1   3    0.13    0.20
  -8   1  -3    0.39    0.22
  -8   1  -3    0.38    0.18
   8  -1   4    0.37    0.18
   8  -1   4    0.52    0.24
  -8   1  -4    0.13    0.21
  -8   1  -4    0.44    0.19
   8  -1   5    0.02    0.12
   8  -1   5    0.07    0.16
  -8   1  -5   -0.09    0.20
  -8   1  -5    0.05    0.14
   8  -1   6    0.08    0.11
   8  -1   6   -0.03    0.15
  -8   1  -6    0.13    0.13
  -8   1  -6    0.04    0.19
  -8   1  -7    2.01    0.27
  -8   1  -7    2.35    0.27
  -8   1  -7    2.65    0.47
  -8   1  -8    1.61    0.22
  -8   1  -9    0.35    0.13
  -8   1 -10    0.51    0.15
  -8   1 -10    0.38    0.12
   8   0  -6    0.17    0.16
   8   0  -6    0.07    0.23
   8   0  -5    0.03    0.15
   8   0  -5    0.11    0.22
   8   0  -4    0.06    0.18
   8   0  -3    0.77    0.26
   8   0  -3    0.54    0.18
  -8   0   3    0.90    0.19
   8   0  -2    1.94    0.33
  -8   0   2    2.46    0.32
   8   0  -1    3.71    0.45
   8   0  -1    3.74    0.47
  -8   0   1    3.84    0.40
   8   0   0    2.66    0.38
   8   0   0    2.70    0.43
   8   0   1   12.87    0.84
   8   0   2    1.56    0.29
   8   0   2    1.37    0.36
  -8   0  -2    1.61    0.35
   8   0   3   46.50    1.92
   8   0   3   49.05    2.20
  -8   0  -3   51.33    2.25
   8   0   4    3.12    0.37
   8   0   4    3.63    0.50
  -8   0  -4    3.75    0.56
   8   0   5   36.86    1.67
  -8   0  -5   35.58    1.85
  -8   0  -5   34.01    1.45
   8   0   6    1.11    0.26
  -8   0  -6    0.88    0.34
  -8   0  -6    1.02    0.22
  -8   0  -7   10.87    0.63
  -8   0  -7   11.87    0.97
  -8   0  -7   10.60    0.64
  -8   0  -8    1.14    0.21
  -8   0  -9    1.19    0.20
  -8   0  -9    1.38    0.35
  -8   0 -10   -0.01    0.08
  -8   0 -10    0.05    0.11
  -8   0 -11    0.58    0.14
   8   1  -6    0.25    0.17
   8   1  -5    0.32    0.19
   8   1  -5    0.18    0.31
   8   1  -4    7.10    0.64
   8   1  -4    0.14    0.32
   8   1  -3    5.33    0.55
   8   1  -3    0.67    0.36
   8   1  -2    3.68    0.57
   8   1  -2    4.60    0.47
   8   1  -1    1.96    0.35
   8   1  -1    1.28    0.29
   8   1   0    9.20    0.71
   8   1   0    8.81    0.74
   8   1   0    9.41    0.75
   8   1   1    0.03    0.14
   8   1   1   -0.03    0.16
   8   1   2   15.94    0.93
  -8  -1  -2   18.40    1.17
   8   1   3    0.26    0.16
   8   1   3    0.57    0.26
  -8  -1  -3    0.53    0.24
   8   1   4   38.84    1.66
   8   1   4   44.64    1.94
   8   1   4   40.56    1.71
   8   1   5    9.90    0.64
   8   1   5   10.24    0.79
   8   1   6    1.13    0.27
   8   1   6    1.24    0.29
  -8  -1  -6    1.27    0.38
   8   1   7    0.47    0.20
   8   1   7    0.74    0.20
  -8  -1  -7    0.59    0.19
  -8  -1  -8   -0.02    0.12
  -8  -1  -8    0.14    0.11
  -8  -1  -9    1.18    0.21
  -8  -1  -9    1.66    0.38
  -8  -1 -10    0.03    0.10
  -8  -1 -10   -0.02    0.10
  -8  -1 -10    0.11    0.20
  -8  -1 -11    1.11    0.18
  -8  -1 -11    1.47    0.21
   8   2  -5    0.32    0.20
   8   2  -5    0.12    0.24
   8   2  -4    2.06    0.39
   8   2  -4    0.04    0.30
   8   2  -3    0.09    0.29
   8   2  -2    1.56    0.35
   8   2  -2    0.14    0.24
   8   2  -1   -0.03    0.17
   8   2  -1    0.08    0.22
   8   2   0    1.26    0.31
   8   2   0    0.82    0.29
   8   2   0    1.39    0.29
   8   2   1   -0.06    0.14
   8   2   1    0.06    0.15
   8   2   2    2.77    0.37
  -8  -2  -2    2.10    0.37
   8   2   3   16.34    0.92
   8   2   3   18.38    1.08
  -8  -2  -3   16.37    1.07
   8   2   3   15.64    0.87
   8   2   4    0.63    0.22
   8   2   4    0.64    0.19
   8   2   4    0.68    0.25
  -8  -2  -4    0.64    0.23
   8   2   5   -0.02    0.16
   8   2   5   -0.06    0.18
  -8  -2  -5    0.04    0.21
   8   2   6    1.06    0.27
  -8  -2  -6    1.16    0.23
  -8  -2  -6    1.53    0.38
   8   2   7    0.34    0.19
   8   2   7    0.84    0.22
  -8  -2  -7    1.08    0.35
  -8  -2  -8    6.74    0.51
   8   2   8    6.63    0.55
   8   2   9    0.18    0.15
  -8  -2  -9    0.08    0.12
  -8  -2  -9    0.05    0.20
  -8  -2 -10   13.01    0.98
  -8  -2 -10   12.96    0.72
  -8  -2 -10   12.71    0.68
   8   2  10   13.32    0.75
  -8  -2 -11    2.73    0.40
  -8  -2 -11    2.84    0.30
  -8  -2 -11    2.51    0.27
   8   3  -4    0.08    0.25
   8   3  -3    0.26    0.22
   8   3  -3   -0.04    0.27
   8   3  -3   -0.07    0.11
   8   3  -2    4.80    0.56
   8   3  -2    4.63    0.40
   8   3  -1    0.70    0.26
   8   3  -1    0.09    0.25
   8   3  -1    0.54    0.18
   8   3   0    2.94    0.44
   8   3   0    2.98    0.35
   8   3   1    2.34    0.37
   8   3   2   15.58    0.95
   8   3   2   19.36    0.93
   8   3   2   15.89    1.00
  -8  -3  -2   16.03    1.01
   8   3   2   16.14    0.82
   8   3   3    0.92    0.21
   8   3   3    0.39    0.17
   8   3   3    0.81    0.25
  -8  -3  -3    0.86    0.26
   8   3   4   26.75    1.34
  -8  -3  -4   26.86    1.41
   8   3   4   26.52    1.18
   8   3   5    2.18    0.35
  -8  -3  -5    2.78    0.44
   8   3   5    2.55    0.35
   8   3   6    0.29    0.19
  -8  -3  -6    0.32    0.16
  -8  -3  -6    0.32    0.22
  -8  -3  -7   -0.02    0.13
  -8  -3  -7    0.04    0.18
  -8  -3  -8    4.08    0.40
   8   3   8    4.27    0.44
  -8  -3  -9    7.08    0.79
   8   3   9    6.27    0.53
   8   3  10    0.52    0.20
  -8  -3 -10    0.12    0.13
  -8  -3 -10    0.34    0.24
   8   3  11    0.67    0.19
  -8  -3 -11    0.81    0.19
  -8  -3 -11    0.66    0.15
  -8  -3 -11    0.34    0.21
  -8  -3 -12    0.06    0.10
   8   4  -3    2.21    0.27
   8   4  -2    0.15    0.22
   8   4  -2    0.44    0.17
   8   4  -1    7.16    0.70
   8   4  -1    9.73    0.63
   8   4   0    1.43    0.33
   8   4   0    1.27    0.25
   8   4   1    4.33    0.51
   8   4   2    1.17    0.20
   8   4   2    1.19    0.28
   8   4   2    1.38    0.26
   8   4   3    1.62    0.30
   8   4   3    2.31    0.31
  -8  -4  -3    1.70    0.24
   8   4   3    2.02    0.28
   8   4   4    0.44    0.18
  -8  -4  -4    0.48    0.17
  -8  -4  -5    2.82    0.32
   8   4   5    2.64    0.34
   8   4   6    1.69    0.30
  -8  -4  -6    1.48    0.26
  -8  -4  -6    2.06    0.39
  -8  -4  -7    2.05    0.28
   8   4   7    2.20    0.34
  -8  -4  -7    2.66    0.45
  -8  -4  -8    3.11    0.35
   8   4   8    3.00    0.38
   8   4   9    1.68    0.29
  -8  -4  -9    1.20    0.24
  -8  -4  -9    1.44    0.35
  -8  -4 -10    7.69    0.54
  -8  -4 -10    6.35    0.43
  -8  -4 -10    7.69    0.79
   8   4  10    6.38    0.52
   8   4  11    1.28    0.23
  -8  -4 -11    1.24    0.18
  -8  -4 -11    1.45    0.33
  -8  -4 -12    2.32    0.27
   8   5  -2    3.10    0.33
   8   5  -1    0.02    0.13
   8   5   0    0.11    0.15
   8   5   1    0.37    0.20
   8   5   2    0.03    0.14
   8   5   2   -0.02    0.14
   8   5   3   10.24    0.66
   8   5   3   10.02    0.60
   8   5   4    2.17    0.30
  -8  -5  -4    1.57    0.24
   8   5   4    2.26    0.29
  -8  -5  -5   31.96    1.32
   8   5   5   32.67    1.40
  -8  -5  -6    7.92    0.56
   8   5   6    9.78    0.65
  -8  -5  -7    1.59    0.36
   8   5   7    1.56    0.29
  -8  -5  -7    1.52    0.25
  -8  -5  -8    0.06    0.12
  -8  -5  -9    3.98    0.40
  -8  -5  -9    3.87    0.52
   8   5   9    3.97    0.42
   8   5  10    1.11    0.24
  -8  -5 -10    1.12    0.23
  -8  -5 -10    1.15    0.31
  -8  -5 -11    3.44    0.35
  -8  -5 -11    3.52    0.50
   8   5  11    3.44    0.36
   8   6  -1    0.64    0.18
   8   6   1    0.56    0.19
   8   6   2    1.98    0.30
   8   6   3    3.26    0.37
   8   6   4    1.19    0.21
   8   6   4    1.33    0.26
   8   6   5    4.43    0.40
   8   6   5    5.55    0.45
   8   6   6   -0.17    0.15
  -8  -6  -6    0.16    0.11
   8   6   7    0.60    0.19
  -8  -6  -7    0.90    0.20
   8   6   8    1.21    0.25
  -8  -6  -8    1.23    0.23
  -8  -6  -9    0.04    0.12
  -8  -6  -9   -0.04    0.17
   8   6  10    0.56    0.19
  -8  -6 -10    0.21    0.14
  -8  -6 -10    0.27    0.18
   8   6  11    0.33    0.15
  -8  -6 -11    0.12    0.12
  -8  -6 -11    0.13    0.16
   8   7   1    0.80    0.20
   8   7   2   -0.02    0.12
   8   7   3    0.16    0.15
   8   7   4    1.22    0.23
   8   7   5    0.87    0.18
   8   7   5    1.19    0.22
   8   7   6    5.65    0.45
   8   7   7    2.03    0.29
  -8  -7  -8    3.55    0.34
   8   7   8    4.92    0.43
  -8  -7  -9    3.23    0.33
  -8  -7  -9    3.31    0.45
   8   7   9    4.06    0.39
  -8  -7 -10    1.02    0.27
   8   7  11    3.33    0.33
   8   8   2    2.58    0.29
   8   8   3    0.28    0.13
   8   8   4    3.96    0.35
   8   8   5    1.02    0.18
   8   8   7    0.28    0.13
   8   8   8    1.97    0.26
  -8  -8  -9    0.03    0.12
   8   8   9    0.12    0.12
   9  -5  -1    0.16    0.17
  -9   5   0    0.06    0.11
  -9   5  -1    0.02    0.10
   9  -5   1    0.07    0.14
   9  -4  -3    0.29    0.16
   9  -4  -2    0.46    0.18
  -9   4   2    1.23    0.23
   9  -4  -2    1.08    0.27
   9  -4  -1    0.49    0.19
  -9   4   1    0.65    0.20
   9  -4  -1    0.54    0.25
  -9   4   0   -0.02    0.13
   9  -4   1    1.29    0.26
   9  -4   1    1.97    0.41
   9  -4   2    0.70    0.21
  -9   4  -2    0.61    0.19
   9  -4   2    1.06    0.32
   9  -4   3    0.40    0.17
  -9   4  -3    0.60    0.18
   9  -4   3    0.50    0.23
   9  -4   4    0.14    0.13
   9  -4   4    0.11    0.14
   9  -3  -4    0.67    0.20
   9  -3  -3    2.77    0.37
  -9   3   3    3.86    0.36
   9  -3  -3    2.82    0.37
   9  -3  -2    0.89    0.23
  -9   3   2    1.26    0.24
   9  -3  -2    1.05    0.27
   9  -3  -1    7.85    0.63
  -9   3   1    8.99    0.64
   9  -3  -1    9.48    0.80
   9  -3   0    0.08    0.19
  -9   3   0    0.25    0.17
   9  -3   1    3.42    0.43
   9  -3   1    3.55    0.55
  -9   3  -1    3.64    0.42
   9  -3   2    0.03    0.14
   9  -3   2    0.08    0.20
  -9   3  -2    0.05    0.14
   9  -3   3    0.25    0.16
   9  -3   3    0.11    0.20
  -9   3  -3    0.22    0.16
   9  -3   4    0.32    0.16
  -9   3  -4    0.04    0.12
   9  -3   4    0.26    0.18
   9  -3   5    0.10    0.11
  -9   3  -5    0.11    0.12
   9  -3   5    0.16    0.14
  -9   3  -5    0.06    0.09
   9  -2  -4    0.26    0.19
   9  -2  -3    1.35    0.29
  -9   2   3    2.18    0.27
   9  -2  -3    1.68    0.28
   9  -2  -2    2.68    0.40
  -9   2   2    3.58    0.38
   9  -2  -2    2.48    0.38
   9  -2  -1    0.11    0.18
  -9   2   1    0.34    0.17
   9  -2   0   -0.03    0.15
   9  -2   0   -0.04    0.18
  -9   2   0   -0.05    0.16
   9  -2   1    0.74    0.23
  -9   2  -1    0.59    0.21
   9  -2   2    0.08    0.16
   9  -2   2   -0.04    0.18
   9  -2   3    1.64    0.30
   9  -2   3    1.44    0.35
  -9   2  -3    1.43    0.29
   9  -2   4    0.64    0.20
   9  -2   4    0.29    0.19
  -9   2  -4    0.58    0.19
   9  -2   5    0.76    0.20
   9  -2   5    0.87    0.25
  -9   2  -5    0.76    0.20
  -9   2  -6    0.53    0.15
   9  -2   6    0.23    0.14
  -9   2  -6    0.27    0.12
   9  -1  -4    1.32    0.27
   9  -1  -3   -0.06    0.18
   9  -1  -3    0.11    0.12
   9  -1  -2    2.06    0.33
  -9   1   2    2.21    0.31
   9  -1  -1    0.58    0.23
  -9   1   1    0.54    0.19
   9  -1   0   13.00    0.86
   9  -1   0   12.12    0.92
  -9   1   0   13.60    0.84
   9  -1   1    1.01    0.26
  -9   1  -1    0.62    0.22
   9  -1   2    5.46    0.53
   9  -1   2    6.69    0.69
  -9   1  -2    5.82    0.53
   9  -1   3    1.14    0.25
   9  -1   3    1.39    0.35
  -9   1  -3    1.57    0.30
   9  -1   4    0.32    0.15
   9  -1   4    0.33    0.21
  -9   1  -4    0.15    0.15
   9  -1   5    0.07    0.12
   9  -1   5    0.23    0.17
  -9   1  -5    0.10    0.14
   9  -1   6   -0.08    0.14
  -9   1  -6    0.03    0.11
  -9   1  -6    0.04    0.11
  -9   1  -7    1.65    0.23
  -9   1  -8    1.14    0.18
  -9   1  -9    0.13    0.09
   9   0  -4    0.17    0.17
   9   0  -4   -0.09    0.23
   9   0  -3    2.37    0.37
   9   0  -3    0.10    0.20
   9   0  -2    0.31    0.16
  -9   0   2    0.41    0.16
   9   0  -1    3.96    0.48
   9   0  -1    3.58    0.45
  -9   0   1    4.36    0.44
   9   0   0    0.31    0.22
   9   0   0    0.14    0.18
  -9   0   0    0.20    0.15
   9   0   1    2.31    0.35
   9   0   1    1.73    0.35
  -9   0  -1    2.43    0.35
  -9   0  -2    0.13    0.16
   9   0   2    0.03    0.13
   9   0   3    0.63    0.21
   9   0   3    0.65    0.25
  -9   0  -3    0.90    0.29
   9   0   4    6.52    0.55
   9   0   4    7.96    0.70
  -9   0  -4    6.57    0.70
  -9   0  -4    6.95    0.57
   9   0   5   -0.04    0.13
   9   0   5   -0.03    0.15
  -9   0  -5    0.04    0.21
  -9   0  -5    0.05    0.13
   9   0   6    8.18    0.66
  -9   0  -6    8.80    0.58
  -9   0  -6    7.84    0.78
  -9   0  -6    8.27    0.59
   9   0   7    0.62    0.18
  -9   0  -7    1.03    0.21
  -9   0  -7    0.79    0.19
  -9   0  -7    1.32    0.35
  -9   0  -8    1.44    0.22
  -9   0  -8    1.43    0.34
  -9   0  -9    0.21    0.11
   9   1  -4    0.79    0.24
   9   1  -4    0.10    0.20
   9   1  -3    0.04    0.24
   9   1  -2    0.89    0.27
   9   1  -2    0.29    0.24
   9   1  -1    5.35    0.57
  -9  -1   1    5.66    0.47
   9   1   0    5.68    0.57
   9   1   0    4.16    0.49
  -9  -1   0    4.80    0.46
   9   1   1    2.65    0.39
   9   1   1    2.31    0.38
   9   1   2    5.54    0.54
   9   1   3   13.81    0.85
   9   1   3   14.53    0.98
  -9  -1  -3   13.23    0.99
   9   1   4    9.35    0.66
   9   1   4   11.42    0.85
  -9  -1  -4   10.95    0.93
   9   1   5    8.14    0.70
  -9  -1  -5    8.77    0.84
   9   1   6    4.88    0.52
  -9  -1  -6    4.83    0.63
  -9  -1  -6    6.21    0.50
   9   1   7    0.46    0.17
  -9  -1  -7    0.91    0.21
  -9  -1  -7    0.81    0.33
  -9  -1  -7    0.86    0.20
  -9  -1  -8    6.82    0.70
  -9  -1  -8    5.97    0.45
  -9  -1  -8    5.49    0.43
  -9  -1  -9    0.61    0.16
  -9  -1 -10    0.01    0.09
  -9  -1 -10    0.06    0.09
   9   2  -4    0.06    0.14
   9   2  -2    0.81    0.26
   9   2  -1    3.43    0.47
  -9  -2   1    3.55    0.37
   9   2   0    0.39    0.19
   9   2   1    2.51    0.40
   9   2   1    1.94    0.34
   9   2   2    1.20    0.28
   9   2   2    1.58    0.32
   9   2   3    4.86    0.50
   9   2   3    4.73    0.53
  -9  -2  -3    5.49    0.65
   9   2   4    0.31    0.16
   9   2   4    0.53    0.23
  -9  -2  -4    0.28    0.25
   9   2   5    2.21    0.37
  -9  -2  -5    2.80    0.52
   9   2   6    1.11    0.25
   9   2   6    1.12    0.28
  -9  -2  -6    1.49    0.26
  -9  -2  -6    1.48    0.40
  -9  -2  -7    2.29    0.30
  -9  -2  -7    2.45    0.47
  -9  -2  -8    2.06    0.27
  -9  -2  -8    2.21    0.46
  -9  -2  -9    0.98    0.21
  -9  -2 -10    0.77    0.18
  -9  -2 -10    0.83    0.16
  -9  -2 -10    0.79    0.25
   9   3  -3    0.24    0.19
   9   3  -2    0.13    0.18
   9   3  -1    0.99    0.29
   9   3   0    1.02    0.28
   9   3   1    5.90    0.59
   9   3   2    0.78    0.25
   9   3   3    6.58    0.58
  -9  -3  -3    7.72    0.71
   9   3   4    0.37    0.17
  -9  -3  -4    0.43    0.23
  -9  -3  -5    5.98    0.49
  -9  -3  -5    6.97    0.72
   9   3   5    6.57    0.54
   9   3   6    1.16    0.26
  -9  -3  -6    1.74    0.27
  -9  -3  -7    6.65    0.51
  -9  -3  -7    6.37    0.75
   9   3   7    6.35    0.54
   9   3   8    0.09    0.15
  -9  -3  -8    0.10    0.13
  -9  -3  -8    0.24    0.23
   9   3   9    2.24    0.32
   9   3  10   -0.17    0.14
  -9  -3 -10    0.07    0.12
  -9  -3 -10   -0.01    0.08
  -9  -3 -10    0.04    0.17
   9   4  -1   -0.03    0.16
   9   4   0    7.45    0.67
   9   4   1    1.14    0.29
   9   4   2    3.99    0.46
  -9  -4  -3    3.28    0.33
  -9  -4  -3    3.37    0.45
   9   4   4    1.68    0.27
  -9  -4  -4    1.92    0.27
  -9  -4  -4    1.69    0.36
   9   4   5    1.35    0.26
  -9  -4  -5    0.85    0.20
  -9  -4  -5    0.89    0.28
  -9  -4  -6   13.59    0.77
  -9  -4  -6   15.70    1.08
   9   4   6   14.48    0.83
   9   4   7    0.24    0.17
  -9  -4  -7    0.14    0.13
  -9  -4  -7    0.25    0.22
  -9  -4  -8    1.67    0.26
  -9  -4  -8    2.25    0.44
   9   4   9    0.59    0.20
  -9  -4  -9    0.53    0.18
   9   4  10    0.06    0.12
  -9  -4 -10   -0.04    0.12
  -9  -4 -10    0.08    0.09
  -9  -4 -10    0.04    0.16
   9   5   0   -0.04    0.12
  -9  -5  -3   -0.03    0.14
   9   5   4    0.93    0.19
  -9  -5  -4    1.18    0.29
   9   5   5    0.58    0.18
  -9  -5  -5    0.74    0.17
  -9  -5  -5    0.67    0.27
   9   5   6    0.88    0.22
  -9  -5  -6    0.90    0.19
  -9  -5  -6    1.15    0.32
   9   5   7    0.47    0.19
  -9  -5  -7    0.19    0.13
  -9  -5  -7    0.27    0.19
  -9  -5  -8    6.83    0.50
  -9  -5  -8    6.78    0.69
   9   5   8    7.73    0.57
  -9  -5  -9    1.20    0.22
  -9  -5 -10    3.23    0.33
  -9  -5 -10    4.95    0.59
   9   5  10    4.41    0.40
   9   6   2    1.52    0.25
  -9  -6  -4    3.00    0.42
   9   6   5    2.05    0.26
  -9  -6  -5    2.10    0.37
   9   6   6    0.42    0.16
  -9  -6  -6    1.11    0.30
  -9  -6  -7    4.79    0.39
  -9  -6  -7    6.14    0.63
   9   6   7    5.03    0.45
  -9  -6  -8    1.55    0.23
   9   6   8    2.23    0.30
  -9  -6  -8    1.77    0.36
   9   6   9    0.27    0.15
  -9  -6  -9    0.18    0.11
  -9  -6 -10    0.82    0.17
  -9  -6 -10    1.24    0.30
  -9  -7  -4    1.26    0.27
  -9  -7  -5    3.02    0.41
  -9  -7  -6    0.25    0.20
   9   7   7    0.27    0.13
  -9  -7  -7    0.29    0.18
   9   7   8   -0.03    0.10
  -9  -7  -8    0.03    0.15
  10  -3   0    3.02    0.39
 -10   3  -1    0.10    0.13
  10  -3   2    0.50    0.19
 -10   2   1    0.24    0.14
  10  -2  -1    0.20    0.14
  10  -2   0   -0.02    0.13
  10  -2   0    0.03    0.12
 -10   2   0   -0.02    0.12
  10  -2   1    1.05    0.24
 -10   2  -1    1.26    0.25
  10  -2   2    0.20    0.14
  10  -2   2   -0.03    0.16
  10  -2   3    0.15    0.13
  10  -2   3    0.15    0.16
 -10   2  -3    0.02    0.12
  10  -2   4   -0.05    0.14
 -10   2  -4   -0.02    0.11
  10  -1  -1    2.88    0.39
  10  -1  -1    2.52    0.35
  10  -1   0    0.03    0.13
  10  -1   0   -0.06    0.15
 -10   1   0   -0.04    0.12
  10  -1   1    3.29    0.40
  10  -1   1    3.48    0.45
 -10   1  -1    3.95    0.42
  10  -1   2    1.14    0.24
  10  -1   2    1.13    0.28
 -10   1  -2    1.38    0.27
  10  -1   3    1.33    0.25
  10  -1   3    1.65    0.33
  10  -1   4    0.02    0.11
  10  -1   4    0.06    0.15
 -10   1  -4    0.18    0.14
  10  -1   5    0.33    0.16
 -10   1  -5    0.54    0.15
 -10   1  -5    0.53    0.17
  10  -1   6    0.50    0.16
 -10   1  -6    0.51    0.14
  10   0  -2    1.72    0.30
  10   0  -1    0.33    0.19
  10   0  -1    0.21    0.13
 -10   0   1    0.57    0.16
  10   0   0    4.58    0.48
 -10   0   0    4.50    0.42
  10   0   1    2.04    0.33
  10   0   1    1.99    0.35
 -10   0  -1    2.24    0.32
  10   0   2    3.94    0.43
 -10   0  -2    4.14    0.43
  10   0   3    1.05    0.24
  10   0   3    1.00    0.26
  10   0   4    2.08    0.30
  10   0   4    2.56    0.38
 -10   0  -4    2.12    0.32
  10   0   5    1.21    0.26
 -10   0  -5    1.09    0.23
  10   0   6    0.02    0.10
 -10   0  -6   -0.02    0.10
 -10   0  -6    0.06    0.11
 -10   0  -7    0.01    0.10
  10   1  -2    0.08    0.16
  10   1  -1    1.19    0.28
 -10  -1   1    2.08    0.27
  10   1   0    0.14    0.16
 -10  -1   0    0.04    0.12
  10   1   1    0.52    0.21
  10   1   1    0.23    0.17
 -10  -1  -1    0.48    0.19
 -10  -1  -2    0.52    0.20
  10   1   2    0.49    0.20
  10   1   3    7.05    0.58
  10   1   3    6.42    0.61
 -10  -1  -3    7.11    0.56
  10   1   4    0.12    0.15
 -10  -1  -4   -0.03    0.20
  10   1   5    1.50    0.30
 -10  -1  -5    1.62    0.26
 -10  -1  -5    1.35    0.32
 -10  -1  -5    1.84    0.28
  10   1   6    0.47    0.18
 -10  -1  -6    0.82    0.29
 -10  -1  -6    0.96    0.21
 -10  -1  -7    1.42    0.22
 -10  -1  -7    1.60    0.24
 -10  -1  -7    1.79    0.36
 -10  -1  -8    0.41    0.14
 -10  -1  -8    0.36    0.20
  10   2  -1    0.11    0.15
  10   2   0    1.04    0.26
 -10  -2   0    1.03    0.21
 -10  -2  -1    1.35    0.25
  10   2   1    1.10    0.26
  10   2   2    5.63    0.53
  10   2   3    0.63    0.20
 -10  -2  -4   12.88    0.93
 -10  -2  -5    0.34    0.16
 -10  -2  -5    0.35    0.23
 -10  -2  -6    5.32    0.43
 -10  -2  -6    5.16    0.62
 -10  -2  -6    5.46    0.47
 -10  -2  -7    0.16    0.13
 -10  -2  -7    0.08    0.17
 -10  -2  -7    0.11    0.11
 -10  -2  -8    0.71    0.26
 -10  -2  -9    0.04    0.10
 -10  -3   0    0.34    0.13
  10   3   0    0.36    0.19
  10   3   1    0.14    0.15
  10   3   2    0.53    0.19
 -10  -3  -2    0.58    0.15
 -10  -3  -3    1.11    0.21
 -10  -3  -4    1.19    0.22
 -10  -3  -4    1.34    0.31
 -10  -3  -5    0.62    0.17
 -10  -3  -5    0.60    0.25
 -10  -3  -6    1.96    0.27
 -10  -3  -6    1.73    0.38
 -10  -3  -7    0.05    0.13
 -10  -3  -7    0.28    0.21
 -10  -3  -8    1.44    0.22
 -10  -3  -8    2.19    0.27
 -10  -3  -8    1.76    0.37
 -10  -3  -9    0.02    0.09
 -10  -3  -9   -0.03    0.15
 -10  -4  -4    0.42    0.15
 -10  -4  -5   14.00    0.73
 -10  -4  -5   15.81    1.06
 -10  -4  -6    3.85    0.36
 -10  -4  -6    3.60    0.52
 -10  -4  -7    1.00    0.20
 -10  -4  -7    0.82    0.28
 -10  -4  -8    0.45    0.15
 -10  -4  -8    0.62    0.26
 -10  -4  -9    1.19    0.20
 -10  -4  -9    1.26    0.30
 -10  -5  -5    1.48    0.31
 -10  -5  -6    0.02    0.10
 -10  -5  -6   -0.10    0.17
  10   5   7    1.34    0.22
 -10  -5  -7    1.24    0.20
 -10  -5  -7    1.35    0.32
  10   5   8    0.55    0.17
 -10  -5  -8    0.69    0.16
 -10  -5  -8    0.99    0.29
   0   0   0    0.00    0.00
;
_shelx_hkl_checksum              43836
_olex2_submission_special_instructions 'No special instructions were received'
loop_
_space_group_symop_operation_xyz
'x, y, z'
'-x, -y, -z'
loop_
_atom_site_label
_atom_site_type_symbol
_atom_site_fract_x
_atom_site_fract_y
_atom_site_fract_z
_atom_site_U_iso_or_equiv
_atom_site_adp_type
_atom_site_occupancy
_atom_site_site_symmetry_order
_atom_site_calc_flag
_atom_site_refinement_flags_posn
_atom_site_refinement_flags_adp
_atom_site_refinement_flags_occupancy
_atom_site_disorder_assembly
_atom_site_disorder_group
S1 S 0.14525(12) 0.79232(13) 0.76558(12) 0.0694(5) Uani 1 1 d . . . . .
S2 S 0.43010(14) 0.39682(13) 0.71501(12) 0.0752(5) Uani 1 1 d . . . . .
C1 C 0.4409(5) 0.7365(5) 0.6537(4) 0.0650(10) Uani 1 1 d . . . . .
C2 C 0.3473(5) 0.6038(5) 0.6487(4) 0.0645(10) Uani 1 1 d . . . . .
H2 H 0.3484 0.6272 0.5534 0.077 Uiso 1 1 calc R . . . .
C3 C 0.0267(4) 0.5165(5) 0.6135(5) 0.0649(10) Uani 1 1 d . . . . .
N4 N 0.1802(4) 0.6367(5) 0.7147(4) 0.0750(10) Uani 1 1 d . . . . .
C5 C 0.3492(5) 0.8407(5) 0.7133(4) 0.0637(10) Uani 1 1 d . . . . .
C6 C 0.6087(5) 0.7550(6) 0.6039(5) 0.0743(11) Uani 1 1 d . . . . .
H6 H 0.6750 0.6829 0.5629 0.089 Uiso 1 1 calc R . . . .
O7 O 0.0418(5) 0.9170(5) 0.6941(5) 0.1098(13) Uani 1 1 d . . . . .
C8 C 0.0313(5) 0.6506(5) 0.4974(5) 0.0687(11) Uani 1 1 d . . . . .
H8 H 0.0544 0.7553 0.4948 0.082 Uiso 1 1 calc R . . . .
C9 C -0.0037(5) 0.3618(5) 0.6138(5) 0.0696(11) Uani 1 1 d . . . . .
H9 H -0.0050 0.2662 0.6915 0.084 Uiso 1 1 calc R . . . .
O10 O 0.0939(5) 0.7360(5) 0.9094(4) 0.0983(12) Uani 1 1 d . . . . .
C11 C 0.0473(5) 0.5298(6) 0.7401(5) 0.0793(13) Uani 1 1 d . . . . .
C12 C 0.4140(6) 0.9700(6) 0.7241(5) 0.0787(13) Uani 1 1 d . . . . .
H12 H 0.3473 1.0432 0.7640 0.094 Uiso 1 1 calc R . . . .
C13 C 0.5791(7) 0.9889(6) 0.6750(5) 0.0865(15) Uani 1 1 d . . . . .
H13 H 0.6274 1.0763 0.6815 0.104 Uiso 1 1 calc R . . . .
C14 C 0.6749(6) 0.8838(6) 0.6171(5) 0.0810(13) Uani 1 1 d . . . . .
H14 H 0.7887 0.8989 0.5852 0.097 Uiso 1 1 calc R . . . .
C15 C 0.4613(8) 0.3797(7) 0.8772(5) 0.0892(15) Uani 1 1 d . . . . .
H15 H 0.4774 0.4934 0.8722 0.107 Uiso 1 1 calc R . . . .
C16 C 0.3255(10) 0.3142(14) 0.9882(7) 0.149(3) Uani 1 1 d . . . . .
H16A H 0.2862 0.2188 0.9805 0.223 Uiso 1 1 calc GR . . . .
H16B H 0.2370 0.4001 0.9872 0.223 Uiso 1 1 calc GR . . . .
H16C H 0.3617 0.2796 1.0717 0.223 Uiso 1 1 calc GR . . . .
C18 C 0.6181(9) 0.2772(15) 0.8965(8) 0.165(4) Uani 1 1 d . . . . .
H18A H 0.6618 0.3018 0.9602 0.248 Uiso 1 1 calc GR . . . .
H18B H 0.6976 0.3038 0.8113 0.248 Uiso 1 1 calc GR . . . .
H18C H 0.5965 0.1594 0.9305 0.248 Uiso 1 1 calc GR . . . .
loop_
_atom_site_aniso_label
_atom_site_aniso_U_11
_atom_site_aniso_U_22
_atom_site_aniso_U_33
_atom_site_aniso_U_23
_atom_site_aniso_U_13
_atom_site_aniso_U_12
S1 0.0538(6) 0.0809(7) 0.0903(9) -0.0454(6) -0.0218(5) -0.0022(5)
S2 0.0774(8) 0.0782(8) 0.0861(9) -0.0426(6) -0.0257(6) -0.0026(5)
C1 0.056(2) 0.071(2) 0.077(3) -0.0244(19) -0.0278(18) -0.0090(16)
C2 0.0548(19) 0.086(2) 0.070(2) -0.0413(19) -0.0214(17) -0.0055(17)
C3 0.0455(17) 0.080(2) 0.089(3) -0.048(2) -0.0191(17) -0.0057(16)
N4 0.0498(17) 0.103(3) 0.103(3) -0.068(2) -0.0160(17) -0.0114(16)
C5 0.055(2) 0.067(2) 0.077(3) -0.0263(18) -0.0264(18) -0.0045(15)
C6 0.055(2) 0.091(3) 0.083(3) -0.034(2) -0.020(2) -0.0033(19)
O7 0.067(2) 0.103(3) 0.163(4) -0.043(2) -0.046(2) 0.0118(18)
C8 0.055(2) 0.068(2) 0.097(3) -0.040(2) -0.022(2) -0.0073(16)
C9 0.054(2) 0.075(2) 0.095(3) -0.040(2) -0.025(2) -0.0066(17)
O10 0.086(2) 0.141(3) 0.085(2) -0.061(2) 0.0012(18) -0.035(2)
C11 0.058(2) 0.111(3) 0.095(3) -0.059(3) -0.017(2) -0.021(2)
C12 0.078(3) 0.071(2) 0.099(3) -0.033(2) -0.032(3) -0.010(2)
C13 0.082(3) 0.074(3) 0.106(4) -0.018(3) -0.037(3) -0.023(2)
C14 0.056(2) 0.083(3) 0.099(3) -0.016(2) -0.025(2) -0.017(2)
C15 0.108(4) 0.086(3) 0.082(3) -0.027(2) -0.037(3) -0.008(3)
C16 0.106(5) 0.223(9) 0.097(5) -0.027(5) -0.029(4) -0.014(6)
C18 0.087(5) 0.277(12) 0.119(6) -0.053(6) -0.038(4) 0.011(6)
loop_
_atom_type_symbol
_atom_type_description
_atom_type_scat_dispersion_real
_atom_type_scat_dispersion_imag
_atom_type_scat_source
C C 0.0148 0.0070 'International Tables Vol C Tables 4.2.6.8 and 6.1.1.4'
H H 0.0000 0.0000 'International Tables Vol C Tables 4.2.6.8 and 6.1.1.4'
N N 0.0253 0.0136 'International Tables Vol C Tables 4.2.6.8 and 6.1.1.4'
O O 0.0412 0.0250 'International Tables Vol C Tables 4.2.6.8 and 6.1.1.4'
S S 0.2924 0.4247 'International Tables Vol C Tables 4.2.6.8 and 6.1.1.4'
loop_
_geom_angle_atom_site_label_1
_geom_angle_atom_site_label_2
_geom_angle_atom_site_label_3
_geom_angle
_geom_angle_site_symmetry_1
_geom_angle_site_symmetry_3
_geom_angle_publ_flag
N4 S1 C5 92.90(19) . . ?
O7 S1 N4 111.0(3) . . ?
O7 S1 C5 113.0(2) . . ?
O7 S1 O10 116.0(3) . . ?
O10 S1 N4 110.6(2) . . ?
O10 S1 C5 111.0(2) . . ?
C2 S2 C15 104.4(2) . . ?
C5 C1 C2 115.0(4) . . ?
C5 C1 C6 120.1(4) . . ?
C6 C1 C2 124.9(4) . . ?
C1 C2 S2 114.7(3) . . ?
N4 C2 S2 115.5(3) . . ?
N4 C2 C1 103.2(3) . . ?
C8 C3 C9 117.8(4) . . ?
C8 C3 C11 122.9(4) . . ?
C9 C3 C11 119.3(4) . . ?
C2 N4 S1 117.8(3) . . ?
C2 N4 C11 122.1(3) . . ?
C11 N4 S1 120.0(3) . . ?
C1 C5 S1 111.1(3) . . ?
C1 C5 C12 122.6(4) . . ?
C12 C5 S1 126.3(4) . . ?
C14 C6 C1 117.3(5) . . ?
C9 C8 C3 122.2(4) 2_566 . ?
C8 C9 C3 120.0(4) 2_566 . ?
N4 C11 C3 111.8(4) . . ?
C13 C12 C5 117.5(5) . . ?
C14 C13 C12 121.2(4) . . ?
C13 C14 C6 121.3(4) . . ?
C16 C15 S2 114.4(5) . . ?
C16 C15 C18 111.9(6) . . ?
C18 C15 S2 107.4(5) . . ?
loop_
_geom_bond_atom_site_label_1
_geom_bond_atom_site_label_2
_geom_bond_distance
_geom_bond_site_symmetry_2
_geom_bond_publ_flag
S1 N4 1.620(4) . ?
S1 C5 1.739(4) . ?
S1 O7 1.423(4) . ?
S1 O10 1.453(4) . ?
S2 C2 1.790(4) . ?
S2 C15 1.840(5) . ?
C1 C2 1.521(5) . ?
C1 C5 1.362(6) . ?
C1 C6 1.399(6) . ?
C2 N4 1.462(5) . ?
C3 C8 1.377(6) . ?
C3 C9 1.408(5) . ?
C3 C11 1.512(6) . ?
N4 C11 1.472(5) . ?
C5 C12 1.381(6) . ?
C6 C14 1.395(7) . ?
C8 C9 1.362(6) 2_566 ?
C9 C8 1.362(6) 2_566 ?
C12 C13 1.378(7) . ?
C13 C14 1.369(8) . ?
C15 C16 1.454(10) . ?
C15 C18 1.509(9) . ?
