#------------------------------------------------------------------------------
#$Date: 2020-05-17 02:27:10 +0300 (Sun, 17 May 2020) $
#$Revision: 252111 $
#$URL: file:///home/coder/svn-repositories/cod/cif/4/03/83/4038367.cif $
#------------------------------------------------------------------------------
#
# This file is available in the Crystallography Open Database (COD),
# http://www.crystallography.net/
#
# All data on this site have been placed in the public domain by the
# contributors.
#
data_4038367
loop_
_publ_author_name
'Schoemaker, Robin'
'Schwedtmann, Kai'
'Hennersdorf, Felix'
'Bauz\'a, Antonio'
'Frontera, Antonio'
'Weigand, Jan J.'
_publ_section_title
;
 Toward N,P-Doped \p-Extended PAHs: A One-Pot Synthesis to Diannulated
 1,4,2-Diazaphospholium Triflate Salts.
;
_journal_name_full               'The Journal of organic chemistry'
_journal_paper_doi               10.1021/acs.joc.0c00577
_journal_year                    2020
_chemical_absolute_configuration ad
_chemical_formula_moiety         'C F3 O3 S, C10 H8 F4 N2 P'
_chemical_formula_sum            'C11 H8 F7 N2 O3 P S'
_chemical_formula_weight         412.22
_space_group_crystal_system      monoclinic
_space_group_IT_number           7
_space_group_name_Hall           'P -2yac'
_space_group_name_H-M_alt        'P 1 n 1'
_atom_sites_solution_hydrogens   geom
_audit_creation_date             2015-11-03
_audit_creation_method
;
Olex2 1.2
(compiled 2015.09.30 svn.r3233 for OlexSys, GUI svn.r5103)
;
_cell_angle_alpha                90
_cell_angle_beta                 110.5932(10)
_cell_angle_gamma                90
_cell_formula_units_Z            2
_cell_length_a                   8.73091(8)
_cell_length_b                   7.86576(5)
_cell_length_c                   11.09899(9)
_cell_measurement_reflns_used    8261
_cell_measurement_temperature    100.0
_cell_measurement_theta_max      76.3870
_cell_measurement_theta_min      4.2720
_cell_volume                     713.521(11)
_computing_cell_refinement       'CrysAlisPro 1.171.38.41 (Rigaku OD, 2015)'
_computing_data_collection       'CrysAlisPro 1.171.38.41 (Rigaku OD, 2015)'
_computing_data_reduction        'CrysAlisPro 1.171.38.41 (Rigaku OD, 2015)'
_computing_molecular_graphics    'Olex2 (Dolomanov et al., 2009)'
_computing_publication_material  'Olex2 (Dolomanov et al., 2009)'
_computing_structure_refinement  'ShelXL (Sheldrick, 2015)'
_computing_structure_solution    'ShelXT (Sheldrick, 2015)'
_diffrn_ambient_environment      air
_diffrn_ambient_temperature      100.0
_diffrn_detector                 'CCD plate'
_diffrn_detector_area_resol_mean 10.5700
_diffrn_detector_type            AtlasS2
_diffrn_measured_fraction_theta_full 0.999
_diffrn_measured_fraction_theta_max 0.994
_diffrn_measurement_details
;
List of Runs (angles in degrees, time in seconds):

  # Type    Start    End  Width  t~exp~   \w     \q     \k     \f   Frames
--------------------------------------------------------------------------
  1  \w    -65.00  32.00   0.50    2.00    --  -38.50  57.00 -30.00  194
  2  \w     16.00 113.00   0.50    2.00    --   42.75  57.00  60.00  194
  3  \w    -30.00  65.00   0.50    2.00    --   42.75 -38.00 120.00  190
  4  \w    -27.00  69.00   0.50    2.00    --   42.75 -57.00  60.00  192
  5  \w     11.00 117.00   0.50    2.00    --   42.75  77.00  90.00  212
  6  \w     11.00 117.00   0.50    2.00    --   42.75  77.00   0.00  212
  7  \w     23.00  98.00   0.50    2.00    --   42.75-125.00  60.00  150
  8  \w     11.00 117.00   0.50    2.00    --   42.75  77.00 -90.00  212
  9  \w     11.00 117.00   0.50    2.00    --   42.75  77.00-180.00  212
 10  \w     23.00  98.00   0.50    2.00    --   42.75-125.00-120.00  150
 11  \w     80.00 178.00   0.50    4.00    --  111.00  77.00 -60.00  196
 12  \w     80.00 178.00   0.50    4.00    --  111.00  77.00 120.00  196
 13  \w     39.00 121.00   0.50    4.00    --  111.00-125.00-180.00  164
 14  \w     83.00 178.00   0.50    4.00    --  111.00  61.00-120.00  190
 15  \w     80.00 178.00   0.50    4.00    --  111.00  77.00-180.00  196
 16  \w     80.00 178.00   0.50    4.00    --  111.00  77.00 -30.00  196
 17  \w     37.00 142.00   0.50    4.00    --  111.00 -77.00  60.00  210
 18  \w     80.00 178.00   0.50    4.00    --  111.00  77.00 -90.00  196
 19  \w     30.00 109.00   0.50    4.00    --  111.00 -94.00  30.00  158
 20  \w     39.00 121.00   0.50    4.00    --  111.00-125.00 -60.00  164
 21  \w     83.00 178.00   0.50    4.00    --  111.00  61.00  60.00  190
 22  \w     80.00 178.00   0.50    4.00    --  111.00  77.00  90.00  196
 23  \w     83.00 178.00   0.50    4.00    --  111.00  61.00 -90.00  190
 24  \w     83.00 178.00   0.50    4.00    --  111.00  61.00 -60.00  190
 25  \w     83.00 178.00   0.50    4.00    --  111.00  61.00   0.00  190
 26  \w     83.00 178.00   0.50    4.00    --  111.00  61.00 120.00  190
 27  \w     83.00 178.00   0.50    4.00    --  111.00  61.00 150.00  190
 28  \w     83.00 121.00   0.50    4.00    --  111.00  61.00-150.00   76
;
_diffrn_measurement_device       'four-circle diffractometer'
_diffrn_measurement_device_type  'SuperNova, Dual, Cu at zero, AtlasS2'
_diffrn_measurement_method       '\w scans'
_diffrn_orient_matrix_type
'CrysAlisPro convention (1999,Acta A55,543-557)'
_diffrn_orient_matrix_UB_11      -0.0601892000
_diffrn_orient_matrix_UB_12      0.1796568000
_diffrn_orient_matrix_UB_13      0.0163878000
_diffrn_orient_matrix_UB_21      0.0880941000
_diffrn_orient_matrix_UB_22      -0.0129596000
_diffrn_orient_matrix_UB_23      0.1467552000
_diffrn_orient_matrix_UB_31      0.1554056000
_diffrn_orient_matrix_UB_32      0.0768984000
_diffrn_orient_matrix_UB_33      -0.0135333000
_diffrn_radiation_monochromator  mirror
_diffrn_radiation_probe          x-ray
_diffrn_radiation_type           CuK\a
_diffrn_radiation_wavelength     1.54184
_diffrn_reflns_av_R_equivalents  0.0108
_diffrn_reflns_av_unetI/netI     0.0079
_diffrn_reflns_Laue_measured_fraction_full 0.999
_diffrn_reflns_Laue_measured_fraction_max 0.994
_diffrn_reflns_limit_h_max       10
_diffrn_reflns_limit_h_min       -10
_diffrn_reflns_limit_k_max       9
_diffrn_reflns_limit_k_min       -9
_diffrn_reflns_limit_l_max       13
_diffrn_reflns_limit_l_min       -13
_diffrn_reflns_number            11042
_diffrn_reflns_point_group_measured_fraction_full 0.955
_diffrn_reflns_point_group_measured_fraction_max 0.943
_diffrn_reflns_theta_full        67.684
_diffrn_reflns_theta_max         76.516
_diffrn_reflns_theta_min         5.587
_diffrn_source                   'micro-focus sealed X-ray tube'
_diffrn_source_type              'SuperNova (Cu) X-ray Source'
_exptl_absorpt_coefficient_mu    4.089
_exptl_absorpt_correction_T_max  1.00000
_exptl_absorpt_correction_T_min  0.82569
_exptl_absorpt_correction_type   multi-scan
_exptl_absorpt_process_details
;
CrysAlisPro 1.171.38.41 (Rigaku Oxford Diffraction, 2015)
Empirical absorption correction using spherical harmonics,
 implemented in SCALE3 ABSPACK scaling algorithm.
;
_exptl_crystal_colour            'clear colourless'
_exptl_crystal_colour_lustre     clear
_exptl_crystal_colour_primary    colourless
_exptl_crystal_density_diffrn    1.919
_exptl_crystal_description       block
_exptl_crystal_F_000             412
_exptl_crystal_size_max          0.15
_exptl_crystal_size_mid          0.12
_exptl_crystal_size_min          0.12
_refine_diff_density_max         0.285
_refine_diff_density_min         -0.327
_refine_diff_density_rms         0.054
_refine_ls_abs_structure_details
;
 Flack x determined using 1318 quotients [(I+)-(I-)]/[(I+)+(I-)]
 (Parsons, Flack and Wagner, Acta Cryst. B69 (2013) 249-259).
;
_refine_ls_abs_structure_Flack   0.002(12)
_refine_ls_extinction_method     none
_refine_ls_goodness_of_fit_ref   1.085
_refine_ls_hydrogen_treatment    constr
_refine_ls_matrix_type           full
_refine_ls_number_parameters     226
_refine_ls_number_reflns         2814
_refine_ls_number_restraints     2
_refine_ls_restrained_S_all      1.085
_refine_ls_R_factor_all          0.0230
_refine_ls_R_factor_gt           0.0230
_refine_ls_shift/su_max          0.000
_refine_ls_shift/su_mean         0.000
_refine_ls_structure_factor_coef Fsqd
_refine_ls_weighting_details
'w=1/[\s^2^(Fo^2^)+(0.0451P)^2^+0.2022P] where P=(Fo^2^+2Fc^2^)/3'
_refine_ls_weighting_scheme      calc
_refine_ls_wR_factor_gt          0.0634
_refine_ls_wR_factor_ref         0.0634
_reflns_Friedel_coverage         0.892
_reflns_Friedel_fraction_full    0.911
_reflns_Friedel_fraction_max     0.892
_reflns_number_gt                2814
_reflns_number_total             2814
_reflns_threshold_expression     'I > 2\s(I)'
_iucr_refine_instructions_details
;

    jjw0395.res created by SHELXL-2014/7

TITL jjw0395_a.res in Pn
REM Old TITL jjw0395 in Pn #7
REM SHELXT solution in Pn
REM R1 0.047, Rweak 0.029, Alpha 0.001, Orientation as input
REM Flack x = -0.005 ( 0.009 ) from Parsons' quotients
REM Formula found by SHELXT: C11 N2 O3 F7 P S
CELL 1.54184 8.730915 7.865761 11.098988 90 110.5932 90
ZERR 2 0.000075 0.000049 0.00009 0 0.001 0
LATT -1
SYMM 0.5+X,-Y,0.5+Z
SFAC C H F N O P S
UNIT 22 16 14 4 6 2 2
 
L.S. 10
PLAN  20
TEMP -173.15
BOND $H
LIST 6
MORE -1
CONF
fmap 2 53
acta
REM <olex2.extras>
REM <HklSrc "%.\\jjw0395.hkl">
REM </olex2.extras>
 
WGHT    0.045100    0.202200
FVAR      10.13301
S1    7    0.124698    0.517417    0.469538    11.00000    0.01685    0.01724 =
         0.01525    0.00044    0.00600   -0.00143
P1    6    0.818071    0.082677    0.638362    11.00000    0.02085    0.01445 =
         0.01679    0.00091    0.00847   -0.00005
F3    3    1.001247    0.157310    0.693486    11.00000    0.02122    0.02265 =
         0.01860    0.00051    0.00255   -0.00102
F6    3    0.371125    0.319202    0.592112    11.00000    0.02066    0.03210 =
         0.02664    0.00905   -0.00303   -0.00073
F7    3    0.158336    0.185775    0.470346    11.00000    0.02463    0.01788 =
         0.04092    0.00225    0.00795   -0.00337
F1    3    0.882913   -0.104312    0.679502    11.00000    0.03577    0.01611 =
         0.02740    0.00559    0.01304    0.00266
F4    3    0.628619    0.015722    0.577120    11.00000    0.02959    0.01935 =
         0.03254    0.00061    0.01851   -0.00439
F5    3    0.311404    0.322816    0.387600    11.00000    0.03265    0.03047 =
         0.03028    0.00475    0.01785    0.00776
F2    3    0.795402    0.119774    0.770246    11.00000    0.04228    0.02801 =
         0.02407    0.00096    0.01792    0.00012
O3    5    0.066398    0.502427    0.576067    11.00000    0.02443    0.03009 =
         0.01879   -0.00103    0.01202   -0.00284
O1    5   -0.000794    0.501770    0.343706    11.00000    0.01919    0.02656 =
         0.01578    0.00238    0.00237    0.00284
O2    5    0.239483    0.653450    0.481698    11.00000    0.02473    0.01721 =
         0.03064    0.00069    0.01225   -0.00456
N2    4    0.741674    0.302370    0.577674    11.00000    0.01651    0.01763 =
         0.02025   -0.00224    0.00765   -0.00231
N1    4    0.778310    0.192661    0.397075    11.00000    0.01600    0.01735 =
         0.01972   -0.00239    0.00595   -0.00211
C1    1    0.834141    0.058198    0.476107    11.00000    0.01221    0.01295 =
         0.01663   -0.00094    0.00536   -0.00207
C6    1    0.723073    0.331759    0.453926    11.00000    0.01145    0.01444 =
         0.01365   -0.00204    0.00480   -0.00187
C5    1    0.780385    0.197813    0.274481    11.00000    0.01935    0.01953 =
         0.01545   -0.00067    0.00369   -0.00196
AFIX  43
H5    2    0.738443    0.293608    0.220883    11.00000   -1.20000
AFIX   0
C8    1    0.617163    0.606139    0.462085    11.00000    0.01622    0.01735 =
         0.02658   -0.00024    0.00631    0.00010
AFIX  43
H8    2    0.571856    0.710334    0.421972    11.00000   -1.20000
AFIX   0
C2    1    0.898068   -0.078568    0.433824    11.00000    0.02421    0.01569 =
         0.02298   -0.00238    0.00959    0.00160
AFIX  43
H2    2    0.937489   -0.173921    0.488515    11.00000   -1.20000
AFIX   0
C7    1    0.660668    0.480980    0.391712    11.00000    0.01525    0.02047 =
         0.01776   -0.00059    0.00518   -0.00293
AFIX  43
H7    2    0.647732    0.498001    0.303930    11.00000   -1.20000
AFIX   0
C10   1    0.702713    0.424890    0.647282    11.00000    0.01991    0.01873 =
         0.01801   -0.00377    0.00925   -0.00227
AFIX  43
H10   2    0.718430    0.405445    0.735311    11.00000   -1.20000
AFIX   0
C3    1    0.905137   -0.077608    0.311216    11.00000    0.02955    0.01940 =
         0.02335   -0.00500    0.00997    0.00175
AFIX  43
H3    2    0.951237   -0.171472    0.282152    11.00000   -1.20000
AFIX   0
C9    1    0.639668    0.579370    0.590362    11.00000    0.01849    0.01885 =
         0.02490   -0.00380    0.00912   -0.00050
AFIX  43
H9    2    0.612306    0.665726    0.639136    11.00000   -1.20000
AFIX   0
C11   1    0.247337    0.325791    0.480099    11.00000    0.01768    0.01885 =
         0.01953    0.00409    0.00450   -0.00137
C4    1    0.844412    0.061537    0.230202    11.00000    0.02587    0.02356 =
         0.01817   -0.00428    0.00766   -0.00150
AFIX  43
H4    2    0.847264    0.062127    0.145425    11.00000   -1.20000
AFIX   0
HKLF 4
 
REM  jjw0395_a.res in Pn
REM R1 =  0.0230 for    2814 Fo > 4sig(Fo)  and  0.0230 for all    2814 data
REM    226 parameters refined using      2 restraints
 
END  
     
WGHT      0.0449      0.2028 

REM Highest difference peak  0.285,  deepest hole -0.327,  1-sigma level  0.054
Q1    1   0.8422  0.0063  0.4512  11.00000  0.05    0.28
Q2    1   0.5555  0.0005  0.5361  11.00000  0.05    0.21
Q3    1   0.3122  0.4419  0.6428  11.00000  0.05    0.20
Q4    1   0.0991  0.0933  0.2815  11.00000  0.05    0.18
Q5    1   0.1801  0.4160  0.4772  11.00000  0.05    0.17
Q6    1   0.4505  0.5751  0.6583  11.00000  0.05    0.16
Q7    1  -0.0801  0.5364  0.5282  11.00000  0.05    0.16
Q8    1   0.9181  0.4743  0.7996  11.00000  0.05    0.15
Q9    1   0.6699  0.4988  0.6163  11.00000  0.05    0.15
Q10   1  -0.0556  0.4470  0.5404  11.00000  0.05    0.15
Q11   1   0.3970  0.7012  0.4966  11.00000  0.05    0.15
Q12   1   0.4720  0.5688  0.6074  11.00000  0.05    0.14
Q13   1   0.3268  0.5442  0.3933  11.00000  0.05    0.14
Q14   1   0.5661  0.7856  0.4110  11.00000  0.05    0.14
Q15   1   0.4817  0.7293  0.3819  11.00000  0.05    0.14
Q16   1   0.0528  0.4310  0.5477  11.00000  0.05    0.13
Q17   1   0.6207  0.0361  0.0813  11.00000  0.05    0.13
Q18   1   0.6086  0.5875  0.2035  11.00000  0.05    0.13
Q19   1   1.0829 -0.0890  0.6168  11.00000  0.05    0.13
Q20   1   1.0040 -0.1672  0.5185  11.00000  0.05    0.13

  REM The information below was added by Olex2.
  REM
  REM R1 = 0.0230 for 2814 Fo > 4sig(Fo) and 0.0230 for all 11440 data
  REM n/a parameters refined using n/a restraints
  REM Highest difference peak 0.28, deepest hole -0.33
  REM Mean Shift 0, Max Shift 0.000.
  
  REM +++ Tabular Listing of Refinement Information +++
  REM R1_all = 0.0230
  REM R1_gt = 0.0230
  REM wR_ref = 0.0634
  REM GOOF = 1.085
  REM Shift_max = 0.000
  REM Shift_mean = 0
  REM Reflections_all = 11440
  REM Reflections_gt = 2814
  REM Parameters = n/a
  REM Hole = -0.33
  REM Peak = 0.28
  REM Flack = 0.002(12)
  
  
;
_cod_data_source_file            jo0c00577_si_004.cif
_cod_data_source_block           jjw0395
_cod_original_cell_volume        713.521(10)
_cod_database_code               4038367
_chemical_oxdiff_formula         C11H8F7N2O3PS
_shelx_space_group_comment
;
The symmetry employed for this shelxl refinement is uniquely defined
by the following loop, which should always be used as a source of
symmetry information in preference to the above space-group names.
They are only intended as comments.
;
_reflns_odcompleteness_completeness 99.93
_reflns_odcompleteness_iscentric 1
_reflns_odcompleteness_theta     66.97
_olex2_refinement_description
;
1. Fixed Uiso
 At 1.2 times of:
  All C(H) groups
2.a Aromatic/amide H refined with riding coordinates:
 C5(H5), C8(H8), C2(H2), C7(H7), C10(H10), C3(H3), C9(H9), C4(H4)
;
_shelx_shelxl_version_number     2014/7
_olex2_submission_special_instructions 'No special instructions were received'
_oxdiff_exptl_absorpt_empirical_details
;
Empirical correction (ABSPACK) includes:
- Absorption correction using spherical harmonics
- Frame scaling
;
_oxdiff_exptl_absorpt_empirical_full_max 1.144
_oxdiff_exptl_absorpt_empirical_full_min 0.917
loop_
_space_group_symop_operation_xyz
'x, y, z'
'x+1/2, -y, z+1/2'
loop_
_atom_site_label
_atom_site_type_symbol
_atom_site_fract_x
_atom_site_fract_y
_atom_site_fract_z
_atom_site_U_iso_or_equiv
_atom_site_adp_type
_atom_site_occupancy
_atom_site_site_symmetry_order
_atom_site_calc_flag
_atom_site_refinement_flags_posn
_atom_site_refinement_flags_adp
_atom_site_refinement_flags_occupancy
_atom_site_disorder_assembly
_atom_site_disorder_group
S1 S 0.12470(7) 0.51742(7) 0.46954(6) 0.01635(14) Uani 1 1 d . . . . .
P1 P 0.81807(8) 0.08268(7) 0.63836(6) 0.01687(15) Uani 1 1 d . . . . .
F3 F 1.00125(19) 0.1573(2) 0.69349(14) 0.0220(3) Uani 1 1 d . . . . .
F6 F 0.3711(2) 0.3192(2) 0.59211(17) 0.0295(4) Uani 1 1 d . . . . .
F7 F 0.1583(2) 0.1858(2) 0.47035(17) 0.0288(4) Uani 1 1 d . . . . .
F1 F 0.8829(2) -0.1043(2) 0.67950(16) 0.0259(4) Uani 1 1 d . . . . .
F4 F 0.6286(2) 0.0157(2) 0.57712(17) 0.0251(4) Uani 1 1 d . . . . .
F5 F 0.3114(2) 0.3228(2) 0.38760(17) 0.0293(4) Uani 1 1 d . . . . .
F2 F 0.7954(2) 0.1198(2) 0.77025(16) 0.0298(4) Uani 1 1 d . . . . .
O3 O 0.0664(3) 0.5024(3) 0.5761(2) 0.0233(4) Uani 1 1 d . . . . .
O1 O -0.0008(2) 0.5018(2) 0.34371(18) 0.0215(4) Uani 1 1 d . . . . .
O2 O 0.2395(3) 0.6535(2) 0.4817(2) 0.0235(4) Uani 1 1 d . . . . .
N2 N 0.7417(3) 0.3024(3) 0.5777(2) 0.0178(4) Uani 1 1 d . . . . .
N1 N 0.7783(3) 0.1927(3) 0.3971(2) 0.0178(4) Uani 1 1 d . . . . .
C1 C 0.8341(3) 0.0582(3) 0.4761(2) 0.0139(5) Uani 1 1 d . . . . .
C6 C 0.7231(3) 0.3318(3) 0.4539(2) 0.0131(4) Uani 1 1 d . . . . .
C5 C 0.7804(3) 0.1978(3) 0.2745(2) 0.0188(5) Uani 1 1 d . . . . .
H5 H 0.7384 0.2936 0.2209 0.023 Uiso 1 1 calc R . . . .
C8 C 0.6172(3) 0.6061(3) 0.4621(3) 0.0204(5) Uani 1 1 d . . . . .
H8 H 0.5719 0.7103 0.4220 0.024 Uiso 1 1 calc R . . . .
C2 C 0.8981(3) -0.0786(3) 0.4338(3) 0.0206(5) Uani 1 1 d . . . . .
H2 H 0.9375 -0.1739 0.4885 0.025 Uiso 1 1 calc R . . . .
C7 C 0.6607(3) 0.4810(3) 0.3917(3) 0.0180(5) Uani 1 1 d . . . . .
H7 H 0.6477 0.4980 0.3039 0.022 Uiso 1 1 calc R . . . .
C10 C 0.7027(3) 0.4249(3) 0.6473(2) 0.0182(5) Uani 1 1 d . . . . .
H10 H 0.7184 0.4054 0.7353 0.022 Uiso 1 1 calc R . . . .
C3 C 0.9051(4) -0.0776(3) 0.3112(3) 0.0239(6) Uani 1 1 d . . . . .
H3 H 0.9512 -0.1715 0.2822 0.029 Uiso 1 1 calc R . . . .
C9 C 0.6397(4) 0.5794(3) 0.5904(3) 0.0204(5) Uani 1 1 d . . . . .
H9 H 0.6123 0.6657 0.6391 0.024 Uiso 1 1 calc R . . . .
C11 C 0.2473(3) 0.3258(3) 0.4801(3) 0.0192(5) Uani 1 1 d . . . . .
C4 C 0.8444(4) 0.0615(4) 0.2302(3) 0.0226(5) Uani 1 1 d . . . . .
H4 H 0.8473 0.0621 0.1454 0.027 Uiso 1 1 calc R . . . .
loop_
_atom_site_aniso_label
_atom_site_aniso_U_11
_atom_site_aniso_U_22
_atom_site_aniso_U_33
_atom_site_aniso_U_23
_atom_site_aniso_U_13
_atom_site_aniso_U_12
S1 0.0169(3) 0.0172(3) 0.0152(3) 0.0004(2) 0.0060(2) -0.0014(2)
P1 0.0209(3) 0.0145(3) 0.0168(3) 0.0009(2) 0.0085(2) 0.0000(2)
F3 0.0212(8) 0.0227(8) 0.0186(7) 0.0005(6) 0.0026(6) -0.0010(6)
F6 0.0207(8) 0.0321(8) 0.0266(8) 0.0090(7) -0.0030(7) -0.0007(7)
F7 0.0246(9) 0.0179(8) 0.0409(10) 0.0023(7) 0.0080(8) -0.0034(6)
F1 0.0358(9) 0.0161(7) 0.0274(8) 0.0056(6) 0.0130(7) 0.0027(7)
F4 0.0296(9) 0.0194(8) 0.0325(9) 0.0006(6) 0.0185(7) -0.0044(6)
F5 0.0326(10) 0.0305(9) 0.0303(9) 0.0047(7) 0.0178(8) 0.0078(7)
F2 0.0423(11) 0.0280(8) 0.0241(8) 0.0010(7) 0.0179(8) 0.0001(8)
O3 0.0244(10) 0.0301(10) 0.0188(9) -0.0010(7) 0.0120(8) -0.0028(8)
O1 0.0192(10) 0.0266(9) 0.0158(9) 0.0024(7) 0.0024(7) 0.0028(7)
O2 0.0247(10) 0.0172(9) 0.0306(10) 0.0007(8) 0.0122(8) -0.0046(7)
N2 0.0165(11) 0.0176(10) 0.0203(10) -0.0022(8) 0.0077(8) -0.0023(8)
N1 0.0160(10) 0.0174(10) 0.0197(10) -0.0024(8) 0.0059(8) -0.0021(8)
C1 0.0122(11) 0.0130(10) 0.0166(11) -0.0009(9) 0.0054(9) -0.0021(9)
C6 0.0114(10) 0.0144(10) 0.0137(10) -0.0020(8) 0.0048(8) -0.0019(8)
C5 0.0194(12) 0.0195(12) 0.0154(11) -0.0007(9) 0.0037(9) -0.0020(9)
C8 0.0162(12) 0.0174(10) 0.0266(12) -0.0002(11) 0.0063(9) 0.0001(10)
C2 0.0242(14) 0.0157(12) 0.0230(13) -0.0024(9) 0.0096(10) 0.0016(10)
C7 0.0153(12) 0.0205(12) 0.0178(12) -0.0006(9) 0.0052(9) -0.0029(9)
C10 0.0199(12) 0.0187(12) 0.0180(11) -0.0038(9) 0.0092(9) -0.0023(9)
C3 0.0295(15) 0.0194(13) 0.0234(13) -0.0050(10) 0.0100(11) 0.0018(10)
C9 0.0185(12) 0.0189(12) 0.0249(13) -0.0038(10) 0.0091(10) -0.0005(9)
C11 0.0177(13) 0.0188(11) 0.0195(11) 0.0041(9) 0.0045(10) -0.0014(9)
C4 0.0259(15) 0.0236(13) 0.0182(12) -0.0043(10) 0.0077(10) -0.0015(10)
loop_
_atom_type_symbol
_atom_type_description
_atom_type_scat_dispersion_real
_atom_type_scat_dispersion_imag
_atom_type_scat_source
C C 0.0181 0.0091 'International Tables Vol C Tables 4.2.6.8 and 6.1.1.4'
H H 0.0000 0.0000 'International Tables Vol C Tables 4.2.6.8 and 6.1.1.4'
F F 0.0727 0.0534 'International Tables Vol C Tables 4.2.6.8 and 6.1.1.4'
N N 0.0311 0.0180 'International Tables Vol C Tables 4.2.6.8 and 6.1.1.4'
O O 0.0492 0.0322 'International Tables Vol C Tables 4.2.6.8 and 6.1.1.4'
P P 0.2955 0.4335 'International Tables Vol C Tables 4.2.6.8 and 6.1.1.4'
S S 0.3331 0.5567 'International Tables Vol C Tables 4.2.6.8 and 6.1.1.4'
loop_
_geom_angle_atom_site_label_1
_geom_angle_atom_site_label_2
_geom_angle_atom_site_label_3
_geom_angle
_geom_angle_site_symmetry_1
_geom_angle_site_symmetry_3
_geom_angle_publ_flag
O3 S1 C11 104.29(12) . . ?
O1 S1 O3 114.68(12) . . ?
O1 S1 C11 102.68(11) . . ?
O2 S1 O3 114.66(12) . . ?
O2 S1 O1 114.83(12) . . ?
O2 S1 C11 103.53(12) . . ?
F3 P1 F4 176.89(9) . . ?
F3 P1 N2 88.91(9) . . ?
F3 P1 C1 90.15(10) . . ?
F1 P1 F3 91.29(9) . . ?
F1 P1 F4 91.57(9) . . ?
F1 P1 N2 175.92(10) . . ?
F1 P1 C1 92.40(10) . . ?
F4 P1 N2 88.15(9) . . ?
F4 P1 C1 88.51(10) . . ?
F2 P1 F3 90.69(10) . . ?
F2 P1 F1 93.05(10) . . ?
F2 P1 F4 90.38(10) . . ?
F2 P1 N2 91.03(10) . . ?
F2 P1 C1 174.47(11) . . ?
C1 P1 N2 83.52(10) . . ?
C6 N2 P1 114.96(17) . . ?
C6 N2 C10 119.8(2) . . ?
C10 N2 P1 125.23(18) . . ?
C1 N1 C6 114.4(2) . . ?
C1 N1 C5 122.8(2) . . ?
C5 N1 C6 122.8(2) . . ?
N1 C1 P1 114.44(18) . . ?
N1 C1 C2 119.4(2) . . ?
C2 C1 P1 126.2(2) . . ?
N2 C6 N1 112.4(2) . . ?
N2 C6 C7 123.0(2) . . ?
C7 C6 N1 124.6(2) . . ?
N1 C5 H5 120.6 . . ?
N1 C5 C4 118.8(2) . . ?
C4 C5 H5 120.6 . . ?
C7 C8 H8 119.9 . . ?
C9 C8 H8 119.9 . . ?
C9 C8 C7 120.2(2) . . ?
C1 C2 H2 120.1 . . ?
C1 C2 C3 119.8(2) . . ?
C3 C2 H2 120.1 . . ?
C6 C7 C8 117.5(2) . . ?
C6 C7 H7 121.3 . . ?
C8 C7 H7 121.3 . . ?
N2 C10 H10 119.9 . . ?
N2 C10 C9 120.2(2) . . ?
C9 C10 H10 119.9 . . ?
C2 C3 H3 120.0 . . ?
C2 C3 C4 119.9(3) . . ?
C4 C3 H3 120.0 . . ?
C8 C9 C10 119.4(2) . . ?
C8 C9 H9 120.3 . . ?
C10 C9 H9 120.3 . . ?
F6 C11 S1 110.90(19) . . ?
F6 C11 F5 107.2(2) . . ?
F7 C11 S1 111.41(18) . . ?
F7 C11 F6 107.6(2) . . ?
F7 C11 F5 108.3(2) . . ?
F5 C11 S1 111.13(17) . . ?
C5 C4 C3 119.3(3) . . ?
C5 C4 H4 120.3 . . ?
C3 C4 H4 120.3 . . ?
loop_
_geom_bond_atom_site_label_1
_geom_bond_atom_site_label_2
_geom_bond_distance
_geom_bond_site_symmetry_2
_geom_bond_publ_flag
S1 O3 1.447(2) . ?
S1 O1 1.4456(19) . ?
S1 O2 1.4396(19) . ?
S1 C11 1.829(3) . ?
P1 F3 1.6088(17) . ?
P1 F1 1.5844(17) . ?
P1 F4 1.6384(19) . ?
P1 F2 1.5719(17) . ?
P1 N2 1.889(2) . ?
P1 C1 1.865(3) . ?
F6 C11 1.331(3) . ?
F7 C11 1.330(3) . ?
F5 C11 1.331(3) . ?
N2 C6 1.345(3) . ?
N2 C10 1.351(3) . ?
N1 C1 1.351(3) . ?
N1 C6 1.429(3) . ?
N1 C5 1.368(3) . ?
C1 C2 1.369(4) . ?
C6 C7 1.374(4) . ?
C5 H5 0.9500 . ?
C5 C4 1.377(4) . ?
C8 H8 0.9500 . ?
C8 C7 1.390(4) . ?
C8 C9 1.383(4) . ?
C2 H2 0.9500 . ?
C2 C3 1.384(4) . ?
C7 H7 0.9500 . ?
C10 H10 0.9500 . ?
C10 C9 1.391(4) . ?
C3 H3 0.9500 . ?
C3 C4 1.397(4) . ?
C9 H9 0.9500 . ?
C4 H4 0.9500 . ?
loop_
_geom_torsion_atom_site_label_1
_geom_torsion_atom_site_label_2
_geom_torsion_atom_site_label_3
_geom_torsion_atom_site_label_4
_geom_torsion
_geom_torsion_site_symmetry_1
_geom_torsion_site_symmetry_2
_geom_torsion_site_symmetry_3
_geom_torsion_site_symmetry_4
_geom_torsion_publ_flag
P1 N2 C6 N1 -4.7(3) . . . . ?
P1 N2 C6 C7 176.48(19) . . . . ?
P1 N2 C10 C9 -176.7(2) . . . . ?
P1 C1 C2 C3 -178.7(2) . . . . ?
F3 P1 N2 C6 95.10(19) . . . . ?
F3 P1 N2 C10 -86.5(2) . . . . ?
F3 P1 C1 N1 -92.74(18) . . . . ?
F3 P1 C1 C2 86.1(2) . . . . ?
F1 P1 C1 N1 175.96(19) . . . . ?
F1 P1 C1 C2 -5.2(2) . . . . ?
F4 P1 N2 C6 -83.89(19) . . . . ?
F4 P1 N2 C10 94.5(2) . . . . ?
F4 P1 C1 N1 84.45(19) . . . . ?
F4 P1 C1 C2 -96.7(2) . . . . ?
F2 P1 N2 C6 -174.23(19) . . . . ?
F2 P1 N2 C10 4.2(2) . . . . ?
O3 S1 C11 F6 -60.1(2) . . . . ?
O3 S1 C11 F7 59.8(2) . . . . ?
O3 S1 C11 F5 -179.31(19) . . . . ?
O1 S1 C11 F6 179.95(19) . . . . ?
O1 S1 C11 F7 -60.2(2) . . . . ?
O1 S1 C11 F5 60.8(2) . . . . ?
O2 S1 C11 F6 60.2(2) . . . . ?
O2 S1 C11 F7 -179.96(19) . . . . ?
O2 S1 C11 F5 -59.0(2) . . . . ?
N2 P1 C1 N1 -3.86(18) . . . . ?
N2 P1 C1 C2 175.0(2) . . . . ?
N2 C6 C7 C8 0.7(4) . . . . ?
N2 C10 C9 C8 0.1(4) . . . . ?
N1 C1 C2 C3 0.1(4) . . . . ?
N1 C6 C7 C8 -178.0(2) . . . . ?
N1 C5 C4 C3 0.0(4) . . . . ?
C1 P1 N2 C6 4.82(19) . . . . ?
C1 P1 N2 C10 -176.7(2) . . . . ?
C1 N1 C6 N2 1.6(3) . . . . ?
C1 N1 C6 C7 -179.7(2) . . . . ?
C1 N1 C5 C4 -1.1(4) . . . . ?
C1 C2 C3 C4 -1.1(4) . . . . ?
C6 N2 C10 C9 1.6(4) . . . . ?
C6 N1 C1 P1 2.3(3) . . . . ?
C6 N1 C1 C2 -176.6(2) . . . . ?
C6 N1 C5 C4 176.3(2) . . . . ?
C5 N1 C1 P1 179.92(19) . . . . ?
C5 N1 C1 C2 1.0(4) . . . . ?
C5 N1 C6 N2 -176.0(2) . . . . ?
C5 N1 C6 C7 2.8(4) . . . . ?
C2 C3 C4 C5 1.0(4) . . . . ?
C7 C8 C9 C10 -1.4(4) . . . . ?
C10 N2 C6 N1 176.8(2) . . . . ?
C10 N2 C6 C7 -2.0(4) . . . . ?
C9 C8 C7 C6 1.1(4) . . . . ?
loop_
_refln_index_h
_refln_index_k
_refln_index_l
_refln_F_squared_meas
_refln_F_squared_sigma
_refln_scale_group_code
-10 2 7 4728.13 126.362 15
-10 3 7 11878.7 183.306 15
-10 4 4 1386.2 64.7247 15
-10 4 5 11743.4 176.642 15
-9 0 -2 8.14648 28.1359 26
-9 1 -3 5981 135.293 12
-9 -1 -2 16715.8 226.131 26
-9 1 -2 19990.9 286.158 12
-9 2 -3 10589.9 159.285 27
-9 -2 -2 728.041 47.3955 22
-9 2 -2 702.428 54.7505 12
-9 2 -1 3165.36 120.452 12
-9 2 0 2639.92 115.671 12
-9 2 1 8689.24 205.344 12
-9 2 2 291.596 49.2923 27
-9 2 8 8454.77 199.477 15
-9 2 9 2346.15 95.9278 28
-9 3 -2 8914.49 145.59 12
-9 3 -2 9152.5 161.678 27
-9 3 -1 14656.8 241.63 27
-9 3 -1 14741.6 219.966 12
-9 3 0 15741.5 242.732 12
-9 3 0 17850.2 287.114 27
-9 3 1 18019.4 298.94 27
-9 3 2 15287.6 274.071 27
-9 3 8 10105.6 211.566 15
-9 3 9 8314.22 174.687 28
-9 4 -1 14484.2 197.253 27
-9 4 0 24023.8 286.586 27
-9 4 1 3416.95 117.037 27
-9 4 2 5894.21 152.591 27
-9 4 6 3015.92 129.764 15
-9 4 7 9538.57 209.641 15
-9 4 8 7089.04 168.024 28
-9 4 8 6737.42 152.908 15
-9 4 9 1535.6 65.7881 28
-9 5 2 2418.62 82.6384 15
-9 5 3 22369.3 277.173 15
-9 5 4 12767.6 224.96 15
-9 5 5 1234.29 73.5125 15
-9 5 6 255.871 40.8603 15
-9 5 7 16781.9 224.173 15
-9 5 7 19166.8 242.779 28
-8 0 -5 7.5748 23.423 26
-8 0 -5 8.04256 16.8355 22
-8 0 -5 21.3066 23.0093 12
-8 0 -4 13127.8 231.511 22
-8 0 -4 12611.6 242.001 26
-8 0 -3 -9.76976 30.1165 22
-8 0 -2 67926.2 630.319 22
-8 0 11 44.0275 23.7023 14
-8 -1 -5 3667.38 104.466 26
-8 -1 -5 3814.89 102.513 22
-8 1 -5 4225.51 111.297 12
-8 1 -5 4396.97 110.978 26
-8 1 -4 6534.98 148.636 22
-8 -1 -4 6944.91 173.056 22
-8 1 -4 6643.33 169.86 26
-8 1 -3 7665.98 185.737 22
-8 1 -3 7831.35 208.129 26
-8 1 -2 11387 265.027 26
-8 1 -1 238.997 52.6847 26
-8 1 12 24067.8 235.1 14
-8 2 -4 6178.92 162.014 12
-8 -2 -4 5857.29 155.467 22
-8 2 -4 6240.76 151.805 26
-8 2 -3 6637.2 180.553 26
-8 2 -3 6921.26 197.923 12
-8 2 -2 18956.1 324.37 26
-8 2 -1 5887.49 188.131 26
-8 2 9 13742 291.386 28
-8 2 10 10319.7 212.685 28
-8 2 12 64.784 18.0504 14
-8 3 -4 11179.6 169.348 26
-8 3 -4 12026.3 194.381 12
-8 3 -3 3697.54 138.312 27
-8 3 -3 3912.86 124.231 26
-8 3 -2 5187.96 155.917 26
-8 3 -2 5539.07 178.138 12
-8 3 -1 65359.5 565.815 26
-8 3 -1 67948.8 645.287 12
-8 3 0 27791.8 424.937 12
-8 3 1 21339.8 370.123 12
-8 3 2 49929.7 604.017 27
-8 3 3 4963.95 187.417 27
-8 3 8 1397.81 103.313 15
-8 3 9 1110.17 87.4806 28
-8 3 9 947.533 73.7321 15
-8 3 10 9398.84 203.537 28
-8 3 11 9269.85 182.606 14
-8 4 -3 4500.43 102.32 26
-8 4 -3 4733.45 129.229 27
-8 4 -2 2125.51 85.4353 26
-8 4 -2 2142.84 106.747 27
-8 4 -2 2373.96 103.216 12
-8 4 -1 24564.7 375.568 27
-8 4 -1 24217.5 345.721 12
-8 4 0 6666.19 189.8 12
-8 4 0 7066.31 215.282 27
-8 4 1 25725.4 415.062 27
-8 4 1 25939.1 368.075 12
-8 4 2 5731.48 197.52 27
-8 4 3 41777.1 511.394 27
-8 4 7 28221.2 442.564 15
-8 4 8 10182.5 245.021 15
-8 4 9 19672.7 318.539 28
-8 4 9 18581.2 279.995 15
-8 4 10 7945.7 168.046 28
-8 5 -2 17288 231.15 27
-8 5 -2 17209.4 206.86 12
-8 5 -1 14298.9 243.666 27
-8 5 -1 13994.7 213.303 12
-8 5 0 4878.73 156.906 27
-8 5 0 4701.85 130.805 12
-8 5 1 8653.18 214.815 27
-8 5 2 1794.8 102.977 27
-8 5 3 138.024 38.9459 27
-8 5 5 15528.3 317.794 15
-8 5 6 17436 327.808 15
-8 5 7 9620.48 229.444 15
-8 5 8 10353.8 212.335 15
-8 5 8 10273.2 222.056 28
-8 5 9 84.4207 24.6431 15
-8 5 9 54.5126 28.7732 28
-8 6 0 33427.7 307.115 27
-8 6 1 596.638 51.343 27
-8 6 2 10299 172.594 15
-8 6 2 12974.6 212.512 27
-8 6 3 987.079 60.9002 27
-8 6 3 893.471 63.087 15
-8 6 4 2319.95 102.144 15
-8 6 5 1256.59 77.3729 15
-8 6 6 44227 402.063 28
-8 6 6 44833.9 414.191 15
-8 6 7 3932.43 113.983 15
-8 6 7 3588.75 108.701 28
-7 0 -6 125.517 36.3904 22
-7 0 -6 45.3035 30.3917 26
-7 0 -5 22905.2 370.501 22
-7 0 -4 257.981 58.0463 22
-7 0 0 112.91 64.574 9
-7 0 1 4698.49 282.488 9
-7 0 2 22.1142 56.3618 9
-7 0 3 17314.5 515.283 9
-7 0 4 9.47335 52.0612 9
-7 0 5 228817 1847.43 9
-7 0 6 41.1895 60.3859 8
-7 0 11 9974.98 232.096 14
-7 0 12 23.0185 22.9985 14
-7 0 13 9109.4 161.645 23
-7 1 -6 1148.89 71.0777 22
-7 1 -6 1082.01 72.6822 26
-7 1 -6 994.286 67.3382 12
-7 -1 -6 1110.62 74.3002 22
-7 -1 -5 10574.8 255.139 22
-7 1 -5 10324.8 251.187 26
-7 1 -5 10530.5 241.776 22
-7 1 -4 2714.83 139.233 22
-7 1 -3 27916.3 449.136 22
-7 1 -2 26578.2 440.497 22
-7 -1 0 3863.6 247.768 5
-7 1 0 4902.02 289.868 9
-7 1 1 19156.1 564.97 9
-7 -1 1 18837.7 563.688 9
-7 -1 2 7984.37 357.475 9
-7 1 2 7895.7 364.384 9
-7 -1 3 8132.5 350.386 9
-7 1 3 8573.95 376.852 9
-7 1 4 32047.5 723.441 9
-7 -1 4 31627.6 669.167 9
-7 1 5 15724.7 508.409 9
-7 -1 5 15741 509.29 8
-7 1 6 38824 797.778 9
-7 -1 6 38136.8 799.725 8
-7 1 12 3063.91 114.949 14
-7 2 -6 119.031 27.876 22
-7 2 -6 164.321 34.8637 26
-7 2 -6 173.501 33.4396 12
-7 -2 -6 175.781 36.3443 22
-7 2 -5 4406.2 156.557 12
-7 2 -5 4373.89 142.274 22
-7 2 -5 4283.55 154.342 26
-7 2 -4 699.639 78.6032 26
-7 2 -4 688.634 69.7825 22
-7 2 -3 4274.86 167.455 22
-7 2 -3 5231.87 200.288 26
-7 2 -2 5066.08 201.931 26
-7 2 -1 52502.8 629.845 26
-7 2 1 1357.29 157.509 9
-7 -2 1 1339.79 152.377 5
-7 2 2 2771.07 224.572 9
-7 -2 2 2558.37 209.315 9
-7 2 3 11377.6 446.202 9
-7 -2 3 11672.1 414.868 9
-7 2 4 28448.3 705.59 9
-7 2 5 77986.2 1174.62 9
-7 -2 5 78667.9 1094.13 8
-7 -2 6 31094.6 711.38 8
-7 2 6 30607.7 737.884 9
-7 2 9 805.414 87.6895 28
-7 2 10 1279.57 94.9758 28
-7 2 12 4127.88 132.002 14
-7 -2 12 4187.14 113.389 23
-7 3 -6 6623.96 125.835 12
-7 -3 -6 6764.84 139.248 22
-7 3 -5 10054.3 177.773 22
-7 3 -5 10379.8 215.123 26
-7 3 -5 10215.1 214.949 12
-7 3 -4 12875.2 271.804 26
-7 3 -4 12497.1 276.47 12
-7 3 -4 12353.6 229.235 22
-7 3 -3 1713.74 119.729 12
-7 3 -3 1616.65 110.565 26
-7 3 -2 6743.6 221.102 26
-7 3 -2 6495.98 229.176 12
-7 3 -1 3926.3 172.986 26
-7 3 1 33384.6 500.233 12
-7 3 3 5656.22 212.667 27
-7 3 8 12447.3 321.776 15
-7 3 9 25281.4 413.677 15
-7 3 9 26263.6 456.18 28
-7 3 10 1105.71 90.5633 28
-7 3 11 2593.55 107.551 28
-7 3 12 8581.11 170.437 14
-7 4 -5 5118.53 128.49 12
-7 4 -5 5315.55 127.66 26
-7 4 -4 2023.56 101.026 27
-7 4 -4 1994.67 97.3899 26
-7 4 -4 1840.28 99.1931 12
-7 4 -3 11995 275.572 27
-7 4 -3 12275.6 273.501 12
-7 4 -3 12506.8 261.657 26
-7 4 -2 33346.9 495.238 27
-7 4 -2 33676.6 480.551 12
-7 4 -2 32401.2 443.511 26
-7 4 -1 12658.9 284.007 26
-7 4 -1 12500.9 303.359 12
-7 4 0 27763.9 451.303 12
-7 4 0 27925.4 486.739 27
-7 4 1 11461.8 286.693 12
-7 4 1 11671 316.356 27
-7 4 2 35471.5 541.503 27
-7 4 3 52942.6 641.801 27
-7 4 4 33300.1 489.784 27
-7 4 7 63257.3 736.84 15
-7 4 8 6172.25 220.667 15
-7 4 9 3819.64 170.189 28
-7 4 9 3787.97 155.959 15
-7 4 10 7084.85 200.289 28
-7 4 10 6951.33 166.82 15
-7 4 11 141.514 33.4347 14
-7 -4 11 149.202 26.3589 18
-7 4 11 182.444 35.1621 28
-7 5 -4 15032.3 202.377 26
-7 5 -4 14713.4 205.367 27
-7 5 -3 5977.45 168.117 27
-7 5 -3 6362.74 169.915 12
-7 5 -3 6243.29 156.59 26
-7 5 -2 4486.8 158.005 12
-7 5 -2 4344.44 143.262 26
-7 5 -2 4505.05 166.187 27
-7 5 -1 58109.2 536.634 26
-7 5 -1 57901.1 625.365 27
-7 5 -1 57437.7 580.789 12
-7 5 0 10172.2 250.883 12
-7 5 0 10645.6 281.44 27
-7 5 1 3168.68 159.66 27
-7 5 1 3027.51 137.496 12
-7 5 2 4064.81 179.427 27
-7 5 3 4290.82 179.917 27
-7 5 4 1121.82 93.6132 27
-7 5 6 1792.45 133.345 15
-7 5 7 24696.4 430.304 15
-7 5 8 10043.6 262.83 28
-7 5 8 10546.2 260.651 15
-7 5 9 7242.34 202.918 28
-7 5 9 7388.47 189.345 15
-7 5 10 3916.28 125.91 28
-7 5 10 3778.93 110.214 14
-7 5 10 3698.53 100.734 15
-7 6 -3 31706.9 269.367 12
-7 6 -2 5383.06 134.567 12
-7 6 -2 5338.17 143.903 27
-7 6 -1 1582.64 92.7237 27
-7 6 -1 1552.59 82.2196 12
-7 6 0 2976.39 114.016 12
-7 6 0 2973.38 132.861 27
-7 6 1 15105.1 260.433 15
-7 6 1 17224.2 321.423 27
-7 6 2 5141.96 179.793 27
-7 6 2 5104.24 170.956 15
-7 6 3 12551.8 270.287 27
-7 6 3 12072.3 272.343 15
-7 6 4 12923.2 289.475 15
-7 6 4 12736.2 257.99 27
-7 6 5 13231.7 291.809 15
-7 6 6 11878.6 270.193 15
-7 6 6 10915.3 254.225 28
-7 6 7 37424 441.723 28
-7 6 7 38254.6 450.23 15
-7 6 8 12366.6 232.406 28
-7 6 8 12517.8 232.112 15
-7 6 9 7079.48 149.25 28
-7 6 9 7231.87 141.27 15
-7 7 0 23665 272.764 27
-7 7 1 7185.45 163.539 27
-7 7 2 1991.03 89.7846 27
-7 7 3 4481.91 129.621 27
-7 7 3 3945.27 109.644 15
-7 7 4 2447.64 88.7448 27
-7 7 4 2393.47 94.3281 15
-7 7 5 7608.62 165.541 15
-7 7 5 6898.12 134.427 28
-7 7 6 1706.67 77.4971 15
-7 7 7 8802.79 152.158 15
-6 0 -8 13321 205.106 22
-6 0 -8 11120.7 180.41 26
-6 0 -7 36.1532 33.9017 26
-6 0 -7 57.326 37.4625 22
-6 0 -6 2786.74 148.9 22
-6 0 -3 29.5513 42.4392 5
-6 0 -2 67693.4 1015.89 5
-6 0 -1 125.324 51.0497 5
-6 0 0 84370.1 1104.74 9
-6 0 0 81934.3 972.9 5
-6 0 1 7.14879 32.0496 5
-6 0 1 16.4168 36.7597 9
-6 0 2 29380.4 615.817 9
-6 0 3 1339.47 134.09 9
-6 0 4 35137.3 655.38 9
-6 0 5 29.5091 36.6443 9
-6 0 6 75230.7 968.197 9
-6 0 6 79323.4 1105.47 8
-6 0 7 9.37402 58.9932 8
-6 0 8 71854.5 1144.12 8
-6 0 11 13.4051 32.8768 14
-6 0 12 27017.5 362.8 14
-6 0 13 45.3483 26.778 23
-6 0 13 58.0982 23.4672 14
-6 -1 -8 23206 261.015 22
-6 1 -8 23125.8 263.806 22
-6 1 -8 22677.2 244.825 26
-6 1 -7 20860.5 328.116 26
-6 -1 -7 20507.5 334.77 22
-6 1 -7 21049.3 328.566 22
-6 1 -6 2703.37 141.707 22
-6 1 -6 2819.46 146.632 26
-6 1 -5 11133.8 300.53 22
-6 1 -4 59017.4 705.853 22
-6 1 -3 20523.8 569.114 9
-6 -1 -2 159249 1600.39 5
-6 1 -2 161681 1584.8 9
-6 -1 -1 8377.9 353.919 5
-6 1 -1 9526.83 377.97 9
-6 -1 0 21120.8 519.259 5
-6 1 0 21784 558.352 9
-6 -1 1 30039.4 582.251 5
-6 1 1 29405.6 634.629 9
-6 -1 2 38536.9 622.877 5
-6 -1 2 39037.6 713.551 9
-6 -1 3 53384.3 799.461 9
-6 1 3 51420.4 825.737 9
-6 1 4 85339.2 1080.59 9
-6 -1 4 81333.6 959.344 9
-6 -1 5 23360.2 509.009 9
-6 -1 5 23753 576.682 8
-6 1 5 23875.8 578.229 9
-6 1 6 81720.8 1081.91 9
-6 -1 6 79514.2 1091.43 8
-6 -1 7 7282.01 353.192 8
-6 1 7 7577.78 364.372 8
-6 1 8 11043.6 451.468 8
-6 -1 8 10939.7 444.124 8
-6 1 9 10894.3 294.894 28
-6 -1 10 22687.2 387.127 14
-6 1 12 3841.41 148.444 14
-6 1 13 4349.82 120.4 14
-6 -1 13 4595.75 129.792 23
-6 2 -7 5740.97 147.035 12
-6 -2 -7 5675.18 167.384 22
-6 2 -7 5769.5 163.243 26
-6 2 -7 6109.85 163.784 22
-6 2 -6 12300.8 273.056 22
-6 2 -6 12211.3 280.962 26
-6 2 -6 11756.9 266.533 12
-6 2 -5 9397.43 262.278 22
-6 2 -5 9883.68 278.588 26
-6 2 -4 7123.59 239.704 22
-6 2 -4 7096.25 249.083 26
-6 2 -3 9519.17 276.209 22
-6 -2 -2 40870.8 841.478 5
-6 2 -2 39582.8 770.864 9
-6 2 -1 93980.9 1181.91 9
-6 -2 -1 95699.8 1224.54 5
-6 -2 0 43581.2 798.177 5
-6 2 0 44367.4 807.099 9
-6 2 1 142895 1437.05 9
-6 -2 1 149151 1397.63 5
-6 2 2 50756.3 857.935 9
-6 -2 2 51596.7 781.006 5
-6 -2 3 6591.68 268.289 5
-6 -2 3 6298.3 275.475 9
-6 2 3 6294.37 306.641 9
-6 2 4 10021.7 390.7 9
-6 -2 4 10400 362.394 8
-6 -2 5 91501 1116.56 8
-6 2 5 93005.7 1207.94 9
-6 2 6 43973.3 844.832 9
-6 -2 6 43632.6 809.756 8
-6 -2 7 27724.3 680.513 8
-6 2 7 26999.8 670.841 9
-6 2 7 28046.1 703.526 8
-6 2 8 126666 1021.99 15
-6 2 9 19913.9 420.559 28
-6 2 10 3170.16 159.802 28
-6 2 11 1063.15 82.6079 28
-6 2 12 15428.3 290.133 14
-6 -2 12 15844 266.909 23
-6 -2 13 2231.74 76.027 23
-6 2 13 2233.94 85.74 14
-6 -2 13 2307.94 87.64 18
-6 2 13 2291.15 83.258 23
-6 -3 -7 4663.47 132.827 22
-6 3 -7 5327.5 130.893 22
-6 3 -7 4865.48 116.94 12
-6 3 -7 5488.99 140.378 26
-6 3 -6 2785.56 117.608 27
-6 3 -6 2830.44 124.521 12
-6 3 -6 2967.34 122.894 22
-6 3 -6 2889.9 130.955 26
-6 3 -5 8036 239.015 26
-6 3 -5 7574.05 231.036 12
-6 3 -5 7761.22 219.436 22
-6 3 -4 34633.3 524.341 26
-6 3 -4 34307 484.205 22
-6 3 -4 33520.2 521.341 12
-6 3 -3 14583.7 351.322 26
-6 3 -3 14757 323.345 22
-6 3 -2 24253.3 448.218 26
-6 3 -1 78395.9 1099.85 9
-6 3 -1 79954 787.15 26
-6 -3 -1 79426.3 1179.66 5
-6 -3 0 68321.4 1058.22 5
-6 3 0 70698.1 1046.53 9
-6 3 1 355.267 89.1032 9
-6 -3 1 1020.33 133.484 5
-6 -3 2 32773.2 681.748 5
-6 3 2 32887.2 724.791 9
-6 -3 3 20333.9 523.671 5
-6 3 3 20298 391.119 27
-6 3 3 19435.3 566.331 9
-6 3 4 47118.9 893.224 9
-6 -3 4 44980.2 783.634 6
-6 -3 5 41128.4 792.582 6
-6 3 5 41179.9 849.861 9
-6 3 6 142110 1606.09 9
-6 -3 6 144345 1458.49 8
-6 3 8 6869.99 252.501 15
-6 3 9 17888.4 374.799 15
-6 3 9 17707.4 405.117 28
-6 3 10 9115.13 269.08 28
-6 3 11 6211.25 204.993 14
-6 3 11 5997.53 189.503 28
-6 -3 11 6442.89 169.051 23
-6 3 12 3636.75 131.249 14
-6 4 -6 1714.9 88.9435 26
-6 4 -6 1773.51 78.3078 22
-6 4 -6 1773.64 86.3501 12
-6 4 -5 21151.8 336.109 27
-6 4 -5 22659.3 361.082 26
-6 -4 -5 21693.1 302.184 21
-6 4 -5 22336.8 318.445 22
-6 4 -5 21688.8 353.857 12
-6 4 -4 5269.41 195.949 27
-6 4 -4 5415.08 198.094 26
-6 -4 -4 5322.75 176.209 21
-6 4 -4 5152.12 196.687 12
-6 4 -4 5297.97 172.232 22
-6 4 -3 23703.7 436.791 12
-6 4 -3 23702.9 424.793 26
-6 4 -2 58682.5 698.004 12
-6 4 -2 57820.1 672.064 26
-6 4 -1 29094.6 475.634 26
-6 4 -1 29488.3 496.859 12
-6 4 0 15112.9 351.098 12
-6 4 0 15912.1 341.367 26
-6 4 1 6697.55 227.605 12
-6 4 1 7189.56 255.072 27
-6 4 1 6779.83 339.653 9
-6 -4 1 6999.26 346.451 5
-6 4 2 5654.26 223.872 27
-6 -4 2 5766.74 312.332 5
-6 4 2 5719.14 320.13 9
-6 4 3 4452.39 195.18 27
-6 -4 3 4825.07 281.732 5
-6 4 3 4441.5 286.414 9
-6 -4 4 28216.3 666.528 6
-6 4 4 28765.6 725.703 9
-6 4 4 28430.3 471.471 27
-6 -4 5 1386.71 157.968 6
-6 4 7 33737.5 565.687 15
-6 4 8 34176.7 550.038 15
-6 4 9 8590.3 278.067 28
-6 4 9 9154.21 262.933 15
-6 4 10 7572.99 204.84 15
-6 4 10 7589.16 235.264 28
-6 4 11 3426.49 134.071 28
-6 4 11 3530.58 136.05 14
-6 -4 12 3784.56 98.5365 24
-6 4 12 4019.01 109.625 14
-6 5 -6 8066.22 142.338 26
-6 5 -5 657.123 53.755 27
-6 5 -5 732.979 61.514 12
-6 5 -5 699.186 59.7401 26
-6 -5 -5 640.242 50.5567 21
-6 5 -4 31533.7 412.889 26
-6 -5 -4 30597.1 375.626 21
-6 5 -4 31418.9 423.117 12
-6 5 -4 31674.2 412.653 27
-6 5 -3 11236.4 268.789 26
-6 5 -3 10944.2 276.482 27
-6 5 -3 11453.3 282.076 12
-6 5 -2 18577.6 358.654 26
-6 5 -2 18966 389.851 27
-6 5 -2 18811 376.604 12
-6 5 -1 4418.52 187.857 12
-6 5 -1 4379.25 178.749 26
-6 5 -1 4450.03 199.207 27
-6 5 0 2505.43 155.976 27
-6 5 0 2406.63 141.341 12
-6 5 0 2509.96 136.344 26
-6 5 1 3447.66 179.445 27
-6 5 1 3626.92 166.941 12
-6 5 2 6790.95 246.474 27
-6 5 3 6188.62 231.871 27
-6 5 4 1220.38 106.011 27
-6 5 6 48680 674.2 15
-6 5 7 16924.5 390.579 15
-6 5 8 94842.9 856.489 15
-6 5 8 93918 884.912 28
-6 5 9 11276.7 267.662 15
-6 5 9 11259.4 286.383 28
-6 5 10 7235.34 179.416 14
-6 5 10 7120.94 199.933 28
-6 5 10 7108.55 174.685 15
-6 5 11 11807.2 171.046 14
-6 5 11 13223.9 214.633 28
-6 6 -4 8537.72 166.03 27
-6 6 -4 8966.68 182.79 12
-6 6 -4 8933.39 176.916 26
-6 6 -3 11293.5 227.001 26
-6 6 -3 11170.9 235.812 12
-6 -6 -3 10794.3 215.675 21
-6 6 -3 10853.5 231.316 27
-6 6 -2 50620 513.511 26
-6 6 -2 50176.6 554.831 27
-6 6 -2 51704.6 544.173 12
-6 6 -1 10419.6 242.355 26
-6 6 -1 10803.5 279.786 27
-6 6 -1 11261.5 266.655 12
-6 6 0 5011.51 200.54 27
-6 6 0 4887.33 180.087 12
-6 6 0 5164.5 172.721 26
-6 6 1 17283.1 372.092 27
-6 6 1 17222.4 328.466 12
-6 6 2 20036.9 381.682 15
-6 6 2 20609.8 405.674 27
-6 6 3 8227.01 253.221 27
-6 6 3 8576.2 260.035 15
-6 6 4 8491.97 248.68 27
-6 6 4 8816.81 268.654 15
-6 6 5 6537.64 232.551 15
-6 6 5 6634.82 206.335 27
-6 6 6 27696.1 453.17 28
-6 6 6 29124.1 474.128 15
-6 6 7 27268.7 439.351 15
-6 6 7 26895.3 429.772 28
-6 6 8 11012.3 256.89 15
-6 6 8 10760.4 255.151 28
-6 6 9 905.583 68.8092 15
-6 6 9 911.858 70.7706 28
-6 6 10 17782.2 233.512 28
-6 7 -3 1554.92 63.9636 12
-6 7 -2 119.773 30.8047 12
-6 7 -2 103.062 30.3434 27
-6 7 -2 153.951 30.9625 26
-6 7 -1 4906.18 155.214 27
-6 7 -1 4863.86 139.903 12
-6 7 -1 4694.82 126.382 26
-6 7 0 4734.5 164.32 27
-6 7 0 4591.87 139.743 12
-6 7 1 13173.3 228.029 12
-6 7 1 13175.7 280.402 27
-6 7 2 2463.54 106.675 15
-6 7 2 2522.14 128.083 27
-6 7 3 4810.52 159.388 15
-6 7 3 5139.83 175.961 27
-6 7 4 899.895 75.2372 27
-6 7 4 903.01 66.3539 28
-6 7 4 827.681 74.68 15
-6 7 5 4916.97 165.558 15
-6 7 5 4753.55 148.53 28
-6 7 5 4894.15 146.028 27
-6 7 6 21496.2 329.535 15
-6 7 6 20852.4 295.922 28
-6 7 7 8426.47 175.875 28
-6 7 7 8683.34 194.696 15
-6 7 8 11386.8 173.933 28
-6 7 8 12968.2 204.863 15
-6 8 0 3416.99 96.1571 27
-6 8 1 855.186 57.7069 27
-6 8 2 395.597 42.3121 27
-6 8 3 10695.3 180.957 27
-5 0 -9 459.618 46.8057 22
-5 0 -9 407.368 36.309 26
-5 0 -8 125.956 42.388 26
-5 0 -8 64.9225 43.2599 22
-5 0 -7 6222.02 227.427 22
-5 0 -4 12.8742 57.9352 5
-5 0 -3 66686.7 992.589 5
-5 0 -2 22.9264 46.2528 5
-5 0 -1 47919.3 721.612 5
-5 0 0 72.4812 40.714 5
-5 0 1 50995.9 623.283 5
-5 0 2 -9.89675 28.2162 5
-5 0 2 269.089 62.3486 9
-5 0 3 58327 745.688 9
-5 0 4 17.1298 33.2402 9
-5 0 5 21462.1 461.035 9
-5 0 6 507.961 91.0485 8
-5 0 6 191.757 50.4859 9
-5 0 7 63795.5 977.099 8
-5 0 8 44.3375 60.2721 8
-5 0 9 5760.9 328.969 8
-5 0 11 1590.78 115.725 14
-5 0 12 22.704 34.7466 14
-5 0 13 15925.6 240.547 14
-5 0 13 15989.5 275.688 23
-5 -1 -9 7074.68 148.789 22
-5 1 -9 7315.13 158.416 22
-5 -1 -8 7761.12 214.536 22
-5 1 -8 8374.9 213.302 26
-5 1 -8 8126.03 218.599 22
-5 1 -7 19550.6 379.999 26
-5 -1 -7 19957.6 397.668 22
-5 1 -7 20103.2 394.802 22
-5 1 -6 2595.49 156.865 22
-5 1 -5 20768 434.186 22
-5 -1 -4 811.787 131.619 5
-5 1 -4 1014.83 136.532 5
-5 1 -4 846.858 127.159 9
-5 -1 -3 119.55 65.4411 5
-5 1 -3 100.933 55.9961 5
-5 1 -2 21843.5 533.085 9
-5 1 -2 21717.3 519.108 5
-5 -1 -2 20482.7 531.814 5
-5 -1 -1 98597.2 1077.44 5
-5 1 -1 99194.3 1093.21 9
-5 -1 0 137808 1184.67 5
-5 1 0 141280 1257.58 9
-5 1 0 137593 1085.11 5
-5 -1 1 110753 988.895 5
-5 1 1 108807 861.695 5
-5 1 2 122305 1126.17 9
-5 -1 2 121466 964.716 5
-5 -1 3 18959.8 419.887 9
-5 1 3 19247.5 448.785 9
-5 -1 3 20000 370.797 5
-5 1 4 1785.16 143.789 9
-5 -1 4 1756.95 126.225 9
-5 -1 5 121105 1189.29 8
-5 1 5 122481 1182.56 9
-5 1 6 37244.9 670.597 9
-5 1 6 36621.4 710.595 8
-5 -1 6 37418.5 702.927 8
-5 -1 7 16875.1 506.414 8
-5 1 7 16437.9 453.577 9
-5 1 8 1400.42 168.111 8
-5 -1 8 1237.07 157.815 8
-5 -1 9 5704.13 329.363 8
-5 1 9 5833.75 330.6 8
-5 1 9 5834.57 220.695 28
-5 -1 10 24792.9 426.908 14
-5 1 11 27108.1 472.322 14
-5 -1 11 28096.3 421.413 14
-5 1 12 6388.59 206.055 14
-5 -1 12 6301.67 171.584 14
-5 -1 13 18721.7 287.204 23
-5 -1 13 18364.7 279.729 18
-5 1 13 18274.3 284.745 23
-5 1 13 18751 278.772 14
-5 2 -9 5804.28 127.166 22
-5 2 -8 10506.2 231.838 22
-5 2 -8 10500.7 224.167 26
-5 2 -7 4403.11 178.844 26
-5 2 -7 4217.95 176.724 22
-5 2 -7 4163.07 161.797 12
-5 -2 -7 4296.03 154.23 21
-5 2 -6 23401.2 439.833 22
-5 -2 -6 23429.1 396.89 21
-5 2 -6 23340.9 439.916 26
-5 -2 -5 25680.1 434.805 21
-5 2 -5 24245.7 460.379 22
-5 -2 -4 67644 1114.31 5
-5 2 -4 69558.6 765.467 22
-5 2 -3 66940.5 931.805 9
-5 2 -3 65649.9 716.755 22
-5 -2 -3 66700.4 1057.8 5
-5 2 -2 69448.7 933.251 9
-5 -2 -2 69819.7 1025.11 5
-5 2 -2 68401.9 918.665 5
-5 2 -1 58091.7 779.736 5
-5 2 -1 60240.3 853.007 9
-5 -2 -1 57947.9 881.385 5
-5 -2 0 379253 2113.39 5
-5 2 0 386472 1790.02 5
-5 2 0 381503 2096.07 9
-5 -2 1 64291.3 822.21 5
-5 2 1 62378 849.488 9
-5 -2 2 2798.88 155.55 6
-5 2 2 2596.4 178.48 9
-5 -2 2 2726.19 165.612 5
-5 2 3 46623.8 750.107 9
-5 2 4 23769.6 547.075 9
-5 -2 4 23440.1 493.545 8
-5 -2 5 197497 1521.01 8
-5 2 5 196469 1617.52 9
-5 2 6 1903.76 168.68 9
-5 -2 6 1745.78 159.345 8
-5 -2 7 60859.5 965.51 8
-5 2 7 59063 958.376 8
-5 2 7 60397.2 948.767 9
-5 2 8 17711.4 552.663 8
-5 -2 8 18176.8 560.186 8
-5 2 9 9044.6 291.688 28
-5 2 10 1146.14 107.681 28
-5 2 11 5042.94 208.438 14
-5 2 11 4726.83 181.579 28
-5 2 12 12302 280.758 14
-5 -2 12 12549.7 265.149 23
-5 -2 13 9786.28 186.529 23
-5 2 13 9733.58 196.561 14
-5 -2 13 10208.4 198.401 18
-5 2 13 9825.71 182.984 23
-5 3 -8 4083.82 126.689 26
-5 3 -8 3989.37 129.234 22
-5 -3 -8 3722.62 103.484 21
-5 3 -7 10250.2 246.979 22
-5 3 -7 10069.3 246.846 26
-5 3 -7 10036.5 230.001 12
-5 -3 -7 9861.92 222.718 21
-5 3 -6 17153.1 362.924 26
-5 3 -6 17057.7 351.921 22
-5 3 -6 16563.2 346.09 12
-5 -3 -6 16648.5 333.808 21
-5 3 -5 30848 507.871 12
-5 3 -5 30729.3 495.244 22
-5 3 -5 30668.6 512.108 26
-5 -3 -5 31652 493.989 21
-5 3 -4 4536.95 204.32 26
-5 3 -4 4192.23 187.808 22
-5 -3 -3 177913 1792.16 5
-5 3 -3 171063 1573.87 5
-5 3 -3 177438 1226.94 26
-5 3 -3 173498 1149.1 22
-5 -3 -2 13980.9 490.579 5
-5 3 -2 14169.8 338.212 26
-5 3 -2 14010.2 424.162 5
-5 -3 -2 14263.7 437.603 2
-5 3 -2 14179 318.649 22
-5 3 -2 14739.3 438.291 9
-5 -3 -1 63969.2 870.899 2
-5 3 -1 64593.6 914.215 9
-5 3 -1 65508.8 688 26
-5 -3 -1 65293.1 1000.51 5
-5 3 0 91813 1086.91 9
-5 -3 0 90433.9 986.239 2
-5 -3 0 91443.4 1122.08 5
-5 -3 1 3387.32 211.372 5
-5 3 1 4169.8 234.964 9
-5 -3 1 3942.08 200.35 6
-5 -3 1 3207.47 183.862 2
-5 3 2 4451.89 246.145 9
-5 -3 2 4453.4 220.622 6
-5 -3 2 4815.24 218.247 2
-5 -3 3 12147.1 346.87 2
-5 3 3 11943 409.346 9
-5 -3 3 11909.4 370.098 6
-5 -3 4 7042.01 301.976 6
-5 3 4 7280.83 331.021 9
-5 -3 4 7070.68 272.049 8
-5 3 5 173355 1633.97 9
-5 -3 5 169628 1425.72 8
-5 -3 6 10262.2 376.93 8
-5 3 6 10704.7 421.6 9
-5 -3 7 117245 1342.98 8
-5 3 7 118417 1437.75 9
-5 3 7 120455 1364.71 8
-5 -3 8 1035.35 139.985 8
-5 3 8 1108.78 108.762 15
-5 3 8 1022.73 138.3 9
-5 3 9 24783.1 496.033 28
-5 3 9 26328.5 464.533 15
-5 3 10 3622.64 182.755 28
-5 -3 11 14005.9 282.277 23
-5 3 11 13095 302.36 28
-5 3 11 13412.6 318.615 14
-5 -3 12 22464.1 299.189 23
-5 3 12 22039.5 346.162 14
-5 -3 12 22849.2 335.772 18
-5 -3 13 7614.78 147.258 18
-5 3 13 7567.19 151.169 14
-5 4 -8 7456 135.282 26
-5 4 -8 7575.64 137.505 22
-5 -4 -7 9994.34 202.563 21
-5 4 -7 10187.5 213.425 22
-5 4 -7 10167.2 204.324 12
-5 4 -7 10312 221.164 26
-5 -4 -6 9262.26 236.491 21
-5 4 -6 8926.57 243.745 26
-5 4 -6 8892.95 236.42 12
-5 4 -6 9000.3 232.267 22
-5 4 -6 8765.76 217.044 27
-5 4 -5 19115.1 364.206 22
-5 4 -5 19559.9 374.562 27
-5 4 -5 19904.2 393.459 26
-5 4 -5 19562.6 386.739 12
-5 -4 -5 19438.7 379.184 21
-5 4 -4 12175.8 300.553 22
-5 4 -4 12250.6 323.982 26
-5 4 -4 12165.1 324.086 12
-5 4 -3 27927.9 494.851 12
-5 4 -3 28033.6 489.357 26
-5 4 -2 31596.2 521.12 12
-5 -4 -2 30995.5 697.828 2
-5 4 -2 30563 504.057 26
-5 -4 -2 31839.3 767.78 5
-5 4 -1 40857.2 581.601 12
-5 4 -1 40937.5 567.849 26
-5 4 -1 42122.5 763.711 9
-5 -4 -1 40040.1 764.013 2
-5 -4 -1 40813.4 839.892 5
-5 -4 0 12379.2 451.566 5
-5 -4 0 11995 407.061 2
-5 4 0 12498 303.28 26
-5 4 0 12016.7 308.026 12
-5 -4 1 12171.2 405.031 2
-5 -4 1 12298 438.92 5
-5 -4 1 12729.4 406.959 6
-5 4 1 12535 302.239 12
-5 4 1 12102 427.107 9
-5 4 2 65886.6 725.862 27
-5 -4 2 65316.9 933.461 6
-5 4 2 65383 996.816 9
-5 -4 2 68416.4 936.704 2
-5 4 3 24976.3 441.336 27
-5 -4 3 25129.5 594.405 6
-5 -4 3 25231.8 571.946 2
-5 -4 4 39252.6 726.912 2
-5 4 4 38637.5 802.728 9
-5 4 4 39293.1 545.472 27
-5 -4 4 39157.3 766.712 6
-5 -4 5 117088 1373.32 6
-5 4 5 120186 1444.15 9
-5 4 6 33559.3 789.516 9
-5 -4 6 36070.8 788.783 6
-5 4 7 55966.2 738.518 15
-5 4 8 1480.29 127.811 15
-5 4 8 1308.3 126.981 28
-5 4 9 2036.63 136.15 15
-5 4 9 2076.34 150.455 28
-5 4 10 27487.3 417.572 15
-5 4 10 27943.1 481.138 28
-5 4 11 4889.13 171.985 14
-5 -4 11 4972.12 161.844 18
-5 4 11 4856.34 176.087 28
-5 4 12 1146.81 68.9475 14
-5 -4 12 1167.28 66.4138 18
-5 -5 -7 4912.26 111.111 21
-5 5 -7 5154.21 112.609 22
-5 5 -6 13722.2 252.505 12
-5 -5 -6 13424.3 249.328 21
-5 5 -6 13794 262.125 26
-5 5 -6 13040.2 229.612 22
-5 5 -5 5686.96 174.626 22
-5 5 -5 5898.78 183.957 27
-5 -5 -5 5949.73 196.619 21
-5 5 -5 5899.47 197.254 12
-5 5 -5 5816.05 197.163 26
-5 5 -4 7654.01 242.927 26
-5 5 -4 7508.97 213.338 22
-5 5 -4 7581.76 236.37 27
-5 5 -4 7307.06 238.096 12
-5 5 -3 5807.98 221.903 27
-5 5 -3 5601.79 216.261 26
-5 5 -3 5348.7 216.289 12
-5 5 -2 21447.3 420.241 26
-5 5 -2 21526.9 429.489 12
-5 5 -2 21539.3 439.168 27
-5 5 -1 28712.5 479.749 26
-5 5 -1 28494.2 508.663 27
-5 5 -1 28248.7 488.385 12
-5 -5 0 60047.2 986.401 2
-5 5 0 64869.5 766.495 27
-5 5 0 61456.1 705.604 12
-5 -5 0 63175.6 1067.26 5
-5 5 0 62936.3 693.005 26
-5 -5 1 61574.5 1041.7 5
-5 5 1 63615.9 755.328 27
-5 5 1 64467 700.158 12
-5 5 1 62515.4 992.609 9
-5 -5 1 61305 991.512 2
-5 -5 2 44408.9 844.436 6
-5 -5 2 43325.5 826.466 2
-5 5 2 44044 623.261 27
-5 5 2 43980.6 854.333 9
-5 5 3 73970 797.845 27
-5 -5 3 70917.6 1080.9 6
-5 -5 3 72377 1069.8 2
-5 5 3 75198.8 1139.58 9
-5 -5 4 15499.4 519.195 6
-5 5 4 15360 360.673 27
-5 5 4 15675.3 536.179 9
-5 -5 4 16336.6 512.317 2
-5 5 5 25867.1 501.819 15
-5 5 5 26241.6 453.75 27
-5 5 6 23989.3 485.343 15
-5 5 7 135543 1130.97 15
-5 5 7 133048 1145.4 28
-5 5 8 13872.5 351.636 15
-5 5 8 13442.1 358.06 28
-5 5 9 27316.2 448.442 15
-5 5 9 27384.7 477.283 28
-5 5 10 13528.6 299.907 28
-5 5 10 13268.6 263.013 14
-5 -5 10 13367.9 233.442 18
-5 5 10 13186.8 264.833 15
-5 5 11 14822.7 221.191 14
-5 5 11 15659.4 267.904 28
-5 -5 11 15082.9 200.412 18
-5 -5 11 15746.2 231.986 24
-5 6 -6 7799.33 152.887 26
-5 6 -6 7328.01 140.919 12
-5 -6 -5 15492.1 262.683 21
-5 6 -5 15717.8 265.202 12
-5 6 -5 15327.6 265.513 26
-5 6 -4 20913.4 352.613 12
-5 6 -4 21398.8 353.075 26
-5 6 -4 20679.7 332.062 27
-5 6 -3 10534.2 268.277 26
-5 6 -3 10868.3 273.283 27
-5 6 -3 10544.5 273.904 12
-5 6 -2 22751.6 414.921 12
-5 6 -2 21968.3 416.05 27
-5 6 -2 22152.3 399.29 26
-5 6 -1 20466 389.57 26
-5 6 -1 20226.7 417.972 27
-5 6 -1 20058.8 395.253 12
-5 6 0 1298.63 107.722 12
-5 6 0 1261.6 115.334 27
-5 6 0 1211.03 102.321 26
-5 6 1 17466.4 347.363 26
-5 6 1 16540.1 387.282 27
-5 6 1 16632.9 352.804 15
-5 6 1 17206.6 359.161 12
-5 6 2 20304 407.357 15
-5 6 2 19821.7 422.9 27
-5 6 3 8780.19 279.358 15
-5 6 3 8840.37 280.792 27
-5 6 4 15005.4 355.965 27
-5 6 4 15199.9 370.939 15
-5 6 5 69486 731.198 27
-5 6 5 70719.5 796.303 15
-5 6 6 15543.5 363.557 28
-5 6 6 15669.4 376.306 15
-5 6 7 19673.6 396.533 28
-5 6 7 20003.5 408.277 15
-5 6 8 11465.6 288.555 15
-5 6 8 11081.3 282.373 28
-5 6 9 1746.23 106.516 28
-5 6 9 1834.61 106.025 15
-5 6 10 6556.78 166.645 28
-5 6 10 6532.19 152.363 15
-5 7 -4 14626.1 228.627 12
-5 7 -4 14488.2 225.135 26
-5 -7 -4 13631.7 221.331 21
-5 7 -4 13039 185.389 27
-5 7 -3 24665.3 334.016 26
-5 7 -3 25242.1 345.086 12
-5 7 -2 10432.9 240.643 12
-5 7 -2 10195.3 232.007 26
-5 7 -2 10012.2 241.285 27
-5 7 -1 3400.59 145.652 12
-5 7 -1 3487.54 157.566 27
-5 7 -1 3393.23 141.261 26
-5 7 0 231.699 48.3302 26
-5 7 0 240.657 51.3144 12
-5 7 0 166.757 52.7142 27
-5 7 1 121.456 54.1521 27
-5 7 1 92.7239 36.0655 12
-5 7 2 5413.46 208.22 27
-5 7 2 5212.92 178.415 15
-5 7 3 18782.8 375.843 27
-5 7 3 17909.6 344.123 15
-5 7 4 6743.89 197.532 28
-5 7 4 6496.64 213.899 15
-5 7 4 6962.03 223.134 27
-5 7 5 2845.49 145.217 15
-5 7 5 2877.99 136.664 27
-5 7 5 2953.65 134.112 28
-5 7 6 4433.68 172.894 15
-5 7 6 4109.59 152.792 28
-5 7 7 34312.7 409.018 28
-5 7 7 34486.5 441.719 15
-5 -7 8 17073.9 216.656 11
-5 7 8 17485.9 281.638 15
-5 7 8 16808.9 255.468 28
-5 7 9 22182.7 256.428 15
-5 7 9 19858.1 224.983 28
-5 8 -2 4510.64 113.339 27
-5 8 -2 4434.21 111.647 12
-5 8 -1 2797.13 108.362 27
-5 8 -1 2690.19 90.7424 26
-5 8 -1 2723.36 97.4296 12
-5 8 0 18462.9 292.824 27
-5 8 0 17635 245.988 12
-5 8 1 6837.49 189.603 27
-5 8 2 1160.71 84.2412 27
-5 8 3 107.502 37.4413 27
-5 8 4 2441.43 94.4907 15
-5 -8 4 2327.73 93.2458 25
-5 8 4 2431.86 105.825 27
-5 -8 5 25331.3 285.862 16
-5 8 5 25396.3 297.268 15
-5 8 5 24871.1 288.669 27
-5 8 6 24990.3 279.13 15
-5 -8 6 23421.4 268.563 16
-5 8 7 12011.7 170.559 15
-4 0 -10 1035.44 60.1634 22
-4 0 -9 57.4559 30.2947 26
-4 0 -9 19.6444 36.2387 22
-4 0 -9 30.2382 25.4702 21
-4 0 -8 76938.9 785.009 22
-4 0 -8 75665.4 678.204 21
-4 0 -7 92.4298 42.798 21
-4 0 -7 10.532 50.8172 22
-4 0 -6 18610.7 583.021 5
-4 0 -6 19872.6 380.053 21
-4 0 -4 4527.68 216.75 2
-4 0 -4 4316.61 251.442 5
-4 0 -3 18.6354 35.2811 2
-4 0 -3 14.6911 42.9053 5
-4 0 -2 247438 1578.46 5
-4 0 -2 255527 1242.55 2
-4 0 -1 58.6976 26.8004 2
-4 0 -1 18.7663 35.8226 5
-4 0 0 166178 1061.57 5
-4 0 1 56.9804 30.2921 5
-4 0 2 60013.2 665.596 9
-4 0 2 59872.6 516.146 5
-4 0 3 212.572 30.9052 5
-4 0 3 -9.01629 31.9284 9
-4 0 4 64037.4 682.562 9
-4 0 5 59.3989 39.047 9
-4 0 6 169828 1157.71 9
-4 0 6 166818 1381.83 8
-4 0 7 49.5905 55.4217 8
-4 0 8 69389.5 1043.63 8
-4 0 9 520.898 112.957 8
-4 0 10 22736.4 445.107 14
-4 0 11 306.815 63.8638 14
-4 0 12 23751 391.099 14
-4 0 13 57.9638 36.2315 23
-4 0 13 27.4979 27.8478 14
-4 0 13 23.7493 27.1816 18
-4 1 -10 21107 254.994 22
-4 -1 -9 8128.02 214.034 22
-4 1 -9 7983.03 216.942 22
-4 -1 -9 7524.99 189.644 26
-4 1 -9 7635.38 193.936 26
-4 -1 -9 7809.37 190.023 21
-4 -1 -8 12982.6 291.747 21
-4 -1 -8 12993 321.49 22
-4 1 -8 13105.8 322.687 22
-4 1 -8 12522.1 300.89 26
-4 -1 -7 27253.6 456.242 21
-4 1 -7 27339.6 499.752 22
-4 -1 -6 4192.63 184.99 21
-4 1 -6 3668.27 190.073 22
-4 -1 -5 22181 550.432 2
-4 -1 -5 22832.8 626.024 5
-4 1 -5 23048.1 616.22 5
-4 -1 -5 23750.4 423.289 21
-4 1 -4 53087.4 866.287 5
-4 -1 -4 50316 759.346 2
-4 -1 -4 52246.6 885.759 5
-4 -1 -3 79006.8 1006.54 5
-4 -1 -3 80023.2 871.655 2
-4 1 -3 82045.6 989.391 5
-4 -1 -2 25654.4 527.97 5
-4 -1 -2 25697.2 445.599 2
-4 1 -2 25618.9 505.102 5
-4 -1 -1 36647.2 473.686 2
-4 -1 -1 36095.9 576.476 5
-4 1 -1 35425.6 536.773 5
-4 -1 0 56708.6 659.308 5
-4 1 0 56966.3 604.829 5
-4 -1 0 57677.6 473.709 6
-4 1 0 56259.5 688.778 9
-4 -1 0 57676.8 529.433 2
-4 1 1 11799.7 308.078 9
-4 -1 1 12065.7 282.9 5
-4 -1 1 12241.4 225.075 2
-4 1 1 11604.7 240.024 5
-4 1 2 63632.8 459.991 5
-4 -1 2 63175.5 494.347 2
-4 -1 3 48461.5 569.865 9
-4 1 3 47168 617.152 9
-4 1 4 7855.17 261.108 9
-4 -1 4 7600.16 220.412 9
-4 1 5 21224 446.473 9
-4 -1 5 20595.7 453.104 8
-4 -1 5 20525.8 355.107 9
-4 1 6 105033 1109.41 8
-4 1 6 103429 1018.79 9
-4 -1 6 105631 1109.89 8
-4 -1 7 758.09 109.43 8
-4 1 7 931.479 105.729 9
-4 1 7 861.654 115.198 8
-4 1 8 106230 911.967 28
-4 1 8 105613 1275.73 8
-4 -1 8 104638 1291.09 8
-4 1 9 13274.9 330.27 28
-4 1 9 12182.1 465.776 8
-4 -1 9 12804.3 482.462 8
-4 1 10 16857 361.601 28
-4 -1 10 16170.8 355.128 14
-4 -1 11 1412.33 105.897 14
-4 1 11 1382.85 119.042 14
-4 -1 12 39064.8 456.363 14
-4 1 12 38999.7 520.074 14
-4 -1 12 39619.9 525.437 23
-4 1 13 6761.32 178.506 23
-4 1 13 6808.1 180.126 14
-4 -1 13 6851.37 146.447 14
-4 -1 13 6986.55 186.112 23
-4 -1 13 6839.89 176.291 18
-4 2 -10 6065.59 126.227 22
-4 2 -9 3509.37 139.159 22
-4 -2 -9 3661.51 129.333 21
-4 2 -9 3650.02 127.182 26
-4 -2 -9 3442.95 129.495 22
-4 -2 -8 20975.1 388.613 22
-4 2 -8 21439.8 379.764 26
-4 2 -8 21618.9 398.664 22
-4 -2 -8 21497.9 374.208 21
-4 2 -7 49556.4 635.908 26
-4 -2 -7 48119 618.309 21
-4 2 -7 49271.9 653.549 22
-4 -2 -6 40557.1 588.032 21
-4 2 -6 41456.3 612.228 22
-4 2 -5 33108.1 739.036 5
-4 -2 -5 33247.6 524.608 21
-4 -2 -5 33107.9 711.06 2
-4 -2 -5 34018 784.042 5
-4 2 -5 34182.8 545.66 22
-4 2 -4 72019.1 756.491 22
-4 -2 -4 76577.1 1112.52 5
-4 -2 -4 71590.2 985.416 2
-4 2 -4 75991.4 1044.41 5
-4 2 -3 103368 1121.41 5
-4 -2 -3 104420 1094.21 2
-4 2 -3 105682 1036.83 9
-4 2 -2 163195 1291.69 5
-4 -2 -2 162720 1410.91 5
-4 2 -2 164012 1253.29 9
-4 -2 -2 166316 1265.8 2
-4 -2 -1 101920 914.288 2
-4 -2 -1 102511 1040.56 5
-4 2 -1 105478 979.951 9
-4 2 -1 103682 929.433 5
-4 -2 0 261461 1548.88 5
-4 -2 0 264743 1377.37 2
-4 2 0 262498 1315.48 5
-4 -2 1 14494.1 309.981 2
-4 -2 1 14467.7 313.308 6
-4 2 1 14366.4 356.364 9
-4 -2 2 26406.7 411.115 2
-4 2 2 25422.8 483.027 9
-4 2 3 74660.8 849.046 9
-4 -2 3 76966.7 760.254 8
-4 2 4 32656.1 583.99 9
-4 -2 4 32275.3 527.951 8
-4 -2 5 19066.5 443.281 8
-4 2 5 19512.3 468.581 9
-4 2 6 5185.23 253.561 9
-4 -2 6 5771.1 267.023 8
-4 2 6 5100.73 252.03 8
-4 -2 7 21098.1 549.542 8
-4 2 7 20224.3 521.68 9
-4 2 7 20646.6 528.807 8
-4 2 8 25346 603.085 9
-4 2 8 24747.8 616.467 8
-4 -2 8 25022.3 640.668 8
-4 2 8 24003.9 465.683 28
-4 -2 9 59807.9 1035.06 8
-4 2 9 58550.3 735.688 28
-4 2 10 101119 939.579 28
-4 2 11 30074.9 511.563 14
-4 2 11 29665.9 467.855 28
-4 -2 12 19701.9 347.454 23
-4 2 12 19090.4 360.828 14
-4 -2 13 9145.42 193.904 23
-4 2 13 8560.14 171.419 23
-4 -2 13 8619.62 190.415 18
-4 2 13 8754.17 197.459 14
-4 3 -9 14919.8 253.204 22
-4 3 -9 14947.6 223.118 26
-4 -3 -9 14615 236.109 21
-4 3 -8 2299.63 120.791 26
-4 3 -8 2425.9 107.321 12
-4 3 -8 2352.45 129.27 22
-4 -3 -8 2317.58 123.616 21
-4 -3 -7 3008.75 158.701 21
-4 3 -7 2972.38 156.576 26
-4 3 -7 2997.61 146.36 12
-4 3 -7 2911.55 158.438 22
-4 -3 -6 18590.6 405.902 21
-4 3 -6 18154.6 385.851 12
-4 3 -6 18081.7 396.299 22
-4 3 -6 18210.3 398.917 26
-4 -3 -5 34567.8 771.308 2
-4 3 -5 36829.2 561.8 12
-4 3 -5 36968.3 571.352 26
-4 3 -5 37466.5 567.759 22
-4 3 -5 34474.1 759.181 5
-4 3 -4 155873 1528.11 5
-4 -3 -4 158162 1659.96 5
-4 3 -4 156516 1123.7 22
-4 -3 -4 154065 1558.01 2
-4 3 -4 157310 1151.29 26
-4 -3 -3 21123.9 580.775 5
-4 3 -3 21375.6 527.108 5
-4 3 -3 21125.9 407.847 26
-4 3 -3 21796.5 398.016 22
-4 -3 -3 21544.8 548.501 2
-4 -3 -2 180613 1484.34 2
-4 3 -2 182195 1363.72 9
-4 -3 -2 177399 1588.71 5
-4 3 -2 180667 1408.06 5
-4 3 -2 183478 1405.46 1
-4 -3 -1 58417.6 795.312 2
-4 -3 -1 59231.3 859.487 5
-4 3 -1 60100.5 738.641 5
-4 -3 -1 58959 724.443 6
-4 3 -1 59462.6 777.428 9
-4 3 0 723.44 92.4462 9
-4 -3 0 936.271 103.738 2
-4 -3 1 67321.5 791.083 2
-4 -3 1 67978.6 787.961 6
-4 3 1 66586.9 831.133 9
-4 -3 2 114300 1017.48 2
-4 3 2 113685 1109.6 9
-4 -3 2 113499 1038.46 6
-4 -3 3 12115.1 355.471 6
-4 -3 3 11434.9 294.82 8
-4 3 3 11730.5 371.493 9
-4 -3 4 51934.2 683.16 8
-4 3 4 52185.8 805.076 9
-4 3 5 3937.77 234.101 9
-4 -3 5 3820.43 205.827 8
-4 3 6 171873 1590.56 9
-4 -3 6 175915 1485.45 8
-4 3 6 173869 1467.01 8
-4 3 7 71761.9 787.876 15
-4 3 7 71632 1075.37 9
-4 3 8 48387.7 914.646 9
-4 -3 8 49105.2 897.707 8
-4 3 8 48117.3 694.888 28
-4 3 8 48938.6 654.695 15
-4 3 9 1970.19 133.474 15
-4 3 9 1762.84 141.383 28
-4 3 10 25425.3 485.733 28
-4 -3 10 27110.6 448.134 23
-4 -3 11 904.492 84.9607 23
-4 3 11 1147.17 100.178 28
-4 3 11 925.496 95.7786 14
-4 3 12 30257.1 419.996 14
-4 -3 12 30699.8 382.604 23
-4 -3 12 30206.3 405.849 18
-4 3 12 30324.4 349.846 23
-4 3 13 15384.5 226.967 14
-4 -3 13 15365.7 220.996 24
-4 -3 13 14616.5 195.244 23
-4 -3 13 15416.3 223.27 18
-4 -4 -9 11311.9 169.106 21
-4 4 -9 13068.4 194.898 22
-4 4 -8 2364.49 93.3561 12
-4 4 -8 2417.92 114.656 22
-4 -4 -8 2318.79 112.027 21
-4 -4 -8 2049.64 93.8305 22
-4 4 -8 2316.74 107.931 26
-4 4 -7 22252.2 362.863 12
-4 4 -7 22945.7 391.974 22
-4 4 -7 22742.2 388.547 26
-4 -4 -7 23358.3 407.106 21
-4 4 -6 4915.59 197.35 12
-4 4 -6 4760.71 200.191 26
-4 4 -6 4964.2 200.795 22
-4 -4 -6 4935.37 209.83 21
-4 4 -6 4738.48 180.664 27
-4 4 -5 26138 476.871 26
-4 4 -5 25549.3 464.977 12
-4 4 -5 25818.1 458.452 22
-4 -4 -4 47610.7 946.52 5
-4 -4 -4 46187.7 908.699 2
-4 4 -4 48670.3 620.562 22
-4 4 -4 48318.3 649.589 26
-4 4 -4 49589.7 653.099 12
-4 4 -4 47594.3 864.95 5
-4 -4 -3 26170.8 682.472 5
-4 4 -3 25289.7 436.278 22
-4 4 -3 25786.2 466.541 26
-4 4 -3 25363.5 602.726 5
-4 4 -3 25513.1 465.585 12
-4 -4 -3 24360.6 637.023 2
-4 4 -2 39963.7 700.628 5
-4 4 -2 38529.9 550.243 26
-4 -4 -2 37481.8 781.744 5
-4 4 -2 39607.3 565.193 12
-4 -4 -2 39112.3 769.426 2
-4 4 -2 39281.6 744.128 1
-4 4 -1 47684.4 593.525 12
-4 -4 -1 47856.2 757.708 6
-4 4 -1 47941.9 704.19 5
-4 -4 -1 46209.5 833.164 5
-4 4 -1 48304.7 747.665 9
-4 4 -1 46785.3 805.018 1
-4 -4 -1 47244.1 806.353 2
-4 -4 0 25704 558.913 6
-4 -4 0 25678.8 577.425 2
-4 4 0 25179.3 546.541 9
-4 4 1 80194.6 992.981 9
-4 -4 1 82213.8 989.522 6
-4 -4 1 80056.7 996.59 2
-4 4 2 44013.3 752.337 9
-4 -4 2 45253.2 738.264 2
-4 -4 2 43754.8 734.986 6
-4 4 3 953.213 120.958 9
-4 -4 3 817.029 109.594 6
-4 4 4 34721.6 715.085 9
-4 -4 4 34564.2 687.542 6
-4 -4 5 20636.1 557.068 6
-4 4 5 20961 579.27 9
-4 -4 6 15732.9 449.324 8
-4 -4 6 16356.1 519.102 6
-4 4 6 17012.3 398.98 15
-4 4 6 16468.1 541.489 9
-4 4 7 39233.8 858.155 9
-4 -4 7 39254.7 758.832 8
-4 4 7 39035.2 611.396 15
-4 -4 7 40767.7 843.473 6
-4 4 8 72047.6 821.758 15
-4 4 8 73644.4 868.254 28
-4 4 9 11337 340.487 28
-4 4 9 11659.8 318.839 15
-4 -4 10 19033.1 331.932 23
-4 4 10 18521.6 405.843 28
-4 4 10 18236.9 378.379 14
-4 4 10 17649.7 347.935 15
-4 4 11 15166.9 323.28 28
-4 4 11 15728 311.016 14
-4 -4 11 15362.9 264.168 23
-4 -4 11 15596.2 298.518 18
-4 -4 12 8408 189.468 24
-4 -4 12 8522.24 183.61 18
-4 4 12 8508.58 184.956 14
-4 -5 -8 143.955 32.8764 21
-4 5 -8 174.415 31.0103 26
-4 5 -8 172.06 32.2617 22
-4 5 -7 11098.3 240.765 26
-4 5 -7 11304.1 236.853 22
-4 5 -7 11185.4 225.033 12
-4 -5 -7 10924.6 248.943 21
-4 -5 -6 5924.22 212.283 21
-4 5 -6 5831.18 196.081 12
-4 5 -6 5968.65 205.062 26
-4 5 -6 5951.64 196.69 22
-4 5 -5 8807.43 248.751 27
-4 5 -5 9298.94 274.312 26
-4 5 -5 8966.14 266.729 12
-4 5 -5 9061.42 257.673 22
-4 5 -4 5742.36 210.736 22
-4 5 -4 6247.91 228.086 27
-4 5 -4 5774.25 226.416 26
-4 5 -4 6108.04 232.582 12
-4 5 -3 628.57 83.8729 27
-4 5 -3 719.2 91.0897 12
-4 5 -3 653.36 84.9967 26
-4 5 -3 828.313 87.2226 22
-4 -5 -2 13433.3 487.971 2
-4 -5 -2 14045.5 505.307 5
-4 5 -2 14141.5 353.804 27
-4 5 -2 14325.3 349.225 26
-4 5 -2 14348.1 351.668 12
-4 5 -1 2996.33 230.413 1
-4 -5 -1 2892.58 220.011 6
-4 -5 -1 2954.7 232.702 2
-4 5 -1 3061.11 165.78 12
-4 5 -1 2750.84 155.764 26
-4 5 -1 3022.98 169.27 27
-4 -5 -1 3393.83 249.285 5
-4 -5 0 46487.8 867.775 2
-4 5 0 47217.3 637.936 27
-4 5 0 46143.5 601.688 12
-4 5 0 48698.2 804.517 9
-4 5 0 46565 596.051 26
-4 -5 0 46560.7 839.596 6
-4 5 1 16762 352.902 12
-4 5 1 17777 357.633 26
-4 5 1 17293.2 495.657 9
-4 5 1 17198.5 385.023 27
-4 -5 1 17111.5 517.96 2
-4 -5 1 17068.4 510.18 6
-4 5 2 62681.2 964.872 9
-4 5 2 61188.3 718.266 27
-4 -5 2 60923.4 964.245 6
-4 -5 3 30974.5 689.861 2
-4 -5 3 31275.9 703.868 6
-4 5 3 30359 694.547 9
-4 5 3 30279.4 504.371 27
-4 5 4 81321 823.162 27
-4 -5 4 79841.2 1149.97 6
-4 5 5 23820 664.755 9
-4 5 5 24082.5 445.925 27
-4 -5 5 24266.1 651.813 6
-4 5 5 24231.5 480.636 15
-4 5 6 28781.8 532.245 15
-4 5 6 28359.4 746.149 9
-4 -5 6 29106.5 723.478 6
-4 5 7 27354.7 516.416 15
-4 5 7 27675.5 525.635 28
-4 5 8 37565.1 605.119 28
-4 5 8 36431.8 577.433 15
-4 5 9 3550.9 159.303 14
-4 5 9 3698.05 186.446 28
-4 -5 9 3681.63 151.937 18
-4 5 9 3638.17 175.599 15
-4 5 10 11481.6 262.592 15
-4 5 10 12401.7 301.797 28
-4 5 10 11596.8 252.695 14
-4 -5 10 11805.9 244.226 18
-4 -5 11 541.932 55.1186 24
-4 -5 11 479.91 47.3661 18
-4 5 11 534.633 51.0883 15
-4 5 11 548.177 49.6992 14
-4 -6 -7 6040.27 145.689 21
-4 6 -7 5692.78 124.179 22
-4 6 -7 5787.04 118.997 12
-4 6 -6 1909.03 102.726 26
-4 6 -6 1678.99 87.0367 22
-4 6 -6 1942.5 98.6578 12
-4 -6 -6 1868.05 105.295 21
-4 6 -5 4420.04 173.303 26
-4 6 -5 4234.95 149.959 27
-4 6 -5 4298.11 152.412 22
-4 6 -5 4258.23 168.323 12
-4 6 -4 8132.14 220.787 22
-4 6 -4 7690.86 230.189 27
-4 6 -4 8054.25 249.817 26
-4 6 -4 8189.92 250.069 12
-4 6 -3 15337.4 349.154 27
-4 6 -3 15219 353.722 26
-4 6 -3 15923.8 362.65 12
-4 6 -2 2658.41 158.161 27
-4 6 -2 2698.68 155.602 26
-4 6 -2 2723.94 157.92 12
-4 6 -1 4665.28 202.268 12
-4 6 -1 4629.55 199.829 26
-4 6 -1 4593.55 208.091 27
-4 6 0 16471.3 369.316 12
-4 6 0 17168.8 374.061 26
-4 6 0 17673.2 404.272 27
-4 6 1 62158.5 699.266 12
-4 6 1 64184.2 766.76 27
-4 6 1 63873.8 696.324 15
-4 6 2 38513.3 530.593 12
-4 6 2 37272 556.102 15
-4 6 2 36467 581.127 27
-4 6 3 2935.61 166.321 15
-4 6 3 2837.23 166.816 27
-4 6 4 11551.5 327.767 15
-4 6 4 11744.6 325.117 27
-4 6 5 20778.7 441.841 15
-4 6 5 21423.5 428.69 27
-4 6 5 21160.4 428.921 28
-4 6 6 72761.9 819.511 15
-4 6 6 74369.9 745.355 27
-4 6 6 71538.4 790.321 28
-4 6 7 12980.2 335.648 28
-4 6 7 13084.9 342.619 15
-4 6 8 15352.7 347.786 28
-4 6 8 15009.7 344.847 15
-4 -6 8 15650.2 292.11 24
-4 6 9 13477.3 291.445 15
-4 -6 9 13141.7 248.941 24
-4 6 9 12990.4 291.73 28
-4 6 10 2200.78 98.9692 15
-4 -6 10 2244.57 90.1643 24
-4 6 10 2304.69 109.555 28
-4 -6 10 2215.82 100.784 11
-4 -6 11 10132.7 157.849 11
-4 7 -6 3338.52 95.8018 26
-4 -7 -6 3104.05 94.6455 21
-4 7 -5 1935.32 92.3294 12
-4 -7 -5 1917.74 96.1308 21
-4 7 -5 1986.33 94.9806 26
-4 7 -4 3085.32 119.349 27
-4 7 -4 3291.33 137.732 26
-4 7 -4 3167.58 135.77 12
-4 7 -3 4037.94 164.28 26
-4 7 -3 3941.43 158.065 27
-4 7 -3 4316.39 171.597 12
-4 7 -2 26616.1 435.424 12
-4 7 -2 25933.6 423.978 26
-4 7 -2 26480.8 434.761 27
-4 7 -1 15888.8 358.325 27
-4 7 -1 16170.6 346.29 12
-4 7 -1 15707.7 337.716 26
-4 7 0 26084.8 434.475 26
-4 7 0 26622.1 442.731 12
-4 7 0 26810.9 477.057 27
-4 7 1 9650.78 264.266 12
-4 7 1 9308.47 288.354 27
-4 7 1 9737.2 264.011 26
-4 7 2 27599.9 493.332 27
-4 7 2 28326.3 432.182 12
-4 7 2 27152.7 432.672 15
-4 7 3 5833.19 212.137 15
-4 7 3 5942.05 231.143 27
-4 7 4 67023.6 716.281 15
-4 7 4 67574.5 742.558 27
-4 7 5 12650.5 315.037 15
-4 7 5 12685.1 307.073 27
-4 7 5 12217.6 281.191 28
-4 7 6 10074.1 253.515 28
-4 7 6 10842.9 258.502 27
-4 7 6 10402 278.411 15
-4 -7 6 10896.4 236.169 11
-4 7 7 7500.62 224.216 15
-4 7 7 7079.45 201.348 28
-4 -7 7 7320.57 190.228 11
-4 7 8 5488.92 175.585 15
-4 7 8 5508.51 161.656 28
-4 -7 8 5428.52 152.035 11
-4 7 9 6893.15 163.652 15
-4 -7 9 6696.84 144.707 11
-4 8 -4 16195.5 211.901 12
-4 8 -4 15727.2 209.898 26
-4 -8 -4 15911.9 215.536 21
-4 8 -3 15559.5 245.337 12
-4 8 -3 15186.3 239.662 26
-4 8 -2 6378 171.386 26
-4 8 -2 6396.45 173.165 12
-4 8 -2 6356.49 170.957 27
-4 8 -1 128.872 38.9248 12
-4 8 -1 230.753 44.5019 26
-4 8 -1 137.886 42.993 27
-4 8 0 4018.67 145.174 26
-4 8 0 4115.65 147.552 12
-4 8 0 4083.51 163.622 27
-4 8 1 22387.2 331.698 12
-4 -8 1 22300.3 324.816 25
-4 8 1 22258.4 383.618 27
-4 8 1 22143.9 328.58 26
-4 8 2 5774.3 200.23 27
-4 -8 2 5837.59 177.458 25
-4 8 3 11764 276.388 27
-4 -8 3 11613.6 238.311 16
-4 8 3 11320.7 224.828 15
-4 8 4 662.709 62.0973 15
-4 8 4 632.769 68.3653 27
-4 -8 4 592.723 62.7582 16
-4 8 5 2865.34 121.042 27
-4 8 5 2869.6 119.415 15
-4 8 6 2663.19 108.863 15
-4 8 6 2601.33 96.9633 27
-4 8 7 15137.8 228.5 15
-4 9 0 4474.21 114.334 27
-4 9 1 9940.28 181.579 27
-4 9 2 7627.15 161.961 27
-4 9 3 22515.4 265.112 27
-3 0 -10 46.0637 33.2949 22
-3 0 -10 41.7295 29.8612 21
-3 0 -9 13240.9 316.185 22
-3 0 -9 12405.1 284.13 26
-3 0 -9 13357.2 304.104 21
-3 0 -8 62.2483 46.4017 21
-3 0 -8 47.7345 53.5643 22
-3 0 -7 35458.1 795.485 5
-3 0 -7 35366.1 537.667 21
-3 0 -6 52.3969 54.5045 5
-3 0 -6 70.3713 46.673 2
-3 0 -6 0.62608 39.2646 21
-3 0 -5 89527.5 1109.19 5
-3 0 -5 90389 1020.3 2
-3 0 -4 45.2075 46.3919 5
-3 0 -4 19.6493 32.3596 2
-3 0 -3 232488 1282.01 2
-3 0 -3 232048 1478.91 5
-3 0 -2 796.377 85.7788 5
-3 0 -2 15.1737 24.2183 2
-3 0 -1 21146.4 360.652 5
-3 0 -1 20827.1 280.575 2
-3 0 0 39.0026 16.4983 2
-3 0 0 44.6882 29.1314 5
-3 0 1 72278.3 306.102 2
-3 0 1 77445.8 533.396 5
-3 0 2 11.8209 25.1249 9
-3 0 2 86.1139 22.0101 5
-3 0 3 105612 724.472 9
-3 0 4 17.6248 27.5364 9
-3 0 5 714083 2436.38 8
-3 0 5 716818 2027.94 9
-3 0 6 34.7927 29.4286 9
-3 0 6 60.6685 47.2975 8
-3 0 7 260292 1783.57 8
-3 0 8 21.8372 51.0788 8
-3 0 9 16103.9 522.502 8
-3 0 9 15508.2 363.706 14
-3 0 10 50.108 43.8465 14
-3 0 11 42942.2 592.383 14
-3 0 12 84.743 45.685 14
-3 0 12 62.3812 40.6795 18
-3 0 12 9.48492 44.717 23
-3 0 13 16779.3 273.878 14
-3 0 13 16618.7 288.361 23
-3 0 13 15950.4 241.412 18
-3 1 -10 13601.8 242.566 21
-3 -1 -10 13800.6 265.899 21
-3 -1 -10 13378.2 243.5 22
-3 1 -10 13695.1 264.072 22
-3 -1 -9 8124.77 244.242 21
-3 -1 -9 7569 234.527 22
-3 1 -9 7927.99 244.981 22
-3 1 -9 7891.52 224.496 21
-3 1 -9 7803.74 223.464 26
-3 1 -8 18678 408.214 22
-3 -1 -8 18588.5 396.891 21
-3 -1 -8 18891.5 407.827 22
-3 1 -8 18983.7 377.956 21
-3 1 -7 72152.1 1125.17 5
-3 1 -7 73345.7 817.447 22
-3 -1 -7 70114.1 1088.09 2
-3 -1 -7 72956.1 792.138 21
-3 -1 -7 72105.3 1137.59 5
-3 1 -7 73937.5 751.878 21
-3 -1 -6 18111.1 523.125 2
-3 1 -6 19009 371.812 21
-3 -1 -6 18360.8 388.644 21
-3 1 -6 19047.3 555.808 5
-3 1 -6 19497.2 413.307 22
-3 -1 -6 18855 559.422 5
-3 1 -5 25807.3 597.778 5
-3 -1 -5 24745.1 595.268 5
-3 -1 -5 25501.1 565.293 2
-3 -1 -4 18198.7 436.792 2
-3 -1 -4 17678.8 463.327 5
-3 1 -3 159859 1029.07 2
-3 -1 -3 155297 1133.39 2
-3 -1 -3 158934 1262.94 5
-3 1 -3 158214 1220.65 5
-3 1 -2 26033.1 445.329 5
-3 -1 -2 25408.5 460.7 5
-3 -1 -2 24400.4 400.089 2
-3 1 -2 25129.3 324.127 1
-3 1 -2 25217.4 349.443 2
-3 1 -1 138445 910.382 5
-3 -1 -1 136356 960.613 5
-3 -1 -1 139868 638.223 6
-3 -1 -1 136120 834.703 2
-3 -1 0 396337 1278.39 2
-3 -1 0 399216 1503.74 5
-3 1 1 305043 984.26 5
-3 -1 1 305025 1046.76 2
-3 1 2 4056.48 84.0057 5
-3 1 2 4222.9 158.116 9
-3 -1 3 16360.4 270.641 9
-3 1 3 17107.1 326.604 9
-3 -1 4 55782.1 481.713 9
-3 -1 4 55966.1 627.621 8
-3 -1 5 95318.7 904.762 8
-3 1 5 95545.6 852.279 9
-3 1 6 173713 1315.61 8
-3 -1 6 175442 1361.86 8
-3 1 6 176207 1213.46 9
-3 -1 7 82465.6 1023.68 8
-3 1 7 81967.4 880.39 9
-3 1 7 79849.6 986.593 8
-3 -1 8 19173.5 539.789 8
-3 1 8 18359.8 510.918 8
-3 1 9 125073 1411.76 8
-3 1 9 124027 998.123 28
-3 -1 9 120532 961.982 14
-3 -1 9 122388 1450.1 8
-3 1 10 2871.26 154.892 28
-3 -1 10 2767.83 153.469 14
-3 1 10 2836.23 169.89 14
-3 -1 11 8203.46 245.975 14
-3 1 11 8579.83 276.461 14
-3 -1 12 3422.14 156.758 18
-3 -1 12 3372.97 143.193 14
-3 1 12 3328.26 160.346 14
-3 1 12 3314.41 156.289 23
-3 -1 12 3557.52 165.257 23
-3 -1 13 3938.64 117.715 14
-3 -1 13 4025.66 143.1 23
-3 1 13 3925.79 140.055 14
-3 1 13 4008.23 135.132 23
-3 -1 13 3880.97 130.745 18
-3 2 -10 4972.78 130.137 21
-3 -2 -10 5272.26 161.037 21
-3 2 -10 5202.35 158.58 22
-3 2 -9 3518.49 140.916 21
-3 -2 -9 3496.06 151.536 22
-3 2 -9 3501.31 161.773 22
-3 -2 -9 3588.99 164.171 21
-3 2 -9 3334.93 142.173 26
-3 2 -8 106060 902.373 26
-3 2 -8 107474 844.246 21
-3 2 -8 106839 954.96 22
-3 2 -7 39217.8 598.725 22
-3 -2 -7 39529.7 601.728 21
-3 2 -7 38273.5 571.714 26
-3 2 -7 37621.9 529.434 12
-3 2 -6 67747.8 769.459 22
-3 -2 -6 66464.2 1047.11 2
-3 2 -6 66035 1041.21 5
-3 2 -6 69528.3 688.479 21
-3 -2 -6 68916.4 779.322 21
-3 -2 -6 66782.7 1066 5
-3 2 -5 103388 902.366 22
-3 2 -5 103559 1214.01 5
-3 -2 -5 101736 1246.09 5
-3 -2 -5 102303 1217.96 2
-3 2 -4 14879.7 427.3 5
-3 -2 -4 14663.3 424.362 2
-3 -2 -4 14931.4 445.089 5
-3 -2 -3 33138.1 613.954 5
-3 2 -3 33297.5 498.543 9
-3 2 -3 33979.7 586.707 5
-3 -2 -3 33067.7 578.606 2
-3 2 -3 32910.6 489.946 1
-3 2 -2 28952.8 451.668 1
-3 -2 -2 29969 533.543 5
-3 2 -2 29808.2 495.209 5
-3 2 -2 29717 457.971 9
-3 -2 -2 28983.4 494.171 2
-3 -2 -2 29666.8 409.894 6
-3 -2 -1 14308.2 320.094 2
-3 2 -1 14949.9 313.123 5
-3 -2 -1 14979.4 291.563 6
-3 2 -1 15419.5 321.192 9
-3 -2 0 212615 1087.7 6
-3 2 0 208646 1020.6 5
-3 -2 0 208989 1138.57 2
-3 2 0 213360 1176.42 9
-3 -2 1 26471.7 390.857 6
-3 2 1 26954.2 423.595 9
-3 -2 1 26662.4 395.175 2
-3 2 1 26919.7 305.5 5
-3 2 2 234898 1285.75 9
-3 -2 2 243298 1101.47 8
-3 2 3 74162.2 757.023 9
-3 -2 3 75508.4 671.983 8
-3 -2 4 1850.52 122.285 8
-3 2 4 1667.29 125.677 9
-3 2 5 63715.9 778.856 9
-3 -2 5 65288.4 773.957 8
-3 -2 6 47195.8 729.2 8
-3 2 6 48148.4 724.625 9
-3 2 6 47735.4 692.669 8
-3 2 7 63031.2 877.896 9
-3 2 7 64253.5 869.745 8
-3 -2 7 63495.3 925.136 8
-3 2 8 20073.7 418.651 28
-3 2 8 21274.6 534.727 8
-3 -2 8 20413.1 566.807 8
-3 2 8 19936.1 516.756 9
-3 2 9 1976.78 142.597 28
-3 -2 9 1910.24 191.833 8
-3 2 10 10226 316.061 14
-3 2 10 10448.7 308.412 28
-3 -2 11 14963.2 347.856 23
-3 2 11 15428.4 368.331 14
-3 2 12 35035.2 444.281 23
-3 2 12 36562.9 497.481 14
-3 -2 12 36643.3 482.651 23
-3 -2 12 36353.4 482.134 18
-3 -2 13 7659.58 176.69 18
-3 2 13 7594.57 183.897 14
-3 -2 13 7918.34 183.526 23
-3 -2 13 7454.77 165.76 24
-3 3 -10 6474.81 160.719 22
-3 -3 -10 6456.99 162.531 21
-3 3 -9 13304.1 289.845 22
-3 3 -9 12801.7 253.491 26
-3 -3 -9 13073.6 292.668 21
-3 3 -8 26718.4 462.276 22
-3 3 -8 26527.1 434.289 26
-3 3 -8 26554.2 388.253 21
-3 -3 -8 27149.7 479.163 21
-3 3 -7 41796.9 554.314 12
-3 3 -7 42354.1 609.632 22
-3 3 -7 42236.3 591.584 26
-3 -3 -7 42383.6 633.073 21
-3 3 -6 46581.5 609.299 12
-3 3 -6 47392.6 639.129 26
-3 3 -6 45639.1 880.941 5
-3 -3 -6 45263.8 914.595 2
-3 3 -6 45265.4 631.905 22
-3 -3 -6 44230.4 890.599 5
-3 -3 -6 45219.4 656.672 21
-3 3 -5 53167.1 642.077 12
-3 3 -5 54648.4 670.418 22
-3 3 -5 55043.7 672.273 26
-3 3 -5 55764.9 923.723 5
-3 -3 -5 54120.9 944.735 5
-3 -3 -5 54608.7 953.236 2
-3 -3 -4 32257.3 686.162 2
-3 3 -4 31513.5 646.988 5
-3 -3 -4 31600.8 686.507 5
-3 3 -4 32129.9 596.969 1
-3 3 -4 32572.6 493.528 26
-3 -3 -3 51960.2 808.325 2
-3 -3 -3 54142.6 843.137 5
-3 3 -3 52500 763.413 5
-3 3 -2 60325.7 771.064 1
-3 3 -2 60575.1 748.489 5
-3 -3 -2 60612.2 808.329 2
-3 -3 -2 60367.5 729.006 6
-3 -3 -2 58238 813.507 5
-3 3 -2 59479.4 675.397 9
-3 3 -1 103096 887.463 9
-3 -3 -1 106487 1014.43 2
-3 3 -1 104803 895.612 5
-3 -3 -1 107700 940.882 6
-3 3 0 69846.1 649.726 5
-3 -3 0 67885 772.252 2
-3 -3 0 67196.1 733.823 6
-3 3 0 67926.9 727.427 9
-3 3 1 269971 1485.3 9
-3 3 1 268447 1113.89 5
-3 -3 1 270542 1473.53 6
-3 -3 1 268119 1490.35 2
-3 3 2 6167.06 236.829 9
-3 -3 2 6406.31 179.381 8
-3 -3 2 6260.79 231.828 6
-3 -3 3 200076 1130.95 8
-3 3 3 193415 1366.14 9
-3 3 4 6255.33 262.178 9
-3 -3 4 6030.14 223.87 8
-3 3 5 9461.86 338.558 9
-3 3 5 9197.95 294.276 8
-3 -3 5 10086.6 318.488 8
-3 3 6 2825.81 200.56 9
-3 -3 6 3115.27 195.785 8
-3 3 6 3538.44 190.989 8
-3 -3 7 14180 447.511 8
-3 3 7 14660 474.851 9
-3 3 7 14403.8 361.057 28
-3 3 7 14349.8 343.969 15
-3 3 8 5375.91 233.552 28
-3 -3 8 5167.81 294.613 8
-3 3 8 5560.48 222.949 15
-3 3 8 5398.66 304.608 9
-3 3 9 22248.2 423.785 15
-3 3 9 20174.9 449.906 28
-3 3 10 15698 386.673 28
-3 -3 10 15728.3 354.339 23
-3 3 10 15763.5 379.994 14
-3 -3 11 41439.1 531.416 23
-3 -3 11 41006.6 551.203 18
-3 3 11 41205.4 566.223 14
-3 3 11 40512 562.525 28
-3 -3 12 7535.65 200.268 23
-3 -3 12 7761.28 209.47 18
-3 3 12 7785.26 214.213 14
-3 -3 13 4247.88 113.804 24
-3 -3 13 4256.43 112.99 23
-3 3 13 4432.88 121.804 14
-3 -3 13 4314.48 119.755 18
-3 -4 -10 13866.7 192.041 21
-3 4 -10 13869.3 190.514 22
-3 4 -9 14933.5 238.09 26
-3 4 -9 14707.1 272.342 22
-3 -4 -9 14635.6 279.316 21
-3 4 -8 15773.3 311.042 26
-3 -4 -8 16184 350.787 21
-3 4 -8 16017.2 335.384 22
-3 4 -7 17832.3 371.879 26
-3 4 -7 17509.9 379.238 22
-3 4 -7 17409.5 348.486 12
-3 -4 -7 17835.1 405.909 21
-3 4 -6 8361.29 262.619 12
-3 4 -6 8377.38 270.984 22
-3 4 -6 8635.82 274.862 26
-3 -4 -5 63177.1 1055.6 5
-3 4 -5 66226.2 751.758 26
-3 4 -5 65112.6 733.921 12
-3 -4 -5 64144.8 1095.12 2
-3 4 -5 62490.5 723.205 22
-3 4 -5 62448.9 1013.51 5
-3 4 -4 17803.8 386.664 26
-3 4 -4 17564.8 510.943 5
-3 -4 -4 17463 542.022 5
-3 4 -4 17837 508.377 1
-3 4 -4 17711.3 378.946 12
-3 -4 -4 17673.8 553.744 2
-3 4 -4 17190.2 367.739 22
-3 4 -3 45481.1 587.232 12
-3 -4 -3 44439.6 824.024 2
-3 -4 -3 44658.9 821.306 5
-3 4 -3 46054.5 593.223 26
-3 4 -3 44754.7 558.677 22
-3 4 -3 45221.2 758.528 5
-3 4 -2 17529 439.146 5
-3 -4 -2 18321.4 470.734 6
-3 -4 -2 17644.7 493.811 5
-3 4 -2 18045.7 489.176 1
-3 -4 -2 17458.5 491.9 2
-3 4 -1 94453.5 929.504 9
-3 -4 -1 91126.1 1078.27 2
-3 -4 -1 93939.3 1030.19 6
-3 4 -1 93538.1 932.773 5
-3 -4 0 22632.2 516.333 2
-3 -4 0 22634.8 501.497 6
-3 -4 1 38634.6 659.502 2
-3 4 1 38518.8 626.147 9
-3 -4 1 37607.3 639.308 6
-3 4 2 166441 1352.72 9
-3 -4 2 168625 1371.57 6
-3 -4 3 48113.8 747.19 6
-3 4 3 48501.9 760.443 9
-3 4 4 20868.5 525.432 9
-3 -4 4 21713.3 521.002 6
-3 -4 4 21755.9 425.489 8
-3 -4 5 98904.5 1011.61 8
-3 -4 5 100741 1172.75 6
-3 4 5 101267 1230.02 9
-3 -4 6 103418 1247.75 6
-3 4 6 105828 957.902 15
-3 -4 6 102130 1128.77 8
-3 4 6 107646 1329.74 9
-3 4 7 5043.49 226.715 28
-3 -4 7 5164.97 280.591 8
-3 -4 7 5159.11 296.741 6
-3 4 7 5307.75 226.907 15
-3 4 7 5386.77 318.713 9
-3 4 8 38911.4 631.047 28
-3 4 8 38205.9 595.681 15
-3 4 9 66818.1 755.363 14
-3 4 9 65482.9 750.708 15
-3 4 9 66767.1 820.043 28
-3 -4 10 22946 387.393 23
-3 4 10 22478.1 417.319 14
-3 4 10 21831.3 392.124 15
-3 -4 10 23513.8 416.449 18
-3 4 10 22967.9 456.234 28
-3 -4 11 3397.81 147.002 18
-3 -4 11 3436.23 136.69 23
-3 4 11 3392.16 146.306 14
-3 4 12 17787 262.393 14
-3 -4 12 17865.5 271.164 18
-3 -4 12 17324.7 247.685 11
-3 -4 12 17060.1 236.601 23
-3 -4 12 17320.4 273.385 24
-3 5 -9 38372.4 352.955 22
-3 -5 -9 37008.5 358.978 21
-3 5 -8 9668.96 227.494 22
-3 5 -8 9392.6 211.907 26
-3 -5 -8 9540 239.475 21
-3 5 -7 11077.7 276.964 22
-3 5 -7 10863.4 270.128 26
-3 5 -7 10299.5 249.109 12
-3 -5 -7 10976.5 296.919 21
-3 5 -6 3768.29 176.865 22
-3 5 -6 3911.33 180.608 26
-3 5 -6 3807.11 173.072 12
-3 5 -5 12733.2 327.827 12
-3 5 -5 12511.9 304.75 27
-3 5 -5 12818.6 333.398 26
-3 5 -5 12636.7 323.821 22
-3 5 -4 3783.85 186.235 12
-3 5 -4 3754.51 178.044 22
-3 -5 -4 3937.12 272.868 5
-3 5 -4 3855.16 187.515 26
-3 5 -4 3972.57 182.461 27
-3 5 -3 27089.6 453.475 22
-3 5 -3 27390.4 473.527 27
-3 -5 -3 26813.8 677.452 5
-3 5 -3 27041 480.019 12
-3 5 -3 25251.3 648.904 1
-3 -5 -3 26660.9 695.766 2
-3 5 -3 26781.5 478.907 26
-3 -5 -2 56006.3 927.876 6
-3 5 -2 55926.4 949.428 1
-3 -5 -2 56145.2 968.574 2
-3 5 -2 57543.6 685.419 27
-3 5 -2 57515 681.434 12
-3 5 -2 58136.7 632.069 22
-3 -5 -2 57146.3 959.813 5
-3 5 -2 56309.5 674.168 26
-3 -5 -1 58539.7 927.608 6
-3 5 -1 58505.5 681.65 27
-3 -5 -1 59466.5 970.186 2
-3 5 -1 56824.1 656.037 26
-3 5 -1 56829.4 946.287 1
-3 5 -1 57521.2 661.865 12
-3 -5 0 34792.8 720.598 2
-3 -5 0 34623.3 704.729 6
-3 5 0 35588 528.617 27
-3 5 0 34699.5 629.664 9
-3 5 1 202620 1589.05 9
-3 -5 1 205515 1727.32 2
-3 -5 2 7689.12 334.212 6
-3 5 2 7340.74 314.173 9
-3 -5 2 7525.56 330.112 2
-3 -5 3 95231.1 1184.97 6
-3 5 3 92257.7 1157.66 9
-3 5 3 93506.9 862.449 27
-3 5 4 55161.2 685.017 15
-3 5 4 55406.2 670.84 27
-3 5 4 54543.3 931.933 9
-3 -5 4 55503.7 927.27 6
-3 5 5 107040 1370.94 9
-3 5 5 105804 930.187 27
-3 -5 5 104802 1306.65 6
-3 5 6 5941.36 240.825 28
-3 -5 6 5996.72 322.514 6
-3 5 6 6349.12 253.289 15
-3 5 6 6288.89 354.92 9
-3 5 7 114014 1045.79 15
-3 5 7 115673 1062.06 28
-3 5 8 6365.21 255.396 28
-3 5 8 6362.76 247.4 15
-3 -5 8 6521.53 217.234 18
-3 5 8 6115.98 216.26 14
-3 5 9 2563.26 159.07 28
-3 -5 9 2317 129.407 18
-3 5 9 2243.87 126.963 14
-3 5 9 2464.8 148.177 15
-3 5 10 9872.65 274.291 28
-3 5 10 9742.6 247.036 15
-3 5 10 9458.18 225.341 14
-3 -5 10 9819.14 251.878 24
-3 -5 10 9567.12 232.534 18
-3 -5 11 5785.66 162.615 11
-3 5 11 5660.43 138.327 14
-3 -5 11 5791.02 166.875 24
-3 5 11 5432.99 137.599 15
-3 -5 11 5772.79 153.234 18
-3 -5 12 464.094 37.5964 24
-3 6 -8 9092.98 156.69 26
-3 6 -8 9178.52 170.739 22
-3 -6 -8 9287.83 183.213 21
-3 6 -7 15670.9 276.1 26
-3 6 -7 15601.5 272.526 22
-3 -6 -7 15926.5 301.876 21
-3 6 -7 15614.5 256.643 12
-3 6 -6 6385.52 200.096 12
-3 6 -6 6277.34 205.99 26
-3 6 -6 6267.65 198.128 22
-3 6 -5 4574.22 194.019 26
-3 6 -5 4615.99 183.053 22
-3 6 -5 4755.23 193.366 12
-3 6 -5 4343.26 166.46 27
-3 6 -4 39110.8 571.989 12
-3 6 -4 39499.9 577.207 26
-3 6 -4 39358.7 535.615 22
-3 6 -4 38148.7 533.699 27
-3 6 -3 55855 693.638 26
-3 6 -3 56130.6 679.632 27
-3 6 -3 56670.1 642.356 22
-3 6 -3 55359.1 693.143 12
-3 6 -2 21475.6 431.232 12
-3 6 -2 21416.3 431.798 26
-3 6 -2 21544.2 434.989 27
-3 6 -1 73497.4 803.993 27
-3 -6 -1 72172.9 1149.04 2
-3 -6 -1 70465.6 1119.31 6
-3 6 -1 72013 780.892 26
-3 6 -1 70051.3 768.952 12
-3 6 0 50253.6 643.684 12
-3 -6 0 51316 958.013 2
-3 -6 0 49315.1 929.749 6
-3 6 0 51148 677.882 27
-3 6 0 49140.8 943.52 1
-3 6 0 51074 648.306 26
-3 6 1 4000.26 183.962 26
-3 -6 1 4104.26 271.9 6
-3 6 1 4123.75 184.303 12
-3 -6 1 4176.03 278.886 2
-3 6 1 4111.11 200.061 27
-3 -6 2 75382.2 1145.57 2
-3 6 2 75185.7 1084.62 9
-3 6 2 77257.7 758.735 12
-3 6 2 78285.7 774.054 26
-3 6 2 77518.8 834.932 27
-3 6 2 75105 774.006 15
-3 -6 2 77014.2 1161.47 6
-3 -6 3 95203.6 1287.3 2
-3 -6 3 93248.2 1275.87 6
-3 6 3 93013.1 1253.49 9
-3 6 3 92867.7 891.191 15
-3 6 3 96376.2 937.847 27
-3 -6 4 24864.7 664.932 6
-3 6 4 24695.3 449.386 28
-3 6 4 24952 677.211 9
-3 6 4 25461.3 484.408 27
-3 6 4 25556.7 485.088 15
-3 6 5 25463.8 488.116 15
-3 6 5 24572.3 470.408 27
-3 6 5 25131.1 463.747 28
-3 6 6 21140.8 448.065 15
-3 6 6 21711.9 436.839 28
-3 6 6 21517.6 421.728 27
-3 -6 7 67562.6 679.627 24
-3 6 7 68690.8 792.907 15
-3 6 8 3021.01 161.502 28
-3 6 8 3049.84 165.248 15
-3 -6 8 3087.98 145.325 24
-3 6 9 30853.4 450.715 15
-3 -6 9 31214.9 417.167 24
-3 6 9 31021.9 457.92 28
-3 6 10 5897.36 164.079 15
-3 -6 10 5860.68 164.89 11
-3 -6 10 5770.98 157.354 24
-3 -6 11 340.981 35.3684 11
-3 -7 -7 1489.16 68.6573 21
-3 7 -7 1486.68 62.2724 26
-3 7 -6 19001.8 287.404 26
-3 7 -6 18788.3 273.705 12
-3 -7 -6 18261.1 297.056 21
-3 7 -6 17857.9 254.822 22
-3 7 -5 22911.7 365.582 26
-3 7 -5 23158.9 329.162 22
-3 7 -5 23575 363.042 12
-3 7 -4 21692.5 390.447 26
-3 7 -4 21735.6 386.471 12
-3 7 -4 21183.9 339.593 22
-3 7 -4 20873.5 345.671 27
-3 7 -3 4024.8 183.002 26
-3 7 -3 3901.48 169.731 27
-3 7 -3 4149.16 157.15 22
-3 7 -3 4174.97 185.609 12
-3 7 -2 2170.71 136.927 27
-3 7 -2 2172.87 140.006 26
-3 7 -2 2029.24 135.744 12
-3 -7 -1 39628.1 544.665 25
-3 7 -1 39293.9 578.852 27
-3 7 -1 38354.2 558.692 12
-3 7 -1 38946.5 564.697 26
-3 7 0 37793.9 556.11 26
-3 7 0 37456.5 580.401 27
-3 7 0 37010.2 550.164 12
-3 7 1 64684.7 718.927 26
-3 7 1 63885.3 706.337 12
-3 7 1 63407.2 757.449 27
-3 7 2 4075.66 177.44 12
-3 7 2 3742.01 192.767 27
-3 7 2 4039.71 181.163 26
-3 7 2 3807.02 170.719 15
-3 7 3 13086.6 322.864 15
-3 7 3 13127.5 350.472 27
-3 7 4 2632.08 152.84 15
-3 7 4 2512.65 156.881 27
-3 7 5 65611.7 729.652 27
-3 7 5 64504.5 723.06 15
-3 -7 5 66273.2 637.624 11
-3 7 6 1367.07 105.276 27
-3 7 6 1560.51 119.127 15
-3 7 6 1366.1 100.627 28
-3 -7 6 1379.39 97.9885 11
-3 -7 7 8795.52 226.635 11
-3 7 7 8773.82 229.283 28
-3 7 7 9291.6 259.392 15
-3 -7 8 4173.19 146.403 11
-3 7 8 4191.75 146.304 28
-3 7 8 4133.57 160.288 15
-3 7 9 4398.66 138.537 15
-3 -7 9 4213.65 127.573 11
-3 8 -5 66.6744 28.3381 26
-3 8 -5 59.9827 26.3172 12
-3 -8 -5 29.8476 24.6171 21
-3 8 -4 9439.16 203.884 12
-3 8 -4 9915.76 210.426 26
-3 8 -3 11781.1 230.48 27
-3 8 -3 11562 251.738 26
-3 8 -3 12335.1 258.066 12
-3 8 -2 48981.1 530.246 27
-3 8 -2 49609.5 545.255 26
-3 8 -2 48516.3 539.255 12
-3 8 -1 14148.6 302.2 26
-3 8 -1 13352.5 300.219 27
-3 8 -1 14394.7 303.302 12
-3 -8 -1 13969.3 275.359 25
-3 -8 0 2130.77 121.159 25
-3 8 0 2209.96 124.275 12
-3 8 0 2135.95 122.693 26
-3 8 0 2139.9 131.256 27
-3 8 1 4349.7 170.422 26
-3 -8 1 4439.24 158.518 16
-3 8 1 4468.9 190.624 27
-3 -8 1 4345.92 174.144 25
-3 8 1 4383.52 167.815 12
-3 -8 2 28715.5 419.592 16
-3 8 2 28805.8 468.682 27
-3 8 2 28871.9 413.823 26
-3 8 2 28354.6 397.386 12
-3 8 3 9247.86 264.361 27
-3 8 3 9160.87 220.655 15
-3 -8 3 9427.85 248.452 16
-3 8 4 8357.29 216.295 15
-3 8 4 8596.51 244.078 27
-3 8 5 6850.23 193.236 15
-3 8 5 6939.58 205.464 27
-3 8 6 867.902 72.0721 15
-3 8 6 859.463 67.1466 27
-3 -8 7 1557.49 85.0586 16
-3 8 7 1407.79 80.2166 15
-3 -8 7 1441.02 65.3992 11
-3 -8 8 6385.91 132.324 16
-3 8 8 6819.28 137.405 15
-3 9 -2 6458.83 137.632 12
-3 9 -2 6432.19 138.07 26
-3 9 -1 17655.5 242.807 26
-3 9 -1 17611.5 243.159 27
-3 9 -1 16995.8 238.696 12
-3 9 0 67747.3 480.094 26
-3 9 0 68664.9 475.775 12
-3 9 1 2002.54 99.2698 27
-3 9 1 1827.06 80.7931 26
-3 -9 1 1924.3 87.6656 25
-3 9 1 1961.36 80.7817 12
-3 -9 2 10867.5 207.196 25
-3 9 2 10493.6 220.175 27
-3 -9 2 10221.3 169.735 16
-3 -9 3 7719.24 175.67 25
-3 -9 3 7781.66 158.323 16
-3 9 3 8254.8 188.265 27
-3 9 4 11748.9 205.799 27
-3 -9 4 11409.4 204.48 25
-3 -9 4 11591.4 192.14 16
-3 -9 5 2435.86 83.2653 16
-3 -9 5 2377.16 87.0788 25
-2 0 -11 121.74 38.1203 21
-2 0 -10 52421.3 611.471 21
-2 0 -10 49416.7 552.354 22
-2 0 -9 13.21 42.9911 21
-2 0 -9 14.3263 40.8032 22
-2 0 -8 38201.1 804.077 5
-2 0 -8 39438.4 587.458 21
-2 0 -8 39730.5 588.364 22
-2 0 -7 16.6535 58.2875 5
-2 0 -7 -26.0645 57.4843 2
-2 0 -7 -18.2339 45.5497 21
-2 0 -6 114280 1212.5 2
-2 0 -6 113139 1225.62 5
-2 0 -5 154.281 53.9773 2
-2 0 -5 28.8728 41.0645 5
-2 0 -4 140915 1122.64 5
-2 0 -4 144912 1071.88 2
-2 0 -3 48.9208 34.3434 2
-2 0 -3 9.83939 36.3265 5
-2 0 -3 59.4368 16.6223 1
-2 0 -2 578636 952.669 1
-2 0 -2 576571 1608.55 2
-2 0 -2 580307 1797.55 5
-2 0 -1 43.1849 12.0385 1
-2 0 -1 36.8235 20.2626 2
-2 0 0 649886 1021.41 2
-2 0 0 644351 1406.95 5
-2 0 2 662907 1450.55 9
-2 0 3 73.8377 24.7425 9
-2 0 4 4996.21 141.509 9
-2 0 4 5195.2 175.979 8
-2 0 5 70.9244 29.8218 9
-2 0 5 13.7004 43.8112 8
-2 0 6 180486 961.058 9
-2 0 6 172820 1268.7 8
-2 0 7 38.3372 31.7086 4
-2 0 7 26.729 41.9329 8
-2 0 8 491172 2598.77 8
-2 0 9 40.3378 59.9713 8
-2 0 9 154.516 59.8524 14
-2 0 10 56249.8 702.151 14
-2 0 11 22.3074 48.2624 14
-2 0 11 16.5976 50.3637 23
-2 0 12 40543 525.776 23
-2 0 12 40038.4 476.097 18
-2 0 13 55.0685 29.0978 14
-2 0 13 57.5208 27.8114 23
-2 1 -11 8216.33 174.908 22
-2 1 -11 8577.9 195.889 21
-2 -1 -11 8677.52 208.199 21
-2 -1 -10 2905.48 129.763 22
-2 1 -10 3269.82 147.829 22
-2 1 -10 2913.72 143.578 21
-2 -1 -10 3094.04 156.219 21
-2 -1 -9 12042.2 307.115 22
-2 1 -9 12638.4 319.103 21
-2 1 -9 12504.7 320.222 22
-2 -1 -9 12776.7 337.629 21
-2 1 -8 20887.5 431.051 22
-2 -1 -8 20905.7 437.991 21
-2 1 -8 20519.2 415.567 21
-2 1 -7 4822.03 279.291 5
-2 1 -7 4886.74 201.514 21
-2 -1 -7 4863.38 210.32 21
-2 -1 -7 4987.9 293.149 2
-2 1 -7 4879.76 207.562 22
-2 -1 -7 5459.38 297.174 5
-2 -1 -6 70333.3 978.389 2
-2 1 -6 71514 983.333 5
-2 -1 -6 69744.9 971.045 5
-2 1 -5 150845 1303.26 5
-2 -1 -5 150263 1306.84 5
-2 -1 -5 153385 1309.76 2
-2 1 -4 157306 1202.55 5
-2 -1 -4 157900 1190.59 2
-2 1 -4 158781 1106.39 2
-2 1 -4 156069 911.995 1
-2 1 -3 16044.5 307.715 2
-2 -1 -3 15726.5 346.211 5
-2 -1 -3 16091.1 338.392 2
-2 -1 -3 16580.1 241.019 6
-2 1 -3 16101.9 345.668 5
-2 1 -3 15035.4 257.023 1
-2 -1 -2 14411 279.491 2
-2 -1 -2 14847.3 212.099 6
-2 1 -2 14739.5 236.578 1
-2 1 -2 15150.4 252.797 2
-2 1 -2 14710.5 290.539 5
-2 1 -1 135121 757.417 5
-2 -1 -1 136363 808.385 5
-2 -1 -1 133244 740.24 2
-2 -1 -1 132764 606.837 6
-2 1 0 955944 1963.56 9
-2 -1 0 968359 1643.15 6
-2 1 2 35913.8 389.785 9
-2 -1 3 18449.7 296.965 8
-2 1 3 18192.8 296.122 9
-2 -1 3 17979.9 205.279 9
-2 -1 4 261226 1268.05 8
-2 -1 4 263839 736.358 9
-2 1 4 257284 1193.18 9
-2 1 4 253981 1212.53 8
-2 -1 5 102698 905.867 8
-2 1 5 101823 848.443 8
-2 1 5 100147 805.931 9
-2 1 6 217300 1391.97 8
-2 -1 6 219029 1474.02 8
-2 1 6 215736 1285.53 9
-2 -1 7 11676.8 378.289 8
-2 1 7 11878.1 322.936 9
-2 1 7 11581.7 356.912 8
-2 -1 8 2245.83 187.225 8
-2 1 8 2326.79 177.275 8
-2 1 8 2318.38 175.262 4
-2 1 9 1406.45 121.4 14
-2 -1 9 1395.37 114.088 14
-2 1 9 1510.89 120.145 28
-2 -1 9 1281.01 162.183 8
-2 1 9 1398.93 156.649 8
-2 -1 10 63510.6 711.904 14
-2 1 10 64564.3 773.218 14
-2 1 11 16429 364.421 23
-2 -1 11 16974.5 382.612 23
-2 -1 11 16641.9 351.819 14
-2 1 11 17097.3 384.262 14
-2 -1 11 16833.8 370.743 18
-2 1 12 25077 395.391 23
-2 1 12 26161.6 425.174 14
-2 -1 12 25354.1 397.269 18
-2 -1 12 25547.4 384.463 14
-2 -1 12 25469.5 418.142 23
-2 -1 13 1178.11 66.5367 14
-2 1 13 1102.87 66.6293 23
-2 -1 13 1089.8 74.5506 23
-2 1 13 1130.9 76.0759 14
-2 -1 13 1028.06 65.7218 18
-2 2 -11 8247.86 173 21
-2 -2 -11 8636.19 198.322 21
-2 2 -11 8198.47 170.655 22
-2 2 -10 36734.3 474.968 22
-2 -2 -10 37343.5 511.805 21
-2 2 -10 37306.6 465.565 21
-2 2 -9 34706.6 503.621 21
-2 2 -9 34559.2 526.022 22
-2 -2 -9 35615.3 560.98 21
-2 2 -9 33779 464.043 26
-2 -2 -9 33331.3 479.035 22
-2 -2 -8 22885.8 468.714 21
-2 2 -8 21631.2 411.233 26
-2 2 -8 22010.8 419.091 21
-2 2 -8 21683.7 438.251 22
-2 2 -7 12889.8 463.017 5
-2 -2 -7 12761.6 477.58 2
-2 2 -7 13217.2 339.852 22
-2 2 -7 12944.9 321.014 26
-2 2 -7 12765.6 314.735 21
-2 -2 -7 12540.8 450.265 5
-2 -2 -7 12992.7 349.691 21
-2 -2 -6 27818.3 483.903 21
-2 2 -6 27859.1 438.603 21
-2 2 -6 25995.9 611.666 5
-2 2 -6 28362.6 474.111 22
-2 -2 -6 27903.6 657.636 2
-2 -2 -6 27091.9 618.55 5
-2 2 -5 15198.2 431.54 5
-2 -2 -5 15269.7 433.919 5
-2 -2 -5 15622.1 452.189 2
-2 2 -5 16380.2 383.905 1
-2 -2 -4 29205 447.117 6
-2 2 -4 27689.6 461.228 1
-2 -2 -4 27762.2 536.443 5
-2 2 -4 28709.9 534.188 5
-2 -2 -4 29248 556.666 2
-2 -2 -3 2385.9 123.993 6
-2 2 -3 1851.64 128.152 5
-2 2 -3 1911.81 101.542 9
-2 -2 -3 2151.45 141.311 2
-2 -2 -3 2404.62 148.827 5
-2 2 -2 18228.7 343.724 5
-2 2 -2 18300.5 337.246 1
-2 2 -2 19413.7 303.532 9
-2 -2 -2 18281.1 366.733 5
-2 -2 -2 18302.1 317.964 6
-2 -2 -2 19020.8 367.565 2
-2 2 -1 178614 942.392 5
-2 -2 -1 173071 1016.35 2
-2 2 -1 181580 909.448 9
-2 -2 -1 172781 933.988 6
-2 2 0 267948 1113.49 9
-2 -2 0 268505 1133.8 6
-2 -2 0 265355 1185.54 2
-2 2 1 124358 569.696 5
-2 -2 1 126341 598.402 8
-2 2 1 125034 792.593 9
-2 -2 1 126367 786.916 6
-2 2 2 467137 1624.03 9
-2 -2 2 471507 1359.7 8
-2 -2 3 34773.6 249.296 9
-2 2 3 34119.1 467.647 9
-2 -2 4 161822 1051.43 8
-2 2 4 166466 1105.06 9
-2 2 5 1034.31 89.276 8
-2 2 5 1040.84 101.414 9
-2 -2 5 1026.98 103.342 8
-2 2 6 79496.2 899.602 9
-2 -2 6 80616.8 926.064 8
-2 2 7 179400 1348.08 8
-2 2 7 175057 1423.14 9
-2 -2 7 175131 1506.26 8
-2 2 8 51242.7 659.429 28
-2 -2 8 49233.7 868.465 8
-2 2 8 50486.9 801.01 9
-2 2 9 61080 746.472 28
-2 -2 9 61232.5 1037.03 8
-2 2 9 62569 757.238 14
-2 -2 9 65104.6 672.933 14
-2 2 9 58414.6 988.93 4
-2 -2 10 84435 768.42 14
-2 2 10 83310 878.085 14
-2 -2 10 82858.5 850.796 23
-2 2 10 83416.7 865.441 28
-2 2 11 4885.06 188.302 23
-2 2 11 4930.79 208.098 14
-2 -2 11 5003.43 203.45 18
-2 -2 11 4993.41 205.308 23
-2 -2 11 5059.56 179.045 14
-2 -2 12 169.953 46.917 18
-2 -2 12 140.511 35.2327 14
-2 -2 12 166.635 51.4744 23
-2 2 12 153.132 49.5991 14
-2 2 12 161.671 39.7938 23
-2 -2 13 14648.8 226.408 18
-2 2 13 14593.6 243.604 14
-2 -2 13 15081.5 243.523 23
-2 -3 -11 6132.84 149.251 21
-2 3 -11 5832.55 129.302 22
-2 3 -10 8065.3 195.276 21
-2 -3 -10 8085.47 227.473 21
-2 3 -10 8159.28 213.883 22
-2 -3 -9 14655.2 352.941 21
-2 3 -9 14234.5 328.34 22
-2 3 -9 13706.4 285.693 26
-2 3 -9 14227.4 303.011 21
-2 3 -8 30240.8 510.708 22
-2 3 -8 30160.5 472.362 21
-2 3 -8 29605.1 470.661 26
-2 -3 -8 28771.8 528.318 21
-2 -3 -7 108782 1444.21 2
-2 3 -7 109487 1373.61 5
-2 3 -7 109471 903.212 21
-2 3 -7 109282 939.627 26
-2 3 -7 107823 975.057 22
-2 -3 -7 112019 1044.87 21
-2 -3 -6 51552.9 949.9 2
-2 3 -6 50076.6 595.443 21
-2 3 -6 49328.4 598.765 12
-2 -3 -6 52570.2 896.552 5
-2 3 -6 51698.2 655.669 22
-2 3 -6 51220.7 894.279 5
-2 3 -6 50755.5 631.491 26
-2 3 -5 28331.9 582.652 1
-2 -3 -5 28272.3 656.289 2
-2 3 -5 29418.1 630.458 5
-2 -3 -5 28396.1 619.215 5
-2 -3 -4 12177.6 397.793 2
-2 -3 -4 11893 380.067 5
-2 -3 -4 11974.3 345.981 6
-2 3 -4 11845.8 368.608 5
-2 3 -4 11975.8 355.433 1
-2 3 -3 65953.6 787.643 5
-2 -3 -3 63171.7 755.296 6
-2 -3 -3 64238.5 840.77 2
-2 -3 -3 62983.3 803.812 5
-2 3 -3 61102.3 758.541 1
-2 -3 -2 223850 1348.98 6
-2 3 -2 221611 1318.82 5
-2 3 -2 221839 1098.2 9
-2 -3 -2 223848 1453.62 2
-2 3 -1 82446.1 727.219 5
-2 -3 -1 81102.1 821.955 2
-2 3 -1 80225.7 678.54 9
-2 -3 -1 81268.4 783.568 6
-2 -3 0 310108 1486.67 6
-2 3 0 312648 1279.75 5
-2 3 0 311706 1383.95 9
-2 -3 0 308235 1542.15 2
-2 -3 1 16853.4 212.503 8
-2 3 1 16587.3 334.691 9
-2 3 2 60063.9 668.404 9
-2 -3 2 61272 516.469 8
-2 -3 2 60503.7 666.994 6
-2 -3 3 86396.2 711.237 8
-2 3 3 81838.7 826.678 9
-2 -3 4 27679.4 457.932 8
-2 3 4 27560.6 515.381 9
-2 -3 5 39713 613.067 8
-2 3 5 39056.2 662.526 9
-2 3 5 40613.6 520.698 8
-2 -3 6 6282.15 271.661 8
-2 3 6 10066.2 362.804 9
-2 3 7 80789.6 831.79 28
-2 -3 7 78843.7 1049.91 8
-2 3 8 191563 1346.3 28
-2 -3 8 191246 1759.69 8
-2 -3 8 188336 1204.45 23
-2 3 8 186927 1228.84 15
-2 -3 9 34801.7 537.326 23
-2 3 9 36015.7 570.265 14
-2 3 9 36787.4 535.809 15
-2 3 9 34452.3 582.375 28
-2 3 10 20084.4 419.504 14
-2 -3 10 19141.7 405.277 18
-2 -3 10 19392.4 396.646 23
-2 3 10 19245.7 425.429 28
-2 -3 11 18545 370.522 18
-2 3 11 18173.6 367.844 14
-2 -3 11 18398.5 359.65 23
-2 -3 12 10891.8 235.125 24
-2 3 12 11263.9 245.892 14
-2 -3 12 11283.8 243.148 23
-2 -3 12 11210.3 245.226 18
-2 3 13 9856.18 165.283 14
-2 -3 13 9684.53 164.195 23
-2 -3 13 10200.1 168.533 18
-2 4 -10 461.26 44.5116 21
-2 4 -10 565.724 56.5715 22
-2 -4 -10 566.929 60.4092 21
-2 -4 -9 11488.6 292.547 21
-2 4 -9 11162.3 238.131 21
-2 4 -9 11263.4 236.319 26
-2 4 -9 11297 273.491 22
-2 4 -8 12092.8 281.944 21
-2 4 -8 12308.4 317.775 22
-2 4 -8 11999.1 289.546 26
-2 -4 -8 12498.8 340.056 21
-2 4 -7 15801.5 339.392 12
-2 4 -7 16478.7 379.842 22
-2 4 -7 16364.3 364.477 26
-2 -4 -7 16212.3 405.603 21
-2 4 -7 16955.8 349.091 21
-2 4 -6 24534 436.501 12
-2 4 -6 24958.2 649.755 5
-2 4 -6 25154.1 458.706 26
-2 -4 -6 23679.2 677.819 2
-2 4 -6 24398.5 463.912 22
-2 4 -5 23606 424.626 12
-2 -4 -5 23313.8 645.493 2
-2 4 -5 22624.9 591.532 5
-2 4 -5 23496.3 435.951 22
-2 -4 -5 23070.4 595.104 5
-2 4 -5 23351.6 433.751 26
-2 -4 -4 2243.43 175.984 6
-2 -4 -4 2491.11 189.07 5
-2 4 -4 2386.36 136.413 26
-2 -4 -4 2266.34 192.739 2
-2 4 -4 2661.44 142.015 12
-2 4 -4 2251.87 132.872 22
-2 4 -4 2176.07 178.755 1
-2 4 -4 2138.89 174.772 5
-2 -4 -3 18737.1 481.163 6
-2 -4 -3 19003.7 489.945 5
-2 4 -3 18694.5 485.027 1
-2 4 -3 19449.1 472.374 5
-2 -4 -3 19016.9 516.597 2
-2 -4 -2 1552.62 136.971 6
-2 4 -2 1671.95 144.638 1
-2 4 -2 1715.3 134.094 5
-2 -4 -2 1708.04 149.775 2
-2 -4 -1 56345.7 767.002 6
-2 -4 -1 55999.3 791.999 2
-2 4 -1 54625.7 630.825 9
-2 -4 0 304772 1787.39 2
-2 -4 0 305947 1746.59 6
-2 -4 1 42732.7 648.535 6
-2 4 1 43253.1 609.422 9
-2 -4 2 46702.1 684.913 6
-2 4 2 48869.4 684.44 9
-2 -4 3 3601.76 197.206 6
-2 -4 3 3583.65 154.036 8
-2 4 3 3109.02 189.001 9
-2 -4 4 18241.7 455.383 6
-2 -4 4 19191.4 400.588 8
-2 4 5 27353.4 624.376 9
-2 -4 5 27497 536.491 8
-2 -4 5 27993.5 589.454 6
-2 -4 6 16379.2 456.542 8
-2 -4 6 15715.7 465.008 6
-2 4 6 16921.5 382.349 28
-2 4 6 16553 514.735 9
-2 4 6 16955.4 376.562 15
-2 -4 7 65629.2 983.982 6
-2 -4 7 65826.8 987.924 8
-2 4 7 66157.6 1071.08 9
-2 -4 7 68518.1 684.778 23
-2 4 7 66269.7 792.784 28
-2 4 7 64973.8 760.661 15
-2 -4 8 2358.96 138.683 23
-2 4 8 2087.29 145.072 15
-2 -4 8 2266.6 199.247 8
-2 4 8 2194.27 204.959 9
-2 4 8 2135.36 139.754 14
-2 4 9 8243.88 267.039 15
-2 4 9 8533.19 293.948 28
-2 4 9 8340.82 263.392 14
-2 -4 9 7959.25 259.799 18
-2 -4 9 8348 255.276 23
-2 4 10 55248.5 632.816 14
-2 -4 10 55284.4 641.706 18
-2 -4 10 54631.7 612.424 23
-2 4 10 55318.3 699.268 28
-2 -4 11 2618.9 130.277 18
-2 4 11 2740.32 127.64 14
-2 -4 11 2762.66 134.608 24
-2 -4 11 2803.95 127.334 23
-2 -4 12 3761.76 100.948 11
-2 4 12 4004.16 118.744 14
-2 -4 12 4004.4 127.856 24
-2 -4 12 3832.5 116.911 23
-2 -4 12 4157.29 129.812 18
-2 5 -10 4184.64 108.581 22
-2 -5 -10 4062.06 110.273 21
-2 5 -9 6621.5 184.079 22
-2 5 -9 6436.46 150.612 26
-2 -5 -9 6457.26 190.012 21
-2 5 -8 232.242 55.6906 22
-2 5 -8 337.1 49.539 21
-2 5 -8 321.285 54.7126 26
-2 -5 -8 321.114 65.5945 21
-2 5 -7 26296.6 420.911 12
-2 -5 -7 26760.4 497.697 21
-2 5 -7 25955.2 440.248 26
-2 5 -7 26712.4 464.933 22
-2 5 -7 27524.7 408.014 21
-2 5 -6 3717.18 183.361 22
-2 5 -6 3895.75 178.819 12
-2 5 -6 3980.39 186.265 26
-2 5 -5 56924.4 691.13 22
-2 5 -5 56829.8 696.471 26
-2 -5 -5 57846.6 1066.93 2
-2 5 -5 58566.8 694.704 12
-2 5 -4 42589.5 590.601 12
-2 -5 -4 41337.7 871.069 2
-2 -5 -4 41524.3 828.98 6
-2 -5 -4 43130.5 826.482 5
-2 5 -4 42611.8 561.109 27
-2 5 -4 40870.7 573.934 22
-2 5 -4 40565.4 584.752 26
-2 5 -3 38449 547.843 12
-2 -5 -3 37418.7 767.977 6
-2 -5 -3 38338.3 806.474 2
-2 -5 -3 37965.9 752.047 5
-2 5 -3 38796.6 534.814 27
-2 5 -3 38416.3 553.215 26
-2 5 -3 36696.2 519.701 22
-2 5 -2 50007.8 607.865 12
-2 5 -2 47843.5 597.158 26
-2 -5 -2 49007.1 873.559 2
-2 -5 -2 48601.8 849.628 6
-2 5 -2 48314.4 850.889 1
-2 5 -1 24396.3 590.54 1
-2 -5 -1 24581.8 587.713 6
-2 -5 -1 24069.4 589.499 2
-2 -5 0 108778 1203.86 6
-2 5 0 109730 1045.08 9
-2 -5 1 5462.29 270.352 6
-2 -5 1 5523.94 274.569 2
-2 5 1 5004.98 239.625 9
-2 5 2 98943.4 1105.15 9
-2 -5 2 102288 1158.77 6
-2 5 3 13198.7 426.709 9
-2 -5 3 14049.9 439.437 6
-2 -5 4 9294.19 366.467 6
-2 5 4 9155.46 377.506 9
-2 5 4 8910.41 270.4 27
-2 5 4 9531.14 280.89 15
-2 5 5 59507.1 1006.9 9
-2 5 5 59628.9 709.077 28
-2 5 5 56423.1 684.327 27
-2 5 5 59122.7 719.489 15
-2 -5 5 58781.8 941.812 6
-2 5 6 7017.29 259.899 15
-2 -5 6 7018.04 338.711 6
-2 5 6 6725.42 250.303 28
-2 5 6 6955.5 243.784 27
-2 5 6 6816.25 360.481 9
-2 5 7 7274.78 266.824 28
-2 -5 7 7613.9 238.89 18
-2 5 7 7308.88 268.417 15
-2 -5 8 18079.8 367.409 18
-2 5 8 17829.2 415.232 28
-2 5 8 17598.8 401.594 15
-2 5 9 6150.8 239.659 28
-2 -5 9 6209.64 209.973 18
-2 5 9 5904.36 222.181 15
-2 5 9 6099.76 195.277 14
-2 -5 9 6276.85 224.04 24
-2 -5 10 1564.31 101.18 18
-2 -5 10 1600.4 109.695 24
-2 -5 10 1635.89 92.9397 23
-2 5 10 1695.2 106.091 15
-2 5 10 1612.57 92.1223 14
-2 -5 11 7374.76 175.325 18
-2 -5 11 7333.22 186.055 24
-2 -5 11 7187.32 173.657 11
-2 -6 -9 607.415 47.2929 21
-2 6 -9 527.292 46.3381 22
-2 -6 -8 3975.95 148.245 21
-2 6 -8 3884.29 128.13 26
-2 6 -8 4135.07 144.409 22
-2 -6 -7 26579 439.983 21
-2 6 -7 26293.7 398.065 26
-2 6 -7 26342.6 375.842 12
-2 6 -7 27282.2 417.868 22
-2 6 -6 53250.4 625.989 22
-2 6 -6 51693.4 619.824 26
-2 6 -6 51709.8 601.369 12
-2 6 -5 9377.56 284.033 26
-2 6 -5 9163.36 275.578 12
-2 6 -5 8782.89 266.775 22
-2 6 -4 7425.49 256.05 12
-2 6 -4 7433.15 238.51 27
-2 6 -4 6957.63 250.772 26
-2 6 -4 7170.26 242.308 22
-2 6 -3 11302.2 313.846 12
-2 -6 -3 10699.9 446.893 6
-2 6 -3 10638.5 295.526 27
-2 -6 -3 11362.9 433.172 5
-2 6 -3 10845.1 309.072 26
-2 -6 -3 11665 473.548 2
-2 6 -3 10716.5 289.882 22
-2 -6 -3 11959.1 315.875 25
-2 -6 -2 139768 1587.4 6
-2 6 -2 134898 1547.27 1
-2 -6 -2 143577 1608.99 2
-2 -6 -2 145233 1106.7 25
-2 6 -2 138360 1087.53 12
-2 6 -2 145291 1028.43 22
-2 -6 -2 139836 1500.97 5
-2 6 -2 143712 1089.97 27
-2 6 -2 140175 1094.49 26
-2 6 -1 27214.6 475.947 12
-2 -6 -1 27883.2 701.773 2
-2 -6 -1 27488.7 695.694 6
-2 6 -1 26716.7 474.85 26
-2 6 -1 27169 690.723 1
-2 6 -1 26977.9 481.755 27
-2 6 0 119806 979.104 12
-2 -6 0 121925 1436.06 6
-2 6 0 121436 992.287 26
-2 -6 0 122674 1438.62 2
-2 6 0 125541 1035.64 27
-2 6 0 120266 1423.04 1
-2 6 1 4187.26 241.657 9
-2 -6 1 3685.89 254.789 2
-2 6 1 3802.37 187.183 27
-2 -6 1 3714.3 254.59 6
-2 6 1 3903.95 182.177 26
-2 6 1 3894.67 178.028 12
-2 -6 2 37311.7 787.873 2
-2 -6 2 37414.3 792.581 6
-2 6 2 37744.2 534.592 12
-2 6 2 36869.3 744.707 9
-2 6 2 38015.1 580.498 27
-2 6 2 37239.6 535.754 15
-2 6 2 36859.7 543.632 26
-2 -6 3 19212.3 568.006 6
-2 6 3 19603.2 569.47 9
-2 6 3 18871.2 387.141 26
-2 6 3 19289.5 401.499 15
-2 6 3 18701.9 415.156 27
-2 -6 4 79745.9 1160.23 6
-2 6 4 78238.5 1174.16 9
-2 6 4 76944.8 767.395 28
-2 6 4 78221.2 830.05 15
-2 6 4 76758.3 840.763 27
-2 6 5 9831.21 303.609 15
-2 6 5 10241.6 309.729 27
-2 -6 5 11002.9 282.978 24
-2 6 5 10233.9 293.691 28
-2 6 6 14492.8 370.303 15
-2 6 6 14177.2 350.377 28
-2 -6 6 14348.8 330.777 24
-2 6 6 13971.6 350.83 27
-2 6 7 10243.2 297.011 28
-2 6 7 10146.4 280.083 27
-2 -6 7 10077.6 279.01 24
-2 6 7 10060.9 304.933 15
-2 -6 8 8254.41 243.428 24
-2 6 8 8203.14 256.006 28
-2 6 8 8280.9 263.896 15
-2 -6 9 9407.65 239.322 24
-2 -6 9 9534.29 244.755 11
-2 6 9 9834.5 256.965 15
-2 -6 9 9460.28 207.782 18
-2 -6 10 42912.3 434.169 11
-2 6 10 44157.6 436.85 15
-2 -6 10 43491.7 436.496 24
-2 -6 11 468.073 36.6672 24
-2 7 -8 2383.5 76.4048 22
-2 -7 -7 3432.58 126.045 21
-2 7 -7 3458.34 120.258 22
-2 7 -7 3512.07 120.012 26
-2 7 -7 3425.54 107.029 12
-2 7 -6 6252.84 189.731 26
-2 7 -6 6265.47 185.472 22
-2 7 -6 6242.25 182.887 12
-2 7 -5 2301.12 132.944 26
-2 7 -5 2231.71 123.738 22
-2 7 -5 2274.71 128.702 12
-2 7 -4 61668 621.388 27
-2 7 -4 63222 653.853 22
-2 7 -4 63412.9 694.815 12
-2 7 -4 63761.8 706.651 26
-2 -7 -3 9985.83 278.945 25
-2 7 -3 9700.82 272.314 27
-2 7 -3 9814.91 288.954 12
-2 7 -3 9945.54 293.24 26
-2 7 -3 9958.18 266.9 22
-2 7 -2 16749.9 342.681 22
-2 7 -2 16041.1 366.715 27
-2 7 -2 15967.5 373.119 26
-2 -7 -2 16410.9 372.552 25
-2 7 -2 16011.1 371.973 12
-2 -7 -1 29009.5 504.639 25
-2 7 -1 28599.9 500.242 26
-2 7 -1 29713.5 508.436 27
-2 7 -1 29804 503.81 12
-2 7 0 17066 382.409 12
-2 7 0 17371.4 389.946 26
-2 -7 0 17895.7 374.677 16
-2 7 0 17563 400.785 27
-2 7 1 42241.5 628.326 27
-2 7 1 41346.8 595.734 26
-2 7 1 42339.9 589.156 12
-2 7 2 37417.6 596.105 27
-2 7 2 36525.5 519.899 15
-2 7 2 37889 567.346 26
-2 7 2 37814.8 543.345 12
-2 7 3 1878.51 141.765 27
-2 7 3 1837.38 128.241 26
-2 7 3 1845.49 127.095 15
-2 -7 4 4294.77 173.662 11
-2 7 4 4029.52 187.469 15
-2 7 4 3949.52 196.53 27
-2 7 5 10593.7 299.229 15
-2 -7 5 10551.8 273.811 11
-2 7 5 10311.7 302.261 27
-2 7 6 2469.11 142.574 27
-2 7 6 2414.21 145.789 15
-2 -7 6 2393.25 132.062 11
-2 -7 6 2285.21 119.36 24
-2 7 6 2022.66 116.918 28
-2 -7 7 1436.05 101.435 11
-2 7 7 1327.9 93.2492 28
-2 7 7 1360.49 95.9318 27
-2 -7 7 1419.78 93.5256 24
-2 7 7 1224.97 103.438 15
-2 -7 8 21981.8 340.329 11
-2 7 8 22520.8 366.013 15
-2 -7 8 21642.2 314.117 24
-2 7 9 7904.85 183.957 15
-2 -7 9 7780.96 175.012 11
-2 -7 9 7697.62 159.422 24
-2 8 -6 7842.7 141.316 12
-2 8 -6 7886.61 152.609 26
-2 -8 -6 7499.79 146.5 21
-2 8 -5 7398.78 160.116 22
-2 8 -5 7704.82 187.476 26
-2 8 -4 3568.73 144.43 12
-2 8 -4 3405.59 143.824 26
-2 8 -4 3487.12 122.508 22
-2 8 -3 15539.7 288.615 27
-2 8 -3 15593.4 317.919 12
-2 -8 -3 15783.9 289.999 25
-2 8 -3 16114.6 327.525 26
-2 8 -3 15862.4 269.29 22
-2 -8 -2 16134.8 324.157 25
-2 8 -2 16855.6 344.318 12
-2 8 -2 16079.1 324.051 27
-2 8 -2 16888.8 350.359 26
-2 8 -1 13855.3 324.095 26
-2 8 -1 14160.1 322.272 12
-2 8 -1 13771.7 319.692 27
-2 -8 -1 13825.8 318.033 25
-2 8 0 84136 792.591 26
-2 8 0 83454 807.228 27
-2 -8 0 83415.4 722.742 16
-2 -8 0 82570.2 791.854 25
-2 8 0 83275.2 772.183 12
-2 8 1 15528.9 357.003 27
-2 -8 1 14988.2 323.985 16
-2 8 1 15223.2 327.925 12
-2 8 1 15602.7 342.588 26
-2 8 2 8145.92 261.736 27
-2 8 2 8451.03 246.752 26
-2 -8 2 8599.87 253.313 16
-2 8 2 8265.25 232.929 12
-2 8 3 5157.96 184.093 26
-2 -8 3 5232.05 200.586 16
-2 8 3 5015.83 171.975 15
-2 8 3 5166.2 206.603 27
-2 8 4 6258.92 195.195 15
-2 8 4 6618.31 225.791 27
-2 -8 5 6560.17 172.627 11
-2 8 5 6716.2 198.196 15
-2 8 5 6760.22 213.105 27
-2 -8 6 1657 85.6334 11
-2 8 6 1373.15 79.5775 19
-2 -8 6 1702.3 103.152 16
-2 8 6 1503.3 92.786 27
-2 8 6 1706.68 98.9922 15
-2 -8 7 7435.4 160.84 11
-2 8 7 7567.17 180.24 15
-2 -8 7 7433.17 178.792 16
-2 8 7 7042.89 149.465 27
-2 8 8 3763.64 105.921 15
-2 -8 8 3423.13 91.7961 16
-2 9 -4 3778.68 99.2554 26
-2 9 -4 4211.64 100.601 12
-2 9 -3 40818.2 370.197 12
-2 9 -3 39538.1 374.939 26
-2 9 -2 771.635 57.2243 27
-2 -9 -2 813.617 56.5003 25
-2 9 -2 964.095 69.0887 26
-2 9 -2 953.625 66.9336 12
-2 -9 -1 5169.61 149.487 25
-2 9 -1 5245.25 153.431 12
-2 9 -1 5247.8 151.313 27
-2 9 -1 5549.52 161.542 26
-2 9 0 22198.5 329.335 27
-2 -9 0 22338.3 324.949 25
-2 9 0 22822.9 316.952 12
-2 9 0 22659.2 325.167 26
-2 -9 1 37090.5 433.129 25
-2 9 1 36629.8 386.504 12
-2 -9 1 36263.6 376.975 16
-2 9 1 36120.9 435.027 27
-2 9 1 37591.4 408.199 26
-2 9 2 3652.65 113.577 12
-2 -9 2 3686.52 139.769 25
-2 9 2 3678.95 142.879 27
-2 -9 2 3682.18 129.407 16
-2 -9 3 25908.9 352.521 25
-2 9 3 26371.3 359.941 27
-2 -9 3 26514.6 338.664 16
-2 9 4 1622.28 87.4889 27
-2 -9 4 1738.16 87.5687 16
-2 -9 4 1675.01 88.1134 25
-2 -9 5 5104.85 134.661 25
-2 -9 5 5414.17 136.619 16
-2 9 5 5169.89 129.652 27
-1 0 -12 41.3253 29.4049 21
-1 0 -11 152.901 48.3687 21
-1 0 -10 15.0333 36.4833 22
-1 0 -10 25.9328 46.4326 21
-1 0 -9 9412.17 274.527 22
-1 0 -9 9447.81 295.511 21
-1 0 -8 128.655 51.6716 21
-1 0 -8 177.806 73.6152 5
-1 0 -8 258.743 56.6606 22
-1 0 -7 63591 895.715 5
-1 0 -7 65131.2 962.592 2
-1 0 -7 64222 701.37 21
-1 0 -6 167.408 54.7334 5
-1 0 -6 -11.406 42.1584 2
-1 0 -5 112062 1002.49 2
-1 0 -5 115130 776.826 1
-1 0 -4 206.507 49.4092 2
-1 0 -4 304.954 55.2512 5
-1 0 -3 92512.9 516.831 1
-1 0 -3 92031.3 685.832 2
-1 0 -3 92826.7 691.771 5
-1 0 -2 21.248 12.9528 1
-1 0 -2 28.6272 24.031 2
-1 0 -1 475931 994.705 2
-1 0 0 28.1393 7.91653 2
-1 0 0 9.64345 10.6862 5
-1 0 1 44789.5 262.114 9
-1 0 2 125.098 19.6259 9
-1 0 3 838964 1798.72 8
-1 0 3 846572 1438.62 9
-1 0 4 48.7485 32.677 8
-1 0 4 29.8507 20.7186 9
-1 0 5 669605 1660.84 9
-1 0 5 665513 2150.93 8
-1 0 6 55.7661 44.8526 8
-1 0 6 55.9063 39.1756 4
-1 0 7 9701.79 299.915 4
-1 0 7 9722.9 327.667 8
-1 0 8 0.33863 34.8722 8
-1 0 8 732.361 80.8039 14
-1 0 9 261499 2015.39 8
-1 0 9 254214 1471.67 14
-1 0 10 47.36 48.3745 18
-1 0 10 16.7586 52.3591 23
-1 0 10 45.5471 48.4887 14
-1 0 11 4267.94 190.414 14
-1 0 11 4012.2 170.162 18
-1 0 11 4139.63 186.255 23
-1 0 12 -0.46759 39.6074 14
-1 0 12 53.1684 28.9688 18
-1 0 12 41.7016 38.054 23
-1 0 13 5103.58 139.74 14
-1 0 13 4911.18 129.747 23
-1 -1 -12 5954.34 157.47 21
-1 1 -12 5865.77 151.988 21
-1 1 -11 3914.69 136.384 22
-1 1 -11 4344.19 169.391 21
-1 -1 -11 4342.73 174.305 21
-1 1 -10 6446.45 213.498 22
-1 -1 -10 6832.96 247.7 21
-1 1 -10 6779.82 237.415 21
-1 1 -9 29096.1 505.256 21
-1 1 -9 28627.9 482.199 22
-1 -1 -9 29592.9 525.155 21
-1 -1 -8 21936.5 621.132 2
-1 1 -8 21459.9 430.087 21
-1 1 -8 21626.3 578.523 5
-1 -1 -8 22776.6 569.465 5
-1 1 -8 22352 429.295 22
-1 -1 -8 21812.6 408.604 22
-1 -1 -8 22424.2 452.83 21
-1 -1 -7 13035.8 443.52 2
-1 1 -7 11946.2 299.148 22
-1 1 -7 12218.7 404.176 5
-1 -1 -7 12097.2 392.441 5
-1 1 -7 12177.1 304.603 21
-1 -1 -7 12302.3 317.338 21
-1 -1 -6 5293.99 255.424 2
-1 1 -6 5564.29 216.631 1
-1 1 -6 5226.35 243.552 5
-1 -1 -6 5237.04 238.15 5
-1 -1 -5 84949.2 906.462 2
-1 1 -5 82177.9 745.85 1
-1 1 -5 83657 871.689 5
-1 -1 -5 82375.6 842.32 5
-1 1 -5 84053.1 865.022 2
-1 1 -4 94255 828.273 5
-1 1 -4 92422.9 705.497 1
-1 -1 -4 94309.8 693.754 6
-1 1 -4 94911.5 804.084 2
-1 -1 -4 92043.4 800.796 5
-1 -1 -4 94480.5 855.549 2
-1 -1 -3 93724.5 610.49 6
-1 1 -3 91817.9 614.532 1
-1 1 -3 94492.4 693.677 2
-1 1 -3 94583.3 727.872 5
-1 -1 -3 93830.5 714.24 5
-1 -1 -3 92234.9 731.103 2
-1 -1 -2 50019.9 392.402 6
-1 -1 -2 50188 463.198 2
-1 -1 -2 49566.6 450.844 5
-1 1 -2 50261.9 426.03 2
-1 -1 -1 167479 636.175 6
-1 1 -1 168203 700.069 5
-1 1 0 71348.2 355.958 5
-1 1 0 72014.2 397.01 9
-1 -1 1 457669 925.886 8
-1 -1 2 49664.2 390.553 8
-1 1 2 50077.6 403.242 9
-1 -1 3 94651 394.757 4
-1 -1 3 95633.8 647.697 8
-1 -1 4 10757.5 252.965 8
-1 1 4 10680.2 234.342 9
-1 -1 4 10769.6 176.782 4
-1 1 4 11030.2 233.211 8
-1 -1 5 117143 948.448 8
-1 1 5 118195 862.837 9
-1 1 5 122460 882.381 8
-1 -1 5 123877 717.135 4
-1 -1 6 47654.6 679.097 8
-1 1 6 47441.4 593.091 9
-1 1 6 46947 618.42 8
-1 -1 7 108089 1137.45 8
-1 1 7 109490 1046.45 8
-1 1 7 107796 1095.9 4
-1 -1 8 15820.7 481.12 8
-1 -1 8 14970.3 329.646 14
-1 1 8 16158.6 444.676 8
-1 1 8 15906.7 360.229 14
-1 1 8 15880.5 459.592 4
-1 1 8 15247.4 342.736 28
-1 -1 9 24887.4 446.458 14
-1 -1 9 25568.9 655.49 8
-1 1 9 26092.5 626.063 4
-1 1 9 25592.1 476.303 14
-1 -1 10 8856.77 284.055 23
-1 1 10 8779.98 285.038 14
-1 -1 10 8867.15 271.864 14
-1 -1 10 9086.67 281.106 18
-1 1 10 8788.27 274.278 23
-1 1 11 30166.7 468.976 23
-1 -1 11 31593.8 507.276 23
-1 -1 11 30456.3 473.22 14
-1 -1 11 30166.6 473.787 18
-1 1 11 30673.4 501.515 14
-1 1 12 480.199 67.1071 14
-1 1 12 452.526 56.7133 23
-1 -1 12 421.395 55.4613 18
-1 -1 12 507.186 61.7937 14
-1 -1 12 497.411 66.4176 23
-1 1 13 2453.56 100.424 14
-1 -1 13 2475.81 97.1378 23
-1 -1 13 2354.77 85.446 14
-1 -2 -12 5116.76 136.768 21
-1 2 -12 5425.32 131.634 21
-1 2 -11 6097.46 187.336 21
-1 -2 -11 5896.41 195.592 21
-1 2 -11 5824.63 165.255 22
-1 -2 -10 2334.8 147.401 21
-1 2 -10 2163.47 127.766 22
-1 2 -10 2179.4 134.295 21
-1 2 -9 10964.4 305.874 21
-1 -2 -9 11302.4 331.818 21
-1 2 -9 11581.2 309.871 22
-1 -2 -8 98019.1 1350.44 2
-1 2 -8 97204.2 899.846 22
-1 2 -8 96432.7 1252.14 5
-1 2 -8 94649.4 889.338 21
-1 -2 -8 98531.7 962.454 21
-1 2 -7 89528.7 1135.7 5
-1 2 -7 89491.5 838.672 22
-1 -2 -7 93256.5 1090 5
-1 2 -7 86960.8 817.153 21
-1 2 -7 91166.7 792.294 26
-1 -2 -7 89272.2 1206.37 2
-1 -2 -7 89453.3 881.375 21
-1 -2 -6 35854.7 630.861 5
-1 2 -6 35720.1 664.627 5
-1 2 -6 36877.2 620.637 1
-1 -2 -6 37257.6 717.6 2
-1 2 -5 4948.36 226.16 5
-1 -2 -5 4994.61 240.387 2
-1 -2 -5 5451.52 216.612 6
-1 -2 -4 35922.6 505.784 6
-1 2 -4 34720.8 506.542 1
-1 2 -4 36203.3 546.533 5
-1 -2 -4 36159.2 576.638 2
-1 -2 -4 36969.7 536.787 5
-1 -2 -3 16529 348.393 2
-1 2 -3 16725 215.246 9
-1 2 -3 17020.3 335.344 5
-1 -2 -3 17019.3 328.922 5
-1 -2 -3 16573.1 318.878 6
-1 -2 -2 95905 701.283 6
-1 -2 -2 96223.2 756.776 2
-1 2 -2 93732.2 706.074 1
-1 2 -2 94286.8 697.526 5
-1 -2 -1 344410 1244.6 6
-1 2 -1 355455 1032.64 9
-1 2 -1 351592 1195.29 5
-1 -2 -1 348550 1314.34 2
-1 2 0 127942 634.407 5
-1 2 0 127629 659.993 9
-1 -2 0 126591 722.456 6
-1 -2 1 43313.1 317.391 8
-1 -2 1 43254.6 263.739 3
-1 2 2 26177.2 355.771 9
-1 -2 2 27264.7 315.233 8
-1 2 3 22121.7 361.136 9
-1 -2 3 22561 339.166 8
-1 2 3 22597.3 281.6 8
-1 -2 4 121332 901.401 8
-1 2 4 119139 735.349 8
-1 2 4 121274 930.91 9
-1 -2 5 24194.2 456.962 8
-1 2 5 24525.3 379.483 8
-1 2 5 24435.7 457.372 9
-1 2 6 46554.8 684.875 9
-1 2 6 46712 585.038 8
-1 -2 6 46632.4 706.046 8
-1 -2 7 7256.6 311.38 8
-1 2 7 7150.01 288.371 9
-1 2 7 7698.76 324.748 4
-1 2 8 44225.2 614.083 28
-1 -2 8 43250.1 542.287 14
-1 -2 8 43190.3 821 8
-1 2 8 44750.5 608.232 14
-1 -2 8 44013.2 591.929 23
-1 2 8 42823.6 816.388 4
-1 2 9 27882.8 500.668 14
-1 2 9 28040.3 509.83 28
-1 -2 9 28601.6 458.915 14
-1 -2 9 28158.3 705.936 8
-1 -2 9 27408.4 488.553 23
-1 2 9 27107.7 685.19 4
-1 -2 10 604.993 86.9702 18
-1 2 10 554.451 85.568 14
-1 -2 10 619.314 77.3425 14
-1 -2 10 665.516 88.6542 23
-1 2 11 916.109 95.5686 14
-1 -2 11 873.274 79.8988 14
-1 -2 11 881.087 92.9979 23
-1 2 11 942.356 80.708 23
-1 -2 12 5549.51 182.83 23
-1 -2 12 5510.38 151.286 14
-1 2 12 5642.88 185.51 14
-1 -2 12 5388.51 156.067 24
-1 -2 12 5642.53 175.991 18
-1 2 13 1380.9 70.5095 14
-1 -2 13 1343.75 69.0285 23
-1 3 -11 17087.1 264.45 22
-1 3 -11 17205.4 279.33 21
-1 -3 -11 17422.9 303.8 21
-1 -3 -10 19106.6 383.614 21
-1 3 -10 18418.1 346.264 22
-1 3 -10 19075.2 354.299 21
-1 3 -9 158270 1123.57 22
-1 3 -9 159050 1110.18 21
-1 -3 -9 156880 1204.14 21
-1 3 -8 66763.1 739.641 21
-1 3 -8 68130.5 763.735 22
-1 3 -8 66592.9 688.42 26
-1 -3 -7 64394.7 780.154 21
-1 -3 -7 63893.1 1074.15 2
-1 3 -7 64456.7 1013.29 5
-1 3 -7 64102 684.576 26
-1 3 -7 66783 988.63 1
-1 3 -7 63831.1 729.818 22
-1 3 -7 63433 703.375 21
-1 3 -6 60210.8 674.223 22
-1 3 -6 58860.3 902.653 5
-1 -3 -6 61093 857.886 5
-1 3 -6 60408.8 886.425 1
-1 -3 -6 58177.4 958.358 2
-1 -3 -6 59945.8 862.049 6
-1 -3 -5 40431.6 670.161 6
-1 3 -5 40553.9 694.35 5
-1 -3 -5 39637.3 730.548 2
-1 -3 -5 40862.5 655.088 5
-1 -3 -4 13279.6 362.518 6
-1 -3 -4 13331 387.293 2
-1 3 -4 12789.9 354.209 1
-1 -3 -4 12808.3 347.339 5
-1 3 -4 13173.3 361.649 5
-1 -3 -3 113198 984.16 6
-1 -3 -3 112254 1025.35 2
-1 3 -3 112561 964.266 5
-1 -3 -3 112941 945.561 5
-1 -3 -2 39582.9 550.593 6
-1 3 -2 40316.4 552.709 1
-1 3 -2 39163.1 520.65 5
-1 -3 -2 40262.4 574.264 2
-1 3 -2 40155 385.321 9
-1 -3 -1 316429 1474.35 6
-1 3 -1 317648 1349.67 5
-1 3 -1 315673 1170.59 9
-1 -3 0 88280.4 388.088 3
-1 -3 0 87249.2 741.364 6
-1 3 0 86758 660.959 9
-1 -3 1 442600 1664.03 6
-1 -3 1 445328 1047.35 3
-1 -3 2 45314.5 444.901 8
-1 -3 2 45167.5 541.327 6
-1 3 2 45129 554.375 9
-1 -3 2 46774.2 421.121 3
-1 -3 3 108527 876.208 6
-1 3 3 112007 597.064 8
-1 3 3 109337 932.865 9
-1 -3 3 109493 804.674 8
-1 3 4 11808.5 337.53 9
-1 -3 4 11925.3 302.685 8
-1 3 5 17405 439.91 9
-1 -3 5 17059.8 407.661 8
-1 3 6 22668.2 539.85 9
-1 -3 6 22511.4 519.438 8
-1 -3 7 94063.7 1157.27 8
-1 3 7 90479.5 827.043 15
-1 3 7 91132.1 825.382 14
-1 3 7 92456 1153.71 9
-1 3 7 93787.6 891.924 28
-1 -3 7 91995.8 810.851 23
-1 -3 8 50095.1 912.206 8
-1 3 8 50089 647.476 14
-1 3 8 49374.5 941.467 4
-1 -3 8 49382.8 632.552 23
-1 3 8 50946.2 690.874 28
-1 3 8 50072.4 634.582 15
-1 3 9 51982.4 710.245 28
-1 3 9 52882.9 675.315 14
-1 3 9 53019.3 638.263 15
-1 -3 9 51727.5 662.301 23
-1 3 10 12813 325.493 14
-1 -3 10 12641 327.311 18
-1 -3 10 12450.8 321.583 23
-1 -3 11 1176.15 99.2064 23
-1 -3 11 1436.62 103.763 24
-1 -3 11 1366.38 104.376 18
-1 3 11 1233.22 97.7011 14
-1 3 12 22875.4 325.264 14
-1 -3 12 22335.4 323.172 18
-1 -3 12 22591.4 302.266 24
-1 -3 12 23005.4 330.777 23
-1 4 -11 11444.2 187.059 22
-1 4 -11 11161.4 180.158 21
-1 -4 -11 11579.4 208.842 21
-1 -4 -10 21287.6 366.992 21
-1 4 -10 21303.9 331.834 21
-1 4 -10 20861 340.59 22
-1 4 -9 54495.9 609.776 21
-1 -4 -9 54789.2 677.914 21
-1 4 -9 54102.6 634.38 22
-1 4 -8 569.476 75.7831 21
-1 -4 -8 518.005 87.8676 21
-1 4 -8 598.617 84.5602 22
-1 4 -8 530.634 71.254 26
-1 4 -7 32780.4 508.815 21
-1 4 -7 31765.3 495.269 26
-1 4 -7 32198.3 527.895 22
-1 4 -6 18756.4 367.931 12
-1 4 -6 19404.5 555.894 5
-1 4 -6 18697.5 380.171 26
-1 4 -6 19141.6 398.337 22
-1 -4 -6 18656.1 583.701 2
-1 4 -6 19110.4 379.779 21
-1 4 -6 18971.3 555.029 1
-1 -4 -6 19099.3 543.475 6
-1 -4 -5 21122.8 551.462 6
-1 -4 -5 21357 588.304 2
-1 -4 -5 22573.9 527.404 5
-1 4 -5 21956.8 555.447 5
-1 4 -5 21945.7 397.64 26
-1 4 -5 21898 406.739 22
-1 -4 -4 17746.3 480.872 6
-1 -4 -4 17516.9 492.322 2
-1 4 -4 17884.4 467.273 5
-1 -4 -4 17749.7 445.377 5
-1 4 -4 17188 465.976 1
-1 4 -3 80164.2 950.064 1
-1 -4 -3 81915.6 998.281 2
-1 -4 -3 83607.3 914.557 5
-1 -4 -3 82970.5 984.838 6
-1 4 -3 82536.6 930.545 5
-1 -4 -2 91143.7 983.04 6
-1 -4 -2 93660.9 1012.69 2
-1 4 -2 91675.1 970.819 1
-1 -4 -1 34827 579.347 6
-1 4 -1 33853 448.713 9
-1 4 -1 34270.2 575.267 1
-1 4 0 56125.5 621.551 9
-1 -4 0 57587.9 728.219 6
-1 -4 1 200442 1337.5 6
-1 4 1 203784 1271.57 9
-1 4 2 107046 986.145 9
-1 -4 2 104477 974.974 6
-1 -4 3 4874.27 175.404 3
-1 -4 3 4726.47 182.346 8
-1 -4 3 4561.19 211.915 6
-1 4 3 4644.69 226.922 9
-1 -4 4 17035.3 389.424 8
-1 -4 4 16654.7 416.49 6
-1 4 4 17852.8 467.189 9
-1 -4 4 17922.8 377.052 3
-1 4 5 26203.3 603.31 9
-1 -4 5 26611.4 545.228 6
-1 -4 5 27110.6 544.054 8
-1 -4 6 60561.7 860.138 6
-1 4 6 59397.9 696.578 15
-1 4 6 59703.2 963.943 9
-1 4 6 61342.8 716.564 28
-1 -4 6 59470.2 888.136 8
-1 4 7 92318.8 897.966 15
-1 -4 7 92432.6 823.546 23
-1 -4 7 90585.7 1178.89 8
-1 -4 7 89702.4 835.69 18
-1 4 7 92480.1 1262.85 9
-1 4 7 93017 927.795 28
-1 4 7 92646.8 824.989 14
-1 4 8 83770.3 808.013 14
-1 -4 8 84543 835.493 18
-1 4 8 83100.5 858.279 15
-1 4 8 84700.3 910.421 28
-1 -4 8 84150.4 814.302 23
-1 4 9 1107.61 114.187 28
-1 4 9 986.856 100.941 15
-1 -4 9 1097.23 101.754 23
-1 4 9 1068.89 98.7395 14
-1 -4 10 32965 497.192 24
-1 4 10 32389.7 459.803 14
-1 -4 10 33542.6 495.116 18
-1 -4 10 32481.4 460.702 11
-1 4 10 32215.5 452.888 15
-1 -4 10 33470.6 482.16 23
-1 -4 11 8468.52 213.754 23
-1 -4 11 8451.41 219.393 18
-1 -4 11 8401.2 193.575 11
-1 4 11 8484.25 203.098 14
-1 -4 11 8370.7 218.005 24
-1 -4 12 10720.6 182.807 24
-1 -4 12 10664.8 182.357 23
-1 -4 12 11249.3 196.871 18
-1 -5 -10 5956.12 162.25 21
-1 5 -10 5685.63 136.301 21
-1 5 -10 6156.53 160.402 22
-1 5 -9 1854.84 102.882 21
-1 -5 -9 1747.62 113.893 21
-1 5 -8 7544.15 245.165 22
-1 -5 -8 7571.27 256.803 21
-1 5 -8 7338.76 217.547 26
-1 5 -8 7657.83 227.905 21
-1 5 -7 57762 698.822 22
-1 5 -7 57756.1 655.977 21
-1 5 -7 59041.7 636.823 12
-1 5 -7 58351.3 663.609 26
-1 5 -6 7945.75 250.333 12
-1 5 -6 8223.05 262.902 26
-1 5 -6 8394.24 274.357 22
-1 5 -6 7885.39 249.395 21
-1 -5 -5 4027.86 271.461 6
-1 -5 -5 4353.83 195.596 25
-1 5 -5 4201.39 188.936 26
-1 5 -5 4315.84 187.636 12
-1 5 -5 4392.8 194.304 22
-1 5 -5 4021 176.383 21
-1 -5 -5 4355.12 289.228 2
-1 5 -4 57515.6 663.605 12
-1 -5 -4 54896.2 950.234 6
-1 -5 -4 58699 872.137 5
-1 5 -4 55403.9 936.133 1
-1 5 -4 55820.6 627.151 21
-1 -5 -4 56536.3 970.244 2
-1 5 -4 55402.3 655.229 22
-1 5 -4 57095 665.542 26
-1 -5 -4 57858.5 687.266 25
-1 5 -3 24338.8 420.072 12
-1 -5 -3 23319.3 596.833 6
-1 -5 -3 24010.8 547.833 5
-1 -5 -3 23524.9 596.448 2
-1 5 -3 23979.7 420.585 26
-1 -5 -2 12802.3 427.055 2
-1 5 -2 12679.3 416.221 1
-1 -5 -2 12841.9 427.562 6
-1 -5 -1 191649 1578.13 6
-1 5 -1 188967 1549.53 1
-1 -5 -1 188278 1574.01 2
-1 -5 0 58009.8 850.645 2
-1 -5 0 57600.9 849.059 6
-1 5 0 56510.1 722.775 9
-1 -5 1 5323.06 258.433 6
-1 5 1 4982.54 232.196 9
-1 -5 2 24351.1 547.422 6
-1 5 2 23860.9 534.182 9
-1 -5 3 4115.06 230.173 6
-1 5 3 4459.32 247.06 9
-1 -5 4 2029.94 166.235 6
-1 5 4 2135.56 183.564 9
-1 5 4 2216.05 137.478 15
-1 -5 5 12891.7 425.47 6
-1 5 5 13172.9 469.827 9
-1 5 5 13270 336.921 27
-1 5 5 13336.6 331.116 28
-1 -5 5 12970.9 391.75 8
-1 5 5 14118.5 349.099 15
-1 -5 6 3362.61 227.025 6
-1 5 6 2962.89 171.894 15
-1 -5 6 2950.56 148.26 18
-1 5 6 2876.63 162.638 27
-1 5 6 2969.95 240.517 9
-1 -5 6 3049.15 211.739 8
-1 5 6 2923.49 166.094 28
-1 5 7 753.624 88.5598 27
-1 -5 7 661.377 85.2516 24
-1 -5 7 771.7 84.1794 18
-1 5 7 858.362 101.522 15
-1 5 7 836.553 97.2534 28
-1 -5 8 31477.6 488.066 18
-1 5 8 31840.9 542.651 28
-1 5 8 31657.3 535.687 15
-1 -5 8 32651 477.234 23
-1 -5 8 31961.3 521.915 24
-1 -5 9 121340 964.478 24
-1 -5 9 122498 913.343 18
-1 5 9 122715 967.771 15
-1 -5 9 118937 861.15 23
-1 -5 9 121649 936.659 11
-1 -5 10 649.488 69.4244 11
-1 -5 10 606.865 61.0899 23
-1 -5 10 651.401 69.5779 18
-1 5 10 592.832 66.4305 15
-1 -5 10 648.323 73.7882 24
-1 -5 11 10255.4 197.289 18
-1 -5 11 9912.62 180.175 11
-1 -5 11 10124.9 204.664 24
-1 6 -9 21664.2 306.596 22
-1 -6 -9 20771.4 295.512 21
-1 6 -8 10335.4 224.996 26
-1 6 -8 10412.2 254.474 22
-1 -6 -8 10369.4 258.093 21
-1 -6 -7 30732.1 493.348 21
-1 6 -7 29476.5 421.26 12
-1 6 -7 29215.7 438.749 26
-1 6 -7 30882.4 479.228 22
-1 6 -6 18034.9 355.205 21
-1 6 -6 18137.7 377.699 26
-1 6 -6 17814.5 382.944 22
-1 6 -6 18234.1 368.743 12
-1 6 -5 128326 1034.11 26
-1 6 -5 126771 1013.05 12
-1 6 -4 2513.15 151.387 12
-1 -6 -4 2647.69 227.383 6
-1 -6 -4 2552.09 157.672 25
-1 6 -4 2699.39 157.877 26
-1 6 -4 2733.95 154.542 22
-1 -6 -4 2659.08 230.088 2
-1 -6 -3 16585.4 555.595 6
-1 -6 -3 16103.1 382.302 25
-1 -6 -3 16183.8 541.836 2
-1 6 -3 16797.5 359.142 27
-1 6 -3 16151.7 374.564 26
-1 6 -3 16390.7 371.947 12
-1 6 -3 16035.5 358.996 22
-1 6 -2 18525.2 391.634 12
-1 6 -2 18091.2 550.146 1
-1 -6 -2 18708 575.942 6
-1 6 -2 17747.7 388.362 26
-1 -6 -2 18835.1 567.841 2
-1 6 -2 17959.6 377.387 27
-1 -6 -2 18439.8 402.631 25
-1 6 -2 17849.1 368.703 22
-1 -6 -1 101408 1302.4 6
-1 -6 -1 101338 1277.01 2
-1 -6 -1 100105 868.151 16
-1 6 -1 97977 885.616 27
-1 6 -1 98522.3 898.765 26
-1 6 -1 99509.6 845.757 22
-1 6 -1 96865.4 1246.62 1
-1 6 -1 98536.6 889.671 12
-1 6 0 22722.4 432.478 26
-1 -6 0 22725.7 604.282 6
-1 6 0 23769.1 442.706 27
-1 6 0 22875.4 593.918 1
-1 6 0 22774.6 423.623 12
-1 -6 1 148904 1526.15 6
-1 6 1 150969 1499.37 1
-1 6 1 153782 1136.13 27
-1 -6 1 149413 1528.24 2
-1 6 1 148646 1098.79 26
-1 6 1 148290 1067.61 12
-1 -6 2 10636 413.81 6
-1 6 2 10742.8 288.73 12
-1 6 2 10598.6 391.949 9
-1 6 2 10784.3 285.743 15
-1 6 2 11288 318.915 27
-1 6 2 10693.7 300.404 26
-1 6 3 11719.4 299.138 12
-1 -6 3 11239.8 285.991 11
-1 6 3 11587.8 431.864 9
-1 -6 3 11203.8 424.134 6
-1 6 3 11339.9 310.643 26
-1 6 3 11149.5 302.403 15
-1 6 3 11725.4 330.235 27
-1 6 4 34662.9 774.577 9
-1 -6 4 33905.2 736.958 6
-1 6 4 34510.2 532.66 26
-1 -6 4 34762.8 504.856 24
-1 6 4 34093.3 545.813 15
-1 6 4 34147.1 562.642 27
-1 6 5 16330.1 386.229 15
-1 6 5 16064.9 359.317 28
-1 -6 5 16788.5 523.161 6
-1 -6 5 16327.2 358.854 24
-1 6 5 16313.3 394.583 27
-1 6 6 5244.98 221.947 27
-1 6 6 5637.85 233.333 15
-1 6 6 5204.3 210.339 28
-1 -6 6 5631.82 217.368 24
-1 6 7 92647.7 903.721 15
-1 -6 7 92191.6 856.909 11
-1 6 7 89270.8 844.791 27
-1 -6 7 94988.2 768.428 18
-1 6 7 90330.4 853.551 28
-1 -6 7 93539.3 855.322 24
-1 -6 8 2713.9 148.625 11
-1 6 8 2657.38 153.96 15
-1 -6 8 2597.83 144.005 24
-1 -6 8 2563.05 125.117 18
-1 -6 9 21240.2 315.893 18
-1 -6 9 21495.9 354.05 11
-1 6 9 22031.2 369.417 15
-1 -6 9 22234.1 363.197 24
-1 -6 10 2331.17 88.0641 18
-1 6 10 2460.88 100.842 15
-1 -6 10 2472.06 101.786 11
-1 -6 10 2496.08 105.481 24
-1 7 -8 30141.4 339.368 22
-1 -7 -8 28479 308.906 21
-1 -7 -7 35128.6 428.9 21
-1 7 -7 34900.7 406.349 26
-1 7 -7 34371.9 378.646 12
-1 7 -7 35705.5 437.071 22
-1 7 -6 12967.7 288.816 26
-1 7 -6 13208.9 295.301 22
-1 7 -6 12538.2 274.937 12
-1 -7 -5 11279.4 283.92 25
-1 7 -5 11035.4 292.252 26
-1 7 -5 11358.5 289.941 22
-1 7 -5 11578.2 292.515 12
-1 -7 -4 14965.7 353.339 25
-1 7 -4 14822.6 352.167 26
-1 7 -4 14232.4 333.068 22
-1 7 -4 14462.4 347.022 12
-1 -7 -3 52619.9 683.79 25
-1 7 -3 51212.9 623.118 27
-1 7 -3 51010.1 666.992 26
-1 7 -3 51157.8 631.205 22
-1 7 -3 52275.4 669.091 12
-1 7 -2 33314.3 508.39 22
-1 -7 -2 33700.4 556.251 25
-1 7 -2 33079.9 540.635 26
-1 7 -2 32315.4 517.491 27
-1 7 -2 32432.3 532.185 12
-1 7 -1 19554.1 413.332 27
-1 7 -1 20529.1 392.192 22
-1 7 -1 19180.5 416.368 26
-1 -7 -1 19962.4 403.965 16
-1 -7 -1 19446.4 423.236 25
-1 7 -1 19317.8 411.905 12
-1 7 0 11085 311.88 12
-1 -7 0 11280.1 311.087 16
-1 7 0 11233.6 322.51 27
-1 7 0 10874.2 316.779 26
-1 7 1 90683.6 873.676 12
-1 7 1 90130.2 917.933 27
-1 7 1 92991.9 911.979 26
-1 7 2 14238.7 326.003 15
-1 7 2 14580.7 364.536 26
-1 7 2 14329.3 371.131 27
-1 7 2 14433.2 345.073 12
-1 7 3 8916.78 267.872 15
-1 7 3 9418.92 302.472 27
-1 7 3 9244.85 286.481 26
-1 -7 3 9233.51 257.422 11
-1 7 3 9578.49 273.32 12
-1 7 4 5293.24 227.281 27
-1 -7 4 5548.14 205.061 11
-1 7 4 5231.67 210.671 26
-1 7 4 5248.79 211.088 15
-1 -7 5 10022.5 275.301 11
-1 7 5 10621.9 310.476 27
-1 7 5 9958.2 289.612 15
-1 -7 5 10861.5 273.342 24
-1 -7 6 5881.77 207.939 11
-1 7 6 5910.62 219.718 27
-1 7 6 5780.42 218.321 15
-1 -7 6 5608.64 195.299 24
-1 -7 7 12842.5 288.684 11
-1 7 7 12847.5 303.243 15
-1 7 7 12721.7 284.129 27
-1 -7 7 12661.6 275.997 24
-1 -7 8 2307.22 105.045 16
-1 7 8 2476.33 123.402 15
-1 -7 8 2451.7 112.786 24
-1 -7 8 2456.3 117.68 11
-1 -7 9 35502.2 343.931 24
-1 -7 9 36680.2 361.925 11
-1 8 -7 1552.94 63.1316 22
-1 8 -6 24221.2 306.416 26
-1 8 -6 24212.8 303.004 22
-1 8 -6 24561.9 293.353 12
-1 8 -5 13471.8 269.908 26
-1 -8 -5 12839.5 233.896 25
-1 8 -5 13402.4 262.367 12
-1 8 -5 13667.9 255.964 22
-1 8 -4 25513.6 399.598 12
-1 8 -4 25572.1 406.407 26
-1 8 -4 25067.6 371.442 22
-1 -8 -4 25487.8 386.499 25
-1 8 -3 10211.3 248.007 22
-1 8 -3 10111.8 242.1 27
-1 8 -3 10114 275.221 26
-1 -8 -3 10416 273.536 25
-1 8 -3 10461.2 275.67 12
-1 8 -2 3281.89 153.494 27
-1 8 -2 3470.81 171.517 26
-1 8 -2 3378.98 145.519 22
-1 -8 -2 3576.69 171.164 25
-1 8 -2 3374.69 165.973 12
-1 -8 -1 16618.1 372.229 25
-1 8 -1 16502 355.323 27
-1 -8 -1 16466.1 335.636 16
-1 8 -1 16726.9 369.807 26
-1 8 -1 16169 356.671 12
-1 -8 0 40425.1 546.601 16
-1 8 0 40038.3 569.942 27
-1 -8 0 39238.9 574.167 25
-1 8 0 40916.6 560.061 12
-1 8 0 41024.6 579.879 26
-1 8 1 1359.04 113.547 26
-1 8 1 1284.34 113.424 27
-1 8 1 1412.06 109.888 12
-1 -8 1 1392.16 112.146 16
-1 -8 2 18627.7 383.969 16
-1 8 2 18002.4 389.432 27
-1 8 2 18275.7 358.856 12
-1 8 2 18592.4 381.982 26
-1 8 3 5726.5 221.683 27
-1 -8 3 5391.36 210.195 16
-1 8 3 5376.86 182.333 15
-1 8 3 5772.24 191.494 12
-1 8 3 5329.84 198.311 26
-1 -8 4 16244.3 295.948 11
-1 -8 4 16668.9 351.119 16
-1 8 4 16365.3 356.418 27
-1 8 4 15722.3 309.817 15
-1 -8 5 19807.5 319.562 11
-1 -8 5 20003.1 361.205 16
-1 8 5 19993.8 339.448 15
-1 8 5 20158.9 369.533 27
-1 8 6 12963.9 265.31 27
-1 -8 6 12945.8 244.103 11
-1 -8 6 12684.7 259.9 16
-1 8 6 13122.8 259.467 15
-1 -8 7 1142.81 69.6437 11
-1 -8 7 1108.36 69.3817 16
-1 8 7 1233.31 74.8 15
-1 -8 8 29341.5 259.973 11
-1 8 8 30636.2 282.57 15
-1 9 -4 9510.26 178.399 12
-1 9 -4 9972.51 186.873 26
-1 9 -3 391.823 51.067 26
-1 -9 -3 371.45 43.7705 25
-1 9 -3 387.968 49.9159 12
-1 -9 -2 61182.6 535.703 25
-1 9 -2 60414.1 472.511 27
-1 9 -2 62982.3 561.512 26
-1 9 -2 63000.1 545.594 12
-1 9 -1 1705.33 93.4831 27
-1 9 -1 1768.73 100.431 12
-1 -9 -1 1604.43 97.8107 25
-1 -9 -1 1758.55 83.9718 16
-1 9 -1 1638.51 100.91 26
-1 9 0 8560.64 214.884 27
-1 -9 0 8418.4 198.032 16
-1 9 0 8807.6 222.409 26
-1 -9 0 8584.52 223.433 25
-1 9 0 8760.93 212.597 12
-1 -9 1 30877.5 421.156 25
-1 -9 1 31071.7 394.01 16
-1 9 1 30582.3 402.915 26
-1 9 1 30563.2 382.604 12
-1 9 1 30283.5 412.629 27
-1 9 2 12262.3 264.181 27
-1 -9 2 12965.7 269.061 25
-1 -9 2 13313.5 260.808 16
-1 9 2 12576.1 227.122 12
-1 -9 3 1622.29 94.6269 16
-1 9 3 1467.93 93.7041 27
-1 -9 3 1396.66 90.002 25
-1 9 4 22743 320.194 27
-1 9 4 21732.5 297.621 19
-1 -9 4 22300.6 309.709 16
-1 -9 4 22088.6 306.378 25
-1 -9 5 125.163 30.9689 25
-1 -9 5 159.461 34.1976 16
-1 9 5 171.618 35.3025 27
0 0 -13 44.2266 20.9777 21
0 0 -12 41449.4 479.383 21
0 0 -11 129.705 55.0963 21
0 0 -10 135576 1099.4 21
0 0 -9 63.0265 52.2444 21
0 0 -8 100593 1094.8 5
0 0 -8 96673.7 890.305 21
0 0 -7 74.1601 50.7264 2
0 0 -7 26.8792 36.559 5
0 0 -7 47.2928 30.846 1
0 0 -6 216511 1485.63 2
0 0 -6 214560 1262.19 1
0 0 -5 81.7773 32.5316 1
0 0 -5 123.242 39.9471 5
0 0 -5 87.275 44.4517 2
0 0 -4 147216 809.851 1
0 0 -4 144393 925.992 2
0 0 -3 21.1537 9.48985 10
0 0 -3 27.2583 23.2687 5
0 0 -3 9.63978 19.1075 1
0 0 -2 398501 964.328 5
0 0 -2 403316 904.702 1
0 0 -1 38.356 9.28332 1
0 0 -1 49.3005 10.6951 6
0 0 1 173.456 14.3173 9
0 0 2 395000 993.142 8
0 0 2 398169 840.249 9
0 0 3 33.1636 25.429 4
0 0 3 45.6613 28.4652 8
0 0 4 143096 868.674 8
0 0 4 143565 849.475 4
0 0 5 105.573 40.1446 4
0 0 5 95.6314 40.9067 8
0 0 6 194947 1332.08 8
0 0 6 195915 1281.59 4
0 0 7 34.5784 35.2903 4
0 0 7 88.5978 45.5862 8
0 0 8 89477.9 1107.66 8
0 0 8 88699 1044.04 4
0 0 8 88930.4 827.985 23
0 0 8 87948.1 827.237 14
0 0 9 19.683 42.9436 18
0 0 9 32.752 46.9994 14
0 0 9 -10.7388 50.4879 8
0 0 9 4.9738 46.3577 23
0 0 10 143372 1113.47 14
0 0 10 144169 1092.01 23
0 0 10 142686 1010.88 18
0 0 11 8.79882 33.2463 18
0 0 11 143.965 51.701 14
0 0 11 136.519 49.0738 23
0 0 12 43620 459.691 23
0 0 12 44621 495.885 14
0 0 13 16.0436 17.4861 14
0 1 -13 3874.7 101.125 21
0 -1 -13 3487.36 95.417 21
0 -1 -12 2349.31 116.657 21
0 1 -12 2361.89 97.4711 20
0 1 -12 2428.44 118.024 21
0 1 -11 5006.37 199.586 21
0 -1 -11 4913.24 198.391 21
0 1 -10 30821.6 454.405 22
0 -1 -10 31753.8 536.304 21
0 1 -10 31915 529.95 21
0 -1 -9 8725.85 399.258 2
0 1 -9 8714.07 256.811 22
0 1 -9 8907.29 283.547 21
0 -1 -9 9091.42 292.098 21
0 -1 -8 104693 1302.71 2
0 1 -8 101964 852.163 22
0 1 -8 103329 1164.33 5
0 -1 -8 104709 940.181 21
0 1 -8 104032 922.158 21
0 1 -7 300.598 62.9561 1
0 1 -7 298.413 66.8943 5
0 -1 -7 171.864 51.8877 5
0 -1 -7 259.715 73.3896 2
0 1 -6 547.815 74.7392 1
0 1 -6 528.252 76.2782 5
0 -1 -6 601.331 88.4778 2
0 -1 -5 80997.2 828.059 2
0 -1 -5 82267.4 678.546 1
0 1 -5 81192.9 768.237 5
0 -1 -5 80721.5 713.874 5
0 1 -5 79110.8 738.422 1
0 -1 -4 17780.5 339.191 2
0 -1 -4 18382.9 281.54 1
0 1 -4 17791.9 317.507 5
0 1 -4 17484.8 307.106 1
0 -1 -4 18078.3 296.75 5
0 -1 -4 17819.7 314.244 6
0 -1 -3 13343.3 238.712 6
0 -1 -3 14029.8 259.043 2
0 1 -3 13424.3 241.48 5
0 -1 -3 14099 212.391 1
0 -1 -3 13518.2 223.246 5
0 1 -2 650345 1390.23 1
0 1 -2 647755 819.144 7
0 -1 -2 647467 1269.74 5
0 1 -1 343574 502.329 9
0 1 -1 346451 871.266 1
0 -1 0 5981.43 70.4854 8
0 1 0 6181.86 93.9508 9
0 1 1 329868 485.338 8
0 -1 1 335446 800.84 8
0 1 2 683840 1497.58 9
0 1 2 683467 1129.48 8
0 1 3 15295.5 220.759 8
0 -1 3 14431.4 256.328 8
0 1 3 15770.2 262.146 9
0 -1 3 14723.6 205.901 4
0 -1 4 22070.3 301.453 4
0 1 4 21808.5 316.113 8
0 -1 4 22161.4 369.488 8
0 1 4 22348.9 347.928 9
0 -1 5 77647.3 790.392 8
0 -1 5 79388.5 665.778 4
0 1 5 79048.2 696.666 8
0 1 5 78283.1 792.855 4
0 1 6 365.45 59.6313 8
0 -1 6 405.128 74.3171 8
0 -1 6 487.13 63.9862 4
0 1 6 433.464 75.5342 4
0 -1 7 410.115 80.3557 8
0 1 7 447.794 74.0959 8
0 1 7 398.646 77.3103 4
0 -1 8 104673 894.785 14
0 -1 8 110327 1281.45 8
0 1 8 109337 937.28 14
0 -1 8 105136 921.46 23
0 1 8 104921 1225.47 4
0 -1 9 7546.18 357.414 8
0 -1 9 7426.21 251.151 14
0 -1 9 7498.19 258.973 23
0 1 9 7570.95 261.897 14
0 1 9 7333.05 350.007 4
0 -1 9 8057.64 262.257 18
0 1 9 7263.26 243.443 23
0 -1 10 30661.4 494.319 18
0 -1 10 30257.9 499.015 14
0 -1 10 30541.5 513.912 23
0 1 10 30006.5 477.881 23
0 1 10 30363.8 518.303 14
0 -1 11 5297.4 188.821 18
0 1 11 5114.77 180.667 23
0 -1 11 5264.83 195.888 14
0 1 11 5362.69 208.289 14
0 -1 11 5318.07 202.259 23
0 -1 12 2725.2 108.279 18
0 -1 12 2683.9 117.381 14
0 1 12 2564.97 123.898 14
0 -1 12 2609.9 120.544 23
0 1 13 3418.45 97.4521 14
0 -2 -12 16027.8 276.186 21
0 2 -12 16054 276.715 21
0 2 -11 5545.54 168.991 22
0 2 -11 5732.49 203.595 21
0 -2 -11 5690.29 205.56 21
0 2 -10 23324.3 443.13 21
0 2 -10 23169.7 404.422 22
0 -2 -10 24266 463.989 21
0 2 -9 559.791 80.0419 21
0 -2 -9 670.056 89.5243 21
0 2 -8 22830.3 579.701 5
0 2 -8 23547.1 580.928 1
0 2 -8 22494 433.663 21
0 -2 -8 23763.4 637.805 2
0 2 -8 22292.2 417.405 22
0 -2 -8 22840.2 451.956 21
0 2 -7 59156.1 855.727 1
0 2 -7 60355.4 868.121 5
0 -2 -7 59934.4 930.561 2
0 -2 -6 31692.7 616.822 2
0 2 -6 32664.1 586.228 5
0 -2 -6 31447 506.488 5
0 2 -6 31596.8 572.557 1
0 -2 -6 32002.1 576.059 6
0 -2 -5 36808 567.6 6
0 2 -5 35107.8 551.74 5
0 -2 -5 35766.4 493.26 5
0 2 -5 36542.5 557.594 1
0 -2 -5 36272.5 592.615 2
0 -2 -4 20332 396.755 2
0 -2 -4 19835.9 378.729 6
0 2 -4 19930.9 376.247 5
0 2 -4 19444.7 365.088 1
0 -2 -4 19815.8 332.328 5
0 -2 -3 75571.6 672.877 6
0 -2 -3 75125.9 669.684 2
0 2 -3 73672.2 645.295 5
0 -2 -3 75782.5 575.934 5
0 2 -3 74423 645.479 1
0 2 -3 72958.5 419.351 7
0 -2 -2 30656.5 327.435 3
0 2 -2 30539.5 373.007 5
0 -2 -2 31063.4 389.217 2
0 -2 -2 29935.5 384.878 6
0 2 -2 30431.5 376.631 1
0 -2 -1 54757.4 378.057 3
0 2 -1 53726.2 448.25 5
0 -2 -1 53463 465.958 2
0 2 -1 54611.1 464.358 1
0 2 0 307856 948.664 9
0 -2 0 303934 722.539 8
0 -2 1 57472.4 451.51 6
0 2 1 58285.2 474.627 9
0 -2 2 36768.3 255.9 4
0 -2 2 35997.8 384.46 8
0 2 3 74162.8 412.959 8
0 -2 3 77659.7 427.942 4
0 -2 3 76219.2 647.765 8
0 2 3 73487.1 672.141 9
0 2 4 18074.8 255.572 8
0 -2 4 17912.4 361.408 8
0 2 4 17630.7 362.039 9
0 2 5 39086.1 589.334 9
0 -2 5 39437.5 597.544 8
0 2 5 39513.7 448.139 8
0 -2 6 33420.6 616.049 8
0 2 6 34401.1 642.808 4
0 -2 7 58704.8 903.003 8
0 2 7 60669.5 931.677 4
0 2 8 20925.1 417.539 14
0 -2 8 20609.7 412.922 18
0 -2 8 20764.1 582.456 8
0 -2 8 20585.9 389.295 14
0 -2 8 20604 414.16 23
0 2 8 20492.3 584.363 4
0 2 9 452.851 76.1145 14
0 -2 9 410.576 73.0157 18
0 -2 9 422.278 69.9064 14
0 -2 9 437.373 73.7892 23
0 -2 10 20734.6 412.939 18
0 -2 10 20563 389.717 14
0 2 10 20359.1 416.429 14
0 -2 10 20337.6 387.252 24
0 -2 10 20523.6 421.409 23
0 2 11 5746.79 205.073 14
0 -2 11 5464.84 193.974 18
0 -2 11 5494.24 176.922 24
0 -2 11 5656 184.381 14
0 -2 11 5739.69 206.516 23
0 -2 12 17338.4 291.541 23
0 -2 12 16878.3 241.564 14
0 2 12 17417.9 291.297 14
0 -2 12 17588.2 273.068 18
0 -3 -12 3585.52 116.378 21
0 3 -12 3911.63 122.061 21
0 3 -11 7492.94 214.812 21
0 3 -11 7270.44 186.558 22
0 -3 -11 7711.28 221.012 21
0 -3 -10 8199.04 262.081 21
0 3 -10 8306.2 241.105 22
0 3 -10 8432.49 258.061 21
0 3 -9 47089.3 631.874 21
0 3 -9 47115.3 614.168 22
0 -3 -9 46853.1 658.364 21
0 3 -8 3308.74 242.771 1
0 3 -8 3541.1 242.454 5
0 3 -8 3466.37 175.296 21
0 -3 -8 2953.52 237.092 2
0 3 -8 3423.76 172.994 22
0 -3 -8 3069.75 174.972 21
0 -3 -7 90773.1 879.04 21
0 -3 -7 88100.3 1198.45 2
0 3 -7 90339.1 837.005 21
0 3 -7 90020.5 1141.11 5
0 3 -7 88300.9 823.502 22
0 -3 -7 87611.5 1125.54 6
0 3 -7 86991 1130.57 1
0 3 -6 32969.3 642.71 5
0 -3 -6 33947.3 686.454 2
0 -3 -6 33048.8 654.44 6
0 -3 -5 26661.9 546.702 6
0 3 -5 26880.9 533.486 5
0 3 -5 26008.7 528.825 1
0 -3 -5 26186.8 448.881 5
0 -3 -5 25939 549.49 2
0 -3 -4 47025.1 672.329 6
0 -3 -4 45576 659.737 2
0 3 -4 44793.7 636.124 1
0 3 -4 46296.7 642.281 5
0 -3 -4 46257.6 560.824 5
0 -3 -3 20078.6 409.258 6
0 3 -3 20195.1 389.999 5
0 -3 -3 20140.8 348.581 5
0 -3 -3 19930.7 401.124 2
0 3 -3 19248.5 299.153 7
0 -3 -2 158103 1063.12 6
0 3 -2 157676 631.09 9
0 3 -2 156683 1026.34 1
0 -3 -1 142843 952.437 6
0 -3 -1 144228 742.115 3
0 3 -1 144115 728.533 9
0 3 -1 142267 923.476 1
0 -3 0 49011.7 352.712 8
0 -3 0 48568.1 433.955 3
0 -3 1 153669 934.774 6
0 3 1 150973 930.873 9
0 -3 1 154474 833.343 3
0 -3 1 150696 743.414 8
0 -3 2 146658 863.469 8
0 -3 2 147519 926.171 6
0 3 2 145766 1008.09 9
0 -3 2 146657 888.622 3
0 -3 3 18855.1 354.676 8
0 -3 3 18703.6 342.665 6
0 3 3 19546.9 403.677 9
0 3 4 44103.7 653.586 9
0 -3 4 44312.1 559.394 6
0 3 5 24059.6 524.047 9
0 -3 5 24600.2 441.424 6
0 -3 5 24632.1 508.048 8
0 -3 6 38611.2 703.949 8
0 3 6 38044 735.519 4
0 -3 7 90555.3 1164.42 8
0 3 7 85321 812.138 15
0 3 7 90572.2 885.604 28
0 -3 7 89026.5 832.507 18
0 3 7 89058.3 809.943 14
0 -3 7 86256.4 815.976 23
0 3 7 86572.9 1196.46 4
0 3 8 2182.58 139.498 14
0 -3 8 2150.76 143.133 18
0 3 8 2228.91 139.929 15
0 -3 8 2356.05 203.797 8
0 -3 8 2072.12 139.253 23
0 3 8 2125.16 206.723 4
0 -3 9 47034.8 637.196 18
0 3 9 47277 594.045 15
0 3 9 47090.3 622.065 14
0 -3 9 47755.9 642.548 23
0 -3 10 8130.29 256.861 18
0 3 10 8313.17 252.281 14
0 -3 10 7980.39 244.856 24
0 -3 10 8207.41 258.95 23
0 3 11 7800.97 214.071 14
0 -3 11 7377.44 200.754 24
0 -3 11 7713.53 222.167 23
0 -3 11 7582.43 216.796 18
0 3 12 2514.14 95.5526 14
0 -3 12 2557.42 100.106 18
0 -3 12 2521.56 102.308 23
0 4 -11 8812.94 186.678 22
0 4 -11 8771.71 202.833 21
0 -4 -11 8685.41 202.547 21
0 4 -10 7424.83 223.558 21
0 4 -10 7440.34 216.197 22
0 -4 -10 7122.35 225.324 21
0 4 -9 10469.7 291.383 21
0 -4 -9 10518.7 302.884 21
0 4 -9 10676 289.752 22
0 4 -8 37334.6 562.853 22
0 4 -8 37206 559.179 21
0 -4 -8 37526.2 590.096 21
0 4 -7 58149.4 698.914 22
0 4 -7 57954.5 688.678 21
0 -4 -7 60014.9 705.566 25
0 -4 -7 57343 990.344 6
0 4 -7 57046.4 636.666 26
0 -4 -7 57723.7 1020.22 2
0 4 -6 21965.8 585.061 1
0 -4 -6 22209.2 426.597 25
0 4 -6 21767.8 389.127 26
0 4 -6 21748.2 408.089 21
0 4 -6 22364.2 419.343 22
0 -4 -6 21962 596.616 2
0 -4 -5 91325 1126.74 2
0 -4 -5 90508.6 1131.67 6
0 -4 -4 72464.5 955.906 6
0 -4 -4 71492.3 929.698 2
0 -4 -4 73749.5 786.595 5
0 -4 -3 113707 1126.09 6
0 4 -3 113927 897.181 7
0 -4 -3 113444 1088.73 2
0 -4 -2 110590 1050.14 6
0 -4 -2 107436 1006.12 2
0 4 -2 108062 995.697 1
0 4 -1 76311.8 805.521 1
0 -4 -1 75063.1 826.792 6
0 4 -1 75296.5 641.57 9
0 -4 -1 75966 816.368 2
0 -4 0 11365.9 314.944 6
0 -4 0 11735.1 247.299 3
0 4 0 10885.8 271.212 9
0 4 1 75285.6 769.59 9
0 -4 1 78559.1 608.784 8
0 -4 1 78410.5 673.97 3
0 -4 1 74656.3 784.766 6
0 -4 2 109183 951.056 6
0 4 2 111430 1007.44 9
0 -4 2 111099 874.034 3
0 -4 2 110395 824.727 8
0 -4 3 109905 979.028 6
0 4 3 112553 1092.44 9
0 -4 3 110569 925.798 8
0 -4 4 79892.6 865.779 6
0 4 4 80833.4 996.846 9
0 -4 4 82611 905.723 3
0 -4 4 81049.8 886.038 8
0 -4 5 81686.7 983.09 8
0 4 5 83524.9 1085.51 9
0 -4 5 84290.3 922.33 6
0 -4 6 20030 385.103 18
0 4 6 20850.7 419.525 28
0 4 6 20365.8 411.325 15
0 -4 6 20572 538.154 8
0 4 6 20686.8 405.199 27
0 -4 6 20810.2 386.488 23
0 4 6 20251.2 580.993 4
0 -4 7 53984.9 663.247 18
0 4 7 55088.3 1012.48 4
0 4 7 54136.7 689.5 15
0 4 7 56849.5 723.059 28
0 -4 7 53307.1 924.974 8
0 -4 7 54430.8 655.089 23
0 4 8 37887.6 527.07 14
0 -4 8 37748.8 563.136 18
0 4 8 37067.2 569.567 15
0 -4 8 37899.9 573.031 24
0 -4 8 37679.8 559.222 23
0 -4 9 10331.9 293.629 24
0 -4 9 10204.4 289.772 18
0 -4 9 10316.4 275.55 11
0 4 9 10367.5 285.614 15
0 -4 9 10452 288.992 23
0 4 9 10116.1 265.504 14
0 -4 10 6967.75 198.373 11
0 -4 10 7206.23 224.686 18
0 4 10 7040 203.291 15
0 4 10 6875.49 198.951 14
0 -4 10 6960.38 218.648 24
0 -4 10 7357.54 224.628 23
0 -4 11 9917.65 221.483 18
0 4 11 9911.98 189.745 14
0 -4 11 9653.91 214.921 23
0 -4 11 9450.27 207.836 24
0 5 -11 2000.89 72.2192 22
0 5 -10 7215.89 191.152 22
0 5 -10 7341.76 191.991 21
0 -5 -10 7301.98 192.196 21
0 5 -9 12647.1 292.473 21
0 5 -9 12691.3 296.434 22
0 -5 -9 12532.1 299.022 21
0 -5 -8 7669.08 240.019 25
0 5 -8 7546.1 245.588 21
0 5 -8 7488.12 251.227 22
0 -5 -8 7655.3 257.619 21
0 5 -7 29967.6 499.817 21
0 -5 -7 31105.5 515.58 25
0 5 -7 29668.3 470.124 26
0 5 -7 30275 510.491 22
0 5 -6 19888.2 382.469 12
0 -5 -6 20098.1 604.28 2
0 5 -6 20122.8 413.179 22
0 5 -6 19849 392.154 26
0 5 -6 19428.6 398.905 21
0 -5 -6 20106.1 427.758 25
0 5 -5 4334.98 182.302 12
0 -5 -5 4412.29 273.32 2
0 -5 -5 4035.76 270.978 6
0 5 -5 4313.66 187.802 21
0 -5 -5 4291.59 200.261 25
0 5 -5 4685.32 192.301 26
0 5 -5 4333.89 191.603 22
0 5 -4 21454.7 392.633 12
0 -5 -4 21135 582.323 6
0 -5 -4 20665.3 416.289 25
0 -5 -4 21038.8 559.907 2
0 5 -4 20187.4 546.823 1
0 5 -4 19837.6 380.903 21
0 5 -4 20850.2 390.102 26
0 5 -4 21327.6 399.93 22
0 -5 -3 53132.6 882.399 6
0 5 -3 50701.1 820.643 1
0 5 -3 51592.9 714.281 7
0 -5 -3 52741.2 842.8 2
0 -5 -2 1605.35 153.673 6
0 -5 -2 1342.36 134.306 2
0 5 -2 1303.28 131.38 1
0 -5 -1 10192.1 359.7 6
0 -5 -1 11077.5 362.996 2
0 5 -1 10300.4 345.243 1
0 -5 0 283719 1790.5 2
0 -5 0 283981 1824.88 6
0 5 0 284297 1762.07 1
0 -5 1 11459 364.004 6
0 5 1 11636.4 346.782 9
0 -5 2 2043.37 157.329 6
0 5 2 2539.42 176.235 9
0 -5 3 47405.7 745.407 6
0 5 3 47831.7 798.864 9
0 5 4 16937.1 375.365 27
0 -5 4 17693.7 461.792 6
0 5 4 18217.2 379.582 15
0 -5 4 17141.7 351.143 24
0 5 4 18461.3 529.339 9
0 -5 4 17773.2 447.543 8
0 5 5 5129.78 218.069 27
0 5 5 5264.76 207.946 28
0 -5 5 5288.23 194.33 18
0 5 5 5118 214.354 15
0 -5 5 5095.15 263.96 8
0 -5 5 4938.18 202.139 24
0 5 5 4939.06 291.228 4
0 5 6 20377.8 430.217 27
0 -5 6 21069.1 398.585 18
0 5 6 21317.2 623.754 4
0 5 6 21968.1 447.53 15
0 -5 6 21519.2 573.3 8
0 -5 6 21326.6 426.725 24
0 -5 6 22384.8 401.145 23
0 5 6 22171.4 440.129 28
0 -5 7 28584.3 472.194 18
0 -5 7 28900.2 493.695 11
0 5 7 28756.5 498.805 27
0 5 7 28734.3 514.317 15
0 -5 7 29887.5 474.982 23
0 -5 7 29352.4 504.402 24
0 5 7 29634 518.848 28
0 -5 8 6047.8 217.954 18
0 -5 8 6552.9 229.597 11
0 5 8 6069.93 233.455 15
0 -5 8 6183.15 233.094 24
0 -5 8 6340.56 218.094 23
0 -5 9 12640.5 291.737 18
0 -5 9 12819 290.868 11
0 5 9 12918.5 304.255 15
0 -5 9 12757.5 284.584 23
0 -5 9 12512.9 303.979 24
0 -5 10 7167.83 192.949 18
0 -5 10 7374.55 183.783 11
0 -5 10 7272.87 184.137 23
0 -5 10 7267.7 200.279 24
0 5 10 6998.21 184.106 15
0 -5 11 2597.22 91.363 18
0 -5 11 2534.7 91.316 24
0 6 -10 61874.7 442.849 22
0 6 -9 4950.33 164.12 22
0 -6 -9 4808.22 152.171 21
0 6 -8 55468.6 617.577 22
0 6 -8 55052.8 530.004 26
0 6 -8 54213.7 580.083 21
0 -6 -8 55361 599.055 21
0 6 -7 22.3418 37.4152 12
0 6 -7 85.3234 46.7008 21
0 6 -7 26.6369 39.8838 26
0 -6 -7 93.301 50.7171 25
0 6 -7 38.2568 49.1497 22
0 6 -6 12479.5 307.488 12
0 -6 -6 12354.4 334.017 25
0 6 -6 12280.7 310.946 26
0 6 -6 12490.2 316.309 21
0 6 -6 12543.7 328.069 22
0 6 -5 35321.9 534.753 21
0 6 -5 35644.9 542.835 26
0 6 -5 35345.4 549.209 22
0 -6 -5 35613 582.318 25
0 6 -5 35336.4 533.912 12
0 -6 -4 19150.8 602.597 6
0 -6 -4 19386.7 433.065 25
0 6 -4 19150.6 402.045 26
0 -6 -4 18993.7 573.134 2
0 6 -4 19395.2 403.867 22
0 6 -4 19677 404.489 12
0 -6 -3 2434.99 217.745 6
0 6 -3 2291.01 199.315 1
0 -6 -3 2428.85 208.005 2
0 6 -3 2432.2 147.923 22
0 -6 -3 2527.62 147.36 16
0 6 -3 2283.87 144.478 26
0 -6 -3 2259.17 152.874 25
0 6 -3 2021.59 135.135 12
0 -6 -2 147951 1516.64 2
0 -6 -2 145875 1069.16 16
0 6 -2 148595 1428.18 7
0 -6 -2 145640 1566.18 6
0 6 -2 146293 1049.2 27
0 6 -2 148109 1095.7 26
0 -6 -2 147803 1136.04 25
0 6 -2 144606 1060.59 22
0 6 -2 146433 1082.84 12
0 -6 -1 18476.4 547.581 6
0 -6 -1 19058.8 531.997 2
0 -6 -1 18497.6 383.798 16
0 6 -1 18529.9 380.683 27
0 6 -1 18706.2 394.036 26
0 6 -1 18736.4 386.841 12
0 6 -1 18264.6 372.796 22
0 6 -1 18561.7 520.438 7
0 6 -1 17658.5 510.004 1
0 -6 0 75634.7 1078.91 6
0 6 0 74998 778.87 27
0 6 0 75162.6 785.723 26
0 6 0 73051.5 739.1 22
0 6 0 73344.5 1011.67 1
0 6 0 74914.4 766.396 12
0 -6 1 17602.5 506.839 2
0 -6 1 16845.2 503.119 6
0 6 1 16221.5 469.356 1
0 6 1 17513.4 470.343 9
0 6 1 16568.1 377.301 27
0 6 1 16790.2 378.886 26
0 6 1 16627.1 362.7 12
0 -6 2 152447 1491.24 6
0 -6 2 148528 1019.57 11
0 6 2 150766 1463.24 9
0 6 2 151125 1148.65 27
0 6 2 143632 1114.84 26
0 6 2 149262 1047.91 15
0 6 2 148518 1389.4 1
0 6 2 146452 1074.96 12
0 -6 3 3102.67 222.413 6
0 -6 3 2933.42 155.029 11
0 6 3 2964.09 170.349 27
0 6 3 3340.53 169.35 12
0 6 3 3050.15 229.315 9
0 6 3 3069.37 172.578 26
0 6 3 3045.52 162.51 15
0 -6 3 3049.7 157.257 24
0 6 4 21093 449.144 27
0 -6 4 21625 416.71 11
0 6 4 21357.1 438.097 26
0 6 4 21877.7 435.621 15
0 -6 4 21815.1 417.237 24
0 6 4 20821.9 578.156 4
0 6 5 37035.2 574.862 15
0 6 5 35644.3 588.4 27
0 -6 5 35824.7 547.61 11
0 6 5 35421.4 519.529 28
0 -6 5 36040.6 546.164 24
0 -6 6 12213.6 321.699 24
0 -6 6 12069.7 320.749 11
0 6 6 11895.7 334.348 27
0 6 6 11912.8 332.335 15
0 -6 6 12492.6 290.581 18
0 6 7 403.457 72.345 27
0 -6 7 110.12 57.5896 11
0 6 7 186.718 67.8322 15
0 -6 7 104.067 54.1349 24
0 -6 7 474.528 67.3452 18
0 -6 8 57128.2 569.528 18
0 -6 8 58027.7 627.572 11
0 6 8 58799.4 653.863 15
0 -6 8 57697.6 633.292 24
0 -6 9 5196.2 153.546 18
0 -6 9 5283.52 165.837 11
0 6 9 5359.78 174.42 15
0 -6 9 5393.7 174.959 24
0 -6 10 60368.9 410.927 11
0 6 10 60040.6 419.299 15
0 -6 10 60156.2 454.92 24
0 7 -9 15914.9 218.698 22
0 7 -8 10713.2 228.372 22
0 -7 -8 10549.6 194.834 21
0 -7 -7 25406.3 370.601 25
0 7 -7 25621.5 363.538 26
0 7 -7 26073.1 404.449 22
0 7 -7 26643.4 351.183 12
0 -7 -7 25187 366.194 21
0 7 -6 45065.1 574.598 22
0 -7 -6 44722.7 568.961 25
0 7 -6 44137.1 529.991 12
0 7 -6 43919.5 541.148 26
0 7 -5 802.501 88.4816 26
0 7 -5 902.656 95.3205 22
0 -7 -5 849.488 96.584 25
0 7 -5 858.336 91.5553 12
0 7 -4 19468.7 405.265 26
0 7 -4 20016.8 407.509 12
0 -7 -4 20711.6 440.271 25
0 7 -4 20226.1 408.615 22
0 -7 -3 2015.49 131.409 16
0 7 -3 1845.27 121.623 27
0 7 -3 1845.62 135.903 26
0 -7 -3 2220.33 152.293 25
0 7 -3 2107.36 141.415 12
0 -7 -2 40496.5 618.227 25
0 7 -2 40431.4 579.119 22
0 -7 -2 40578.4 582.283 16
0 7 -2 40373 601.449 26
0 7 -2 39180.1 564.667 27
0 7 -2 40785.6 596.111 12
0 7 -1 46044.9 610.837 22
0 -7 -1 45953.2 655.339 25
0 -7 -1 45526.4 625.884 16
0 7 -1 45470 623.736 27
0 7 -1 46354.9 651.21 26
0 7 -1 44448.1 625.105 12
0 -7 0 99121 929.841 16
0 7 0 99754 945.455 27
0 7 0 98261 952.437 26
0 7 0 98835.1 926.153 12
0 7 1 47975.3 671.029 26
0 -7 1 48501.5 658.724 16
0 7 1 47323.2 658.36 27
0 7 1 47020.5 636.986 12
0 -7 2 37553.8 519.629 11
0 7 2 35830.1 513.799 15
0 7 2 36593.2 586.655 27
0 7 2 36866.1 588.111 26
0 7 2 36282.8 552.445 12
0 7 3 2265.35 139.071 15
0 -7 3 2324.98 138.208 11
0 7 3 2260 154.797 27
0 7 3 2257.4 150.168 26
0 -7 3 2494.2 137.283 24
0 7 3 2643.74 150.951 12
0 -7 4 20993.7 404.947 11
0 7 4 21233 451.035 27
0 7 4 21526.4 417.886 15
0 -7 4 21457.2 397.135 24
0 -7 5 1616.89 120.812 11
0 -7 5 1539.74 112.395 24
0 7 5 1727.35 134.469 27
0 7 5 1760.25 126.482 15
0 7 6 46032.5 601.506 27
0 7 6 46155.8 536.152 19
0 -7 6 44493.8 551.607 16
0 7 6 45166.4 583.557 15
0 -7 6 45882.5 558.235 24
0 -7 6 46132.1 571.961 11
0 -7 7 28448.1 417.062 11
0 7 7 27238.2 411.399 27
0 -7 7 27429.8 377.171 16
0 7 7 28087.2 428.194 15
0 -7 7 28176.4 408.013 24
0 7 8 10824.2 235.167 15
0 -7 8 10636.4 222.782 24
0 -7 8 10723 225.296 11
0 -7 9 14697.7 205.881 11
0 7 9 14829.6 216.064 15
0 -7 9 14906.6 207.273 24
0 8 -7 5904.89 146.771 22
0 -8 -6 4076.46 134.213 25
0 8 -6 4119.6 132.409 12
0 8 -6 4166 144.297 22
0 8 -6 3973.57 135.185 26
0 -8 -5 24904.8 384.267 25
0 8 -5 25475.8 383.438 26
0 8 -5 25458 381.935 22
0 8 -5 24889.5 372.143 12
0 8 -4 6261.91 210.703 26
0 8 -4 6569.13 206.999 22
0 -8 -4 6657.78 221.243 25
0 8 -4 6173.43 206.723 12
0 -8 -3 9384.17 239.917 16
0 8 -3 9678.04 274.446 26
0 -8 -3 9513.17 278.714 25
0 8 -3 9602.31 256.537 22
0 8 -3 9286.26 265.936 12
0 -8 -2 2583.28 154.647 25
0 -8 -2 2751.73 143.546 16
0 8 -2 2584.68 137.031 27
0 8 -2 2740.39 157.022 26
0 8 -2 2620 139.053 22
0 8 -2 2840.79 157.193 12
0 8 -1 2428.75 152.295 26
0 8 -1 2481.21 148.467 12
0 8 -1 2386.64 131.941 22
0 -8 -1 2423.79 142.654 16
0 8 -1 2555.82 143.872 27
0 -8 -1 2531.33 155.449 25
0 8 0 21478.9 414.473 12
0 -8 0 20755.1 423.995 25
0 -8 0 21848.9 419.132 16
0 8 0 21427.2 429.41 26
0 8 0 21192.8 412.687 27
0 -8 1 3117.19 166.016 16
0 8 1 3296.81 173.047 27
0 8 1 3387.71 166.752 12
0 8 1 3375.73 175.532 26
0 8 2 1773.78 120.749 12
0 -8 2 1647.53 124.38 16
0 8 2 1641.75 127.414 27
0 8 2 1928.68 132.439 26
0 -8 3 9279.79 235.19 11
0 8 3 9348.42 280.545 27
0 -8 3 9503.53 273.773 16
0 8 3 8953.35 230.591 15
0 8 3 9389.72 250.162 12
0 -8 4 8199.1 219.863 11
0 -8 4 7909.66 237.37 16
0 8 4 8305.35 254.193 27
0 8 4 8020.24 218.692 15
0 8 5 25455.1 411.481 27
0 8 5 25036.8 374.804 19
0 -8 5 25074.7 385.924 16
0 8 5 25140.7 371.144 15
0 -8 5 25076.4 335.346 24
0 -8 5 25643.7 369.985 11
0 -8 6 4500.72 146.458 11
0 -8 6 4303.15 142.004 16
0 8 6 4479.56 154.403 27
0 8 6 4429.6 147.087 15
0 -8 6 4188.73 127.906 24
0 -8 7 5216.24 134.9 11
0 8 7 5219.01 137.409 15
0 -8 7 4815.71 114.068 24
0 9 -5 29460 271.95 12
0 9 -5 27495.7 271.773 26
0 9 -4 3205.45 112.78 12
0 9 -4 3158.92 114.781 26
0 -9 -4 3109.64 110.011 25
0 9 -3 1425.33 86.9624 12
0 9 -3 1513.64 90.7133 26
0 -9 -3 1434.41 87.2296 25
0 -9 -2 4990.61 168.782 25
0 9 -2 5314.41 142.757 27
0 -9 -2 4930.43 140.971 16
0 9 -2 5099.7 169.898 26
0 9 -2 4749.31 143.44 19
0 9 -2 5240.92 169.3 12
0 9 -1 32509.4 434.486 26
0 -9 -1 32205.2 435.577 25
0 -9 -1 32251.7 394.622 16
0 9 -1 32736.6 395.221 27
0 9 -1 32588.8 422.4 12
0 -9 0 1365.08 91.7092 16
0 9 0 1249.73 88.6094 27
0 9 0 1273.38 94.861 26
0 -9 0 1261.47 95.2427 25
0 9 0 1359.45 92.3962 12
0 9 1 30493.9 412.603 27
0 -9 1 31187.5 413.849 16
0 -9 1 30804.7 422.354 25
0 9 1 32020.4 403.958 12
0 9 2 4721.89 164.745 27
0 9 2 4649.52 163.174 19
0 -9 2 4500.27 158.408 25
0 -9 2 4781.12 162.517 16
0 9 2 4659.35 144.464 12
0 9 3 1635.71 93.3932 19
0 9 3 1536.94 93.3845 27
0 -9 3 1643.11 93.9846 16
0 -9 3 1459.71 87.0614 25
0 9 4 3047.75 110.377 19
0 9 4 3274.98 123.124 27
0 -9 4 3152.45 115.532 16
0 -9 4 3265.45 110.849 25
0 -9 5 29107.9 285.259 16
1 0 -13 4696.78 129.012 20
1 0 -13 4821.13 136.987 21
1 0 -12 3.13733 36.063 21
1 0 -11 5071.14 205.985 21
1 0 -10 41.0446 51.8882 21
1 0 -9 266563 1421.24 25
1 0 -9 259764 1490.07 21
1 0 -8 19.7068 37.8599 21
1 0 -8 84.3968 45.8458 1
1 0 -7 9496.75 333.216 2
1 0 -7 10043.7 284.239 5
1 0 -6 162.158 47.7482 1
1 0 -6 89.1474 49.0353 2
1 0 -6 108.931 38.0588 5
1 0 -5 644674 2019.5 1
1 0 -5 656627 1428.79 10
1 0 -5 625048 1756.24 5
1 0 -5 638066 2116.38 2
1 0 -4 60.8809 30.6439 1
1 0 -4 15.2713 16.6136 10
1 0 -4 36.2871 21.5858 5
1 0 -4 6.66063 26.873 2
1 0 -3 867990 1420.4 5
1 0 -3 869387 1492.31 10
1 0 -2 12.1152 18.0932 1
1 0 -2 10.8726 16.2237 10
1 0 -2 41.7264 12.5318 5
1 0 -1 43552.1 260.718 1
1 0 -1 43513.5 257.712 3
1 0 -1 43159.5 247.095 4
1 0 0 170.669 19.1743 3
1 0 0 35.9333 13.6831 10
1 0 1 456200 993.95 8
1 0 1 447135 801.5 7
1 0 2 57.6126 27.2019 4
1 0 2 90.4781 15.581 7
1 0 3 101528 676.206 8
1 0 3 102062 706.335 4
1 0 4 39.7465 37.9305 4
1 0 4 65.4438 36.0673 8
1 0 5 116998 955.273 8
1 0 5 115728 973.849 4
1 0 6 484.147 77.3625 4
1 0 6 13.5647 38.5066 8
1 0 7 73547.1 732.441 14
1 0 7 75141.1 949.3 8
1 0 7 72182.3 942.613 4
1 0 8 322.612 90.5405 4
1 0 8 187.27 50.8609 18
1 0 8 31.4268 43.7718 14
1 0 8 157.565 73.9893 8
1 0 8 14.4117 39.4237 23
1 0 9 11828.7 295.612 18
1 0 9 12035.4 329.552 14
1 0 9 12042.6 318.774 23
1 0 10 90.5715 53.7984 14
1 0 10 -0.44097 44.9337 23
1 0 11 206.547 47.8771 23
1 0 11 223.359 54.4203 14
1 0 12 76.0951 32.413 14
1 0 12 -0.96046 26.204 23
1 -1 -13 3150.96 110.146 20
1 -1 -13 3132.16 104.365 21
1 1 -13 3361.51 112.848 21
1 1 -12 751.823 76.2193 21
1 1 -12 697.824 66.9251 20
1 -1 -12 634.909 70.581 21
1 1 -11 29230.1 483.824 21
1 -1 -11 29458.6 481.86 21
1 1 -10 8499.51 277.401 21
1 -1 -10 8502.59 277.97 21
1 1 -9 29451.6 660.659 1
1 -1 -9 29162.5 502.158 21
1 -1 -9 29953.9 488.53 25
1 1 -9 29261.2 503.463 21
1 1 -8 15015 340.019 21
1 1 -8 14893.3 407.747 5
1 -1 -8 14942.3 467.423 2
1 1 -8 14571.1 434.906 1
1 -1 -8 15036.2 340.57 21
1 1 -7 107873 1004.02 5
1 1 -7 107891 1078.7 1
1 1 -6 52646 682.046 1
1 1 -6 51359.5 623.685 5
1 -1 -6 51516 539.118 5
1 -1 -6 52759 646.053 1
1 -1 -6 50316.2 685.225 2
1 -1 -5 130049 916.441 1
1 1 -5 132219 892.251 5
1 -1 -5 131413 747.35 5
1 -1 -5 130224 968.736 2
1 1 -4 10077.6 236.643 1
1 -1 -4 10425.2 230.439 1
1 1 -4 10289.3 173.593 10
1 1 -4 10315.5 220.962 5
1 -1 -4 9982.06 234.784 2
1 -1 -4 10130.3 175.42 5
1 -1 -4 9971.56 245.548 6
1 -1 -3 88085.7 621.947 3
1 1 -3 88242 568.365 5
1 1 -3 88107.1 494.812 10
1 1 -3 89441.1 614.952 1
1 1 -3 88396.7 441.376 7
1 -1 -3 89891.4 584.925 2
1 -1 -2 46146.9 335.76 2
1 1 -2 46110.6 361.412 5
1 1 -2 46780.7 348.449 10
1 1 -2 45759 374.25 1
1 -1 -2 45360.3 193.487 5
1 1 -2 46665.2 325.782 7
1 1 -1 486832 984.707 1
1 -1 -1 487573 814.52 2
1 -1 0 72422.9 342.035 6
1 -1 0 68296.5 403.867 4
1 -1 0 69705 403.698 8
1 1 0 70617.5 359.879 4
1 1 0 72259.1 287.829 1
1 -1 1 176787 479.731 6
1 1 1 177417 485.265 8
1 1 2 52053.9 347.587 8
1 1 2 51892.2 392.801 7
1 1 3 108980 618.38 8
1 1 3 107032 580.835 7
1 -1 3 107414 696.734 4
1 1 3 106928 783.726 4
1 1 4 96924.4 847.422 4
1 -1 4 95858.8 826.517 8
1 1 4 94350.3 688.452 8
1 -1 4 97507 755.677 4
1 -1 5 99837.3 949.108 8
1 1 5 102888 829.163 8
1 -1 5 101818 866.82 4
1 1 5 101717 971.956 4
1 -1 6 4153.52 218.643 8
1 -1 6 4277.42 200.304 4
1 1 6 4067.59 189.206 8
1 1 6 4584.29 234.48 4
1 -1 7 11557.5 288.296 18
1 -1 7 11102.6 386.806 8
1 -1 7 11269.4 286.726 14
1 1 7 11567.4 295.403 14
1 -1 7 11531.3 357.031 4
1 -1 7 11574.7 295.001 23
1 1 7 11200.9 394.679 4
1 1 8 22164.9 433.416 14
1 -1 8 21961.1 420.295 18
1 -1 8 22404.4 592.479 8
1 -1 8 21797.2 422.911 14
1 -1 8 22213.8 433.366 23
1 1 8 21070.5 394.238 23
1 1 8 21953.9 596.188 4
1 -1 9 30568.4 497.274 18
1 1 9 30247 517.665 14
1 -1 9 30562.1 511.041 14
1 -1 9 31115.1 520.642 23
1 1 9 29844.9 473.02 23
1 -1 10 7070.43 228.277 18
1 1 10 7103.19 218.985 23
1 1 10 7284.58 249.935 14
1 -1 10 7098.15 241.139 14
1 -1 10 7176.72 244.133 23
1 -1 11 5569.93 189.325 14
1 -1 11 5171.89 166.466 18
1 -1 11 5500.32 187.063 23
1 1 11 5450.18 194.041 14
1 -1 12 5863.1 149.863 14
1 -1 12 5926.54 147.01 23
1 1 12 5961.4 161.05 14
1 2 -13 1002.3 60.944 21
1 -2 -13 887.407 49.7011 21
1 -2 -12 6253.35 183.043 21
1 2 -12 6390.21 192.745 21
1 2 -11 1681.04 105.038 20
1 2 -11 1823.16 125.974 21
1 -2 -11 1790.24 121.343 21
1 -2 -10 493.255 72.2336 25
1 2 -10 475.068 78.3899 21
1 -2 -10 674.663 87.2391 21
1 2 -9 28180.5 450.656 22
1 -2 -9 29681 497.635 25
1 -2 -9 29979.8 721.664 2
1 2 -9 29194.7 501.233 21
1 -2 -9 29209.3 503.596 21
1 2 -8 48057.9 785.311 5
1 2 -8 46108.2 819.173 1
1 -2 -8 47910 618.302 25
1 -2 -8 47507.5 854.757 2
1 2 -8 46274.1 566.849 22
1 2 -8 47533.2 614.627 21
1 -2 -8 47435.1 619.283 21
1 2 -7 5697.01 270.805 1
1 2 -7 5821.87 255.418 5
1 -2 -7 5661.72 271.088 2
1 2 -6 51780.1 692.42 5
1 2 -6 51880.5 729.176 1
1 -2 -6 51217 731.656 2
1 -2 -6 51705.6 747.514 6
1 2 -5 22438.9 414.889 5
1 -2 -5 22404 308.212 5
1 2 -5 22783.2 438.522 1
1 -2 -5 22754.3 433.801 2
1 -2 -5 22433.5 450.508 6
1 -2 -4 128691 975.504 6
1 -2 -4 126423 924.414 3
1 2 -4 126462 893.604 5
1 2 -4 127661 632.267 7
1 2 -4 127802 932.508 1
1 -2 -4 129289 645.798 5
1 -2 -4 126579 903.456 2
1 -2 -3 24191.1 247.764 5
1 -2 -3 24103.3 381.262 6
1 -2 -3 24208.4 344.352 2
1 -2 -3 24623.4 362.025 3
1 2 -3 24525.5 360.368 5
1 2 -3 23693.6 356.766 1
1 2 -3 24093.2 291.42 7
1 -2 -2 25659.2 354.485 6
1 2 -2 24531.2 323.798 1
1 -2 -2 25326.9 335.204 3
1 -2 -2 26187.2 317.656 2
1 2 -2 25094.2 304.75 7
1 -2 -1 39993.4 403.318 6
1 -2 -1 38504.4 394.367 3
1 -2 -1 40261.6 359.11 2
1 2 -1 39020.2 228.469 4
1 2 -1 38568.2 391.956 7
1 2 -1 38916.2 368.297 1
1 2 0 131224 607.134 1
1 -2 0 129476 665.02 6
1 2 0 129607 666.705 9
1 -2 0 126920 726.408 3
1 -2 0 127490 644.157 8
1 -2 1 325764 1016.23 6
1 2 1 324360 1204.61 9
1 -2 1 324930 1130.02 8
1 -2 2 105934 627.056 4
1 -2 2 106278 592.949 6
1 2 2 104731 767.377 9
1 -2 2 106560 735.577 8
1 -2 3 20063.3 271.457 6
1 -2 3 20400.3 302.187 4
1 2 3 20562.6 212.825 8
1 -2 3 20565.6 366.829 8
1 2 3 20840.3 385.494 4
1 -2 4 32342.3 519.707 8
1 -2 4 32315.3 373.92 6
1 -2 4 32734.8 428.07 4
1 2 4 32429.6 535.451 4
1 -2 5 6482.02 260.596 8
1 -2 5 6764.68 219.535 4
1 2 5 6544.19 270.257 4
1 -2 6 35450.6 667.04 8
1 2 6 35613 688.153 4
1 -2 7 82886.9 800.403 18
1 -2 7 80462.8 759.521 14
1 2 7 83161.8 792.492 14
1 2 7 82131.4 759.265 15
1 -2 7 82461.5 1105.18 8
1 -2 7 83198.3 809.628 23
1 2 7 82781.6 1136.56 4
1 -2 8 95399 896.979 18
1 -2 8 94817.3 1270.97 8
1 -2 8 93819 861.668 14
1 -2 8 95425.1 911.13 23
1 2 8 95344 893.979 14
1 2 8 93664.5 1288.35 4
1 -2 9 8335.37 269.199 18
1 2 9 8388.65 271.154 14
1 -2 9 8073.56 247.628 24
1 -2 9 8409.31 276.075 23
1 -2 9 8256.75 259.619 14
1 -2 10 1492.41 113.646 18
1 -2 10 1400.93 98.5378 24
1 -2 10 1621.41 113.049 14
1 2 10 1469.91 115.108 14
1 2 11 5556.88 183.865 14
1 -2 11 5319.09 172.078 18
1 -2 11 5354.2 166.905 14
1 -2 11 5437.03 184.06 23
1 2 12 5254.05 134.857 14
1 -2 12 5246.78 135.002 23
1 -3 -12 22809.6 302.283 21
1 3 -12 23520.3 333.981 21
1 3 -11 2400.95 135.531 21
1 3 -11 2379.01 111.261 22
1 -3 -11 2572.47 132.626 21
1 -3 -10 12721.1 304.273 25
1 3 -10 12404.7 323.557 21
1 3 -10 11968.1 286.55 22
1 -3 -10 12230.6 314.534 21
1 3 -9 55246.8 649.568 22
1 3 -9 55809.7 696.719 21
1 -3 -9 56548.8 696.696 21
1 -3 -8 52879.5 930.328 2
1 -3 -8 53727.4 682.929 25
1 3 -8 53032 638.447 22
1 3 -8 54505.9 674.156 21
1 -3 -8 53923.1 674.412 21
1 -3 -7 101941 877.982 21
1 -3 -7 104204 1217.28 2
1 -3 -7 101698 903.603 25
1 3 -7 101983 850.62 22
1 3 -7 101898 1219.75 1
1 3 -7 103624 883.124 21
1 -3 -7 101100 1232.07 6
1 3 -6 22624.5 529.078 1
1 -3 -6 22481.7 520.768 2
1 -3 -6 22737.3 547.623 6
1 -3 -5 19968.8 475.504 6
1 -3 -5 19526.3 439.857 2
1 3 -5 19356 452.884 1
1 -3 -4 10922.7 325.056 6
1 -3 -4 10936.3 294.403 3
1 -3 -4 10585.2 293.764 2
1 3 -4 10650.5 303.935 1
1 -3 -4 10933.9 219.004 5
1 3 -4 11071 236.229 7
1 -3 -3 108627 942.828 6
1 -3 -3 106590 844.101 3
1 3 -3 105338 873.622 1
1 -3 -3 106574 841.1 2
1 3 -3 104153 760.718 7
1 -3 -2 46956 572.627 6
1 -3 -2 47874.9 526.919 3
1 -3 -2 47121.1 520.764 2
1 3 -2 46598 516.563 7
1 -3 -1 418318 1604.15 6
1 -3 -1 412212 1502.29 3
1 3 -1 415115 1273.08 9
1 -3 -1 414863 1474.79 2
1 3 -1 413993 1494.97 1
1 -3 0 85704.6 688.027 6
1 3 0 85473 657.515 9
1 -3 0 86076 703.883 3
1 -3 0 86415.6 609.369 8
1 3 0 84633.1 633.056 1
1 -3 1 315702 1296.62 6
1 -3 1 316715 1402.68 3
1 -3 1 314149 1278.92 8
1 -3 2 40618 462.333 6
1 3 2 40351.5 554.43 9
1 -3 2 41596.9 546.615 3
1 -3 2 40813.4 507.53 8
1 -3 3 121784 826.796 6
1 3 3 122390 1047.04 9
1 -3 3 123733 977.07 8
1 3 3 124533 1037.98 4
1 -3 4 13885.9 289.455 6
1 -3 4 13952 367.7 8
1 3 4 13862.7 342.84 7
1 3 4 14512.3 394.897 4
1 3 5 44798.2 758.656 4
1 -3 5 44805.3 724.533 8
1 3 5 45529.1 632.552 7
1 -3 6 60071.1 662.934 18
1 -3 6 58464.2 658.131 23
1 3 6 58693.7 662.903 15
1 -3 6 58241.1 902.133 8
1 3 6 59158.5 954.543 4
1 -3 7 62745.2 717.695 18
1 3 7 61449.4 704.679 15
1 -3 7 62128.2 1010.08 8
1 3 7 61136.6 676.504 14
1 -3 7 63099.6 661.579 14
1 -3 7 63297.6 710.431 24
1 -3 7 61881.5 717.725 23
1 3 7 62732.2 1049.95 4
1 -3 8 65162.4 750.408 18
1 -3 8 65904.6 690.398 11
1 3 8 66541.7 730.414 15
1 3 8 65119.5 715.954 14
1 -3 8 64723.4 732.051 24
1 -3 8 65795.6 758.932 23
1 -3 9 155340 1130.17 18
1 3 9 155353 1042.4 15
1 -3 9 153059 1024.32 14
1 3 9 155233 1086.55 14
1 -3 9 153503 1081.7 24
1 -3 9 156132 1151.28 23
1 -3 10 18779.9 363.076 18
1 3 10 19169.2 352.6 14
1 -3 10 18459.8 334.72 24
1 -3 10 18849.1 318.349 14
1 -3 10 19169.7 374.549 23
1 -3 11 17102.5 289.756 18
1 3 11 17212.7 274.756 14
1 -3 11 17241.8 299.098 23
1 4 -12 12054.6 203.101 21
1 4 -11 8946.04 196.17 22
1 4 -11 9161.56 230.915 21
1 -4 -11 8677.15 207.148 21
1 -4 -10 33061.1 457.502 25
1 4 -10 32612.1 455.668 22
1 4 -10 33830.1 504.061 21
1 -4 -10 32774.6 471.185 21
1 -4 -9 1300.68 112.339 25
1 4 -9 1260.65 105.261 22
1 4 -9 1354.91 118.513 21
1 -4 -9 1280.05 110.663 21
1 4 -8 91009.8 882.595 21
1 -4 -8 90230.5 906.606 25
1 4 -8 90484 861.065 22
1 -4 -8 89779.2 870.085 21
1 -4 -7 89113.4 848.701 21
1 4 -7 88490.4 859.357 21
1 -4 -7 89105.4 895.86 25
1 4 -7 88798.6 1223.9 1
1 -4 -7 90606.6 1206.28 2
1 4 -7 90767.1 848.997 22
1 -4 -7 90105.8 1256.25 6
1 4 -6 58074.6 933.168 1
1 4 -6 59000.6 659.178 22
1 -4 -6 57420.7 695.99 25
1 -4 -6 58639.5 908.833 2
1 4 -6 57734.6 662.077 21
1 -4 -5 29720.3 646.293 6
1 4 -5 28245.1 606.29 1
1 -4 -5 28928.2 593.042 2
1 -4 -4 15955.1 446.624 6
1 -4 -4 15772.2 383.604 3
1 -4 -4 15481.8 402.316 2
1 4 -4 15637.5 416.023 1
1 4 -4 15871.4 343.51 7
1 -4 -3 2913.33 185.04 6
1 4 -3 2717 148.977 7
1 -4 -3 2813.39 153.523 3
1 4 -3 2771.96 167.122 1
1 -4 -3 2752.5 162.533 2
1 -4 -2 111792 1036.69 6
1 -4 -2 111461 900.739 3
1 -4 -2 110669 945.027 2
1 4 -2 109984 951.692 7
1 -4 -1 193400 1302.95 6
1 -4 -1 196458 1229.21 2
1 4 -1 195979 1222.32 1
1 -4 -1 197329 1177.24 3
1 -4 0 53028.8 658.371 6
1 -4 0 54757 632.068 3
1 4 0 53500.5 607.633 9
1 4 0 54424.8 618.488 1
1 -4 1 34465.9 519.974 6
1 4 1 34904.4 536.228 9
1 -4 1 35729.6 529.577 3
1 -4 1 35553.6 479.457 8
1 4 1 34267.4 480.116 1
1 -4 2 83698.4 808.906 6
1 4 2 85320.3 909.797 9
1 -4 2 85721.3 872.994 3
1 -4 2 84597.1 813.164 8
1 -4 3 83553.4 813.355 6
1 -4 3 88067.2 954.503 3
1 -4 3 86727.8 907.291 8
1 4 3 84214.4 946.888 4
1 -4 4 18294.3 471.531 3
1 -4 4 17945.5 454.44 8
1 4 4 19173.4 472.054 7
1 4 4 18838.2 490.553 4
1 -4 5 23866.7 410.901 18
1 4 5 25244.3 615.885 4
1 4 5 24838.8 436.067 28
1 4 5 25395.1 446.812 15
1 -4 5 26633.4 612.164 3
1 -4 5 24869.7 579.97 8
1 4 5 25859.1 556.623 7
1 -4 5 25548.2 436.983 24
1 4 5 24520.5 444.987 27
1 -4 6 17495.5 373.814 18
1 -4 6 17790.2 372.984 11
1 -4 6 17618.6 383.673 24
1 4 6 17598.1 391.193 15
1 -4 6 18049 545.572 3
1 -4 6 18386.6 540.661 8
1 4 6 17086.5 385.174 27
1 -4 6 16991.5 367.228 23
1 4 6 17749.8 557.185 4
1 -4 7 31033.3 510.94 18
1 -4 7 32017.6 507.905 11
1 4 7 30622.7 523.401 15
1 -4 7 31890.2 524.267 24
1 -4 7 30977 510.348 23
1 -4 8 1364.82 116.724 18
1 -4 8 1462.93 112.422 11
1 4 8 1486.91 121.246 15
1 4 8 1428.9 104.57 14
1 -4 8 1383.7 117.319 24
1 -4 8 1408.26 117.891 23
1 -4 9 52264.2 627.734 18
1 -4 9 50490.6 560.408 11
1 4 9 51242.3 598.647 15
1 -4 9 52161 618.235 24
1 4 9 51978.2 553.569 14
1 -4 9 52072.6 626.875 23
1 -4 10 22603.1 366.011 18
1 4 10 22430.7 318.181 15
1 4 10 23471.8 315.621 14
1 -4 10 22150.7 346.968 24
1 -4 10 23188.4 370.256 23
1 -4 11 9652.35 190.551 18
1 -4 11 9344.89 186.753 23
1 5 -11 11431.4 214.245 21
1 5 -11 11076.5 184.789 22
1 5 -10 558.368 68.0343 21
1 5 -10 757.539 70.7974 22
1 -5 -10 558.639 59.3922 21
1 5 -9 118435 909.71 22
1 -5 -9 116438 917.031 25
1 5 -9 118642 946.705 21
1 -5 -8 33638.3 545.15 25
1 5 -8 34363.9 528.564 22
1 5 -8 33654.3 531.651 21
1 -5 -8 33357 508.328 21
1 -5 -7 976.312 104.33 25
1 5 -7 709.892 88.0385 22
1 5 -7 898.229 96.0854 21
1 5 -6 1956.3 134.467 21
1 -5 -6 1924.95 141.432 25
1 5 -6 1777.33 180.954 1
1 5 -6 1975.88 123.838 26
1 5 -6 2306.59 144.111 22
1 -5 -6 1860.96 183.437 2
1 5 -6 2002.54 122.862 12
1 -5 -5 9944.27 382.187 2
1 -5 -5 10102.8 419.9 6
1 5 -5 9824.42 396.068 1
1 5 -5 10207.5 274.23 26
1 -5 -5 10324.3 309.135 25
1 5 -5 9814.56 283.823 21
1 5 -5 10267.2 287.064 22
1 5 -5 10174.3 269.678 12
1 -5 -4 1919.02 177.385 6
1 -5 -4 1894.13 161.666 2
1 5 -4 1985.36 124.767 22
1 5 -4 1846.57 164.417 1
1 -5 -4 2109.8 137.916 25
1 5 -4 1928.98 125.207 21
1 -5 -3 3712.55 233.16 6
1 5 -3 3666.02 217.736 1
1 -5 -3 3767.92 212.79 2
1 5 -2 25216.6 535.898 1
1 -5 -2 24512.1 563.492 6
1 5 -2 25003.1 529.572 7
1 -5 -2 25856 534.919 2
1 5 -1 5090.07 231.988 1
1 -5 -1 5079.94 251.291 6
1 5 -1 5175.4 251.038 7
1 -5 -1 5855.73 226.363 3
1 5 0 54546.6 728.978 1
1 -5 0 54623.4 788.668 6
1 -5 0 56021.4 767.581 2
1 5 0 54285.6 815.412 7
1 -5 1 192527 1443.77 6
1 -5 1 193950 1361.09 3
1 5 1 196328 1338.74 1
1 5 1 192048 1282.64 4
1 -5 2 13142.5 376.547 6
1 -5 2 13481.6 381.967 3
1 -5 2 13587.2 355.231 8
1 5 2 13639.4 379.957 4
1 -5 3 30695 573.462 6
1 -5 3 29688.3 460.11 11
1 5 3 29850.4 615.052 4
1 -5 3 30225.7 602.56 3
1 5 3 29822.2 493.552 27
1 -5 3 30537.2 578.636 8
1 5 3 30415.1 659.867 7
1 -5 4 53716.6 598.676 18
1 -5 4 54312.9 645.634 11
1 5 4 52904.3 887.349 7
1 -5 4 52955.1 851.638 3
1 5 4 54839.5 628.651 28
1 5 4 53073.3 683.691 27
1 5 4 53811.7 665.026 15
1 -5 4 53747.2 831.882 8
1 -5 4 53979.8 652.687 24
1 5 4 53793.1 889.458 4
1 5 5 3781.75 179.23 19
1 -5 5 3941.13 174.324 18
1 -5 5 3954.71 183.882 11
1 5 5 4120.87 200.592 27
1 5 5 3825.9 249.278 7
1 -5 5 3957.59 257.108 3
1 5 5 3905.96 190.434 15
1 -5 5 3938.39 247.234 8
1 -5 5 3905.92 186.257 24
1 -5 5 3937.48 175.711 23
1 5 5 4327.6 276.552 4
1 5 6 9059.25 295.479 27
1 -5 6 9078.75 270.547 18
1 -5 6 9763.1 288.537 11
1 5 6 9326.23 293.791 15
1 -5 6 9201.26 286.943 24
1 -5 6 9303.65 272.958 23
1 -5 7 54438.5 656.146 18
1 -5 7 56272.3 674.881 11
1 5 7 55491.3 702.198 15
1 -5 7 56021.5 696.968 24
1 -5 7 56414.9 662.517 23
1 -5 8 7158.85 229.543 23
1 -5 8 7164.11 232.405 18
1 -5 8 6948.76 226.808 11
1 5 8 7209.17 243.381 15
1 -5 8 7167.49 241.547 24
1 -5 9 3223.96 144.337 18
1 -5 9 3299.88 136.194 11
1 5 9 3701.08 154.11 15
1 -5 9 3232.33 147.372 24
1 -5 9 3241.19 140.565 23
1 5 10 6312.02 149.022 15
1 -5 10 5879.16 129.431 11
1 -5 10 6362.86 165.705 18
1 -5 10 6279.62 162.511 24
1 -5 10 6243.22 156.581 23
1 6 -10 2626.84 102.834 22
1 -6 -9 22035.9 340.642 25
1 6 -9 22950.1 363.482 22
1 -6 -9 23004.2 311.585 21
1 6 -8 2513.55 140.142 21
1 -6 -8 2342.41 137.448 25
1 6 -8 2111.4 131.982 22
1 -6 -8 1965.99 112.207 21
1 -6 -7 91211.7 797.1 21
1 6 -7 91799.3 868.901 22
1 -6 -7 92521.6 903.622 25
1 6 -7 91071 853.063 21
1 6 -7 91819.6 775.398 26
1 -6 -6 5738.89 239.164 25
1 6 -6 5818.18 212.662 26
1 6 -6 6071.45 230.426 21
1 6 -6 5836.06 211.137 12
1 6 -6 6003.23 233.364 22
1 -6 -5 17051.2 409.984 25
1 6 -5 16586.9 366.95 26
1 6 -5 16763.8 382.835 22
1 6 -5 16665.1 364.715 12
1 -6 -4 32893.5 779.441 6
1 -6 -4 32151.3 699.74 2
1 -6 -4 33985.2 530.048 16
1 6 -4 32721.9 517.598 26
1 -6 -4 33111.1 564.653 25
1 6 -4 32409.2 527.391 22
1 6 -4 32571.3 514.005 12
1 -6 -3 12362.6 468.257 6
1 -6 -3 12636.1 427.745 2
1 6 -3 11863.6 428.931 1
1 6 -3 12288.2 323.771 22
1 -6 -3 12539.5 324.775 16
1 6 -3 12563.4 323.558 26
1 -6 -3 12715.8 346.651 25
1 6 -3 12875.2 422.549 7
1 6 -3 12392.7 319.181 12
1 -6 -2 9855.88 406.978 6
1 6 -2 9636.26 374.168 1
1 -6 -2 10648.7 388.442 2
1 -6 -2 10111.5 301.526 25
1 -6 -2 10100.6 291.973 16
1 6 -2 10304.2 278.704 27
1 6 -2 10438.9 297.873 26
1 6 -2 10220.6 386.589 7
1 6 -2 9883.27 286.276 22
1 6 -2 10293.9 289.773 12
1 6 -1 147755 1400.59 1
1 6 -1 147522 1088.9 22
1 -6 -1 155130 1433.28 2
1 -6 -1 151625 1111.85 16
1 6 -1 151404 1077.88 27
1 6 -1 154894 1130.16 26
1 -6 -1 153277 1536.5 6
1 6 -1 151292 1503.55 7
1 6 -1 152640 1105.75 12
1 -6 0 21432.2 566.518 6
1 -6 0 21951 386.768 11
1 6 0 21002.6 411.554 22
1 -6 0 21051.4 417.848 16
1 6 0 21472.1 419.687 27
1 6 0 20927.7 424.639 26
1 6 0 21121.4 579.904 7
1 6 0 21096.5 415.192 12
1 6 1 98018.1 931.195 26
1 -6 1 98919 1192.96 6
1 -6 1 98857.4 839.475 11
1 6 1 96812.4 880.768 22
1 6 1 101528 926.009 27
1 -6 1 101856 1172.99 2
1 6 1 98482.3 894.407 12
1 -6 1 100142 841.288 24
1 6 1 99058.1 1276.27 7
1 -6 2 17856.6 499.662 6
1 6 2 17256.7 361.748 15
1 -6 2 17784 369.563 11
1 6 2 17861 402.065 27
1 6 2 17137 398.527 26
1 -6 2 17914.8 371.338 24
1 6 2 17442.9 382.838 12
1 6 2 17574.4 549.083 7
1 -6 3 17265.4 373.343 11
1 6 3 16076.2 530.767 7
1 6 3 16905.2 374.855 15
1 6 3 16174.4 394.287 26
1 6 3 17603.4 409.132 27
1 -6 3 16669.5 370.248 24
1 6 3 17122.4 381.18 12
1 6 4 2163.93 199.637 7
1 -6 4 2066.33 137.68 11
1 6 4 2050.03 148.749 27
1 6 4 2558.86 156.124 15
1 -6 4 2096.09 140.712 24
1 6 4 2216.71 141.991 12
1 6 5 134033 1060.54 19
1 -6 5 132598 1059.7 11
1 6 5 132702 1132.84 27
1 6 5 136026 1097.55 15
1 -6 5 134510 1072.18 24
1 -6 6 18115.7 353.979 18
1 -6 6 18282.6 390.563 11
1 -6 6 17920.8 355.93 16
1 6 6 18501.8 413.859 27
1 6 6 18491.4 403.464 15
1 -6 6 18058.2 392.171 24
1 -6 7 30742 442.174 18
1 -6 7 31033.2 476.853 11
1 6 7 31406.3 498.919 15
1 -6 7 31516.1 491.155 24
1 -6 7 31593.5 426.428 23
1 -6 8 10102.5 232.861 18
1 -6 8 10013.6 242.518 11
1 6 8 10436.7 261.185 15
1 -6 8 10325.9 256.048 24
1 -6 8 9738.8 212.039 23
1 -6 9 22054.1 290.404 11
1 -6 9 21509.2 282.166 18
1 6 9 22403.4 314.512 15
1 -6 9 21939.3 311.631 24
1 7 -9 36868.7 364.625 22
1 -7 -8 2864.57 121.271 25
1 7 -8 3152.43 134.504 22
1 -7 -7 12757.8 296.673 25
1 7 -7 12786.6 256.78 26
1 7 -7 12829.5 296.5 22
1 7 -7 13020.3 249.516 12
1 -7 -6 6940.17 243.029 25
1 7 -6 6510.84 210.563 26
1 7 -6 6868.19 233.561 22
1 7 -6 6715.28 210.357 12
1 -7 -5 9071.27 290.605 25
1 7 -5 9093.57 267.374 26
1 7 -5 9149.91 279.282 22
1 7 -5 9065.34 263.284 12
1 -7 -4 7512.36 273.442 25
1 -7 -4 7527.54 248.596 16
1 7 -4 7825.34 258.793 26
1 7 -4 7450.09 250.79 12
1 7 -4 7306.76 254.087 22
1 -7 -3 8059.58 264.386 16
1 7 -3 7817.08 264.83 26
1 -7 -3 8394.81 287.374 25
1 7 -3 7705.15 261.44 22
1 7 -3 7322.81 254.87 12
1 -7 -2 13733.7 349.261 16
1 7 -2 13572.2 327.234 27
1 7 -2 13740.5 354.734 26
1 -7 -2 13429.5 360.567 25
1 7 -2 13500.8 345.227 22
1 7 -2 13990 351.268 12
1 7 -1 93876.7 893.513 22
1 -7 -1 91982.5 901.122 16
1 7 -1 90975.7 869.468 27
1 7 -1 91682.5 920.573 26
1 -7 -1 93293.5 930.744 25
1 7 -1 92021.5 897.614 12
1 7 0 13120.5 336.666 22
1 -7 0 12427.5 337.929 16
1 7 0 12748.7 336.634 27
1 7 0 13704 360.419 26
1 7 0 13052.3 341.5 12
1 -7 1 19537.8 380.625 11
1 7 1 18220.9 404.546 12
1 -7 1 18430.8 407.848 16
1 7 1 18751.8 418.432 27
1 7 1 18865.5 424.82 26
1 -7 2 32589.7 500.949 11
1 7 2 32200 532.156 12
1 -7 2 32626.2 539.942 16
1 7 2 33263.7 563.183 27
1 7 2 32236.8 486.546 15
1 7 2 32295.3 558.464 26
1 -7 2 34025.5 503.592 24
1 -7 3 56867.9 659.484 24
1 -7 3 57416.6 673.858 11
1 7 3 56715.3 737.5 27
1 -7 3 56991.1 700.85 16
1 7 3 55131.7 655.693 15
1 7 3 57306.3 693.226 12
1 7 4 15850.2 368.659 19
1 -7 4 16031.6 357.942 11
1 -7 4 16140 362.562 16
1 7 4 16194.8 391.18 27
1 7 4 15943.8 356.12 15
1 -7 4 16121.4 354.481 24
1 7 5 11584.1 294.058 19
1 -7 5 11321.9 293.412 11
1 -7 5 10915.5 280.656 16
1 7 5 11342.1 316.737 27
1 7 5 11623.4 299.495 15
1 -7 5 11249.9 290.317 24
1 -7 6 11859.5 283.631 11
1 -7 6 11425.9 253.583 16
1 7 6 11931.9 299.955 27
1 7 6 11754.7 287.649 15
1 -7 6 11718.4 279.943 24
1 7 7 34981.7 447.389 15
1 -7 7 35809.5 439.502 24
1 -7 7 35208.3 435.905 11
1 -7 8 29234.4 330.653 11
1 7 8 29775 348.824 15
1 -7 8 29124.6 334.569 24
1 8 -8 33336 293.632 22
1 -8 -7 1280.53 73.3329 25
1 8 -7 1266.37 76.5168 22
1 -8 -6 13630 273.498 25
1 8 -6 14300.3 277.79 22
1 8 -6 13868.1 248.238 26
1 8 -6 13602.3 241.714 12
1 -8 -5 21788.7 383.184 25
1 8 -5 21986.6 371.023 22
1 8 -5 21818.3 358.436 26
1 8 -5 21862.3 352.004 12
1 -8 -4 16649.8 357.956 25
1 8 -4 16675.7 339.484 22
1 -8 -4 16581.1 312.953 16
1 8 -4 16778.6 343.302 26
1 8 -4 16163.7 332.003 12
1 8 -3 4173.32 164.786 19
1 8 -3 4551.9 185.093 22
1 -8 -3 4599.54 183.079 16
1 8 -3 4490.75 191.656 26
1 -8 -3 4333.98 195.415 25
1 8 -3 4754.75 191.889 12
1 8 -2 21239.9 398.039 22
1 -8 -2 21797.5 408.25 16
1 8 -2 20625.4 370.876 27
1 8 -2 20843 417.04 26
1 -8 -2 20978.7 425.41 25
1 8 -2 21042.1 409.392 12
1 8 -1 2175.22 133.788 27
1 -8 -1 2196.86 140.809 16
1 8 -1 2361.48 149.111 26
1 -8 -1 2275.7 147.514 25
1 8 -1 2202.72 140.925 12
1 -8 0 37047.5 549.781 16
1 8 0 37600.8 569.161 26
1 -8 0 37246.3 555.589 25
1 8 0 36953.9 538.542 27
1 8 0 37499.7 548.665 12
1 8 1 17048.1 366.818 12
1 -8 1 16599.4 369.041 16
1 8 1 16572.1 367.622 27
1 8 1 16573.6 378.174 26
1 -8 1 16417.2 361.783 25
1 8 2 3445.63 172.504 27
1 -8 2 3586.73 152.165 11
1 -8 2 3479.69 170.694 16
1 -8 2 3439.33 164.513 25
1 8 2 3761.67 170.548 12
1 8 3 9242.22 264.778 19
1 8 3 9178.31 272.007 27
1 -8 3 9312.38 239.552 11
1 -8 3 9159.43 258.084 16
1 8 3 8882.56 222.325 15
1 -8 3 8594.38 239.894 25
1 -8 3 8937.64 221.644 24
1 8 3 9010.28 244.283 12
1 8 4 24855.2 399.509 19
1 -8 4 25400.1 382.744 11
1 -8 4 24537.1 390.364 16
1 8 4 25889.8 432.017 27
1 8 4 24634.4 363.539 15
1 -8 4 23769 361.134 25
1 -8 4 25258.3 362.236 24
1 8 5 14644.1 266.718 19
1 8 5 15816.5 311.22 27
1 -8 5 15583.5 283 11
1 -8 5 15114.4 263.619 24
1 -8 5 15179.6 271.022 16
1 8 5 14841.9 269.679 15
1 -8 5 14773.5 242.956 25
1 -8 6 23419 290.836 24
1 8 6 23829.2 307.164 15
1 -8 7 1207.29 61.0521 11
1 8 7 1293.43 61.2305 15
1 -9 -5 189.201 33.7982 25
1 9 -5 225.818 31.1137 26
1 9 -5 206.952 32.7897 12
1 -9 -4 22468.1 313.403 25
1 9 -4 22617.7 300.081 12
1 9 -4 22458.7 301.434 26
1 -9 -3 1333.62 74.029 16
1 9 -3 1487.07 90.8036 26
1 9 -3 1476.77 89.0928 12
1 -9 -3 1456.87 91.7752 25
1 9 -2 12219.9 231.553 19
1 9 -2 12884.9 263.406 12
1 -9 -2 12197 240.791 16
1 9 -2 12586.2 263.964 26
1 -9 -2 12560.9 266.641 25
1 9 -1 28870.3 384.506 19
1 -9 -1 29495.7 411.725 25
1 -9 -1 29779.4 395.688 16
1 9 -1 29723.5 363.404 27
1 9 -1 29077.3 412.375 26
1 9 -1 29555.1 405.14 12
1 9 0 9698.2 221.903 27
1 -9 0 9457.28 230.13 16
1 -9 0 9429.31 231.902 25
1 9 0 9298.7 229.877 19
1 9 0 9690.95 232.071 12
1 9 1 1109.22 85.4798 19
1 9 1 1054.73 80.6125 27
1 -9 1 1074.54 84.6617 16
1 -9 1 975.358 78.1893 25
1 9 1 1168.92 83.101 12
1 9 2 62844.3 565.008 19
1 -9 2 63410.8 561.327 16
1 9 2 64374.8 569.593 27
1 9 3 410.01 52.7953 27
1 -9 3 360.456 43.8911 25
1 9 3 332.775 46.7995 19
1 -9 3 394.84 49.4894 16
1 9 4 9444.51 171.974 19
1 -9 4 9930.49 178.831 16
2 0 -13 14.8161 29.0676 20
2 0 -13 258.224 38.2329 21
2 0 -12 43959.6 524.342 21
2 0 -11 471.714 74.4348 21
2 0 -10 67143.6 755.618 25
2 0 -10 68068 751.753 21
2 0 -9 -0.98791 41.3175 21
2 0 -9 29.1301 54.3342 1
2 0 -9 6.1815 49.3705 25
2 0 -8 496373 2504.66 1
2 0 -7 40.2007 39.2532 1
2 0 -6 187350 1273.52 1
2 0 -6 190548 957.452 5
2 0 -6 189990 1026.29 10
2 0 -5 118.906 36.804 10
2 0 -5 63.6032 25.7306 5
2 0 -4 7866.35 194.294 10
2 0 -4 8345.98 218.133 1
2 0 -3 2.72305 24.5221 10
2 0 -3 43.4475 28.258 1
2 0 -2 695083 1513.11 1
2 0 -2 692290 1537.25 7
2 0 -1 262.492 33.1129 3
2 0 -1 398.668 40.0648 4
2 0 0 657469 1411.41 3
2 0 0 658985 1394.05 10
2 0 0 662373 1434.5 7
2 0 1 157.463 32.911 8
2 0 1 61.1634 23.1366 7
2 0 2 657577 1754.26 8
2 0 2 660057 1877.78 4
2 0 3 24.1708 35.664 4
2 0 3 7.02227 28.7675 8
2 0 4 162746 1095.32 8
2 0 4 171866 1199.75 4
2 0 5 66.5138 47.8422 4
2 0 5 58.1598 42.327 8
2 0 6 114457 1144.36 8
2 0 6 111938 1183.18 4
2 0 7 38.832 50.811 4
2 0 7 87.3345 43.6042 18
2 0 7 34.9971 40.8889 14
2 0 7 75.0011 47.1577 8
2 0 8 34545.2 496.307 18
2 0 8 34708.4 551.663 14
2 0 8 33901.2 523.201 23
2 0 9 32.9096 43.6 23
2 0 9 39.144 51.3867 14
2 0 10 57360.7 655.856 14
2 0 10 55960.7 588.116 23
2 0 11 57.5627 30.0211 23
2 0 11 26.7077 35.6762 14
2 1 -13 1202.96 70.3954 20
2 -1 -13 1163.2 77.4355 20
2 1 -13 1146.49 72.9527 21
2 -1 -13 1171.68 68.2321 21
2 1 -12 27656.9 415.312 20
2 1 -12 27946.4 421.654 21
2 -1 -12 27297 400.507 21
2 -1 -11 16258.9 354.079 25
2 1 -11 16385.2 360.553 21
2 -1 -11 15961.6 348.758 21
2 -1 -10 66645.1 759.847 25
2 1 -10 66422.7 746.195 21
2 -1 -10 66565.5 736.48 21
2 1 -9 1824.59 131.203 25
2 1 -9 1720.39 174.498 1
2 -1 -9 1809.01 132.507 25
2 1 -9 2038.83 134.463 21
2 -1 -9 1969.17 131.725 21
2 1 -8 2492.79 188.33 1
2 -1 -8 2030.01 166.249 2
2 1 -8 2390.2 136.279 21
2 1 -7 12504.9 378.521 1
2 -1 -7 12457.9 364.857 2
2 1 -6 236954 1241.6 5
2 1 -6 244446 1133.41 10
2 -1 -6 240874 1270.8 10
2 1 -6 240081 1489.12 1
2 -1 -6 232774 1393.05 2
2 1 -5 110804 909.38 1
2 1 -5 110502 750.204 10
2 -1 -5 110443 821.341 10
2 -1 -5 111709 898.845 1
2 -1 -5 111371 828.227 2
2 1 -4 282826 1294.35 1
2 -1 -4 280970 1341.29 3
2 -1 -4 287416 1124.15 2
2 1 -4 284776 1155.02 10
2 1 -4 279743 1053.18 7
2 -1 -4 285577 1349.95 6
2 -1 -3 19655.6 320.817 3
2 -1 -3 20180.2 243.418 2
2 1 -3 20055.5 280.845 7
2 1 -3 20000.8 304.093 1
2 -1 -3 20480.8 321.323 6
2 -1 -2 40249.7 238.154 2
2 1 -2 39591 392.139 7
2 1 -2 40183.1 279.193 4
2 1 -2 39890 369.569 1
2 -1 -2 40672.6 397.198 6
2 1 -1 316429 889.058 4
2 1 -1 314676 853.794 1
2 1 0 996905 1905.88 10
2 1 0 993516 1827.24 4
2 1 0 999999 1939.4 7
2 1 1 131215 767.619 4
2 1 1 133173 689.746 10
2 -1 1 128554 611.488 10
2 -1 1 129839 775.224 8
2 -1 1 130950 765.477 4
2 1 1 127721 708.824 7
2 -1 2 20127.7 203.673 10
2 1 2 18790.6 266.361 8
2 -1 2 19748 335.852 8
2 1 2 19358.6 335.458 4
2 1 2 19391.5 284.544 7
2 1 3 16453.6 284.699 8
2 -1 3 16184.8 336.872 8
2 -1 3 16659.9 333.913 4
2 1 3 17036.4 355.554 4
2 1 3 16773.1 267.403 7
2 1 4 161319 1008.97 8
2 -1 4 163874 1186.21 8
2 -1 4 165686 1160.41 4
2 1 4 165470 1231.95 4
2 1 5 150509 1096.5 8
2 -1 5 151535 1263.97 8
2 -1 5 150514 1220.82 4
2 1 5 152297 1312.48 4
2 -1 6 73506.2 972.649 8
2 -1 6 73718.1 930.77 4
2 1 6 73274.6 1002.93 4
2 -1 7 4130.31 180.984 18
2 -1 7 4621.39 271.414 8
2 -1 7 4396.15 193.301 14
2 1 7 4404.28 192.994 14
2 -1 7 4560.32 249.503 4
2 -1 7 4473.52 194.142 23
2 -1 8 18852.5 390.143 18
2 -1 8 18777.8 404.855 14
2 1 8 18898.5 407.256 14
2 -1 8 19641.8 411.753 23
2 -1 9 11713.6 297.856 18
2 -1 9 11389.1 310.043 23
2 -1 9 12063.4 321.651 14
2 1 9 11593.8 319.616 14
2 -1 10 2641.21 142.885 14
2 -1 10 2452.64 124.315 18
2 1 10 2450.29 140.326 14
2 -1 10 2351.87 131.649 23
2 -1 11 8958.45 210.815 14
2 1 11 8693.17 213.511 14
2 -1 11 8744.61 197.452 23
2 -2 -13 16542.8 254.8 20
2 2 -13 17338 252.01 21
2 2 -12 282.421 53.4028 21
2 -2 -12 272.684 45.6246 21
2 2 -12 249.763 45.0021 20
2 2 -11 5911.74 205.548 20
2 -2 -11 5937.1 212.933 25
2 2 -11 5970.34 218.597 21
2 -2 -11 5715.62 202.276 21
2 -2 -10 81762.3 848.394 25
2 2 -10 83137.8 837.987 21
2 -2 -10 80668.6 796.326 21
2 -2 -9 63251.1 758.514 25
2 -2 -9 64382.8 998.214 2
2 2 -9 62354.8 1023.19 1
2 2 -9 63734.4 731.848 21
2 -2 -9 63402.2 705.317 21
2 -2 -8 47761.7 636.757 25
2 2 -8 47830.6 843.932 1
2 -2 -8 48869.6 817.754 2
2 2 -8 48675 606.884 21
2 -2 -8 49944.7 597.962 21
2 2 -7 181527 1516.75 1
2 -2 -7 181696 1419.52 2
2 -2 -6 86746.6 876.323 2
2 -2 -6 88311.4 995.926 6
2 -2 -5 1577.19 126.593 3
2 2 -5 1718.61 104.096 10
2 2 -5 1669.6 124.331 1
2 2 -5 1543.5 87.185 7
2 -2 -5 1663.05 111.43 2
2 -2 -5 1905.26 139.388 6
2 -2 -4 159256 1094.63 3
2 2 -4 157600 1044.38 1
2 2 -4 157413 887.931 7
2 -2 -3 42385.8 400.234 2
2 -2 -3 42542.1 520.765 6
2 -2 -3 42743.1 526.699 3
2 2 -3 42731.7 480.399 10
2 2 -3 42020.7 485.714 1
2 2 -3 43455.6 465.339 7
2 -2 -2 449252 1527.57 6
2 -2 -2 452665 1097.77 2
2 2 -2 448029 1391.3 1
2 2 -2 444502 1481.89 7
2 2 -1 118692 550.432 4
2 2 -1 118176 781.335 10
2 -2 -1 119187 818.543 3
2 -2 -1 119783 518.809 2
2 2 -1 118532 783.828 7
2 -2 0 261252 941.329 6
2 2 0 259773 1160.9 10
2 2 0 258001 998.341 4
2 2 0 259520 1186.76 7
2 -2 1 180739 964.155 4
2 -2 1 178658 700.138 6
2 -2 1 180017 1071.13 3
2 -2 1 179835 1013.5 8
2 2 1 181281 970.205 4
2 -2 2 15808.1 187.245 6
2 -2 2 16266.1 335.246 8
2 -2 2 16259.4 306.337 4
2 2 2 16109 331.4 4
2 2 2 16853.6 320.044 7
2 -2 3 2237.68 141.421 8
2 -2 3 2401.34 130.027 4
2 2 3 2190.55 140.95 4
2 2 3 2674.06 132.042 7
2 -2 4 37732.4 614.933 8
2 -2 4 37313 542.266 4
2 2 4 36649.6 622.288 4
2 2 4 38469.7 500.181 7
2 -2 5 14449.6 368.138 4
2 -2 5 14749.4 425.883 8
2 2 5 15419.5 444.531 4
2 -2 6 27136.6 449.993 18
2 -2 6 25870.9 431.415 14
2 2 6 25917.1 430.298 15
2 -2 6 27448.1 629.907 8
2 2 6 26643.6 435.523 14
2 -2 6 27193 433.535 24
2 -2 6 27192.5 458.678 23
2 2 6 26982.7 640.264 4
2 2 7 14374.9 503.372 4
2 -2 7 14096.7 342.509 18
2 2 7 14557.9 333.73 15
2 -2 7 13803 483.817 8
2 -2 7 13382.5 329.915 14
2 -2 7 14093.1 324.3 24
2 2 7 14277.4 339.31 14
2 -2 7 14307 350.8 23
2 -2 8 20033.6 411.693 18
2 2 8 20961.6 390.624 15
2 -2 8 19480.8 403.79 14
2 2 8 20417.1 415.794 14
2 -2 8 19623.2 380.47 24
2 -2 8 20039.4 422.753 23
2 -2 9 34952.9 518.808 14
2 -2 9 34771.4 519.817 18
2 2 9 34938.3 528.64 14
2 -2 9 34325 535.122 23
2 2 10 38398.7 496.661 14
2 -2 10 37805 504.857 23
2 -2 10 37816.1 480.153 18
2 -2 10 38018.7 482.576 14
2 2 11 9597.51 202.424 14
2 -2 11 9426.28 183.529 18
2 -2 11 9537.17 190.419 14
2 -2 11 9111.46 200.1 23
2 -3 -13 11058.9 171.711 20
2 3 -13 11432.6 180.003 21
2 -3 -12 11147.3 203.987 21
2 3 -12 10850.3 240.139 21
2 -3 -11 18682 355.702 25
2 3 -11 18991.4 372.041 21
2 -3 -11 19077 336.786 21
2 3 -10 17821.7 348.337 20
2 -3 -10 17261 388.291 25
2 3 -10 17259.9 382.84 21
2 -3 -10 16783.2 349.199 21
2 -3 -9 32097.5 552.147 25
2 3 -9 32815.2 482.598 22
2 3 -9 33055.8 533.942 21
2 -3 -9 32826.5 501.099 21
2 3 -8 187257 1155.83 20
2 3 -8 186285 1765.61 1
2 -3 -8 187806 1641.33 2
2 -3 -8 185854 1300.84 25
2 3 -8 185971 1150.84 22
2 3 -8 188999 1243.88 21
2 -3 -8 187976 1174.32 21
2 3 -7 82353.7 1094.24 1
2 -3 -7 82915.1 831.438 25
2 -3 -7 82802.7 1006.07 2
2 3 -7 84039.3 786.783 21
2 -3 -7 83927.3 1135 6
2 -3 -6 9632.97 316.28 2
2 3 -6 9191.46 338.302 1
2 -3 -6 9314.62 355.183 6
2 -3 -5 41543.9 665.945 3
2 3 -5 41179.8 651.237 1
2 -3 -5 40319.1 579.8 2
2 -3 -4 29595.3 443.815 2
2 -3 -4 30034.8 542.059 6
2 -3 -4 29458.9 518.311 3
2 3 -4 30690.5 513.97 1
2 3 -4 29505 443.979 7
2 -3 -3 83757.2 830.176 6
2 -3 -3 82574.4 667.86 2
2 -3 -3 82858.6 817.405 3
2 3 -3 85250.8 754.158 7
2 -3 -2 55667.6 628.977 6
2 -3 -2 55212.1 640.721 3
2 -3 -2 54281.7 502.398 2
2 3 -2 54612.8 619.937 7
2 -3 -1 12977.6 284.259 6
2 3 -1 12869.7 252.364 1
2 -3 -1 13121.4 311.067 3
2 3 -1 13345.4 310.241 7
2 -3 -1 13247.4 240.916 2
2 3 -1 12980.1 197.082 4
2 3 0 301346 1098.6 1
2 -3 0 301410 1286.75 6
2 -3 0 301408 1502.5 3
2 3 0 302764 1491.58 7
2 -3 1 80316.4 632.406 6
2 -3 1 82499 817.564 3
2 -3 1 83073 766.525 8
2 3 1 81505.9 715.486 4
2 3 1 83996.5 808.457 7
2 -3 2 220313 1002.37 6
2 -3 2 221639 1204.01 4
2 -3 2 221618 1422.29 3
2 -3 2 225879 1362.43 8
2 3 2 220287 1327.24 4
2 3 2 225516 1362.17 7
2 3 3 64011.4 754.879 7
2 -3 3 62140.4 809.781 3
2 -3 3 64212 794.565 8
2 -3 3 63146.9 675.678 4
2 3 3 61391.2 781.917 4
2 -3 4 10069.2 288.302 4
2 -3 4 9701.68 340.078 8
2 3 4 9331.16 338.409 4
2 3 4 9790.39 302.619 7
2 -3 5 28594.3 631.422 8
2 3 5 27675.5 633.216 4
2 -3 6 50769.7 639.496 18
2 -3 6 50046.2 596.618 11
2 3 6 48605.5 627.224 15
2 -3 6 50686 902.581 8
2 -3 6 49632.7 600.591 14
2 3 6 49867.4 588.123 14
2 -3 6 51138.6 632.356 24
2 -3 6 50097 643.682 23
2 3 6 50861.7 924.381 4
2 -3 7 108518 966.417 18
2 -3 7 109207 885.193 11
2 3 7 110656 958.561 15
2 -3 7 112632 1447.8 3
2 -3 7 111763 1410.77 8
2 -3 7 110165 983.799 23
2 -3 7 111435 922.433 14
2 3 7 107633 902.981 14
2 -3 7 109252 943.676 24
2 3 7 110288 1436.53 4
2 -3 8 24958.1 462.702 18
2 3 8 26084.1 451.604 15
2 3 8 25394.4 438.405 14
2 -3 8 25241.6 437.078 14
2 -3 8 25385.7 442.912 24
2 -3 8 25576.3 476.054 23
2 -3 9 13343.4 294.8 14
2 -3 9 13892.8 325.611 18
2 3 9 13984.4 296.538 15
2 3 9 13342.3 300.297 14
2 -3 9 13479.1 329.494 23
2 -3 9 13041 290.293 24
2 -3 10 8146.2 217.262 18
2 3 10 8014.39 185.28 17
2 3 10 8352.17 204.755 14
2 -3 10 8085.55 222.699 23
2 -3 10 8257.25 192.386 14
2 -3 11 6064.51 139.695 18
2 -3 11 6037.7 148.816 23
2 4 -12 3425.48 120.426 21
2 -4 -11 2884.69 129.174 25
2 4 -11 2883.35 138.632 21
2 -4 -10 51405.6 636.583 25
2 4 -10 50613.6 558.117 22
2 4 -10 51954.4 636.982 21
2 -4 -10 51271.4 554.399 21
2 -4 -9 11655 332.477 25
2 4 -9 11645.5 320.672 21
2 4 -9 11325.5 292.642 22
2 -4 -9 11451.9 284.332 21
2 -4 -8 2543.99 164.141 25
2 4 -8 2669.32 151.175 22
2 4 -8 2391.59 152.639 21
2 -4 -7 72659.8 823.956 25
2 4 -7 73961.3 752.934 22
2 -4 -7 76094.2 1017.15 2
2 4 -7 74523.7 1116.21 1
2 4 -7 72173.8 776.066 21
2 -4 -7 72220.3 1131.78 6
2 -4 -6 14426.2 353.597 25
2 4 -6 14393.2 460.728 1
2 -4 -6 14473.3 418.64 2
2 4 -6 14348.1 323.164 22
2 4 -6 14138.6 329.011 21
2 -4 -6 14232.1 480.745 6
2 -4 -5 28999.3 639.067 6
2 -4 -5 29882.5 605.519 3
2 4 -5 28974.5 604.945 1
2 -4 -5 29413 550.116 2
2 -4 -4 24372.7 550.348 6
2 -4 -4 24526 460.898 2
2 -4 -4 24694 516.899 3
2 4 -4 24282.7 517.404 1
2 4 -4 23246.6 455.517 7
2 -4 -3 2946.3 183.182 6
2 -4 -3 3141.12 178.688 3
2 -4 -3 3126.14 155.473 2
2 4 -3 2926.62 166.843 1
2 4 -3 3130.69 171.375 7
2 -4 -2 44318.8 656.608 6
2 4 -2 43631.9 591 1
2 -4 -2 46288.1 653.501 3
2 -4 -2 44923.3 555.629 2
2 4 -2 44814.8 653.295 7
2 -4 -1 44574.2 624.982 6
2 4 -1 44641.1 559.018 1
2 -4 -1 45537.6 550.025 2
2 4 -1 45549.9 663.36 7
2 -4 0 304425 1688.11 3
2 4 0 304888 1319.72 4
2 4 0 308050 1750.81 7
2 -4 1 53164.1 630.015 6
2 -4 1 55380.2 745.709 3
2 4 1 54335.2 646.174 4
2 4 1 53874.2 755.633 7
2 -4 2 2913.79 185.026 3
2 -4 2 3297.66 183.905 8
2 4 2 2943.53 171.109 4
2 4 2 3351.44 197.3 7
2 -4 3 17836.7 455.584 8
2 -4 3 17284.2 470.426 3
2 4 3 16934.4 447.131 4
2 4 3 17449 455.699 7
2 -4 4 2551.07 139.09 11
2 4 4 2307.15 143.203 27
2 -4 4 2588.11 197.894 3
2 4 4 2311.02 138.311 15
2 -4 4 2475.16 185.287 8
2 -4 4 2463.38 139.718 24
2 4 4 2685.59 196.144 4
2 4 4 2372.56 176.87 7
2 -4 5 24333.4 435.948 18
2 -4 5 24778.4 435.238 11
2 4 5 24706.9 471.151 27
2 -4 5 24814.5 643.939 3
2 4 5 24300.9 454.544 15
2 -4 5 25375.3 626.756 8
2 -4 5 25081.9 454.57 24
2 -4 5 24442 443.081 23
2 4 5 24699 634.341 4
2 -4 6 19783.6 408.546 18
2 -4 6 20793.3 408.383 11
2 -4 6 21148.6 620.857 3
2 4 6 20287.3 425.093 15
2 -4 6 20037.6 588.124 8
2 -4 6 20542.3 422.12 24
2 -4 6 20107.3 415.227 23
2 4 6 20724.2 614.174 4
2 -4 7 16958.9 382.672 18
2 -4 7 17228.5 363.944 11
2 4 7 17993.6 399 15
2 -4 7 17735.4 390.182 24
2 -4 7 17422.9 390.31 23
2 -4 8 10438.8 292.184 18
2 4 8 10522.4 288.486 15
2 -4 8 10199.2 282.198 24
2 -4 8 10380.8 293.428 23
2 -4 8 10290.7 260.584 11
2 -4 9 12770.8 294.387 23
2 -4 9 12777.5 292.953 18
2 4 9 12210.7 269.878 15
2 -4 9 12800.4 277.392 24
2 -4 10 642.136 62.4538 18
2 4 10 559.239 50.1226 17
2 -4 10 683.785 53.5752 24
2 -4 10 647.373 62.8454 23
2 -5 -11 7881.24 168.886 25
2 5 -11 8193.02 159.819 22
2 -5 -10 1803.3 112.419 25
2 5 -10 1868.13 104.331 22
2 5 -10 1884.52 117.574 21
2 -5 -9 5922.81 227.832 25
2 5 -9 5956.03 208.184 22
2 5 -9 6123.85 225.67 21
2 -5 -8 15964.5 391.397 25
2 5 -8 15706.5 370.537 21
2 5 -8 16053.3 358.854 22
2 -5 -7 7242.97 270.225 25
2 5 -7 7297.95 257.582 21
2 5 -7 7522.7 254.18 22
2 5 -6 8159.29 374.453 1
2 -5 -6 8878.37 273.315 16
2 -5 -6 8244.38 287.383 25
2 5 -6 8737.79 271.353 22
2 5 -6 8318.2 269.211 21
2 -5 -6 8590.63 403.18 6
2 -5 -5 55999.9 978.847 6
2 -5 -5 53779 859.576 3
2 5 -5 54051.1 665.668 21
2 -5 -5 54757.1 669.746 16
2 5 -5 53966.8 909.338 1
2 5 -5 54352.5 612.904 26
2 -5 -5 57029.6 722.684 25
2 5 -5 53980.2 656.324 22
2 5 -5 54181.5 611.06 12
2 -5 -4 9605.5 385.688 6
2 -5 -4 9857.01 350.679 3
2 5 -4 9275.34 357.372 1
2 -5 -4 9652.39 277.308 16
2 -5 -4 9974.22 292.259 25
2 5 -4 9910.35 276.913 22
2 5 -4 9703.73 334.289 7
2 5 -4 9544.81 274.266 21
2 -5 -3 11652.7 405.782 6
2 -5 -3 12318 379.388 3
2 -5 -3 12196.6 349.776 2
2 5 -3 11839.9 375.325 1
2 5 -3 11975.8 379.491 7
2 -5 -2 110539 1189.98 6
2 -5 -2 112550 1115.7 3
2 5 -2 110053 1079.24 1
2 -5 -2 114350 1036.69 2
2 5 -2 114477 1196.22 7
2 -5 -1 4016.38 220.232 6
2 5 -1 4122.44 200.873 1
2 -5 -1 4202.05 217.15 3
2 -5 -1 4186.58 198.969 2
2 5 -1 3959.07 228.613 7
2 -5 0 115137 1123.43 6
2 -5 0 116136 1144.62 3
2 -5 0 118935 1053.36 2
2 5 0 115035 1239.31 7
2 -5 1 25257.2 514.918 6
2 -5 1 24473.4 541.251 3
2 5 1 24795.3 587.77 7
2 -5 2 45079 570.873 11
2 -5 2 46262.5 778.209 3
2 5 2 45511.3 608.13 27
2 5 2 43999.5 610.326 26
2 5 2 45172.8 811.899 7
2 -5 2 44384.2 574.916 24
2 5 2 46735 720.694 4
2 -5 3 39228.8 517.361 18
2 -5 3 39361.3 554.591 11
2 -5 3 40054.4 760.729 3
2 5 3 40265.6 597.765 27
2 5 3 39051 556.269 15
2 -5 3 39762.5 721.07 8
2 -5 3 38934.7 559.477 24
2 -5 3 41077.4 533.645 23
2 5 3 39932.3 732.641 4
2 5 3 37503.9 555.74 12
2 5 3 40071.1 777.787 7
2 5 4 48858.5 639.357 19
2 -5 4 48642.9 604.25 18
2 -5 4 50097.3 641.78 11
2 -5 4 49829.4 895.684 3
2 5 4 49881.7 652.593 15
2 -5 4 47716.7 844.006 8
2 -5 4 49421 648.655 24
2 5 4 47754.8 671.916 27
2 -5 4 49715.7 613.118 23
2 5 4 50326 884.188 4
2 5 4 49077 884.455 7
2 -5 5 59440.6 689.208 23
2 5 5 61298 703.389 19
2 5 5 56461.5 744.979 27
2 -5 5 57395 677.84 18
2 -5 5 58543.5 702.051 11
2 -5 5 59052.1 1019.12 3
2 5 5 58819.2 723.055 15
2 -5 5 57044.8 968.996 8
2 -5 5 58639.7 715.357 24
2 5 5 58601.3 1007.99 4
2 -5 6 4843.11 203.908 18
2 -5 6 4952.62 205.751 11
2 5 6 5079.01 218.698 15
2 -5 6 4967.93 213.747 24
2 -5 6 4839.92 202.477 23
2 -5 7 28691.7 468.58 23
2 -5 7 28512.4 470.048 18
2 -5 7 28637 460.824 11
2 5 7 29534.6 497.226 15
2 -5 7 29195.6 489.543 24
2 -5 8 380.581 63.8895 18
2 5 8 388.795 64.3015 15
2 -5 8 358.901 62.7274 24
2 -5 8 347.799 60.4651 23
2 -5 9 6371.58 175.99 24
2 -5 9 6302.81 150.014 11
2 -5 9 6175.51 177.42 18
2 5 9 6118.83 173.119 15
2 -5 9 6079.73 172.122 23
2 -5 10 4918.04 111.005 23
2 -5 10 5373.89 123.302 18
2 -6 -10 41847.8 411.498 25
2 6 -10 44074.7 415.03 22
2 -6 -9 9380.9 248.475 25
2 6 -9 9207.94 233.764 22
2 6 -8 8600.55 253.209 22
2 -6 -8 8643.65 270.192 25
2 -6 -7 10307 313.166 25
2 6 -7 10208.3 292.972 22
2 -6 -6 15628.4 358.591 16
2 6 -6 14982.3 329.545 26
2 -6 -6 15087.4 388.788 25
2 6 -6 14910 362.462 22
2 6 -6 14405.8 321.009 12
2 -6 -5 12693.2 355.969 25
2 -6 -5 12158.2 327.25 16
2 6 -5 11723.5 303.665 26
2 6 -5 12073.1 326.609 22
2 6 -5 11957.1 305.553 12
2 -6 -4 81230.8 1209.33 6
2 6 -4 79235.9 1128.22 1
2 -6 -4 79999.9 837.089 16
2 6 -4 79602.5 801.013 26
2 -6 -4 82156.2 882.155 25
2 6 -4 81074.5 836.577 22
2 6 -4 81498.6 806.315 12
2 -6 -3 17837.2 553.802 6
2 6 -3 17197.2 386.715 22
2 -6 -3 17624.1 403.546 25
2 -6 -3 17742.2 394.906 16
2 6 -3 17619.6 381.563 26
2 6 -3 18043.4 516.637 7
2 6 -3 17563.3 380.629 12
2 -6 -2 36078.7 764.797 6
2 6 -2 37325.8 567.09 22
2 6 -2 36114.3 690.624 1
2 -6 -2 37720.3 569.795 16
2 6 -2 37292.5 520.443 27
2 6 -2 37724.9 563.764 26
2 -6 -2 37545.9 571.966 25
2 6 -2 37235.1 759.534 7
2 6 -2 37873.8 558.599 12
2 -6 -1 2401.36 196.507 6
2 -6 -1 2612.66 144.405 11
2 -6 -1 2620.5 155.892 16
2 6 -1 2856.76 154.602 27
2 6 -1 2500.55 152.909 26
2 -6 -1 2526.54 150.929 25
2 -6 -1 3001.9 156.125 24
2 6 -1 2394.48 152.557 22
2 6 -1 2592.71 212.987 7
2 6 -1 2443.27 148.826 12
2 -6 0 134411 1378.54 6
2 -6 0 128156 977.019 11
2 6 0 126314 1050.57 22
2 -6 0 132233 998.349 24
2 -6 0 133508 1058.63 16
2 6 0 130880 1043.78 27
2 6 0 130423 1082.07 26
2 6 0 129193 1471.2 7
2 6 0 128868 1044.95 12
2 -6 1 27831.3 468.737 11
2 -6 1 29280.8 497.895 16
2 6 1 29734.3 515.018 27
2 6 1 28573.9 517.434 26
2 -6 1 28330 474.226 24
2 6 1 29280.6 712.362 7
2 6 1 28790.1 502.764 12
2 -6 2 143907 1080.1 11
2 6 2 149463 1627.21 7
2 -6 2 149531 1115.34 16
2 6 2 148562 1180 27
2 6 2 146479 1064.61 15
2 6 2 147312 1190.22 26
2 -6 2 144964 1091.04 24
2 6 2 142836 1125 12
2 6 3 10868.2 318.148 19
2 -6 3 11155.3 308.599 11
2 -6 3 10926.4 302.761 16
2 6 3 11127.5 330.872 27
2 6 3 11284.1 310.6 15
2 -6 3 10985 309.536 24
2 6 3 10844.4 314.694 12
2 6 3 10778.9 442.42 7
2 6 4 8285.57 273.004 19
2 -6 4 8628.26 249.411 18
2 -6 4 8560.8 272.614 11
2 6 4 8212.83 289.063 27
2 -6 4 8122.87 255.017 16
2 6 4 8023.28 266.843 15
2 -6 4 8028.62 269.138 24
2 6 5 11035.7 299.509 19
2 -6 5 11077.1 278.34 23
2 -6 5 11013.5 283.171 18
2 -6 5 10739.8 302.359 11
2 -6 5 10543.8 271.685 16
2 6 5 11082.8 329.699 27
2 6 5 11082.3 313.669 15
2 -6 5 10701.5 307.575 24
2 -6 6 55996.7 612.328 18
2 -6 6 56072.5 650.77 11
2 6 6 56197.3 674.485 15
2 -6 6 56929.3 672.143 24
2 -6 6 57379.6 602.837 23
2 -6 7 25494 369.82 23
2 -6 7 25690.6 386.584 18
2 -6 7 25328.1 398.82 11
2 6 7 26295.3 426.918 15
2 -6 7 26040.5 419.704 24
2 -6 8 2975.9 117.707 11
2 -6 8 2981.43 116.46 18
2 6 8 3170.91 131.739 15
2 -6 8 3141.46 129.102 24
2 -6 8 2998.03 109.395 23
2 -6 9 248.383 30.7904 18
2 6 9 262.846 37.7932 17
2 6 9 272.109 33.4631 15
2 -6 9 263.49 34.6436 24
2 -7 -9 5715.3 148.091 25
2 7 -9 6196.84 154.553 22
2 -7 -8 20936.6 349.873 25
2 7 -8 21438.8 343.997 22
2 -7 -7 1683.32 119.157 25
2 7 -7 1763.57 117.834 22
2 -7 -6 2314.66 146.983 25
2 -7 -6 2387.5 128.638 16
2 7 -6 2319.03 125.205 26
2 7 -6 2346.88 142.75 22
2 7 -6 2322.31 123.955 12
2 -7 -5 10828.6 292.832 16
2 7 -5 10702.5 284.011 26
2 -7 -5 10774 317.961 25
2 7 -5 10767 304.341 22
2 7 -5 10658.1 280.71 12
2 -7 -4 5766.47 238.989 25
2 -7 -4 5923.43 228.518 16
2 7 -4 5593.73 217.61 26
2 7 -4 5788.87 230.014 22
2 7 -4 5872.02 221.631 12
2 -7 -3 966.645 100.831 16
2 7 -3 834.698 95.0664 26
2 -7 -3 993.513 106.382 25
2 7 -3 1011.21 107.006 22
2 7 -3 1129 107.259 12
2 -7 -2 41011.3 608.612 16
2 7 -2 41000.7 556.217 27
2 7 -2 41380.7 612.167 26
2 -7 -2 41121.7 616.25 25
2 7 -2 40390.8 603.681 22
2 7 -2 41142 597.992 12
2 -7 -1 38165.8 589.377 16
2 7 -1 38292.4 562.827 27
2 7 -1 39126.7 604.655 26
2 -7 -1 39035.2 590.669 25
2 7 -1 38283.5 587.65 22
2 7 -1 39235.4 589.874 12
2 -7 0 19599.1 386.594 11
2 -7 0 19838 424.667 16
2 7 0 19507.1 415.943 27
2 7 0 19634.2 437.309 26
2 -7 0 19902.3 416.424 25
2 -7 0 21065.6 395.015 24
2 7 0 19891.3 424.677 12
2 -7 1 28008.3 468.56 11
2 -7 1 28277 502.185 16
2 7 1 28752.3 513.879 27
2 7 1 28353 524.583 26
2 -7 1 27370.4 476.056 25
2 -7 1 28528.9 469.561 24
2 7 1 28310.7 507.073 12
2 7 2 17339.5 401.173 19
2 -7 2 17420.1 375.114 11
2 -7 2 17753.5 390.128 16
2 7 2 17225.7 352.325 15
2 -7 2 17699.4 375.54 24
2 7 2 17317.5 406.097 27
2 7 2 17166.4 393.019 12
2 7 3 8232.28 273.23 19
2 -7 3 7697.02 252.156 11
2 -7 3 7802.39 252.512 16
2 7 3 8169.87 279.589 27
2 7 3 7722.65 243.309 15
2 -7 3 7981.01 254.508 24
2 7 3 7746.14 260.073 12
2 -7 4 71297.9 732.752 24
2 7 4 70049.7 788.558 27
2 7 4 69799.2 740.229 19
2 -7 4 70615.9 734.309 11
2 -7 4 69037.4 693.966 16
2 7 4 69547.9 715.137 15
2 7 5 2875.24 158.931 27
2 7 5 2735.45 136.614 19
2 -7 5 2926.12 150.517 11
2 -7 5 2800.55 129.206 16
2 7 5 2804.47 144.764 15
2 -7 5 2669.3 143.14 24
2 -7 6 6997.05 203.831 11
2 7 6 7090.28 207.895 15
2 -7 6 7111.89 206.514 24
2 -7 7 3285.33 124.072 24
2 -7 7 3294.31 121.216 11
2 7 7 3442.2 127.702 15
2 7 8 1884.96 72.5037 15
2 -7 8 1742.18 68.9425 24
2 -8 -8 2895.68 87.1353 25
2 8 -8 3445.75 101.207 22
2 -8 -7 7708.14 185.605 25
2 8 -7 7939.53 187.223 22
2 8 -6 2620.67 105.958 12
2 8 -6 2633.3 105.366 26
2 -8 -6 2393.32 122.53 25
2 8 -6 2288.02 117.138 22
2 8 -5 7007.57 215.269 22
2 -8 -5 6971.31 192.75 16
2 8 -5 6800.56 196.163 26
2 -8 -5 6996.77 222.668 25
2 8 -5 6815.86 196.77 12
2 -8 -4 6738.35 212.495 16
2 8 -4 6667.14 213.021 26
2 -8 -4 6990.91 234.17 25
2 8 -4 6715.81 212.827 12
2 8 -4 6798.57 221.616 22
2 8 -3 4330.36 166.946 19
2 -8 -3 4876.58 192.966 16
2 8 -3 4478.05 186.789 26
2 -8 -3 4486.98 194.371 25
2 8 -3 4595.55 187.925 22
2 8 -3 4637.63 187.399 12
2 -8 -2 8259.47 260.161 25
2 8 -2 8200.54 243.5 19
2 -8 -2 8549.95 261.292 16
2 8 -2 8154.54 223.797 27
2 8 -2 8215.21 259.523 26
2 8 -2 8509.07 259.17 12
2 8 -1 13226.7 323.062 19
2 -8 -1 13957.8 336.952 16
2 8 -1 13197.7 302.192 27
2 8 -1 13404.5 336.406 26
2 -8 -1 13571.9 328.945 25
2 8 -1 13641.4 332.52 12
2 8 0 81009.5 803.445 19
2 -8 0 80404.2 676.861 11
2 -8 0 81909.6 803.406 16
2 8 0 79905.5 817.751 26
2 -8 0 80201 773.635 25
2 8 0 80429.3 766.328 27
2 8 0 80968.8 801.555 12
2 8 1 13989 336.163 19
2 -8 1 13628.3 290.958 11
2 -8 1 13969.6 328.332 16
2 8 1 13602.2 322.672 27
2 -8 1 13409.8 306.705 25
2 8 1 14434.8 336.684 12
2 8 2 14921.3 337.308 19
2 -8 2 14430.7 298.769 11
2 -8 2 14281.7 318.163 16
2 8 2 14318.8 331.132 27
2 -8 2 13751.3 291.865 25
2 -8 2 14375.1 286.17 24
2 8 2 14342 318.989 12
2 8 3 18039 360.28 27
2 8 3 18185.5 348.466 19
2 -8 3 18173.6 327.686 11
2 -8 3 17459.1 327.669 16
2 8 3 17856.8 294.903 15
2 -8 3 17360.1 294.972 25
2 -8 3 17658.6 310.605 24
2 -8 4 3514.26 134.12 24
2 8 4 3590.56 142.565 19
2 8 4 3542.06 153.55 27
2 -8 4 3595.74 141.5 11
2 -8 4 3620.48 135.392 16
2 8 4 3558.43 129.953 15
2 8 5 6492.28 154.818 19
2 -8 5 6937.69 176.685 11
2 -8 5 6559.34 142.369 16
2 8 5 6599.27 163.093 15
2 -8 5 6645.97 165.883 24
2 -8 6 6857.07 148.389 11
2 8 6 6908.48 140.59 15
2 -8 6 6490.97 136.795 24
2 -9 -5 5489.86 139.117 25
2 9 -5 5552.43 118.656 12
2 -9 -4 1943.86 95.4049 25
2 -9 -4 1791.5 78.0439 16
2 -9 -3 26916.1 335.945 16
2 -9 -3 27621.4 363.771 25
2 9 -3 27740.4 356.381 12
2 9 -2 3342.58 118.327 19
2 -9 -2 3403.69 132.06 16
2 -9 -2 3474.92 135.519 25
2 9 -2 3457.44 135.692 12
2 9 -1 40252.1 436.045 19
2 -9 -1 41413.9 460.593 16
2 -9 -1 40481.6 450.377 25
2 9 -1 41601.9 390.139 27
2 9 -1 42125.8 467.579 12
2 9 0 20969.4 324.208 19
2 -9 0 21489.2 333.205 16
2 9 0 20987.3 300.835 27
2 -9 0 20595.3 311.411 25
2 9 0 21414 330.581 12
2 9 1 5478.47 166.409 19
2 -9 1 5282.74 147.85 25
2 -9 1 5300.19 162.621 16
2 9 1 5495.9 158.04 27
2 9 2 760.677 64.6797 19
2 9 2 711.428 61.4735 27
2 -9 2 736.797 61.0349 16
2 -9 2 665.038 51.8183 25
2 9 3 37637.2 358.751 19
2 -9 3 37040.6 340.619 16
3 0 -13 20856.7 320.23 20
3 0 -13 20461.9 272.457 21
3 0 -12 6.95269 35.36 21
3 0 -12 65.0552 49.0382 20
3 0 -11 46468 577.305 21
3 0 -10 145.149 58.4052 25
3 0 -10 672.717 80.5455 21
3 0 -9 15541.5 373.274 25
3 0 -9 15161.3 333.2 21
3 0 -8 11.959 47.2885 25
3 0 -8 12.5211 50.749 1
3 0 -7 287311 1546.15 10
3 0 -7 282148 1797.48 1
3 0 -6 40.129 40.8603 1
3 0 -6 137.402 44.6156 10
3 0 -5 797367 2378.31 10
3 0 -5 790105 2505.26 1
3 0 -4 51.1463 35.5647 1
3 0 -4 131.834 42.475 10
3 0 -3 118869 775.777 3
3 0 -3 119455 841.341 10
3 0 -3 117718 799.835 7
3 0 -3 118505 783.221 1
3 0 -2 53.0687 31.0594 10
3 0 -2 9.30005 23.0908 3
3 0 -2 73.1641 32.7997 7
3 0 -1 65271.4 570.889 10
3 0 -1 64898.5 518.791 3
3 0 -1 66128.8 575.984 7
3 0 0 20.4053 27.1948 10
3 0 0 108.374 39.4387 3
3 0 0 24.0971 27.6428 7
3 0 1 18830.8 286.351 10
3 0 1 18970.2 319.823 3
3 0 1 19375.6 309.191 7
3 0 2 24.8529 38.9456 4
3 0 2 105.176 28.208 10
3 0 2 40.8736 37.5055 8
3 0 2 99.2727 31.9133 7
3 0 3 250277 1400.69 8
3 0 3 254901 1529.59 4
3 0 4 28.5123 44.1102 4
3 0 4 33.4444 36.1284 8
3 0 5 106595 1103.57 8
3 0 5 108043 1187.43 4
3 0 6 31.4647 49.36 4
3 0 6 43.5551 41.6966 14
3 0 6 96.2359 49.3992 8
3 0 6 12.8115 35.1122 23
3 0 7 42476.7 611.053 14
3 0 7 41839 573.871 23
3 0 8 26.489 48.0111 14
3 0 8 163.044 54.1998 23
3 0 9 12727.6 318.508 14
3 0 9 12092.2 277.526 23
3 0 10 31.917 37.9622 14
3 0 11 26457.4 300.491 14
3 1 -13 5494.81 158.265 20
3 -1 -13 5570.57 166.17 20
3 1 -13 5430.71 145.953 21
3 1 -12 3907.5 166.713 20
3 1 -12 3745.63 154.117 21
3 -1 -12 4010.52 147.673 21
3 1 -11 6724.44 238.237 20
3 -1 -11 6671.48 242.9 25
3 1 -11 7021.42 230.716 21
3 -1 -11 6851.68 217.25 21
3 -1 -10 3245.58 179.163 25
3 1 -10 3276.24 166.075 21
3 -1 -10 2978.63 151.465 21
3 1 -9 127680 1443.57 1
3 1 -9 129295 1070.04 25
3 -1 -9 129231 1084.03 25
3 1 -9 128555 988.772 21
3 -1 -9 127838 945.785 21
3 1 -8 21131.7 551.6 1
3 1 -8 22501.7 423.735 25
3 -1 -8 22438 430.52 25
3 -1 -7 93152.5 930.693 10
3 1 -7 91402.8 1043.88 1
3 1 -6 187572 1200.92 10
3 1 -6 188815 1367.94 1
3 -1 -5 100422 946.544 3
3 1 -5 99563.3 782.714 7
3 -1 -5 98456.6 714.169 2
3 -1 -5 101637 885.795 10
3 1 -5 102297 910.612 1
3 -1 -4 58370 659.357 3
3 -1 -4 59414.9 642.88 10
3 1 -4 58706.4 623.239 1
3 1 -4 58459 592.242 7
3 1 -3 18982.3 278.343 3
3 -1 -3 19256.6 352.641 3
3 1 -3 19156.9 345.938 10
3 -1 -3 19696.1 355.368 10
3 1 -3 19231.4 316.246 1
3 1 -3 19426.1 333.575 7
3 1 -2 3039.14 96.3478 3
3 -1 -2 2983.23 135.574 3
3 -1 -2 3118.1 138.167 10
3 1 -2 3085.32 111.268 4
3 1 -2 2986.42 110.744 1
3 1 -2 2940.31 131.038 7
3 1 -1 300880 871.699 3
3 1 -1 304168 1294.95 10
3 -1 -1 302823 1314.07 4
3 -1 -1 304245 1276.13 10
3 -1 -1 301678 1306.56 3
3 1 -1 308205 918.131 1
3 1 -1 303392 1163.76 4
3 1 -1 306506 1305.2 7
3 1 0 406335 1474.98 10
3 -1 0 402463 1393.36 10
3 1 0 396320 1091.85 3
3 -1 0 408405 1569.33 3
3 -1 0 403012 1551.39 4
3 1 0 392798 1450.9 4
3 1 1 120557 794.181 10
3 -1 1 118133 725.612 10
3 -1 1 125154 917.951 3
3 1 1 122870 705.055 3
3 1 1 125116 900.528 4
3 -1 1 129156 925.813 4
3 1 1 127980 856.513 7
3 -1 2 22126.2 281.392 10
3 -1 2 22755.3 420.763 8
3 -1 2 23257 427.258 3
3 -1 2 23060.4 425.279 4
3 1 2 24689.9 442.682 4
3 1 2 23891.9 371.798 7
3 -1 3 182817 1290.32 8
3 -1 3 184029 1289.17 4
3 1 3 182300 1321.7 4
3 1 3 184238 1026.68 7
3 1 4 17641.3 377.22 8
3 -1 4 17985.6 443.946 8
3 -1 4 17612 434.513 4
3 1 4 18049.8 459.201 4
3 -1 5 29308 615.202 8
3 -1 5 28899.6 602.93 4
3 1 5 29516.5 639.918 4
3 1 6 17095.7 526.818 4
3 -1 6 17196.4 361.818 18
3 1 6 18178.8 361.726 15
3 -1 6 18259.2 523.622 8
3 -1 6 17135.1 375.316 14
3 1 6 17582.4 378.162 14
3 -1 6 17553.1 503.827 4
3 -1 6 17534.9 376.947 23
3 1 7 66066.8 1085.19 4
3 -1 7 66360.1 727.064 18
3 -1 7 67735.4 1055.18 8
3 -1 7 65340.7 756.946 14
3 1 7 67302.1 763.814 14
3 -1 7 68231.2 758.276 23
3 -1 8 19088.3 382.907 18
3 -1 8 19435 413.117 14
3 1 8 19358.3 408.654 14
3 -1 8 19679.1 404.304 23
3 -1 9 5816.28 192.788 18
3 -1 9 6254.24 221.527 14
3 1 9 6228.3 221.981 14
3 -1 9 5886.53 206.219 23
3 -1 10 15794.3 298.902 14
3 1 10 15288 294.439 14
3 -1 10 15082.3 269.307 23
3 1 11 1530.53 71.3381 14
3 -1 11 1350.25 67.4704 14
3 2 -13 9001.3 170.835 20
3 -2 -13 9176.23 196.432 20
3 2 -13 9217.97 182.539 21
3 2 -12 40162.2 476.048 20
3 -2 -12 39817.8 497.245 25
3 2 -12 39766.6 480.825 21
3 2 -11 14656.1 332.375 20
3 -2 -11 15135 357.957 25
3 2 -11 14861.5 333.356 21
3 -2 -11 14839.8 297.137 21
3 2 -10 11398.5 309.753 20
3 -2 -10 11431.1 331.224 25
3 2 -10 11397.5 307.879 21
3 2 -9 1852.28 131.879 20
3 -2 -9 1860.29 141.034 25
3 2 -9 2122.74 136.145 21
3 2 -8 19833.1 389.845 20
3 -2 -8 21677.7 502.971 2
3 -2 -8 20565.6 400.979 16
3 -2 -8 20674.3 427.762 25
3 2 -8 20282.7 557.916 1
3 2 -8 21014.2 394.692 21
3 -2 -7 57127.9 794.836 10
3 2 -7 57360.1 870.36 1
3 -2 -6 56724.1 833.126 3
3 2 -6 57783.3 794.43 1
3 -2 -6 56894.6 758.854 10
3 -2 -6 55594.6 645.651 2
3 -2 -5 68434.6 840.986 3
3 2 -5 69070.2 791.926 1
3 2 -5 69584.2 737.97 10
3 -2 -5 67760.2 610.847 2
3 2 -5 67730.2 684.464 7
3 -2 -5 68222 823.918 6
3 2 -4 1485.65 109.507 1
3 2 -4 1359.37 100.416 7
3 -2 -4 1675.21 128.818 3
3 2 -4 1131.74 100.036 10
3 -2 -4 1376.67 74.4733 2
3 -2 -4 1134.26 103.051 6
3 -2 -3 77216.5 787.147 3
3 2 -3 77182.1 747.731 10
3 2 -3 77464.6 725.895 7
3 2 -3 77611 679.86 1
3 -2 -3 79924.3 739.539 6
3 -2 -2 247071 1366.7 3
3 2 -2 245961 891.516 4
3 2 -2 246101 1291.63 7
3 2 -2 247595 1073.85 1
3 2 -1 20061.7 256.945 1
3 2 -1 19487.1 364.831 7
3 -2 0 221574 1238.73 4
3 -2 0 223250 1306.86 3
3 2 0 223212 1108.26 4
3 -2 1 19941.6 328.461 10
3 -2 1 19337.4 405.352 3
3 -2 1 20613.7 390.422 4
3 2 1 19463.5 372.808 4
3 2 1 21010.8 387.235 7
3 -2 2 32247.7 554.369 3
3 -2 2 32093.9 540.712 8
3 -2 2 33164.3 520.265 4
3 2 2 32021.6 528.717 4
3 2 2 33183.2 496.03 7
3 -2 3 35336 610.287 8
3 -2 3 34005.7 562.574 4
3 2 3 35031.1 610.305 4
3 2 3 35037.4 521.06 7
3 -2 4 14618.4 429.058 8
3 -2 4 14940.9 400.748 4
3 2 4 14767.3 435.87 4
3 -2 5 111304 908.059 18
3 2 5 109554 895.01 15
3 -2 5 111223 1273.7 8
3 -2 5 109758 901.516 14
3 2 5 110661 875.673 14
3 -2 5 111566 1161.58 4
3 -2 5 109567 920.723 23
3 2 5 112801 1311.89 4
3 -2 6 69578.5 753.842 18
3 2 6 67455.7 728.957 15
3 -2 6 69328.3 1071.76 8
3 -2 6 66612.8 738.2 14
3 2 6 66750.4 723.841 14
3 -2 6 68861.4 765.682 23
3 2 6 70889.4 1106 4
3 -2 7 40625.5 588.308 18
3 2 7 41241.2 568.929 15
3 2 7 40297 576.068 14
3 -2 7 40028 584.009 14
3 -2 7 41120.8 605.088 23
3 -2 8 110874 938.08 18
3 2 8 111334 867.437 15
3 -2 8 113062 955.207 14
3 2 8 111487 936.47 14
3 -2 8 111292 965.206 23
3 -2 9 3677.74 159.206 18
3 -2 9 3650.8 162.548 14
3 2 9 3560.94 157.902 14
3 -2 9 3454.78 160.836 23
3 -2 10 6258.28 162.454 18
3 -2 10 6263.36 175.902 23
3 -2 10 6389.76 174.753 14
3 2 10 6338.57 173.668 14
3 -3 -13 3152.71 96.1556 20
3 3 -13 3351.59 98.8708 21
3 3 -12 8138.35 179.635 20
3 -3 -12 7970 206.397 25
3 3 -12 8123.79 207.746 21
3 3 -11 42395.5 503.937 20
3 -3 -11 41535.5 567.37 25
3 3 -11 40947.8 533.678 21
3 -3 -10 15916.2 386.563 25
3 3 -10 15338.3 338.961 20
3 3 -10 15307.3 355.057 21
3 3 -9 18656.5 382.945 20
3 -3 -9 18883.8 429.791 25
3 3 -9 18925.2 399.258 21
3 3 -8 8366.14 254.906 20
3 -3 -8 8428.97 265.207 16
3 3 -8 8209.1 376.166 1
3 -3 -8 8280.68 283.371 25
3 3 -8 8488.37 263.445 21
3 3 -7 17188.8 349.221 20
3 3 -7 17408.5 507.717 1
3 -3 -7 17923.9 393.359 25
3 -3 -7 16871.2 475.153 10
3 -3 -7 17424.6 368.509 16
3 3 -7 17811.2 362.564 21
3 3 -6 2424.08 179.244 1
3 -3 -6 2305.57 185.412 3
3 -3 -6 2930.43 204.751 6
3 -3 -5 11624.1 376.261 3
3 3 -5 12718.3 328.076 7
3 3 -5 11734 354.945 1
3 -3 -5 11651.3 373.711 6
3 -3 -4 7030.19 276.541 3
3 3 -4 6858.11 254.42 10
3 3 -4 6761.52 247.466 1
3 3 -4 6910.79 244.016 7
3 -3 -3 197315 1307.04 6
3 -3 -3 196075 1387.78 3
3 3 -3 201524 1339.37 10
3 3 -3 199907 1205.88 1
3 3 -3 194820 1282.88 7
3 -3 -2 6521.4 220.977 6
3 3 -2 6279.9 238.207 10
3 -3 -2 6348.27 246.539 3
3 3 -2 6315.26 196.032 1
3 3 -2 6173.14 230.414 7
3 -3 -1 276924 1313.15 6
3 -3 -1 269546 1570.68 3
3 3 -1 278135 1124.83 1
3 3 -1 271427 1112.64 4
3 3 -1 270884 1529.91 7
3 -3 0 63722.3 579.86 6
3 -3 0 65521.4 793.692 3
3 3 0 62926.6 629.083 4
3 3 0 64682.3 765.697 7
3 -3 1 106496 948.892 4
3 3 1 105668 909.913 4
3 3 1 107440 1007.06 7
3 -3 2 61075.5 806.189 8
3 -3 2 60847.7 834.038 3
3 3 2 61620.6 773.908 4
3 3 2 63470.7 784.972 7
3 -3 3 57317.6 865.926 3
3 -3 3 56766.3 834.853 8
3 3 3 55338.9 809.217 4
3 -3 3 54585.6 739.667 4
3 3 3 55367.9 750.223 7
3 -3 4 31128.1 477.717 18
3 3 4 31523.5 485.212 15
3 -3 4 32478.5 698.662 3
3 -3 4 31526 669.212 8
3 -3 4 31824.4 593.276 4
3 -3 4 30809.4 480.887 23
3 3 4 31266.7 666.194 4
3 -3 5 51332 645.065 18
3 -3 5 50950.1 602.231 11
3 3 5 50222.4 642.491 15
3 -3 5 52240.5 943.257 3
3 -3 5 50840.4 905.207 8
3 -3 5 51054 620.796 14
3 -3 5 51363.6 632.75 24
3 -3 5 50451.8 650.14 23
3 3 5 52769.9 933.228 4
3 -3 6 44895.8 622.713 18
3 -3 6 43427.6 590.722 14
3 3 6 43067.2 606.956 15
3 -3 6 44551.4 912.636 3
3 -3 6 44622.4 892.525 8
3 3 6 43191.1 559.505 14
3 -3 6 44144.7 595.73 24
3 -3 6 43719 622.624 23
3 3 6 43691 895.346 4
3 -3 7 43566.7 614.581 18
3 3 7 43047 596.937 15
3 3 7 42794 558.083 14
3 -3 7 42515.1 571.413 24
3 -3 7 43164.7 619.638 23
3 -3 7 43247.7 585.591 14
3 -3 8 25516.9 448.521 18
3 3 8 24931.1 420.949 15
3 -3 8 26009 426.484 14
3 3 8 25266.6 408.238 14
3 -3 8 24707.2 395.415 24
3 -3 8 25738.3 457.671 23
3 -3 9 14225.1 275.537 14
3 -3 9 14616.9 299.827 18
3 -3 9 14429.1 306.106 23
3 3 9 13814.4 272.435 17
3 3 9 14192.3 259.075 15
3 3 9 14488.2 270.049 14
3 -3 10 6058.01 153.331 18
3 -3 10 6042.35 131.019 14
3 -3 10 6405.43 164.129 23
3 -4 -12 19607.8 242.385 20
3 4 -12 20312 288.784 21
3 -4 -11 2906.55 141.67 25
3 4 -11 2874.19 137.46 21
3 -4 -10 24346.1 458.228 25
3 4 -10 25033.5 436.523 21
3 -4 -9 66127.7 797.824 25
3 4 -9 65779.6 676.262 22
3 4 -9 65610.7 744.55 21
3 -4 -8 43620 651.612 25
3 4 -8 43192 570.398 22
3 4 -8 43774.8 612.166 21
3 -4 -7 6278.38 248.902 25
3 4 -7 6542 333.006 1
3 -4 -7 6427.91 236.857 16
3 4 -7 6565.33 225.518 22
3 4 -7 6623.15 236.295 21
3 -4 -7 6704.18 350.229 6
3 -4 -6 101934 1256.65 3
3 -4 -6 101287 903.483 17
3 -4 -6 103026 945.427 25
3 4 -6 101208 857.048 22
3 4 -6 101588 880.288 21
3 4 -6 104542 1237.06 1
3 -4 -6 102397 1281.96 6
3 -4 -5 106953 1232.66 6
3 4 -5 108311 1171.06 1
3 4 -5 109714 1070.88 7
3 -4 -4 20671.2 514.569 6
3 4 -4 20913.4 477.19 1
3 -4 -4 21353.1 522.023 3
3 4 -4 21182.4 474.836 7
3 -4 -3 50172.8 744.155 6
3 -4 -3 50807.7 773.023 3
3 4 -3 49702.5 679.389 1
3 4 -3 48650.3 721.863 7
3 -4 -2 162846 1262.19 6
3 -4 -2 166975 1374.57 3
3 4 -2 162801 1134.41 1
3 4 -2 166341 1345.91 7
3 -4 -1 33802.9 542.254 6
3 -4 -1 35553.8 634.51 3
3 4 -1 34412.3 624.762 7
3 -4 0 18155.7 374.946 6
3 -4 0 17886.5 456.882 3
3 4 0 17980.8 460.886 7
3 4 1 90465.1 901.953 4
3 -4 1 89146.5 1058.67 3
3 4 1 91598.7 1057.49 7
3 -4 2 20791.2 532.032 3
3 4 2 20570.5 478.841 4
3 4 2 20239.3 507.425 7
3 4 3 49013.3 609.129 19
3 -4 3 48599.5 592.668 18
3 -4 3 49157.9 600.852 11
3 4 3 50171.2 654.718 27
3 -4 3 49613.3 868.404 3
3 4 3 49892.8 618.064 15
3 -4 3 49442.9 830.503 8
3 -4 3 50135.2 610.822 23
3 -4 3 50584.3 622.125 24
3 4 3 49659 812.35 4
3 4 3 48656.3 797.824 7
3 4 4 21218.1 408.148 19
3 -4 4 20927.8 410.852 18
3 -4 4 21213.1 406.972 11
3 4 4 20613.4 438.465 27
3 -4 4 21105.4 597.382 3
3 4 4 20921.4 419.078 15
3 -4 4 21161.9 579.667 8
3 -4 4 20819 416.36 24
3 4 4 20999.1 573.139 4
3 -4 4 20251.3 408.053 23
3 -4 5 66457.2 754.027 18
3 -4 5 68152.7 735.604 11
3 -4 5 66344.3 757.406 23
3 -4 5 69628.6 1129.15 3
3 4 5 68314.2 777.856 15
3 -4 5 66835.6 1075.36 8
3 -4 5 67290.3 759.34 24
3 4 5 69712 1103.87 4
3 -4 6 11086.7 293.403 11
3 -4 6 10996.2 311.062 18
3 4 6 10776.6 311.062 15
3 -4 6 11621.6 289.575 14
3 -4 6 11022.2 308.146 24
3 -4 6 11106.9 316.547 23
3 -4 7 16467.2 327.837 14
3 -4 7 16163.3 327.477 11
3 -4 7 16380 369.811 18
3 4 7 16100.6 364.35 15
3 -4 7 16183.7 353.339 24
3 -4 7 16123 368.69 23
3 -4 8 17085 346.162 18
3 4 8 16834.5 334.053 15
3 -4 8 16445.4 315.805 24
3 -4 8 17080.7 348.391 23
3 -4 9 14863.5 231.89 24
3 -4 9 15357.1 278.608 18
3 -4 9 14983 278.071 23
3 4 9 14894.8 264.139 17
3 4 9 14742.5 248.795 15
3 -4 10 12264.5 180.082 18
3 -4 10 13040.6 189.661 23
3 -5 -11 5091.41 157.72 25
3 -5 -10 9963.69 267.598 25
3 5 -10 9829.51 224.113 22
3 5 -10 9948.7 256.092 21
3 -5 -9 2684.74 161.416 25
3 5 -9 2766.5 140.467 22
3 5 -9 2891.94 155.377 21
3 -5 -8 5070.9 202.556 16
3 -5 -8 4694.73 219.246 25
3 5 -8 4674.78 196.416 22
3 5 -8 4844.38 209.249 21
3 -5 -7 118244 1009.43 16
3 -5 -7 119497 1083.3 25
3 5 -7 119976 991.908 22
3 5 -7 119024 1013.62 21
3 -5 -6 6451.38 243.618 16
3 -5 -6 6679.97 255.816 25
3 5 -6 6849.27 243.324 22
3 5 -6 7183.13 349.701 1
3 5 -6 6746.56 245.241 21
3 -5 -6 6795.13 356.542 6
3 -5 -5 112864 1322.37 3
3 -5 -5 114467 999.249 16
3 -5 -5 117056 1032.78 25
3 5 -5 115946 1312.8 1
3 5 -5 116147 975.505 22
3 5 -5 115139 887.76 12
3 -5 -4 53088.9 902.784 6
3 5 -4 51390 826.189 1
3 -5 -4 52593.3 873.501 3
3 -5 -4 52969.9 642.842 17
3 -5 -4 51998.6 661.757 16
3 5 -4 53616.4 616.682 26
3 -5 -4 53682.1 674.435 25
3 5 -4 52550.5 647.519 22
3 5 -4 53998.8 844.864 7
3 5 -4 51671.5 605.644 12
3 -5 -3 95246.1 1147.12 6
3 -5 -3 92035 1125.58 3
3 -5 -3 93460.5 825.259 17
3 -5 -3 96938.6 881.884 16
3 5 -3 93827.7 1045.7 1
3 -5 -3 97104.7 874.749 25
3 5 -3 96345.3 868.295 22
3 5 -3 93301.3 1117.91 7
3 5 -3 94193.1 819.218 12
3 -5 -2 8007.75 321.818 6
3 -5 -2 8032.79 331.341 3
3 5 -2 8602.98 262.813 22
3 5 -2 8002.02 336.737 7
3 -5 -1 195680 1498.63 6
3 -5 -1 195167 1618.35 3
3 5 -1 193398 1663.35 7
3 5 0 34775.1 526.102 19
3 -5 0 33586.9 496.77 11
3 -5 0 34637.1 692.702 3
3 -5 0 34353.9 507.643 16
3 5 0 34095.7 528.001 26
3 -5 0 34008.1 506.789 24
3 5 0 34039.3 714.457 7
3 5 0 33129.5 511.56 12
3 5 1 68861.7 754.743 19
3 -5 1 66235.6 708.975 11
3 -5 1 65753.2 976.535 3
3 -5 1 66537.1 705.55 16
3 5 1 67968.8 746.129 27
3 5 1 65347.6 674.305 15
3 -5 1 66578.7 723.318 24
3 5 1 68469.5 1027.39 7
3 5 1 65288.3 739.335 12
3 5 2 58641.8 710.585 19
3 -5 2 59079.6 649.912 18
3 -5 2 57410.9 680.435 11
3 -5 2 57995.1 948.239 3
3 -5 2 58095.9 656.933 16
3 5 2 57525.2 719.132 27
3 5 2 58243.9 669.56 15
3 -5 2 58578.1 696.188 24
3 -5 2 58721.8 656.103 23
3 5 2 55102.6 697.917 12
3 5 2 57408.5 954.609 7
3 5 3 29628.4 510.288 19
3 -5 3 29462.2 477.195 18
3 -5 3 30515.3 503.659 11
3 -5 3 29305 480.577 23
3 -5 3 29400.7 707.004 3
3 5 3 30016.8 537.656 27
3 5 3 29268.9 496.607 15
3 -5 3 30258.8 511.712 24
3 5 3 30334.8 662.301 4
3 5 3 30084.3 695.708 7
3 5 4 3966.62 189.099 19
3 -5 4 3926.9 183.369 18
3 -5 4 4119.6 192.212 11
3 5 4 3947.58 203.972 27
3 5 4 4238.9 198.23 15
3 -5 4 4217.91 199.01 24
3 5 4 4420.21 277.718 4
3 -5 4 4299.62 193.335 23
3 5 5 17987.5 375.624 19
3 -5 5 17584.6 382.805 11
3 -5 5 16892 376.915 18
3 5 5 17076.8 391.987 15
3 -5 5 17159.2 388.861 24
3 -5 5 16687.4 374.991 23
3 -5 6 3815.32 173.378 11
3 -5 6 3765.47 177.683 18
3 5 6 3921.2 188.724 15
3 -5 6 3835.71 181.048 24
3 -5 6 4012.21 182.32 23
3 -5 7 8958.73 234.542 11
3 -5 7 9337.12 256.123 18
3 5 7 9142.97 259.779 15
3 -5 7 9058.14 251.283 24
3 -5 7 8911.84 248.371 23
3 -5 8 8412.65 180.589 11
3 -5 8 8285.44 211.23 18
3 5 8 8357.11 213.385 15
3 -5 8 8268.11 203.313 24
3 -5 8 8312.77 209.326 23
3 -5 9 37955.6 354.516 18
3 5 9 37827.4 347.768 17
3 -5 9 37662.9 344.683 23
3 -6 -10 5929.94 171.029 25
3 6 -10 5900.09 146.074 22
3 -6 -9 30725.5 460.805 25
3 6 -9 30619.9 412.812 22
3 -6 -8 3106.95 169.669 25
3 6 -8 2796.17 145.468 22
3 -6 -7 65576.9 716.393 16
3 -6 -7 66455.2 787.067 25
3 6 -7 67116.3 733.873 22
3 -6 -6 20713.5 427.115 16
3 -6 -6 20806.9 451.224 25
3 6 -6 19602.1 410.094 22
3 -6 -5 30181.5 525.086 16
3 6 -5 29696.1 472.058 26
3 -6 -5 29648.6 532.225 25
3 6 -5 29798.8 515.171 22
3 6 -5 28809.4 467.772 12
3 -6 -4 27510.4 698.676 6
3 -6 -4 28159.8 513.016 25
3 -6 -4 27899.5 505.448 16
3 6 -4 27236.7 469.128 26
3 6 -4 27429.6 496.673 22
3 6 -4 27481.8 470.791 12
3 -6 -3 95925.7 1259.27 6
3 -6 -3 97066.4 1207.32 3
3 6 -3 95211.1 875.13 19
3 -6 -3 97093.7 933.773 16
3 6 -3 98480.1 906.104 26
3 -6 -3 99427.1 944.268 25
3 6 -3 97367.3 933.383 22
3 6 -3 98476.6 1252.74 7
3 6 -3 97950.9 900.209 12
3 -6 -2 79015.2 1097.79 6
3 6 -2 79698.7 821.099 19
3 -6 -2 79731.5 782.699 11
3 -6 -2 79459.9 1087.19 3
3 -6 -2 79566.2 841.568 16
3 6 -2 79372.6 833.379 26
3 -6 -2 80138.9 824.789 25
3 -6 -2 80110.3 801.054 24
3 6 -2 77623.8 839.215 22
3 6 -2 78289.2 1138.98 7
3 6 -2 78933.8 818.992 12
3 6 -1 5451.29 224.881 19
3 -6 -1 4958.43 204.386 11
3 -6 -1 5105.51 285.31 3
3 -6 -1 4748.03 209.761 16
3 6 -1 4818.54 201.434 27
3 6 -1 5063.59 220.562 26
3 -6 -1 4707.37 201.09 25
3 -6 -1 5089.55 209.318 24
3 6 -1 5165.37 222.583 22
3 6 -1 5292.51 307.828 7
3 6 -1 4830.08 211.314 12
3 6 0 53590.8 678.673 27
3 6 0 53543.2 700.341 19
3 -6 0 53067.3 658.644 11
3 -6 0 55096.9 918.074 3
3 -6 0 54533.9 684.511 16
3 6 0 55061 717.872 26
3 -6 0 53569.3 645.136 25
3 -6 0 53067.9 665.401 24
3 6 0 53140.7 971.916 7
3 6 0 52106.6 685.749 12
3 6 1 71033.4 815.252 19
3 -6 1 68818.4 760.211 11
3 -6 1 69263.2 1044.44 3
3 -6 1 70344.2 770.29 16
3 6 1 70516.5 803.808 27
3 6 1 68858.9 706.867 15
3 -6 1 69554 770.725 24
3 6 1 70441.2 1126.15 7
3 6 1 67921.9 794.2 12
3 6 2 20295.6 436.615 19
3 -6 2 20410.2 418.817 11
3 -6 2 20195.6 408.589 16
3 6 2 20483.2 446.306 27
3 6 2 19528.7 395.436 15
3 -6 2 19992 419.951 24
3 6 2 20170.4 437.05 12
3 6 3 62864.9 752.615 19
3 -6 3 65302.5 680.289 18
3 -6 3 63169.6 735.354 11
3 -6 3 61402 686.067 16
3 6 3 63001.2 787.943 27
3 6 3 63570.3 724.249 15
3 -6 3 63429.1 744.348 24
3 -6 3 64958 680.863 23
3 6 4 39914.6 575.335 19
3 -6 4 40343.8 536.867 18
3 -6 4 40048.1 578.561 11
3 6 4 39141.4 614.661 27
3 6 4 39219.1 574.225 15
3 -6 4 39009.6 580.089 24
3 -6 4 40529.5 538.994 23
3 6 5 4724.73 186.434 19
3 -6 5 4729.19 195.885 11
3 -6 5 5040.18 188.841 18
3 6 5 4862.36 203.49 15
3 -6 5 4870.99 202.881 24
3 -6 5 4778.6 182.632 23
3 -6 6 6372.4 204.629 11
3 -6 6 6254.76 195.831 18
3 6 6 6391.23 214.689 15
3 -6 6 6184.73 208.385 24
3 -6 6 6339.03 193.841 23
3 -6 7 13567 251.813 11
3 -6 7 13540.3 251.472 18
3 6 7 13893.2 276.86 15
3 -6 7 13349 265.207 24
3 -6 7 13408.7 241.608 23
3 -6 8 10545.8 177.326 18
3 6 8 11026 198.561 17
3 6 8 11367.7 198.757 15
3 -6 8 10278.4 183.623 24
3 -6 8 9683.13 155.412 23
3 -7 -9 4397.55 138.279 25
3 7 -9 4275.54 125.115 22
3 -7 -8 4633.01 169.998 25
3 7 -8 4636.39 159.104 22
3 -7 -7 11159.5 288.134 25
3 -7 -7 10901.6 247.152 16
3 7 -7 10504.2 265.432 22
3 -7 -6 778.988 92.4689 25
3 -7 -6 772.524 82.0224 16
3 7 -6 727.483 85.2045 22
3 7 -6 929.24 79.3635 12
3 -7 -5 69206.3 748.155 16
3 7 -5 67456.8 682.017 26
3 7 -5 68646.4 756.788 22
3 -7 -5 68582.9 774.337 25
3 7 -5 68461.4 692.467 12
3 -7 -4 2138.71 144.53 16
3 7 -4 2093.51 133.013 26
3 -7 -4 2137.63 146.602 25
3 7 -4 1973.63 139.706 22
3 7 -4 2050.51 134.847 12
3 7 -3 12988.2 319.067 19
3 -7 -3 13214.8 347.346 16
3 7 -3 13438.8 338.972 26
3 -7 -3 13938.6 353.835 25
3 7 -3 13481.4 348.913 22
3 7 -3 13233.9 336.381 12
3 7 -2 4112.06 191.813 19
3 -7 -2 4321.6 179.725 11
3 -7 -2 4572.13 209.812 16
3 7 -2 4322.45 202.691 26
3 -7 -2 4062.44 193.082 25
3 -7 -2 4092.66 176.839 24
3 7 -2 4046.69 197.001 22
3 7 -2 3930.52 193.249 12
3 7 -1 69299.1 781.935 19
3 -7 -1 67824 715.047 11
3 -7 -1 67851.4 777.812 16
3 7 -1 66644.6 727.466 27
3 7 -1 67328.4 788.806 26
3 -7 -1 67886.8 747.553 25
3 -7 -1 69850.8 728.507 24
3 7 -1 66515.7 774.502 12
3 7 0 39981.2 607.894 19
3 -7 0 39293.8 556.677 11
3 -7 0 39372.5 586.734 16
3 7 0 39323.1 578.217 27
3 -7 0 37868.5 543.241 25
3 -7 0 39666.9 558.378 24
3 7 0 39170.1 599.905 12
3 7 1 42051.3 619.955 19
3 -7 1 41386.6 573.855 11
3 -7 1 42451.3 594.638 16
3 7 1 42194.7 608.714 27
3 -7 1 41531 543.257 25
3 -7 1 42157.5 578.672 24
3 7 1 41638 613.891 12
3 7 2 2493.48 155.961 19
3 -7 2 2758.73 153.175 11
3 -7 2 2405.34 143.604 16
3 7 2 2465.18 156.152 27
3 7 2 2558.33 136.297 15
3 -7 2 2845.59 155.955 24
3 7 3 4111.4 194.537 27
3 7 3 4011.23 184.075 19
3 -7 3 4071.26 181.669 11
3 -7 3 3823.01 175.638 24
3 -7 3 3896.89 165.794 16
3 7 3 4129.15 171.843 15
3 7 4 20807.2 375.855 19
3 -7 4 20355.8 376.351 11
3 -7 4 20389.8 326.866 16
3 7 4 19884.4 359.957 15
3 -7 4 20613.7 379.098 24
3 7 5 24542.9 348.574 19
3 -7 5 25725 387.103 11
3 7 5 25233.8 379.14 15
3 -7 5 25509.6 390.122 24
3 -7 6 17725.8 279.059 11
3 7 6 18260.6 287.167 15
3 -7 6 17876.9 286.409 24
3 -7 7 1817.73 68.3591 11
3 7 7 1591.92 69.4053 17
3 7 7 1822.25 76.5755 15
3 -7 7 1810.75 74.8627 24
3 -8 -8 6444.83 136.008 25
3 -8 -7 1275.02 78.9083 25
3 8 -7 1347.06 78.4655 22
3 -8 -6 826.816 62.4369 16
3 -8 -6 888.371 77.3889 25
3 8 -6 799.65 72.2205 22
3 8 -6 879.476 60.9359 12
3 -8 -5 5382.84 188.032 25
3 -8 -5 5580.64 179.097 16
3 8 -5 5505.05 163.886 26
3 8 -5 5675.27 190.811 22
3 8 -5 5617.72 171.15 12
3 -8 -4 9491.83 251.419 16
3 8 -4 9372.08 237.595 26
3 -8 -4 9445.47 255.626 25
3 8 -4 9662.96 244.769 12
3 8 -3 8061.31 216.823 19
3 -8 -3 8234.84 245.137 16
3 8 -3 8047.21 235.659 26
3 -8 -3 7857.52 237.181 25
3 8 -3 8303.18 240.658 12
3 8 -2 30538.3 450.38 19
3 -8 -2 31282 482.943 16
3 -8 -2 29975.4 456.116 25
3 8 -2 30694.1 474.744 12
3 8 -1 4064.7 174.438 19
3 -8 -1 4065.47 151.045 11
3 -8 -1 3991.34 178.85 16
3 8 -1 3860.25 157.262 27
3 -8 -1 3844.87 164.109 25
3 8 -1 4072.65 181.134 12
3 8 0 2229.67 134.635 19
3 -8 0 1994.25 113.249 11
3 -8 0 2000.43 126.48 16
3 8 0 2207.53 125.171 27
3 -8 0 1977.72 114.365 25
3 -8 0 2103.72 112.623 24
3 8 0 2250.56 136.011 12
3 8 1 13174 308.292 19
3 -8 1 12914.4 275.932 11
3 8 1 12436.4 290.03 27
3 -8 1 12608.7 289.693 16
3 -8 1 12541.4 257.459 25
3 -8 1 12342.5 265.048 24
3 8 2 52530 583.237 19
3 -8 2 52883.1 545.77 11
3 -8 2 52116.9 546.019 16
3 8 2 53201.7 585.134 27
3 -8 2 52687.5 532.941 24
3 8 3 10524 241.069 19
3 -8 3 10911.9 238.26 11
3 -8 3 10210.6 216.864 16
3 8 3 10887.5 203.379 15
3 -8 3 10249.8 226.515 24
3 8 4 10221.3 204.334 19
3 -8 4 10163.8 211.31 11
3 8 4 10488.7 188.028 15
3 -8 4 10357.9 207.18 24
3 -8 5 108.198 29.777 11
3 8 5 91.3479 22.3068 15
3 -8 5 60.2235 25.5652 24
3 -9 -5 2719.9 91.6629 25
3 -9 -4 11534.4 193.776 16
3 -9 -4 12142.1 207.989 25
3 -9 -3 7693.52 175.534 16
3 -9 -3 7498.36 170.914 25
3 9 -3 7845.06 177.046 12
3 9 -2 10637.6 190.749 19
3 -9 -2 11113.9 221.904 16
3 -9 -2 10993.1 205.521 25
3 9 -2 11368.9 224.344 12
3 9 -1 2186.12 96.5202 19
3 -9 -1 2049.65 88.2943 25
3 -9 -1 2221.77 103.323 16
3 9 0 69182.4 531.029 19
3 -9 0 68788.1 534.947 16
3 9 1 18627 268.495 19
3 -9 1 18567.2 259.35 16
3 9 2 6892.58 149.929 19
3 -9 2 6253.76 128.431 16
4 0 -13 14.6424 32.9604 20
4 0 -12 25596.9 424.498 20
4 0 -11 153.871 55.6737 20
4 0 -11 25.415 49.6735 25
4 0 -10 20232.3 438.383 25
4 0 -9 59.3498 50.8967 25
4 0 -8 77164.2 791.152 16
4 0 -8 80373.1 817.184 25
4 0 -7 52.1815 40.9967 10
4 0 -7 86.7318 51.5954 1
4 0 -6 201454 1465.82 1
4 0 -6 202015 1403.02 10
4 0 -5 121.054 49.078 1
4 0 -5 16.1675 43.0071 10
4 0 -5 19.113 35.8696 3
4 0 -4 83154.7 774.196 3
4 0 -4 81421.3 829.087 10
4 0 -3 6.95747 38.2448 10
4 0 -3 1.63577 30.4452 3
4 0 -3 12.0015 35.27 7
4 0 -2 56930.9 573.725 3
4 0 -2 56507.7 618.908 4
4 0 -2 58287.4 651.725 7
4 0 -1 31.9881 34.4802 10
4 0 -1 174.322 41.4356 3
4 0 -1 159.099 46.8908 7
4 0 0 164429 1012.49 3
4 0 0 163392 1125.37 4
4 0 0 166491 1078.24 7
4 0 1 -4.34025 30.2402 10
4 0 1 93.2385 39.5903 3
4 0 1 24.164 33.3657 7
4 0 1 50.3345 46.6262 4
4 0 2 266616 1513.39 3
4 0 2 274313 1674.27 4
4 0 3 149.683 57.3173 4
4 0 3 106.314 45.8704 3
4 0 4 5492.14 262.473 3
4 0 4 5109.03 268.683 4
4 0 5 40.232 53.5667 4
4 0 5 17.9482 44.3393 17
4 0 5 88.098 48.6988 3
4 0 5 40.5254 37.5453 23
4 0 6 17520.9 355.36 17
4 0 6 16843.1 389.705 14
4 0 6 16112.7 533.337 4
4 0 6 16335.9 353.666 23
4 0 7 21.0252 48.5074 14
4 0 7 9.86698 40.7356 23
4 0 8 79164.4 791.192 14
4 0 8 75944.5 671.121 23
4 0 9 39.9997 40.7 14
4 0 10 1010.31 66.1949 14
4 1 -13 8694.67 201.681 20
4 -1 -13 8637.58 204.466 20
4 1 -12 47545 565.984 20
4 -1 -12 46127.3 557.247 20
4 1 -12 46797.9 488.311 21
4 1 -11 1415.77 118.831 20
4 -1 -11 1441.97 123.8 25
4 1 -11 1357.19 101.81 21
4 1 -10 15862.2 374.32 20
4 -1 -10 15836.5 391.384 25
4 1 -10 15853 336.655 21
4 1 -9 14490.8 353.878 20
4 -1 -9 15077.7 364.977 16
4 -1 -9 15503.6 380.095 25
4 1 -9 15251.2 374.904 25
4 1 -9 14822.3 503.268 1
4 1 -9 14849.5 324.029 21
4 1 -8 108587 925.122 20
4 1 -8 110288 1286.31 1
4 -1 -8 110699 972.548 25
4 1 -8 111447 963.739 25
4 1 -7 1154.54 115.426 10
4 -1 -7 1264.63 125.794 10
4 1 -7 1205.29 129.94 1
4 -1 -6 123786 1215.73 3
4 1 -6 122817 1158.3 1
4 1 -6 124087 1114.3 10
4 -1 -6 126299 1162.12 10
4 -1 -5 23349.7 485.913 3
4 1 -5 23842.2 464.702 1
4 -1 -5 23213.6 479.874 10
4 1 -5 23433.1 445.711 7
4 -1 -4 10956.9 312.827 3
4 1 -4 11617.7 297.65 1
4 -1 -4 11009.6 315.495 10
4 1 -4 10756.6 296.878 7
4 1 -3 47252.3 475.962 3
4 -1 -3 47468.7 612.968 3
4 -1 -3 47209.7 625.732 10
4 1 -3 47956.7 535.026 1
4 1 -3 46159.6 601.812 7
4 1 -2 52883.9 459.291 3
4 1 -2 54276.9 569.791 4
4 -1 -2 54072.3 636.101 3
4 1 -2 53564.9 648.186 10
4 -1 -2 52593.3 636.781 10
4 -1 -2 53382.3 642.371 4
4 1 -2 53602.1 642.263 7
4 1 -1 11434.8 211.322 3
4 1 -1 11954.5 302.626 10
4 -1 -1 10970.2 283.478 10
4 -1 -1 11349.2 294.479 3
4 -1 -1 11375.8 303.719 4
4 1 -1 11425.6 276.252 4
4 1 -1 11469.7 298.636 7
4 1 0 65780 695.344 10
4 -1 0 68172.7 677.429 10
4 1 0 67483.3 542.938 3
4 -1 0 68371.3 734.669 3
4 -1 0 66530.9 749.96 4
4 1 0 65792.7 711.644 4
4 1 0 67374.3 718.201 7
4 -1 1 33220.1 454.234 10
4 1 1 34301.2 434.716 3
4 -1 1 33412.7 545.25 3
4 -1 1 34397.6 562.443 4
4 1 1 34355 514.521 7
4 1 2 24765.7 415.275 3
4 -1 2 24214.9 498.114 3
4 -1 2 24589.4 505.919 4
4 1 2 25016.5 517.583 4
4 -1 3 81447.7 986.445 3
4 -1 3 82637.5 989.948 4
4 1 3 82499.8 1014.83 4
4 -1 4 58070.2 899.356 3
4 -1 4 57741.7 661.787 14
4 1 4 56788.7 913.459 4
4 -1 4 55507.3 866.591 4
4 -1 5 22204.5 416.603 18
4 1 5 21212.2 408.077 17
4 1 5 22104.1 414.124 15
4 -1 5 22661.1 602.546 3
4 -1 5 22091.6 431.858 14
4 1 5 22269.1 426.555 14
4 -1 5 21550.4 576.447 4
4 1 5 22746.3 620.657 4
4 -1 5 22304.8 425.51 23
4 -1 6 4294.94 189.495 18
4 1 6 4646.89 194.786 17
4 1 6 4769.19 195.951 15
4 -1 6 4393.1 201.946 14
4 1 6 4510.08 200.829 14
4 -1 6 4303 194.638 23
4 -1 7 28604.7 466.706 18
4 1 7 30405.8 468.529 17
4 -1 7 29011.7 507.219 14
4 1 7 29514.2 501.738 14
4 -1 7 29223.5 486.974 23
4 -1 8 10940.1 261.734 18
4 -1 8 11980.4 308.101 14
4 1 8 11544.9 297.708 14
4 -1 8 11239.5 279.414 23
4 -1 9 8119.13 223.369 14
4 1 9 8249.55 219.962 14
4 -1 9 7941.06 194.42 23
4 1 10 25722 292.737 14
4 -1 10 26006 300.684 14
4 2 -13 10329.9 194.933 20
4 -2 -13 10548.6 204.881 20
4 2 -12 20576.8 350.389 20
4 -2 -12 19687.2 343.077 20
4 -2 -12 20184.8 369.215 25
4 2 -12 19710.2 316.611 21
4 2 -11 34704.2 512.261 20
4 -2 -11 35214.5 550.256 25
4 2 -11 34619.3 481.427 21
4 2 -10 103942 933.428 20
4 -2 -10 104558 999.838 25
4 2 -10 104013 879.008 21
4 2 -9 60976.4 722.385 20
4 -2 -9 62064 737.558 16
4 -2 -9 62144.4 769.607 25
4 2 -9 61300.8 679.013 21
4 2 -8 24404.4 445.914 20
4 2 -8 25018.9 628.509 1
4 -2 -8 24737.9 581.991 10
4 -2 -8 23641.4 451.904 16
4 -2 -8 24776 473.427 25
4 2 -8 23869 411.708 21
4 -2 -7 27395 598.525 10
4 -2 -7 26448 461.057 25
4 -2 -6 6403.9 299.296 3
4 2 -6 6772.28 270.619 10
4 2 -6 6707.69 253.953 7
4 2 -6 6558.07 278.526 1
4 -2 -5 20713.7 496.581 3
4 2 -5 20903.9 460.961 10
4 -2 -5 21272.8 488.295 10
4 2 -5 21469 458.548 1
4 2 -5 21016.7 439.72 7
4 -2 -4 27107.6 535.182 3
4 2 -4 27119.4 512.882 10
4 -2 -4 28120.7 538.815 10
4 2 -4 27948.2 476.642 1
4 2 -4 26406.7 488.011 7
4 -2 -3 70285.1 829.254 3
4 2 -3 71020.4 809.968 10
4 -2 -3 72219.8 830.702 10
4 2 -3 71557.4 678.673 1
4 2 -3 71533.6 792.675 7
4 2 -2 24410.3 345.166 1
4 2 -2 23238.5 462.512 10
4 -2 -2 23843.3 474.488 3
4 -2 -2 23136.8 452.053 10
4 2 -2 23606.3 358.746 4
4 2 -2 24239.3 464.911 7
4 2 -1 13492.5 346.778 10
4 -2 -1 13708.5 358.755 3
4 -2 -1 13938.8 340.202 10
4 -2 -1 13861.2 356.613 4
4 2 -1 13216.5 293.474 4
4 2 -1 13836.4 352.51 7
4 -2 0 276890 1451.5 10
4 -2 0 277483 1641.18 3
4 -2 0 277964 1609.5 4
4 2 0 279762 1599.95 7
4 -2 1 101831 841.364 10
4 -2 1 102878 1054.88 3
4 -2 1 103051 1014.36 4
4 2 1 102822 982.908 4
4 2 1 103104 982.474 7
4 -2 2 169137 1425.37 3
4 -2 2 163509 1343.3 4
4 2 2 164932 1358.14 4
4 2 2 168790 1267.77 7
4 -2 3 105630 1202.78 3
4 -2 3 106834 1146.25 4
4 2 3 108704 1196.56 4
4 -2 4 73018.1 753.201 18
4 2 4 70572.8 740.502 15
4 -2 4 73662.5 1075.6 3
4 -2 4 71205.1 747.847 14
4 2 4 72554.7 711.472 14
4 -2 4 71075.4 989.654 4
4 2 4 72308.7 1059.15 4
4 -2 4 72996.3 764.153 23
4 -2 5 36818.7 556.638 18
4 2 5 35046.5 539.613 15
4 -2 5 37114.7 809.781 3
4 2 5 36838.5 803.844 4
4 -2 5 35705.4 551.139 14
4 -2 5 35723.9 733.15 4
4 2 5 35292.8 524.137 14
4 -2 5 36219.7 559.399 23
4 -2 6 37946.3 569.172 18
4 2 6 38689.2 566.187 15
4 -2 6 37092.2 570.569 14
4 2 6 37267 549.29 14
4 -2 6 38106.1 581.727 23
4 -2 7 52256.2 645.649 18
4 2 7 51053.5 626.764 17
4 2 7 50480.6 612.882 15
4 -2 7 51257.5 654.952 14
4 2 7 50576.1 623.106 14
4 -2 7 51089 653.058 23
4 -2 8 17859.7 342.036 18
4 2 8 17653.6 325.417 17
4 -2 8 18096.7 359.374 14
4 2 8 18107.7 345.814 14
4 -2 8 17874.2 353.495 23
4 -2 9 4074.07 134.935 18
4 -2 9 3905.05 143.42 14
4 2 9 3979.5 138.725 14
4 -2 9 4035.18 143.043 23
4 3 -12 33303.7 381.854 20
4 -3 -12 32932 386.738 20
4 -3 -12 33040.3 437.94 25
4 3 -12 33715.5 391.592 21
4 3 -11 1495.83 104.175 20
4 -3 -11 1362.99 98.475 20
4 -3 -11 1462.25 117.629 25
4 3 -11 1454.26 101.796 21
4 -3 -10 26677.5 499.252 25
4 3 -10 26631.9 451.363 20
4 -3 -10 27208.7 456.386 16
4 3 -10 26088.9 445.117 21
4 3 -9 1168.12 107.086 20
4 -3 -9 1165.76 109.705 16
4 -3 -9 1282.33 120.648 25
4 3 -9 1256.61 106.909 21
4 3 -8 50229.6 639.849 20
4 -3 -8 50354.6 881.517 10
4 3 -8 50750.7 927.178 1
4 -3 -8 50652.8 670.262 16
4 -3 -8 52801.2 705.083 25
4 3 -8 51125.5 629.258 21
4 3 -7 81986 792.714 20
4 -3 -7 84965.9 829.077 17
4 -3 -7 82802.2 1104.32 10
4 -3 -7 82888.4 838.915 16
4 3 -7 83930.5 1124.06 1
4 -3 -7 85397.1 862.627 25
4 3 -7 83185 779.472 21
4 -3 -6 185299 1695.03 3
4 3 -6 183659 1489 10
4 -3 -6 183424 1597.02 10
4 3 -6 186726 1557.27 1
4 3 -6 183600 1396.81 7
4 -3 -5 3236.45 215.896 3
4 3 -5 3225.45 199.118 10
4 3 -5 3111.3 188.576 1
4 3 -5 3207.53 188.188 7
4 -3 -5 3199.27 203.376 6
4 -3 -4 54326 828.023 3
4 3 -4 56424.7 728.572 1
4 3 -4 57160.7 808.639 10
4 3 -4 55319.7 767.394 7
4 -3 -4 55552 772.326 6
4 -3 -3 15140.4 424.917 3
4 3 -3 15193.5 342.405 1
4 3 -3 14988.1 410.02 10
4 3 -3 15156.9 402.398 7
4 -3 -3 15475.6 375.906 6
4 3 -2 122002 1149.5 10
4 -3 -2 120593 1172 3
4 3 -2 123149 1141.18 7
4 -3 -2 120807 958.457 6
4 -3 -1 63977.7 852.846 3
4 3 -1 63184.7 646.06 4
4 3 -1 63383.8 834.461 7
4 3 0 249.68 53.6727 4
4 -3 0 322.11 73.8825 3
4 3 0 251.811 63.8672 7
4 -3 1 57162.7 855.419 3
4 -3 1 57760.6 803.052 4
4 3 1 57152.5 759.293 4
4 3 1 58768.7 821.523 7
4 -3 2 196466 1661.96 3
4 3 2 191453 1522.44 4
4 3 2 193105 1511.26 7
4 3 3 20153.3 388.905 19
4 -3 3 20430.9 381.517 11
4 -3 3 20025.4 397.557 18
4 -3 3 20220.6 565.237 3
4 3 3 20168.1 398.292 15
4 -3 3 20158.5 387.047 14
4 -3 3 20174.9 388.222 24
4 -3 3 20377.9 515.283 4
4 -3 3 20686.4 404.353 23
4 3 3 20867.4 546.988 4
4 3 3 20785.3 499.615 7
4 3 4 166162 1117.73 19
4 -3 4 164150 1087.81 11
4 -3 4 163229 1167.66 18
4 -3 4 161730 1673.96 3
4 3 4 165566 1175.73 15
4 -3 4 160214 1128.5 14
4 -3 4 163443 1127.93 24
4 3 4 163563 1637.56 4
4 -3 4 163406 1175.45 23
4 -3 4 163676 1501.52 4
4 -3 5 38622.8 581.053 18
4 3 5 37836.1 577.421 15
4 -3 5 37495.6 560.656 14
4 -3 5 37961.8 547.469 24
4 -3 5 37506.9 580.314 23
4 -3 6 19795.1 417.176 18
4 3 6 19490.4 410.066 15
4 -3 6 19655.4 401.99 14
4 -3 6 19419.1 378.824 24
4 -3 6 19647.9 419.736 23
4 -3 7 2437.33 144.883 18
4 3 7 2519.35 145.908 17
4 3 7 2594.87 145.937 15
4 -3 7 2479.51 141.029 14
4 3 7 2587.54 129.3 14
4 -3 7 2646.6 153.191 23
4 -3 8 3169.58 144.877 18
4 3 8 3252.42 125.87 14
4 3 8 3174.82 140.053 17
4 3 8 3166.87 135.648 15
4 -3 8 3328.38 141.155 14
4 -3 8 3265.61 150.36 23
4 -3 9 15729.7 250.149 18
4 -3 9 15425.1 231.351 14
4 -3 9 16262 263.465 23
4 -4 -12 8586.92 195.354 25
4 -4 -11 13692.9 306.495 25
4 4 -11 13794.7 277.561 21
4 4 -10 19334.4 343.192 20
4 -4 -10 18735.6 402.238 25
4 4 -10 18720.7 364.38 21
4 4 -9 10425.1 276.532 20
4 -4 -9 10571.9 298.298 16
4 -4 -9 10029.3 313.007 25
4 4 -9 10256.4 287.286 21
4 4 -8 73571 748.254 20
4 -4 -8 70684.5 798.305 16
4 -4 -8 71325.9 830.515 25
4 4 -8 70663.8 708.279 22
4 4 -8 73380.4 777.776 21
4 4 -7 39758.7 553.452 20
4 -4 -7 38955 812.849 10
4 4 -7 39687.5 810.656 1
4 -4 -7 39913.2 598.89 16
4 -4 -7 40177.4 613.552 25
4 4 -7 39442 541.612 22
4 4 -7 39829.8 569.932 21
4 4 -6 18248.3 371.136 20
4 -4 -6 18763.4 573.94 3
4 -4 -6 18729.2 399.545 17
4 4 -6 19247.3 535.327 1
4 -4 -6 18703 406.622 16
4 -4 -6 18472.6 403.752 25
4 -4 -6 18011.9 399.58 24
4 4 -6 18387.5 371.368 22
4 4 -6 18706.3 382.48 21
4 -4 -6 18661.6 553.961 6
4 4 -5 20640.8 387.282 20
4 -4 -5 21438.7 586.06 3
4 -4 -5 20973.4 401.362 11
4 4 -5 20761.2 519.213 1
4 -4 -5 21103.3 411.166 17
4 -4 -5 21060.6 420.484 16
4 -4 -5 21469.2 416.025 25
4 -4 -5 20667.2 415.999 24
4 4 -5 21087.6 415.847 13
4 4 -5 21245.6 519.284 7
4 4 -5 20805.2 390.669 22
4 4 -5 20846.6 392.866 21
4 -4 -5 21345.1 561.656 6
4 4 -4 36332.2 632.337 1
4 -4 -4 37001.4 740.714 3
4 4 -4 38031 697.677 7
4 -4 -4 36561.1 687.692 6
4 4 -3 618.402 96.1167 7
4 -4 -3 494.241 80.9116 6
4 -4 -2 40608.8 634.535 6
4 -4 -2 41057.1 748.2 3
4 4 -2 40924.1 731.959 7
4 -4 -1 86726.3 1086.62 3
4 4 -1 86079.6 1068.78 7
4 -4 0 25801.6 606.852 3
4 4 0 24954.2 587.213 7
4 4 1 44121.5 609.455 20
4 4 1 47165.4 611.434 19
4 -4 1 46203 586.381 11
4 -4 1 44793.1 566.021 18
4 -4 1 47724.3 846.131 3
4 4 1 45644 571.197 15
4 4 1 48444.2 724.202 4
4 -4 1 49241.2 612.481 24
4 -4 1 45763.1 583.528 23
4 4 1 46252.9 611.237 27
4 4 1 48736.2 825.412 7
4 4 2 40567.4 579.809 19
4 -4 2 41675.2 568.004 11
4 -4 2 40564.5 560.621 18
4 -4 2 42198 822.389 3
4 4 2 40568.9 603.772 27
4 4 2 40464.4 564.696 15
4 -4 2 41527.9 537.538 14
4 -4 2 42004.4 580.777 24
4 -4 2 40492.3 569.011 23
4 4 2 43105.4 749.821 4
4 4 2 41721 780.202 7
4 4 3 29445.2 497.842 19
4 -4 3 30564.1 496.044 11
4 -4 3 29709.5 498.407 18
4 -4 3 30323 730.035 3
4 4 3 29973.9 505.818 15
4 -4 3 30151.2 469.787 14
4 -4 3 30413.6 506.671 24
4 -4 3 29776.8 503.079 23
4 4 3 30299.1 679.062 4
4 4 3 30265 667.194 7
4 4 4 53147.9 660.106 19
4 -4 4 52727.9 652.374 11
4 -4 4 51151.9 664.544 18
4 -4 4 51896 984.095 3
4 4 4 50714.4 670.151 15
4 -4 4 53896.5 638.969 14
4 -4 4 52513.7 670.702 24
4 4 4 52253.7 942.933 4
4 -4 4 51782.3 675.021 23
4 -4 5 26009.7 446.019 11
4 -4 5 26698.3 484.508 18
4 4 5 26602.5 487.451 15
4 -4 5 26779.8 449.408 14
4 -4 5 26570.1 469.702 24
4 -4 5 26997.2 489.124 23
4 -4 6 4432 177.493 14
4 -4 6 4162.09 168.077 11
4 -4 6 4354.77 195.841 18
4 4 6 4223.11 193.744 15
4 -4 6 4170.95 179.554 24
4 -4 6 4321.65 196.971 23
4 -4 7 23218.2 403.114 18
4 4 7 23249.4 405.441 17
4 4 7 23694 403.543 15
4 -4 7 23384.4 353.611 14
4 -4 7 24159.6 414.468 23
4 -4 8 1705.84 100.916 23
4 -4 8 1687.78 99.0191 18
4 4 8 1632.12 95.6445 17
4 4 8 1711.97 94.6997 15
4 -4 9 13489.9 198.313 18
4 -4 9 13771.3 205.227 23
4 -5 -11 699.826 64.9698 25
4 -5 -10 9196.18 257.56 25
4 -5 -9 2636.37 140.173 16
4 -5 -9 2702.68 159.663 25
4 5 -9 2694.85 131.084 22
4 -5 -8 40282.1 580.604 16
4 -5 -8 40798.8 616.9 25
4 5 -8 40399.3 541.889 22
4 -5 -7 31021.8 531.787 16
4 -5 -7 31408.9 547.056 25
4 5 -7 31299.8 499.157 22
4 -5 -6 27969.4 507.776 16
4 -5 -6 28470.6 516.226 25
4 -5 -6 29259.2 500.488 24
4 5 -6 28439.2 488.91 22
4 -5 -6 27491.5 705.836 6
4 5 -5 26379.9 436.885 20
4 -5 -5 25170.1 664.159 3
4 5 -5 24356.6 598.999 1
4 -5 -5 27001.1 462.156 11
4 -5 -5 25362.8 469.402 17
4 -5 -5 25557.4 483.353 16
4 -5 -5 25396.2 476.72 25
4 -5 -5 25839.7 478.158 24
4 5 -5 26914.2 476.132 22
4 -5 -5 24875.8 646.961 6
4 5 -4 90161.2 805.643 20
4 -5 -4 91716.4 1234.05 3
4 -5 -4 90227.4 844.271 11
4 -5 -4 88647.8 858.03 17
4 -5 -4 89764 888.825 16
4 -5 -4 90070.5 866.139 25
4 -5 -4 89371.1 872.861 24
4 5 -4 89705.8 868.536 22
4 5 -4 89113.5 1167.8 7
4 5 -4 90446.9 818.323 12
4 -5 -4 88034.1 1161.09 6
4 -5 -3 33851.1 684.003 6
4 5 -3 32352.3 487.672 20
4 5 -3 31580 490.467 19
4 -5 -3 31448.6 501.792 11
4 -5 -3 31278.8 712.687 3
4 -5 -3 32707.5 505.564 17
4 -5 -3 32645.2 530.85 16
4 5 -3 32469.9 495.863 26
4 -5 -3 31817 502.955 25
4 -5 -3 31657.3 516.357 24
4 5 -3 32010.5 497.895 13
4 5 -3 32479.7 526.505 22
4 5 -3 31997.5 703.979 7
4 5 -3 32504.1 504.356 12
4 5 -2 65228.7 703.27 20
4 5 -2 67627.7 736.009 19
4 -5 -2 64962.7 717.359 11
4 5 -2 64446.4 678.159 13
4 -5 -2 65322.1 1017.5 3
4 -5 -2 67146.4 698.898 17
4 -5 -2 66532.6 743.562 16
4 5 -2 66180.7 729.466 26
4 -5 -2 65056.8 691.78 25
4 -5 -2 65610.1 737.458 24
4 -5 -2 66647.1 693.969 23
4 5 -2 66009.7 755.044 22
4 5 -2 67276 1031.04 7
4 5 -2 66269.2 731.752 12
4 5 -1 19857.5 395.846 20
4 5 -1 20262.4 416.188 19
4 -5 -1 20058 404.868 11
4 -5 -1 20300.6 569.617 3
4 -5 -1 20788.9 381.773 17
4 -5 -1 20416.3 407.639 16
4 5 -1 20816.1 400.525 27
4 -5 -1 19802.9 385.138 23
4 -5 -1 20862.9 419.465 24
4 5 -1 20508.4 576.807 7
4 5 -1 20544.8 418.298 12
4 5 0 43888.6 613.708 20
4 5 0 45727.9 633.309 19
4 -5 0 45125.6 611.488 11
4 -5 0 47516.1 581.531 18
4 -5 0 46364.1 863.683 3
4 -5 0 45406.6 598.804 16
4 5 0 44948.1 615.533 27
4 5 0 44347.2 554.868 15
4 -5 0 44723.4 616.755 24
4 -5 0 44836.8 584.7 23
4 5 0 46048.5 874.79 7
4 5 0 44836.9 631.277 12
4 5 1 2972.61 169.814 19
4 -5 1 3176.65 169.04 11
4 -5 1 3475.45 167.518 18
4 -5 1 3131.51 239.59 3
4 -5 1 2967.24 155.334 16
4 5 1 3072.79 173.16 27
4 5 1 2964.94 155.765 15
4 -5 1 3021.7 167.765 24
4 -5 1 2963 158.64 23
4 5 1 3338.48 243.645 7
4 5 2 14354.3 363.98 19
4 -5 2 14237.9 352.619 11
4 -5 2 14167.1 337.623 18
4 -5 2 13654.8 492.215 3
4 5 2 14205.4 371.002 27
4 5 2 14341.1 348.128 15
4 -5 2 14282.2 357.397 24
4 -5 2 14159.3 342.331 23
4 5 2 14484.3 497.255 7
4 5 3 1135.15 108.815 19
4 -5 3 1147.07 103.792 18
4 5 3 1251.1 113.728 15
4 -5 3 1177.55 111.809 24
4 -5 3 1170.88 108.918 23
4 5 4 5257.06 212.654 19
4 -5 4 5343.48 214.463 11
4 -5 4 5412.12 215.76 18
4 5 4 5421.24 222.135 15
4 -5 4 5479.89 222.893 24
4 -5 4 5518.28 218.9 23
4 5 5 11487.6 284.982 19
4 -5 5 11133.1 288.619 11
4 -5 5 11293.4 298.364 18
4 5 5 11382.8 310.633 15
4 -5 5 11345.7 302.232 24
4 -5 5 11300.6 299.074 23
4 -5 6 4916.04 174.077 11
4 -5 6 5178.2 191.754 18
4 5 6 5276.91 199.895 15
4 -5 6 5121.02 187.11 24
4 -5 6 5082.68 190.128 23
4 -5 7 12091.8 212.605 11
4 -5 7 11697.2 251.986 18
4 5 7 11538.5 257.159 17
4 5 7 12116.3 260.494 15
4 -5 7 11599.2 236.614 24
4 -5 7 11707 250.568 23
4 -5 8 446.043 46.852 18
4 5 8 543.642 50.6187 17
4 -5 8 484.492 46.9106 23
4 -6 -11 8508.55 146.962 25
4 -6 -10 1820.47 97.802 25
4 -6 -9 14858.3 315.045 25
4 6 -9 14712.6 268.407 22
4 -6 -8 14993 317.702 16
4 -6 -8 15585.7 353.177 25
4 6 -8 15000.4 311.64 22
4 -6 -7 13575.4 332.316 16
4 -6 -7 13825.5 347.847 25
4 6 -7 14101.4 327.687 22
4 -6 -6 80552.9 840.048 16
4 -6 -6 79726.6 847.993 25
4 6 -6 81520.5 816.543 22
4 -6 -5 20888.8 439.908 16
4 -6 -5 20268.5 428.309 25
4 -6 -5 21697.7 414.523 24
4 6 -5 20564.8 427.878 22
4 6 -5 20150.2 384.737 12
4 -6 -4 10732.5 290.973 11
4 -6 -4 10187.8 311.13 16
4 6 -4 9989.46 281.207 26
4 -6 -4 10499.5 306.661 25
4 -6 -4 11056.1 306.162 24
4 6 -4 10300.4 307.223 22
4 6 -4 10430.9 293.001 12
4 6 -3 3113.04 164.803 19
4 -6 -3 3393.07 170.06 11
4 -6 -3 3171.73 162.187 17
4 -6 -3 3362.22 181.592 16
4 6 -3 3158.73 169.444 26
4 -6 -3 3181.48 168.971 25
4 -6 -3 3405.58 176.275 24
4 6 -3 3153.58 177.248 22
4 6 -3 3478.22 176.919 12
4 6 -2 37467.2 570.467 19
4 -6 -2 36804.6 552.626 11
4 -6 -2 38568.9 535.991 17
4 -6 -2 36626 577.83 16
4 6 -2 36156.3 568.956 26
4 -6 -2 36082.3 541.047 25
4 -6 -2 36803.2 564.151 24
4 6 -2 36744.8 573.414 12
4 6 -1 62512 754.238 19
4 -6 -1 62627.2 727.828 11
4 -6 -1 61856.8 741.84 16
4 6 -1 61929 707.613 27
4 -6 -1 63679.4 745.968 24
4 6 -1 61360.9 749.786 12
4 6 0 22440.6 459.683 19
4 -6 0 21812.3 435.751 11
4 -6 0 22218.4 437.059 16
4 6 0 22017.3 442.606 27
4 -6 0 22220.9 443.536 24
4 6 0 22152.5 456.843 12
4 6 1 5844.12 238.841 19
4 -6 1 5880.58 230.399 11
4 -6 1 5751.87 219.685 16
4 6 1 5897.75 237.512 27
4 6 1 5784.19 210.963 15
4 -6 1 5896.09 232.574 24
4 -6 1 6010.6 213.333 23
4 6 2 3405.07 183.654 19
4 -6 2 3170.69 170.641 11
4 -6 2 3519.68 163.093 18
4 -6 2 3200.72 157.809 16
4 6 2 3277.57 182.943 27
4 6 2 3190.81 162.548 15
4 -6 2 3671.07 186.514 24
4 -6 2 3373.29 162.764 23
4 6 3 17688.6 387.462 19
4 -6 3 17531.5 381.907 11
4 -6 3 17664.5 352.758 18
4 6 3 17646.2 373.519 15
4 -6 3 17601.4 388.39 24
4 -6 3 17301.5 354.818 23
4 6 4 12453.1 303.053 19
4 -6 4 12420.9 306.424 11
4 -6 4 12312.2 287.248 18
4 6 4 12428.8 306.893 15
4 -6 4 12468.9 314.211 24
4 -6 4 12132.5 286.695 23
4 6 5 4424.13 157.474 19
4 -6 5 4192.88 165.486 11
4 -6 5 4374.23 162.759 18
4 6 5 4183.55 171.649 15
4 -6 5 4344.71 174.822 24
4 -6 5 4278.58 160.282 23
4 -6 6 2863.43 116.949 11
4 -6 6 2856.76 117.51 18
4 6 6 2867.46 125.564 17
4 6 6 2784.06 126.48 15
4 -6 6 2733.06 121.102 24
4 -6 6 2878.83 116.417 23
4 -6 7 6654.96 143.012 18
4 6 7 7181.24 159.451 17
4 6 7 7321.58 164.166 15
4 -6 7 6794.82 146.583 24
4 -6 7 6509.25 135.539 23
4 -7 -9 6135.07 157.003 25
4 -7 -8 6038.48 155.608 16
4 -7 -8 6259.46 187.545 25
4 7 -8 6241.21 170.8 22
4 -7 -7 6717.28 200.316 16
4 -7 -7 6908.15 217.113 25
4 7 -7 6762.28 204.385 22
4 -7 -6 11212.1 283.188 16
4 -7 -6 10785.1 283.996 25
4 7 -6 10886.1 279.953 22
4 -7 -5 12429.2 316.217 16
4 -7 -5 12458.4 312.943 25
4 7 -5 12315.7 312.937 22
4 7 -5 12312 282.769 12
4 -7 -4 71986.9 777.803 16
4 -7 -4 70892.1 743.455 25
4 7 -4 71437.6 727.503 12
4 -7 -3 5942.97 204.475 11
4 7 -3 5640.34 206.756 19
4 -7 -3 5609.26 225.713 16
4 -7 -3 5736.23 213.554 25
4 -7 -3 5791.54 206.9 24
4 7 -3 6036.47 224.445 12
4 7 -2 30184.1 493.287 19
4 -7 -2 30197.9 471.04 11
4 -7 -2 29887.6 508.898 16
4 -7 -2 28876 463.865 25
4 -7 -2 29536.2 473.873 24
4 7 -2 29811.4 504.212 12
4 7 -1 9485.76 286.764 19
4 -7 -1 9980.3 277.876 11
4 -7 -1 9827.94 289.72 16
4 7 -1 9596.95 267.374 27
4 -7 -1 9549.28 257.953 25
4 -7 -1 10148 284.293 24
4 7 -1 9553.24 292.952 12
4 7 0 25866 472.084 19
4 -7 0 25958.3 447.774 11
4 -7 0 25888.2 452.982 16
4 7 0 26055.7 450.359 27
4 -7 0 26331.5 453.374 24
4 7 0 26618 481.483 12
4 7 1 15180.9 360.917 19
4 -7 1 15175.8 340.548 11
4 -7 1 14868.3 329.726 16
4 7 1 15251 351.853 27
4 -7 1 14847.7 340.229 24
4 7 2 28762.3 470.925 19
4 -7 2 28527.3 455.273 11
4 -7 2 27466.3 409.862 16
4 7 2 27232.5 400.869 15
4 -7 2 28573.5 456.439 24
4 7 3 3708.66 161.666 19
4 -7 3 3711.64 161.922 11
4 7 3 3551.57 138.301 17
4 7 3 3558.96 146.16 15
4 -7 3 3798.9 163.891 24
4 7 4 3026.18 127.911 19
4 -7 4 3090.89 135.825 11
4 7 4 2967.81 119.97 17
4 7 4 2934.49 125.925 15
4 -7 4 2876.71 132.5 24
4 -7 5 2418.35 103.552 11
4 7 5 2141.97 92.6617 17
4 7 5 2380.3 101.525 15
4 -7 5 2417.06 106.523 24
4 7 6 3393.46 96.8697 15
4 -7 6 3105.95 93.5278 24
4 -8 -7 15910.3 241.229 25
4 -8 -6 2008.53 94.1245 16
4 -8 -6 1929.5 97.6944 25
4 -8 -5 2788.99 124.954 16
4 -8 -5 2663.59 121.449 25
4 -8 -4 621.076 69.9173 16
4 -8 -4 496.126 60.8578 25
4 8 -4 622.168 64.3115 12
4 8 -3 11015.8 234.072 19
4 -8 -3 10917.7 267.081 16
4 -8 -3 10767.8 245.631 25
4 8 -3 11235.1 261.547 12
4 -8 -2 5241.22 157.862 11
4 8 -2 5330.9 178.174 19
4 -8 -2 5181.41 186.93 16
4 -8 -2 5111.04 165.688 25
4 8 -2 5196.04 185.954 12
4 8 -1 24853.2 391.78 19
4 -8 -1 24430.2 352.408 11
4 -8 -1 24869.6 396.983 16
4 -8 -1 25019.3 338.149 25
4 -8 -1 24598.1 352.762 24
4 8 0 4176.93 164.612 19
4 -8 0 3958.11 146.779 11
4 -8 0 4082.42 157.055 16
4 -8 0 3839.25 143.492 24
4 8 1 240.58 51.4081 19
4 -8 1 194.653 44.3257 11
4 -8 1 231.242 44.6532 16
4 -8 1 215.144 46.6853 24
4 8 2 7382 194.765 19
4 -8 2 7014.33 182.797 11
4 -8 2 6751.71 160.108 16
4 -8 2 7060.61 181.202 24
4 8 3 14851.3 242.021 19
4 -8 3 15287.7 244.146 11
4 -8 3 14553.3 236.44 24
4 -8 4 16637.5 215.922 11
4 -8 4 15808.2 207.782 24
4 -9 -4 25176.5 255.146 16
4 -9 -3 22430.6 265.775 16
4 -9 -2 7603.57 160.485 16
4 9 -1 9095.8 161.525 19
4 -9 -1 9442.94 174.073 16
4 9 0 4224.18 111.392 19
4 -9 0 4059.15 104.476 16
4 9 1 2387.18 77.6929 19
5 0 -13 21047.9 314.079 20
5 0 -12 44.4625 46.7672 20
5 0 -11 1213.44 107.588 20
5 0 -10 43.2849 51.8293 20
5 0 -10 8.04539 48.5122 25
5 0 -9 6549.66 241.131 20
5 0 -9 6712.71 250.361 25
5 0 -8 376.721 68.4142 20
5 0 -8 342.168 82.405 10
5 0 -8 29.0581 48.2086 16
5 0 -8 15.0825 38.8362 25
5 0 -7 81708.4 778.833 20
5 0 -7 79482.5 778.272 25
5 0 -7 78757.7 1032.39 10
5 0 -7 81149.7 814.053 16
5 0 -6 -3.57112 40.6232 10
5 0 -5 24641.1 492.561 3
5 0 -5 24273.7 534.084 10
5 0 -4 50.885 43.8759 10
5 0 -4 52.4896 36.1749 3
5 0 -3 72438.2 746.272 3
5 0 -3 71969.5 860.063 10
5 0 -2 3.20409 38.0081 10
5 0 -2 10.7517 26.3219 3
5 0 -2 16.5891 37.9357 4
5 0 -1 58398.2 661.461 3
5 0 -1 56513.7 733.218 10
5 0 -1 57227.1 747.272 4
5 0 -1 59112.2 755.203 7
5 0 0 146.117 41.5847 3
5 0 0 41.8254 43.1284 4
5 0 1 47645.6 660.346 3
5 0 1 45371 730.934 4
5 0 2 151.874 50.2661 3
5 0 2 122.291 57.9965 4
5 0 3 63484.8 670.612 19
5 0 3 62191.6 681.294 17
5 0 3 62830.7 704.02 14
5 0 3 61785.6 966.285 4
5 0 3 64281 689.078 13
5 0 4 86.106 48.438 17
5 0 4 181.669 53.1807 14
5 0 4 40.6421 42.4734 13
5 0 4 7.12884 56.8536 4
5 0 5 2906.46 154.892 17
5 0 5 2600.84 158.786 14
5 0 5 2705.06 144.441 23
5 0 5 2740.35 145.565 13
5 0 6 71.6557 41.151 17
5 0 6 110.907 53.9518 14
5 0 7 5617.68 212.633 14
5 0 8 16.151 36.1395 14
5 0 9 236.217 38.1523 14
5 1 -13 20247.2 298.494 20
5 -1 -13 20137.1 293.318 20
5 1 -12 8289 235.84 20
5 -1 -12 8280 230.311 20
5 1 -11 27125.6 468.118 20
5 -1 -11 26601.8 451.571 20
5 -1 -11 26862.4 483.668 25
5 1 -10 28660.8 502.496 20
5 -1 -10 28769.3 491.476 20
5 -1 -10 29014.8 522.799 25
5 1 -9 7749.18 263.391 20
5 -1 -9 7718.17 256.895 20
5 -1 -9 7778.85 271.468 16
5 -1 -9 8025.76 276.69 25
5 1 -8 1450.33 119.137 20
5 -1 -8 1377.5 111.275 20
5 1 -8 1587.33 154.237 10
5 1 -8 1519.02 162.342 1
5 -1 -8 1520.17 153.885 10
5 -1 -8 1372.94 119.241 16
5 1 -8 1559.13 122.295 25
5 -1 -8 1529.66 121.012 25
5 1 -8 1617.49 122.641 13
5 1 -7 16772.7 362.435 20
5 -1 -7 16156.9 341.409 20
5 1 -7 15851.5 461.995 10
5 -1 -7 16154.1 475.743 10
5 -1 -7 16572.8 374.21 16
5 1 -7 16615.8 359.306 25
5 -1 -7 17404.5 370.136 25
5 1 -7 15991.5 477.985 1
5 -1 -6 39910.1 729.788 3
5 1 -6 39615.5 708.635 10
5 -1 -6 38984.5 718.2 10
5 1 -6 40470.7 698.495 1
5 -1 -5 135291 1246.31 3
5 1 -5 137744 1282.58 10
5 -1 -5 138139 1302.65 10
5 -1 -4 1496.5 130.135 3
5 1 -4 1771.05 148.785 10
5 -1 -4 1484.59 135.402 10
5 1 -4 1545.89 132.665 7
5 -1 -3 18360.1 422.604 3
5 1 -3 18715.9 448.935 10
5 -1 -3 18432.4 445.801 10
5 1 -3 17925.4 378.984 4
5 1 -3 18495 438.079 7
5 -1 -2 118668 1053.79 3
5 1 -2 118397 1109.45 10
5 -1 -2 123974 1115.45 10
5 -1 -2 121385 1115.89 4
5 1 -2 121948 1021.35 4
5 1 -2 124941 1127.98 7
5 1 -1 97075.8 981.032 10
5 -1 -1 97350.5 960.142 3
5 -1 -1 98466.7 1024.93 4
5 1 -1 95888.1 945.961 4
5 1 -1 97766.7 996.677 7
5 1 0 126776 1117.48 10
5 -1 0 129659 1085.57 10
5 -1 0 133784 1163.46 3
5 -1 0 131771 1222.94 4
5 1 0 133386 1169.7 4
5 1 0 136772 1178.6 7
5 1 1 103067 989.851 10
5 -1 1 104487 1072.32 3
5 -1 1 106679 1144.31 4
5 1 1 103597 1104.3 4
5 1 1 105733 1038.8 7
5 -1 2 23781.2 546.824 3
5 -1 2 23680.5 569.462 4
5 1 2 23816.4 572.456 4
5 1 2 24541.1 496.79 7
5 1 3 122.392 62.2202 4
5 -1 3 145.865 54.8719 19
5 1 3 134.75 46.6318 19
5 -1 3 233.593 54.5322 18
5 -1 3 107.033 46.8914 17
5 1 3 129.512 53.6428 17
5 -1 3 167.336 59.0306 3
5 -1 3 197.029 55.5094 14
5 1 3 138.875 46.9725 14
5 1 3 182.482 56.9705 15
5 -1 3 245.32 56.8539 23
5 1 3 124.85 50.131 13
5 -1 3 233.461 78.2787 4
5 -1 4 1294.87 107.568 18
5 -1 4 1278.61 105.886 17
5 1 4 1325.32 113.002 17
5 -1 4 1283.86 158.556 3
5 1 4 1161.73 107.487 15
5 -1 4 1335.52 116.939 14
5 1 4 1494.42 117.61 14
5 -1 4 1242.41 154.605 4
5 1 4 1305.14 161.726 4
5 -1 4 1278.26 110.191 23
5 -1 5 19981.7 401.6 18
5 1 5 20431.5 411.63 17
5 -1 5 19849.4 427.216 14
5 1 5 20575.7 419.201 14
5 -1 5 19610.3 403.439 23
5 -1 6 3228.71 159.258 18
5 1 6 3124.96 158.452 17
5 -1 6 3371.32 178.045 14
5 1 6 3109.44 164.92 14
5 -1 6 3103.84 159.717 23
5 -1 6 3099.71 154.218 13
5 -1 7 22658.1 365.942 18
5 1 7 23746 374.477 17
5 -1 7 24272.2 433.297 14
5 1 7 23499.3 411.523 14
5 -1 7 23268.4 384.939 23
5 -1 8 8681.57 227.743 14
5 1 8 8635.71 217.465 14
5 -1 8 8868.85 195.08 23
5 1 9 8252.98 158.734 14
5 -1 9 8283.34 170.34 14
5 2 -13 11757.5 206.395 20
5 -2 -13 11666.2 197.126 20
5 2 -12 14480.5 290.205 20
5 -2 -12 14112.4 274.717 20
5 -2 -12 14559 309.236 25
5 -2 -11 5116.91 212.352 25
5 2 -11 5212.39 202.052 20
5 -2 -11 4931.95 186.806 20
5 2 -10 1554.69 122.807 20
5 -2 -10 1337.64 108.26 20
5 -2 -10 1451.21 120.065 16
5 -2 -10 1263.49 117.532 25
5 2 -9 6434.83 240.496 20
5 -2 -9 6615.71 229.528 20
5 -2 -9 6463.89 248.653 16
5 -2 -9 6697.84 254.698 25
5 2 -8 16906.2 383.863 20
5 -2 -8 16700.9 354.541 20
5 -2 -8 16787.5 392.549 25
5 -2 -8 16450 368.585 17
5 -2 -8 16554.4 512.008 10
5 -2 -8 17295.8 401.599 16
5 2 -8 16585.6 524.663 1
5 2 -7 67395.4 740.851 20
5 -2 -7 63331.9 737.706 11
5 -2 -7 65480.4 719.507 17
5 2 -7 64798.3 948.081 10
5 -2 -7 65908.3 1006 10
5 -2 -7 66119.1 758.083 16
5 2 -7 68330.3 995.849 1
5 -2 -7 67980.3 747.78 25
5 2 -7 64826.7 740.299 13
5 2 -6 2234.69 137.049 20
5 -2 -6 2106.13 184.699 3
5 2 -6 1983.73 168.032 10
5 2 -6 2151.09 168.614 1
5 -2 -6 2090.62 178.283 10
5 -2 -6 2400.56 144.105 16
5 2 -6 2197.64 165.691 7
5 -2 -5 205856 1677.01 3
5 2 -5 204907 1618.04 10
5 -2 -5 209848 1669.71 10
5 2 -5 207340 1486.67 1
5 2 -5 205559 1561.85 7
5 2 -4 20977.4 507.689 10
5 -2 -4 20954.8 512.907 10
5 2 -4 21504.5 434.334 1
5 2 -4 21439.7 496.543 7
5 -2 -3 58033.8 824.711 3
5 2 -3 57361.3 826.382 10
5 -2 -3 58338 823.456 10
5 2 -3 57624.4 806.607 7
5 -2 -2 4097.99 220.075 3
5 2 -2 4300.7 226.637 10
5 -2 -2 4169.9 219.184 10
5 2 -2 4297.7 187.422 4
5 2 -2 4033.56 218.716 7
5 -2 -1 64754.1 867.947 3
5 -2 -1 65384.6 824.577 10
5 -2 -1 63661.6 865.252 4
5 2 -1 64554.5 760.618 4
5 2 -1 67183.5 874.474 7
5 2 0 399335 2128.85 10
5 -2 0 396643 1956.98 10
5 -2 0 407032 2208.74 3
5 2 0 406691 2046.15 4
5 2 0 399608 2153.23 7
5 -2 1 56111.1 860.03 4
5 -2 1 54840.4 852.83 3
5 2 1 54849.4 815.291 4
5 2 1 54985.5 798.661 7
5 2 2 72020.7 737.994 19
5 -2 2 72903.6 746.057 18
5 2 2 74305.8 761.92 17
5 -2 2 74753.5 1038.1 3
5 2 2 73251.9 753.252 15
5 -2 2 73969.2 759.79 14
5 -2 2 73251.8 1028.83 4
5 2 2 71743.1 998.471 4
5 -2 2 72991.5 751.911 23
5 2 2 73954.2 925.951 7
5 2 3 66297.3 717.554 19
5 -2 3 67367.4 744.567 18
5 2 3 65738.4 742.61 17
5 -2 3 68222.1 1053.32 3
5 2 3 65641.9 744.095 15
5 -2 3 66208.3 746.776 14
5 -2 3 67894.9 1020.79 4
5 -2 3 66615.6 745.57 23
5 2 4 78859.2 774.245 19
5 -2 4 76063.9 805.318 18
5 2 4 74516.9 809.747 17
5 -2 4 77051.8 1163.4 3
5 2 4 75538.8 811.017 15
5 -2 4 75439.9 814.726 14
5 -2 4 74516.9 1104.56 4
5 2 4 74611.3 756.174 14
5 2 4 77365.5 1166.92 4
5 -2 4 76216.4 815.029 23
5 -2 5 27741.4 485.91 18
5 2 5 27506.7 489.869 17
5 2 5 27476.9 488.794 15
5 -2 5 27685.9 497.453 14
5 2 5 27353.9 462.657 14
5 -2 5 27637 492.466 23
5 -2 6 23409.5 426.649 18
5 2 6 23601.8 431.052 17
5 -2 6 23604.7 446.728 14
5 2 6 22995.3 408.611 14
5 -2 6 23597 436.121 23
5 -2 7 5147.98 193.66 14
5 -2 7 4863.21 177.848 18
5 2 7 5005.48 179.854 17
5 2 7 4904.44 174.707 14
5 -2 7 4854.03 182.461 23
5 -2 7 4821.59 172.062 13
5 -2 8 10077.7 203.176 18
5 2 8 9804.27 192.627 17
5 -2 8 10371.9 229.728 14
5 2 8 10259.9 204.775 14
5 -2 8 9883.2 212.403 23
5 -2 9 5184.58 116.295 14
5 3 -12 26467.7 343.272 20
5 -3 -12 27482.3 315.779 20
5 -3 -12 26825.3 384.375 25
5 3 -11 14771.4 306.553 20
5 -3 -11 14097.9 274.124 20
5 -3 -11 14452.9 333.332 25
5 3 -11 14439.2 273.484 21
5 3 -10 4628.86 192.456 20
5 -3 -10 4450.45 170.144 20
5 -3 -10 4506.86 195.671 16
5 -3 -10 4611.07 207.856 25
5 3 -10 4677.11 176.212 21
5 3 -9 28476.5 488.263 20
5 -3 -9 28555 511.963 16
5 -3 -9 28166.6 514.593 25
5 3 -9 28627.9 449.715 21
5 3 -8 1758.97 131.732 20
5 -3 -8 1772.15 132.783 17
5 -3 -8 1719.51 173.895 10
5 -3 -8 2054.66 145.644 16
5 -3 -8 1738.61 135.375 25
5 3 -8 1707.72 117.355 21
5 -3 -7 124990 1526.65 3
5 3 -7 125379 1025.26 20
5 -3 -7 124919 1044.21 11
5 3 -7 124680 1388.47 1
5 3 -7 127185 1373.51 10
5 -3 -7 129219 1056.79 17
5 -3 -7 129145 1060.6 25
5 -3 -7 125581 1441.47 10
5 -3 -7 125769 1067.54 16
5 3 -7 126914 1080.5 13
5 3 -6 10754.8 384.885 1
5 3 -6 10489.4 293.379 20
5 -3 -6 10795.9 436.344 3
5 -3 -6 10188.8 296.591 11
5 3 -6 10542.3 398.807 10
5 -3 -6 10829.3 300.818 17
5 -3 -6 10277.3 406.46 10
5 -3 -6 10599.3 306.151 16
5 -3 -6 11110.9 299.073 25
5 -3 -6 10482 313.903 24
5 3 -6 10854.5 310.99 13
5 3 -6 11057.6 385.078 7
5 3 -5 183916 1191.46 20
5 -3 -5 183439 1210.97 11
5 -3 -5 184102 1700.24 3
5 3 -5 187782 1634.85 10
5 -3 -5 188222 1205.1 17
5 -3 -5 185589 1669.69 10
5 -3 -5 189781 1229.88 16
5 -3 -5 184720 1258.2 24
5 3 -5 185698 1236.53 13
5 3 -5 188570 1567.14 7
5 3 -5 185614 1463.15 1
5 -3 -4 6030.79 300.651 3
5 3 -4 6112.62 297.409 10
5 -3 -4 6250.63 301.015 10
5 3 -4 5980.06 281.658 7
5 -3 -3 10934.4 394.746 3
5 3 -3 10611.2 384.228 10
5 -3 -3 11389.8 392.333 10
5 3 -3 10746.3 377.715 7
5 3 -2 3519.28 222.141 10
5 -3 -2 3803.37 232.041 3
5 -3 -2 3462.99 213.114 10
5 3 -2 3622.38 222.11 7
5 -3 -1 4998.25 267.284 3
5 -3 -1 5692.04 264.339 10
5 3 -1 5260.64 268.938 7
5 -3 0 98402.7 1040.88 10
5 -3 0 98459.4 1185.55 3
5 3 0 100204 1035.91 4
5 3 0 97748.4 1155.66 7
5 3 1 68322.1 784.834 20
5 3 1 69870.4 747.124 19
5 -3 1 70095.8 719.323 11
5 -3 1 68470.6 732.193 18
5 -3 1 71207.9 689.921 17
5 -3 1 72090.1 1048.91 3
5 3 1 69993.6 734.126 15
5 -3 1 71682.4 1007.05 4
5 -3 1 67646.2 716.94 14
5 -3 1 70582.3 732.534 24
5 3 1 72336.2 954.873 4
5 -3 1 71023.1 749.229 23
5 3 1 72655.8 1000.67 7
5 3 2 16260.4 368.891 19
5 -3 2 16081.7 351.772 11
5 -3 2 16021 365.806 18
5 -3 2 16373.7 522.536 3
5 3 2 15424.4 361.4 15
5 -3 2 15412.4 483.001 4
5 -3 2 16023 360.832 14
5 -3 2 16569.6 362.017 24
5 -3 2 15935.7 367.825 23
5 3 2 16152.9 473.275 7
5 -3 3 186341 1705.29 4
5 3 3 190025 1258.65 19
5 -3 3 190454 1194.92 11
5 -3 3 194061 1295.05 18
5 -3 3 198063 1861.78 3
5 3 3 195359 1297.31 15
5 -3 3 191007 1229.07 24
5 -3 3 194681 1302.02 23
5 -3 3 189483 1259.69 14
5 3 4 4912.1 202.556 19
5 -3 4 4773.56 210.061 18
5 3 4 4562.17 207.641 17
5 3 4 4684.78 210.619 15
5 -3 4 4752.4 204.793 14
5 -3 4 4998.15 199.15 24
5 -3 4 4734.66 212.508 23
5 -3 5 36514 558.044 18
5 3 5 36408.2 564.513 17
5 3 5 36678.2 563.633 15
5 -3 5 36747.6 547.419 14
5 -3 5 35328.7 495.341 24
5 -3 5 36449.9 563.471 23
5 -3 6 17405.3 362.997 18
5 3 6 17630.5 369.029 17
5 3 6 16959.2 359.92 15
5 -3 6 17282.4 353.658 14
5 -3 6 16948.5 363.196 23
5 -3 7 11616.9 264.803 18
5 3 7 11935.5 266.298 17
5 -3 7 11838.1 259.097 14
5 -3 7 12039.7 273.564 23
5 -3 8 4979.34 139.26 18
5 3 8 4838.35 131.82 17
5 -3 8 5077.53 135.596 14
5 -3 8 5074 145.61 23
5 -3 8 4894.66 124.348 13
5 -4 -12 1290.66 76.8905 25
5 4 -11 4973.46 151.687 20
5 -4 -11 5043.17 181.141 25
5 4 -10 29384.2 426.178 20
5 -4 -10 28489.6 443.934 16
5 -4 -10 29215.3 482.005 25
5 4 -9 1893.87 124.924 20
5 -4 -9 1935.41 135.212 16
5 -4 -9 1806.82 135.739 25
5 4 -8 2567.15 149.813 20
5 -4 -8 2683.12 164.237 16
5 -4 -8 2590.54 161.375 25
5 4 -7 58744.1 698.385 20
5 -4 -7 60683.3 715.212 11
5 -4 -7 60200.2 739.371 17
5 -4 -7 59134.2 742.162 16
5 -4 -7 60470.6 738.4 25
5 4 -6 35752.8 544.227 20
5 -4 -6 37079.8 837.468 3
5 -4 -6 36903.6 567.173 11
5 -4 -6 36559.9 573.687 17
5 -4 -6 36363.9 803.689 10
5 -4 -6 37306.8 583.631 16
5 -4 -6 37678.7 567.804 25
5 -4 -6 37151.3 592.511 24
5 4 -6 37713.3 746.445 1
5 4 -6 37692 594.68 13
5 4 -6 37280.9 527.182 22
5 4 -5 121929 989.59 20
5 -4 -5 119264 1010.63 11
5 -4 -5 123221 1481.18 3
5 -4 -5 123860 1026.68 17
5 -4 -5 125243 1466.39 10
5 -4 -5 126684 1054.01 16
5 -4 -5 125300 996.56 25
5 -4 -5 122670 1061.01 24
5 4 -5 123665 1043.9 13
5 4 -5 123596 1349.58 7
5 4 -5 122314 963.612 22
5 4 -4 36270.3 538.924 20
5 -4 -4 37464.5 559.14 11
5 -4 -4 37518.7 792.17 3
5 -4 -4 37437.5 535.019 18
5 -4 -4 37854.8 553.025 17
5 -4 -4 37369.9 786.788 10
5 -4 -4 37219.8 562.988 16
5 -4 -4 36856.5 571.622 24
5 4 -4 37713.4 564.555 13
5 4 -4 37335.2 541.031 22
5 4 -4 37004.5 744.99 7
5 4 -3 24263 442.561 20
5 4 -3 24953.2 430.855 19
5 -4 -3 24371.6 446.996 11
5 -4 -3 24063.6 428.075 18
5 -4 -3 25027.9 639.985 3
5 -4 -3 24518 622.765 10
5 -4 -3 25183 453.307 16
5 -4 -3 24772.8 460.738 24
5 -4 -3 26669.6 465.283 23
5 4 -3 24925.2 446.839 13
5 4 -3 24630.7 615.792 7
5 4 -3 24245.2 426.658 12
5 4 -2 67784.9 748.917 20
5 4 -2 68305.5 731.142 19
5 -4 -2 67715.9 738.516 11
5 -4 -2 68427.8 718.145 18
5 -4 -2 68834 1048.26 3
5 -4 -2 65945.4 705.011 17
5 -4 -2 70210.3 1016.44 10
5 -4 -2 69224.9 733.306 16
5 -4 -2 70252 764.202 24
5 -4 -2 67491.2 738.276 23
5 4 -2 67632.7 715.29 13
5 4 -2 69080.4 1036.81 7
5 4 -2 68350.9 732.249 12
5 4 -1 9819.95 293.644 20
5 4 -1 10075.7 291.522 19
5 -4 -1 9851.83 285.637 11
5 -4 -1 9595.1 273.29 18
5 -4 -1 10032.1 405.868 3
5 -4 -1 9926.17 270.404 17
5 -4 -1 10046.8 375.625 10
5 -4 -1 10022.7 275.97 16
5 -4 -1 10859.4 302.871 24
5 -4 -1 9655.1 283.167 23
5 4 -1 9596.62 266.295 13
5 4 -1 9998.49 401.003 7
5 4 0 13274.8 352.76 20
5 -4 0 13648.2 335.612 11
5 -4 0 13004.5 323.029 18
5 -4 0 13910.4 317.9 17
5 -4 0 13377 471.692 3
5 4 0 13286.9 315.997 17
5 4 0 13124.3 314.433 15
5 -4 0 13697 341.553 24
5 -4 0 13472.6 336.39 23
5 4 0 13792.1 473.799 7
5 4 1 46615.4 640.465 19
5 -4 1 46507.5 622.667 11
5 -4 1 45481.5 614.39 18
5 -4 1 46088.4 891.373 3
5 4 1 45218.7 606.81 15
5 -4 1 45696.5 625.351 24
5 -4 1 45634.4 624.421 23
5 4 1 46472.4 872.053 7
5 4 2 30347.1 519.688 19
5 -4 2 30130.7 503.96 11
5 -4 2 29894.8 505.841 18
5 -4 2 30360.7 740.57 3
5 4 2 30462.6 514.83 15
5 -4 2 29763.8 484.271 14
5 -4 2 29459.8 505.943 24
5 -4 2 29005.7 505.363 23
5 4 2 28180.7 672.971 7
5 4 3 28335.3 496.702 19
5 -4 3 29012.4 485.987 11
5 -4 3 28675.1 501.562 18
5 4 3 28842.6 509.918 15
5 -4 3 29387.9 481.858 14
5 -4 3 29365.3 501.364 24
5 -4 3 28939.4 508.743 23
5 4 4 10230 287.83 19
5 -4 4 10224.2 277.946 11
5 -4 4 10141.3 298.552 18
5 4 4 10131.4 302.46 15
5 -4 4 10406.5 282.959 14
5 -4 4 10030.9 285.836 24
5 -4 4 10021.7 301.322 23
5 -4 5 22955.9 375.469 11
5 -4 5 23607.8 434.175 18
5 -4 5 23330.4 397.661 14
5 4 5 23888.4 444.399 17
5 4 5 23802.5 441.322 15
5 -4 5 22886.9 398.984 24
5 -4 5 23524.4 437.405 23
5 -4 6 9566.58 255.861 18
5 4 6 9771.96 259.407 17
5 4 6 9543.71 257.377 15
5 -4 6 9306.47 226.226 14
5 -4 6 9333.68 223.086 24
5 -4 6 9769.8 259.08 23
5 -4 7 11456.2 238.572 18
5 4 7 11864.2 243.266 17
5 -4 7 11606.6 242.388 23
5 -4 8 7661.59 145.55 18
5 -4 8 7810.74 150.905 23
5 -5 -11 16354 269.825 25
5 -5 -10 14451.1 268.717 16
5 -5 -10 14336.5 302.271 25
5 5 -9 28268 385.959 20
5 -5 -9 27789.3 442.925 16
5 -5 -9 27666.8 461.703 25
5 5 -8 14774.9 309.75 20
5 -5 -8 14801.9 353.635 16
5 -5 -8 14960 358.139 25
5 5 -8 14616.8 306.118 22
5 5 -7 147226 1024.96 20
5 -5 -7 146058 1143.9 16
5 -5 -7 142467 1116.02 25
5 5 -7 143433 1030.9 22
5 5 -6 25064 439.043 20
5 -5 -6 25997.5 463.264 11
5 -5 -6 24620.7 471.438 17
5 -5 -6 25480.6 488.897 16
5 -5 -6 24939 465.541 25
5 -5 -6 24925.3 477.585 24
5 5 -6 24957.2 448.994 22
5 5 -5 24503.5 440.309 20
5 -5 -5 24738.9 461.383 11
5 -5 -5 24277.1 464.172 17
5 -5 -5 24112.2 476.501 16
5 -5 -5 24194.7 451.737 25
5 -5 -5 24823.1 481.265 24
5 5 -5 24943.9 461.202 22
5 5 -4 17136.2 373.956 20
5 5 -4 16396.6 352.89 19
5 -5 -4 16841.3 383.061 11
5 -5 -4 16620 554.688 3
5 -5 -4 16732.9 381.21 17
5 -5 -4 16462.6 391.206 16
5 -5 -4 16443 362.661 25
5 -5 -4 16649.7 393.799 24
5 5 -4 16823.1 385.428 13
5 5 -4 16637.7 529.835 7
5 5 -4 16528.4 359.995 12
5 5 -3 72554.9 774.458 20
5 5 -3 71033.4 758.517 19
5 -5 -3 72260.5 788.893 11
5 -5 -3 72173.9 1134.03 3
5 -5 -3 72275.5 771.5 17
5 -5 -3 73973.4 811.596 16
5 -5 -3 72143.2 811.441 24
5 5 -3 71344.8 764.915 13
5 5 -3 73297.2 1124.22 7
5 5 -3 73185 780.943 12
5 5 -2 46653.1 633.764 20
5 5 -2 48699.5 647.711 19
5 -5 -2 48120.8 644.771 11
5 -5 -2 51347.5 620.502 18
5 -5 -2 50116.9 946.08 3
5 -5 -2 48186.7 614.978 17
5 -5 -2 48553.6 908.554 10
5 -5 -2 49260.4 650.236 16
5 -5 -2 48649.5 663.056 24
5 -5 -2 48596.3 631.901 23
5 5 -2 47588.2 605.114 13
5 5 -2 49326.3 936.194 7
5 5 -2 48301.1 651.806 12
5 5 -1 58370.8 725.701 20
5 5 -1 60137.7 732.478 19
5 -5 -1 60206.6 723.366 11
5 -5 -1 61157.4 684.864 18
5 -5 -1 59387.5 1030.13 3
5 -5 -1 62748 682.63 17
5 -5 -1 59145.9 958.357 10
5 -5 -1 59451.6 701.656 16
5 -5 -1 59420.7 729.303 24
5 -5 -1 60391.2 706.699 23
5 5 -1 60291.4 1046.51 7
5 5 0 68720.7 795.034 19
5 -5 0 68663.4 773.617 11
5 -5 0 69133.1 738.544 18
5 -5 0 68872.1 1113.78 3
5 -5 0 67602.4 728.198 16
5 5 0 67936.8 713.609 15
5 -5 0 69097.5 788.54 24
5 -5 0 68725.3 755.946 23
5 5 0 70920.3 1134.38 7
5 5 1 28059.5 511.068 19
5 -5 1 27957.8 495.929 11
5 -5 1 28134.6 476.714 18
5 5 1 28663.4 472.481 17
5 5 1 28391.4 479.196 15
5 -5 1 28366.6 506.973 24
5 -5 1 28021.6 488.266 23
5 5 2 20531.9 433.232 19
5 -5 2 20573.9 421.789 11
5 -5 2 20260.5 407.87 18
5 5 2 20324.1 414.363 15
5 -5 2 20533.7 427.063 24
5 -5 2 20516.8 419.401 23
5 5 3 5104.59 211.274 19
5 -5 3 5326.67 210.744 11
5 -5 3 5477.62 213.592 18
5 5 3 5631.87 219.777 15
5 -5 3 5114.87 211.448 24
5 -5 3 5002.83 207.201 23
5 5 4 8600.94 250.736 19
5 -5 4 8384.47 244.794 11
5 -5 4 8592.82 256.038 18
5 5 4 8292.02 255.968 17
5 5 4 8458.79 260.746 15
5 -5 4 8436.97 254.714 24
5 -5 4 8724.25 260.177 23
5 -5 5 4665.83 162.197 11
5 -5 5 4763.31 179.413 18
5 5 5 4641.86 181.711 17
5 5 5 4806.87 185.661 15
5 -5 5 4868.51 175.618 24
5 -5 5 4798.78 180.178 23
5 -5 6 13621.2 261.889 18
5 5 6 13187.7 265.228 17
5 5 6 13702.5 271.594 15
5 -5 6 13042.4 235.557 24
5 -5 6 13537.5 262.498 23
5 -5 7 5038.75 129.421 18
5 5 7 5154.51 132.686 17
5 -5 7 5012.47 128.663 23
5 -5 7 5104.68 129.907 13
5 -6 -10 6755.68 168.055 25
5 -6 -9 2023.85 102.301 16
5 -6 -9 1983.3 111.5 25
5 -6 -8 10947.6 268.706 16
5 -6 -8 10914.8 274.86 25
5 -6 -7 20705.1 400.035 16
5 -6 -7 20122.5 390.782 25
5 6 -7 20283.5 369.638 22
5 -6 -6 16172.3 372.122 16
5 -6 -6 16255.8 358.722 25
5 6 -6 16120 352.666 22
5 -6 -5 79854.1 839.673 16
5 -6 -5 78025.9 782.91 25
5 -6 -5 78864.3 804.883 24
5 6 -5 79246.2 732.932 12
5 6 -4 16735.4 347.035 20
5 -6 -4 16718.8 366.697 11
5 6 -4 15913.7 337.742 19
5 -6 -4 16637.3 367.613 17
5 -6 -4 16262.7 385.37 16
5 -6 -4 15952.9 352.251 25
5 -6 -4 16438.7 378.139 24
5 6 -4 16429.8 357.906 12
5 6 -3 8929.54 264.88 20
5 6 -3 8351.14 262.181 19
5 -6 -3 8851.16 274.057 11
5 -6 -3 8933.15 266.165 17
5 -6 -3 8722.36 284.432 16
5 -6 -3 8598.92 251.074 25
5 -6 -3 8700.59 278.526 24
5 6 -3 8604.45 274.158 12
5 6 -2 24009.8 453.798 20
5 6 -2 23747.7 452.433 19
5 -6 -2 23435.9 447.375 11
5 -6 -2 25054.3 428.54 17
5 -6 -2 23589.3 452.541 16
5 -6 -2 24337.4 463.868 24
5 6 -1 19950.1 423.43 19
5 -6 -1 20046.3 414.806 11
5 -6 -1 19632.1 405.412 16
5 -6 -1 20055.2 421.948 24
5 -6 -1 19781.4 383.533 23
5 6 0 1300.57 120.945 19
5 -6 0 1299.19 115.141 11
5 -6 0 1434.9 105.942 18
5 -6 0 1290.8 106.698 16
5 -6 0 1343.09 117.924 24
5 -6 0 1291.46 104.454 23
5 6 1 22135.4 443.816 19
5 -6 1 22452.9 434.064 11
5 -6 1 22923.4 394.135 18
5 6 1 21676.8 373.547 17
5 -6 1 21865.4 384.222 16
5 6 1 21635.8 391.534 15
5 -6 1 21935.3 432.985 24
5 -6 1 22585.8 406.082 23
5 6 2 23924.8 443.082 19
5 -6 2 23662.9 431.041 11
5 -6 2 22961.8 390.909 18
5 6 2 22963.2 390.132 17
5 6 2 23185.2 402.896 15
5 -6 2 23488.2 435.313 24
5 -6 2 23558.5 404.654 23
5 6 3 10673.1 276.734 19
5 -6 3 10685.1 274.424 11
5 -6 3 10670.3 257.756 18
5 6 3 10620.3 261.3 17
5 6 3 10549.7 267.917 15
5 -6 3 10548.9 277.794 24
5 -6 3 10701.1 262.207 23
5 6 4 21422.5 342.69 19
5 -6 4 21859 352.188 11
5 -6 4 21898.9 341.624 18
5 6 4 21677.4 350.319 17
5 6 4 21567.9 358.706 15
5 -6 4 21833.7 363.327 24
5 -6 4 21662.9 343.275 23
5 -6 5 15056.1 246.06 11
5 -6 5 15459.9 253.659 18
5 6 5 15557.9 265.245 17
5 6 5 15601.1 272.993 15
5 -6 5 15422.7 263.255 24
5 -6 5 14805.9 249.313 23
5 -6 6 8098.22 146.312 18
5 6 6 8072.48 158.11 17
5 -6 6 7699.41 139.028 24
5 -6 6 7513.42 138.102 23
5 -7 -9 21555.1 253.938 25
5 -7 -8 16659.4 252.557 16
5 -7 -8 16705.9 269.543 25
5 -7 -7 37031 445.146 16
5 -7 -7 36459.9 437.883 25
5 -7 -6 4286.74 170.597 16
5 -7 -6 4248.47 161.663 25
5 -7 -5 2515.94 140.251 16
5 -7 -5 2528.46 129.226 25
5 -7 -4 6909.62 204.76 11
5 7 -4 7256.04 200.672 19
5 -7 -4 7182.78 236.723 16
5 -7 -4 6580.54 203.468 25
5 -7 -4 6855.26 212.837 24
5 -7 -3 18077 345.229 11
5 7 -3 18013.4 342.686 19
5 -7 -3 17857.5 371.244 16
5 -7 -3 17346.9 318.439 25
5 -7 -3 18059.3 355.002 24
5 7 -2 4383.52 181.117 19
5 -7 -2 4377.34 177.153 11
5 -7 -2 4343.09 184.634 16
5 -7 -2 4256.02 178.643 24
5 -7 -1 395.628 66.1148 11
5 7 -1 271.353 58.3973 19
5 -7 -1 368.742 62.4471 16
5 -7 -1 311.016 59.0323 24
5 7 0 219.435 59.1211 19
5 -7 0 233.808 55.7964 11
5 -7 0 193.986 49.328 16
5 -7 0 201.689 53.9833 24
5 7 1 3596.42 163.272 19
5 -7 1 3791.48 162.404 11
5 -7 1 3621.41 138.968 16
5 -7 1 3532.23 158.362 24
5 7 2 10928.3 259.601 19
5 -7 2 11147.4 257.916 11
5 7 2 10939.1 220.994 15
5 -7 2 10753.3 256.048 24
5 -7 2 10771 209.489 13
5 7 3 24164.2 340.343 19
5 -7 3 23267.1 336.956 11
5 7 3 23035.2 275.04 17
5 7 3 23904.5 308.894 15
5 -7 3 23131 342.265 24
5 7 4 14720.8 207.436 19
5 -7 4 15401.5 233.656 11
5 7 4 13689.5 187.183 17
5 -7 4 15590.8 243.546 24
5 -7 4 14470.7 204.735 13
5 -8 -6 24535.2 291.274 16
5 -8 -6 23744.8 262.757 25
5 -8 -5 26417.5 338.824 16
5 -8 -5 24502.2 286.917 25
5 -8 -4 2968.39 124.055 16
5 -8 -4 3086.62 104.219 25
5 8 -3 113.158 30.7616 19
5 -8 -3 187.706 43.305 16
5 -8 -3 138.982 35.2455 24
5 -8 -2 958.479 66.1874 11
5 8 -2 1150.08 76.1875 19
5 -8 -2 1211.48 83.1486 16
5 -8 -2 1065.24 69.0589 24
5 8 -1 5670.16 166.853 19
5 -8 -1 5591.04 156.416 11
5 -8 -1 5644.89 162.318 16
5 -8 -1 5460.61 154.708 24
5 -8 0 17855.8 271.742 11
5 -8 0 17202.9 253.877 16
5 -8 0 17653.9 270.281 24
5 8 1 1984.12 94.9839 19
5 -8 1 2028.05 91.0696 11
5 -8 1 1888.71 87.7638 24
5 8 2 5184.94 131.081 19
5 -8 2 5354.11 130.01 11
6 0 -13 7.19331 26.1856 20
6 0 -12 34430.7 449.53 20
6 0 -11 72.9824 48.7132 20
6 0 -10 14458.6 347.937 20
6 0 -10 14417.2 356.772 25
6 0 -9 39.0867 44.8214 20
6 0 -9 35.2958 45.625 25
6 0 -8 81292.2 825.05 20
6 0 -8 79361.5 861.928 16
6 0 -8 79464.5 818.624 25
6 0 -7 3.23346 44.404 16
6 0 -7 21.4794 35.7277 25
6 0 -6 89956.5 823.496 20
6 0 -6 90102.5 1180.9 10
6 0 -6 90735.2 861.021 16
6 0 -6 90617.6 840.607 13
6 0 -5 47.1802 48.4416 10
6 0 -5 -11.4126 38.3458 3
6 0 -4 42383.8 646.772 3
6 0 -4 41859.9 763.152 10
6 0 -3 102.334 54.3007 10
6 0 -3 26.9166 32.6334 3
6 0 -1 90.6711 47.1775 10
6 0 -1 288.182 72.5939 4
6 0 0 89272.3 833.376 19
6 0 0 89618.8 1014.57 10
6 0 0 90464.4 823.19 17
6 0 0 89693.8 809.636 14
6 0 0 90206.9 1116.7 4
6 0 0 90449.9 833.246 13
6 0 1 476.729 73.835 19
6 0 1 6.58368 39.3759 18
6 0 1 680.219 84.7256 17
6 0 1 46.9432 40.7183 14
6 0 1 21.796 38.9841 13
6 0 1 29.0662 45.7867 4
6 0 2 69271.5 750.396 19
6 0 2 70009.4 714.98 18
6 0 2 70113.6 762.287 17
6 0 2 71331.3 769.74 14
6 0 2 70556.6 764.872 13
6 0 3 -8.80406 42.3823 19
6 0 3 -3.76199 40.2464 18
6 0 3 112.735 52.4713 17
6 0 3 40.2072 49.6101 14
6 0 3 12.6769 42.0091 13
6 0 3 5.34396 48.8454 4
6 0 4 54509.3 659.041 17
6 0 4 55589.6 698.173 14
6 0 5 70.2596 44.2607 17
6 0 5 33.5304 48.5737 14
6 0 5 79.7466 43.5811 13
6 0 6 1243.13 85.0496 17
6 0 6 1204.31 100.604 14
6 0 7 35.3577 35.4619 14
6 0 8 15693.9 219.387 14
6 1 -13 5744.59 149.425 20
6 -1 -13 5847.21 142.048 20
6 1 -12 3592.96 149.502 20
6 -1 -12 3737.55 144.387 20
6 1 -11 622.749 83.1747 20
6 -1 -11 702.927 78.3693 20
6 -1 -11 519.867 77.1672 25
6 1 -10 20886.3 422.502 20
6 -1 -10 20452.1 401.244 20
6 -1 -10 20526 424.132 25
6 1 -9 12477.5 334.866 20
6 -1 -9 12076.8 315.034 20
6 -1 -9 11997.2 342.064 16
6 -1 -9 12588.3 335.88 25
6 1 -8 10281.7 302.367 20
6 -1 -8 9911.88 283.231 20
6 1 -8 9465.25 393.093 10
6 -1 -8 11142.2 436.57 10
6 -1 -8 10132.3 313.582 16
6 -1 -8 10747.6 305.603 25
6 1 -8 10448.8 301.22 13
6 -1 -7 7616.21 248.037 25
6 1 -7 7625.71 258.263 20
6 -1 -7 7612.46 240.989 20
6 -1 -7 7537.35 245.958 17
6 1 -7 7674.62 355.087 10
6 -1 -7 7292.56 352.248 10
6 -1 -7 7901.42 269.368 16
6 1 -7 7544.01 259.163 13
6 -1 -6 88796.3 1134.91 3
6 1 -6 89093.1 842.274 20
6 -1 -6 86503.1 777.181 20
6 -1 -6 87685.2 871.625 11
6 -1 -6 87422.1 819.517 17
6 1 -6 85515 1147.98 10
6 -1 -6 87034.1 1157.82 10
6 1 -6 88094 849.091 16
6 -1 -6 87817.5 856.588 16
6 1 -6 85451.9 846.901 13
6 1 -5 25942.6 445.882 20
6 -1 -5 25121.4 575.932 3
6 -1 -5 24729.1 448.939 11
6 1 -5 25180.8 609.398 10
6 -1 -5 24789.1 605.197 10
6 -1 -5 24975.5 438.103 16
6 -1 -5 25137.8 453.326 24
6 1 -5 25386.2 453.45 13
6 -1 -4 87058.3 1027.89 3
6 1 -4 86210.5 1102.62 10
6 -1 -4 83886.3 1081.07 10
6 -1 -3 54462.6 792.617 3
6 1 -3 51660.3 835.177 10
6 -1 -3 51546.3 825.897 10
6 1 -3 52389.1 839.638 7
6 -1 -2 48180.5 741.411 3
6 1 -2 45116.3 772.498 10
6 -1 -2 45814.5 766.947 10
6 -1 -2 47042.7 786.514 4
6 1 -2 48366.4 738.329 4
6 1 -2 47150 793.562 7
6 -1 -1 33859.9 627.794 3
6 1 -1 32466.8 645.558 10
6 -1 -1 33946 646.779 10
6 1 -1 34696 652.363 4
6 1 -1 33481.4 662.321 7
6 1 0 19647.8 392.882 20
6 -1 0 21242.8 411.255 19
6 1 0 20664.2 403.573 19
6 -1 0 20936.1 398.588 18
6 -1 0 21363.8 512.242 3
6 -1 0 20552.4 394.874 17
6 1 0 20747.5 400.317 17
6 -1 0 21241.3 405.602 14
6 -1 0 20838 553.376 4
6 1 0 21231.1 534.047 4
6 -1 0 20764.3 393.579 23
6 1 0 19937.8 510.754 7
6 1 0 20708.7 400.059 13
6 -1 0 21153.7 408.786 13
6 -1 1 10618.3 296.642 19
6 1 1 9986.56 288.693 19
6 -1 1 10487.7 288.324 18
6 -1 1 9964.46 281.518 17
6 1 1 11718.6 312.587 17
6 -1 1 10917.9 381.62 3
6 -1 1 10481.4 294.772 14
6 1 1 10263.1 276.401 14
6 -1 1 10748.7 414.184 4
6 1 1 10116.3 392.021 4
6 -1 1 10548.3 287.128 23
6 1 1 10251.7 286.12 13
6 -1 1 10431.7 297.083 13
6 -1 2 159506 1142.03 19
6 1 2 161952 1159.47 19
6 -1 2 167547 1157.37 18
6 -1 2 161602 1138.42 17
6 1 2 160506 1177.19 17
6 -1 2 172467 1571.06 3
6 -1 2 169457 1204.91 14
6 1 2 162624 1133.25 14
6 -1 2 170887 1684.4 4
6 1 2 166514 1648.57 4
6 -1 2 166017 1149.55 23
6 1 2 163975 1137.21 13
6 -1 2 166619 1198.41 13
6 1 3 21823.6 423.042 19
6 -1 3 21966.7 424.131 18
6 -1 3 23354.4 430.712 17
6 1 3 22209.7 442.516 17
6 -1 3 22427.4 449.093 14
6 1 3 22634.2 432.96 14
6 -1 3 21608 421.365 23
6 1 3 21408.4 406.975 13
6 -1 3 22067.3 439.788 13
6 1 4 58543.2 652.563 19
6 -1 4 57594 668.189 18
6 -1 4 59112.6 658.886 17
6 1 4 58398 702.691 17
6 -1 4 57931.4 721.445 14
6 1 4 58355.7 689.736 14
6 -1 4 57483.7 673.093 23
6 -1 4 57775.4 690.333 13
6 -1 5 12104.3 292.685 18
6 -1 5 12828.7 281.354 17
6 1 5 12726.7 311.835 17
6 -1 5 12633.2 327.548 14
6 1 5 12696.9 313.51 14
6 -1 5 12359.3 296.165 23
6 -1 5 12388.8 302.763 13
6 -1 6 2884.86 127.183 18
6 1 6 2761.19 132.021 17
6 -1 6 2878.26 149.369 14
6 1 6 3049.71 143.519 14
6 -1 6 2724.07 126.763 23
6 -1 6 2625.47 124.141 13
6 -1 7 23683.8 353.058 14
6 1 7 23662.9 330.202 14
6 -1 8 24033.6 269.539 14
6 2 -13 3720.09 109.125 20
6 2 -12 19040.6 315.416 20
6 -2 -12 18589.2 280.45 20
6 -2 -12 18462.5 324.19 25
6 2 -11 1035.5 93.2403 20
6 -2 -11 955.786 80.8113 20
6 -2 -11 1011.19 95.6167 25
6 2 -10 4035.03 187.56 20
6 -2 -10 3877.14 164.472 20
6 -2 -10 4108.59 194.303 16
6 -2 -10 3966.89 188.689 25
6 2 -9 22030.6 442.197 20
6 -2 -9 21107.2 390.565 20
6 -2 -9 21893.7 455.418 16
6 -2 -9 21324.4 434.413 25
6 2 -8 138640 1109.82 20
6 -2 -8 136311 1069.42 17
6 -2 -8 138539 1142.05 16
6 -2 -8 137413 1092.24 25
6 2 -8 137770 1118.79 13
6 -2 -7 35875.7 804.431 3
6 2 -7 36009.9 561.538 20
6 -2 -7 35118.4 572.19 11
6 -2 -7 35367.6 549.356 17
6 2 -7 34488.9 753.031 10
6 -2 -7 35389.2 776.619 10
6 -2 -7 35213.7 570.854 16
6 -2 -7 35245.9 536.054 25
6 2 -7 35036.2 569.644 13
6 2 -6 50362.7 655.908 20
6 -2 -6 50824.1 920.271 3
6 -2 -6 50321.1 672.793 11
6 2 -6 49773.3 892.337 10
6 -2 -6 50972.4 649.562 17
6 -2 -6 50268.4 916.33 10
6 -2 -6 50998.2 667.577 16
6 -2 -6 50459.4 686.683 24
6 2 -6 51760.9 681.842 13
6 2 -5 98740.2 899.395 20
6 -2 -5 97066.5 910.271 11
6 -2 -5 98498 1225.35 3
6 2 -5 96959.2 1226.25 10
6 -2 -5 97799.2 886.411 17
6 -2 -5 96590.6 1240.44 10
6 -2 -5 98370.1 891.641 16
6 -2 -5 98451.6 924.222 24
6 2 -5 97463.2 1192.75 7
6 2 -5 97701.2 918.285 13
6 2 -4 8816.83 268.269 20
6 -2 -4 9007.01 273.212 11
6 -2 -4 8854.85 358.154 3
6 -2 -4 8988.92 275.627 18
6 2 -4 8603.84 361.556 10
6 -2 -4 9170.91 270.046 17
6 -2 -4 8917.31 369.416 10
6 -2 -4 8889.8 260.98 16
6 -2 -4 9599.61 282.644 24
6 2 -4 8785.98 358.638 7
6 2 -4 9216.24 279.277 13
6 2 -3 6116.75 223.76 20
6 -2 -3 6297.9 222.891 11
6 -2 -3 7104.87 241.211 18
6 -2 -3 6215.41 296.479 3
6 2 -3 6124.35 303.963 10
6 -2 -3 6291.51 221.155 17
6 -2 -3 5902.19 292.807 10
6 -2 -3 6156.29 222.27 24
6 -2 -3 6792.51 236.708 23
6 2 -3 6043.71 296.198 7
6 2 -3 6393.14 229.496 13
6 2 -2 50947.7 637.996 20
6 2 -2 52723.9 632.756 19
6 -2 -2 52057.2 627.22 11
6 -2 -2 52445.6 640.25 18
6 -2 -2 51490.7 837.529 3
6 -2 -2 51312.6 618.76 17
6 -2 -2 51758.7 834.027 10
6 -2 -2 51332.6 621.976 24
6 -2 -2 52158.8 643.497 23
6 2 -2 51516.3 856.347 7
6 2 -2 51623.5 634.907 13
6 2 -1 156710 1141.83 20
6 2 -1 160312 1121.97 19
6 -2 -1 159586 1087.2 11
6 -2 -1 160517 1122.01 18
6 2 -1 154136 1479.13 10
6 -2 -1 158581 1485.94 3
6 -2 -1 154691 1080.5 17
6 -2 -1 160712 1418.93 10
6 2 -1 159297 1082.24 17
6 2 -1 164648 1388.22 4
6 -2 -1 158714 1080.17 24
6 -2 -1 159912 1122.23 23
6 2 -1 159862 1502.39 7
6 2 -1 158568 1109.8 13
6 -2 -1 157003 1096.23 13
6 2 0 50682.8 668.228 20
6 2 0 52688 660.01 19
6 -2 0 51720.9 616.96 11
6 -2 0 52811.6 655.829 18
6 -2 0 51682.8 627.905 17
6 -2 0 53037 873.816 3
6 2 0 52198.9 641.986 17
6 -2 0 52287.3 896.672 4
6 -2 0 52833.2 653.746 14
6 2 0 52872 835.292 4
6 -2 0 52578.7 619.397 24
6 -2 0 52799.5 656.624 23
6 2 0 53326.6 872.797 7
6 2 0 52464 635.454 13
6 -2 0 52048.1 650.908 13
6 2 1 99453.9 925.596 19
6 -2 1 98820.8 842.923 11
6 -2 1 100403 914.547 18
6 -2 1 98208.6 868.806 17
6 -2 1 103300 1254.2 3
6 2 1 102302 924.047 17
6 -2 1 99024.6 916.541 14
6 2 1 100147 1220.69 4
6 -2 1 101472 921.039 23
6 2 1 98266.9 1179.22 7
6 2 1 99727.2 874.023 13
6 2 2 45657.3 629.775 19
6 -2 2 46005.2 631.581 18
6 -2 2 46952 599.1 17
6 2 2 45718.2 638.206 17
6 -2 2 46035.1 871.775 3
6 2 2 46196.3 638.286 15
6 -2 2 46888.8 894.331 4
6 -2 2 46131.4 634.716 14
6 2 2 45952.8 870.377 4
6 -2 2 48201.7 645.494 23
6 2 2 45844.5 582.249 13
6 2 3 8468.16 269.313 19
6 -2 3 9096.55 284.907 18
6 -2 3 9283.69 262.511 17
6 2 3 8954.75 286.602 17
6 -2 3 8579.05 280.725 14
6 -2 3 9103.96 283.694 23
6 2 4 7292.88 235.377 19
6 -2 4 7322.22 249.097 18
6 2 4 7536.54 259.128 17
6 -2 4 7369.65 258.275 14
6 2 4 7641.29 235.298 14
6 -2 4 7337.99 250.256 23
6 -2 5 10719.6 281.103 18
6 2 5 10728.1 289.193 17
6 -2 5 10845.9 294.434 14
6 2 5 10275.1 256.702 14
6 -2 5 10807.6 284.971 23
6 -2 5 10751.2 285.922 13
6 -2 6 11939 261.504 18
6 2 6 12471.1 274.387 17
6 -2 6 12393.2 284.649 14
6 2 6 12343.3 249.256 14
6 -2 6 12059.2 267.784 23
6 -2 6 11895.8 262.517 13
6 -2 7 5278.65 137.587 18
6 2 7 5445.02 143.052 17
6 2 7 5473.64 130.483 14
6 -2 7 5659.91 163.242 14
6 -2 7 5489.29 146.202 23
6 -2 7 5283.17 133.475 13
6 3 -12 5302.38 146.569 20
6 -3 -12 5111.61 156.985 25
6 3 -11 7754.74 214.971 20
6 -3 -11 7381.55 221.71 25
6 3 -10 11320.1 289.522 20
6 -3 -10 11037.7 297.663 16
6 -3 -10 11241.9 298.172 25
6 3 -9 17783.4 385.122 20
6 -3 -9 17485.4 399.812 16
6 -3 -9 17357 385.676 25
6 3 -8 9940.32 296.179 20
6 -3 -8 9700.91 294.166 17
6 -3 -8 9407.81 300.834 16
6 -3 -8 9729.82 292.667 25
6 3 -7 4425.13 204.477 20
6 -3 -7 4463.59 207.835 11
6 -3 -7 4528.79 208.154 17
6 -3 -7 4726.07 216.312 16
6 -3 -7 4486.88 198.108 25
6 3 -7 4738.82 219.079 13
6 3 -6 164407 1192.47 20
6 -3 -6 160726 1715.93 3
6 -3 -6 159849 1209.32 11
6 3 -6 164330 1673.35 10
6 -3 -6 160929 1189.73 17
6 -3 -6 166507 1720.52 10
6 -3 -6 163724 1215.18 16
6 -3 -6 163217 1122.03 25
6 -3 -6 162725 1252.28 24
6 3 -6 163801 1237.83 13
6 3 -6 164466 1596.39 7
6 3 -5 44514.6 621.453 20
6 -3 -5 44666.9 632.425 11
6 -3 -5 43821.4 876.595 3
6 3 -5 43546 862.568 10
6 -3 -5 44795.4 618.463 17
6 -3 -5 44084 873.02 10
6 -3 -5 44712.8 621.534 16
6 -3 -5 44234.7 643.497 24
6 3 -5 45538.5 644.789 13
6 3 -5 44900.1 839.279 7
6 3 -4 51088.8 662.121 20
6 3 -4 51006.7 610.994 19
6 -3 -4 51361.7 670.869 11
6 -3 -4 51221.9 661.388 18
6 -3 -4 51243.6 918.735 3
6 3 -4 50978.3 924.815 10
6 -3 -4 51509.3 657.336 17
6 -3 -4 51232.3 919.161 10
6 -3 -4 51604.1 651.275 16
6 -3 -4 51645.4 681.674 24
6 3 -4 52503.9 682.494 13
6 3 -4 51358.9 898.018 7
6 3 -3 20000.5 415.672 20
6 3 -3 19717.2 393.792 19
6 -3 -3 19812.7 410.738 11
6 -3 -3 19364.9 404.546 18
6 -3 -3 19773.3 566.518 3
6 3 -3 19933.1 575.775 10
6 -3 -3 19940.2 404.926 17
6 -3 -3 19767.6 559.633 10
6 -3 -3 20220.5 395.685 16
6 -3 -3 20354.9 419.464 24
6 -3 -3 20094.9 418.037 23
6 3 -3 20267 417.704 13
6 3 -3 20583.3 570.205 7
6 3 -2 40810.5 601.692 20
6 3 -2 39943.5 572.223 19
6 -3 -2 39940.3 572.653 11
6 -3 -2 39563.2 573.33 18
6 -3 -2 39449.2 793.729 3
6 -3 -2 39286.2 561.887 17
6 -3 -2 39989.2 769.759 10
6 3 -2 39123.6 522.226 17
6 -3 -2 39705.2 577.234 24
6 -3 -2 39747 582.5 23
6 3 -2 40512.7 579.566 13
6 3 -2 39958.5 795.432 7
6 -3 -2 38891.3 538.432 13
6 3 -1 900.432 96.9669 19
6 -3 -1 889.028 94.0191 11
6 -3 -1 779.123 94.1701 18
6 -3 -1 670.614 120.259 3
6 -3 -1 793.01 88.7073 17
6 -3 -1 946.121 125.525 10
6 3 -1 859.12 90.4413 17
6 -3 -1 807.606 92.2063 24
6 -3 -1 807.586 92.9851 23
6 3 -1 1028.18 97.6861 13
6 3 -1 847.508 127.028 7
6 -3 -1 877.217 93.3717 13
6 3 0 76268.5 860.971 20
6 3 0 77524 823.391 19
6 -3 0 79125.9 800.537 11
6 -3 0 77138.9 810.704 18
6 -3 0 76393.3 768.85 17
6 3 0 76807.5 786.845 17
6 3 0 77892.8 806.233 15
6 -3 0 78111.4 800.872 24
6 -3 0 79418 826.569 23
6 3 0 76861 1106.01 7
6 3 0 77734.9 775.223 13
6 3 1 78122.4 837.665 19
6 -3 1 78043.8 791.893 11
6 -3 1 79449.5 833.425 18
6 -3 1 81199.5 779.536 17
6 3 1 79425.8 825.933 17
6 3 1 77574.4 824.393 15
6 -3 1 79267.4 818.882 14
6 -3 1 79134.3 801.965 24
6 -3 1 79676.1 842.128 23
6 3 1 78141.9 1101.33 7
6 3 2 25253 474.573 19
6 -3 2 25448.9 442.78 11
6 -3 2 25798 479.457 18
6 -3 2 27586 442.079 17
6 3 2 26345.7 483.255 17
6 3 2 25874.5 485.566 15
6 -3 2 25690.3 469.682 14
6 -3 2 25426.9 448.819 24
6 -3 2 25806.4 480.905 23
6 3 3 16662.3 374.911 19
6 -3 3 16331.9 380.751 18
6 3 3 16527.1 385.654 17
6 3 3 16709.3 388.165 15
6 -3 3 16554.8 376.271 14
6 -3 3 16588.1 350.227 24
6 -3 3 16603.8 384.451 23
6 3 4 38688.6 527.332 19
6 -3 4 39322.5 565.148 18
6 3 4 39147.2 574.988 17
6 -3 4 39359.7 558.569 14
6 -3 4 38962.9 564.053 23
6 -3 5 9160.09 254.936 18
6 3 5 9369.18 262.1 17
6 -3 5 9316.88 254.589 14
6 -3 5 9418.14 261.251 23
6 -3 5 9344.61 259.626 13
6 -3 6 3041.13 130.75 18
6 3 6 3125.05 135.097 17
6 -3 6 3053.63 129.912 14
6 -3 6 3065.28 134.091 23
6 -3 6 3059.76 131.195 13
6 -3 7 5841.6 138.337 18
6 3 7 5854.36 139.115 17
6 -3 7 6015.46 144.897 23
6 -3 7 5796.23 130.649 13
6 -4 -12 4267.8 120.048 25
6 4 -11 3230.29 117.132 20
6 -4 -11 3242.06 132.4 25
6 4 -10 7755.19 212.932 20
6 -4 -10 7582.63 226.085 16
6 -4 -10 7667.77 228.492 25
6 4 -9 9626.91 262.98 20
6 -4 -9 9428.91 279.871 16
6 -4 -9 9320.76 270.187 25
6 4 -8 39356.1 557.089 20
6 -4 -8 38420.1 572.157 17
6 -4 -8 38341.4 585.613 16
6 -4 -8 38319.5 559.385 25
6 4 -7 33823.5 531.127 20
6 -4 -7 33349.2 539.907 11
6 -4 -7 34110.6 553.799 17
6 -4 -7 33439.9 557.315 16
6 -4 -7 33602.5 525.821 25
6 4 -6 18048.7 395.606 20
6 -4 -6 17874.7 404.463 11
6 -4 -6 17802.7 403.513 17
6 -4 -6 17657.5 406.854 16
6 -4 -6 18100.7 379.314 25
6 -4 -6 17895.3 419.802 24
6 4 -6 17939.8 416.575 13
6 4 -5 2117.97 142.6 20
6 -4 -5 2037.38 142.945 11
6 -4 -5 1924.95 138.954 17
6 -4 -5 2070.69 201.73 10
6 -4 -5 2102.85 144.386 16
6 -4 -5 2272.07 156.101 24
6 4 -5 2081.86 147.18 13
6 4 -5 2242.4 198.875 7
6 4 -4 32601.5 539.41 20
6 4 -4 32310.8 499.186 19
6 -4 -4 32590.1 543.949 11
6 -4 -4 32628.1 773.037 3
6 -4 -4 32724.9 528.265 18
6 -4 -4 32638.8 533.78 17
6 -4 -4 32802 765.112 10
6 -4 -4 32838.2 537.59 16
6 -4 -4 32641.5 555.005 24
6 4 -4 33095.2 546.331 13
6 4 -4 31416.6 733.649 7
6 4 -3 4322.11 201.223 20
6 4 -3 4272.93 192.114 19
6 -4 -3 4273.87 199.808 11
6 -4 -3 4233.33 194.119 18
6 -4 -3 4498.09 287.582 3
6 -4 -3 4163.06 192.57 17
6 -4 -3 4164.23 270.088 10
6 -4 -3 4236.96 192.698 16
6 -4 -3 4461.33 206.219 24
6 -4 -3 4339.19 201.957 23
6 4 -3 4282.31 197.357 13
6 4 -3 4225.25 275.187 7
6 4 -2 8192.41 280.017 20
6 4 -2 7927.43 266.801 19
6 -4 -2 8208.4 273.212 11
6 -4 -2 8118.58 264.844 18
6 -4 -2 8028.15 381.289 3
6 -4 -2 8151.73 263.579 17
6 -4 -2 8035.06 367.489 10
6 -4 -2 8198.62 258.379 16
6 -4 -2 8170.28 274 24
6 -4 -2 7948.62 269.4 23
6 4 -2 8170.92 263.978 13
6 4 -2 8161.43 380.901 7
6 4 -1 4975.63 224.464 20
6 4 -1 4795.98 213.216 19
6 -4 -1 5122.38 217.244 11
6 -4 -1 5126.04 213.743 18
6 -4 -1 4872.87 297.932 3
6 -4 -1 5022.65 204.104 17
6 4 -1 5050.53 195.78 17
6 -4 -1 5121.21 217.501 24
6 -4 -1 4999.08 215.899 23
6 4 -1 5217.04 206.306 13
6 4 -1 5025.97 298.114 7
6 -4 -1 5298.13 206.073 13
6 4 0 17917.6 454.908 20
6 4 0 17541.4 403.372 19
6 -4 0 18357.4 401.164 11
6 -4 0 17627.6 391.298 18
6 -4 0 18046.5 372.502 17
6 4 0 17227.1 370.072 17
6 4 0 17781.8 383.28 15
6 -4 0 17399.7 394.788 24
6 -4 0 17623.2 396.977 23
6 4 1 30049.7 526.978 19
6 -4 1 30046 505.625 11
6 -4 1 30084 513.805 18
6 4 1 30373.4 503.933 17
6 4 1 29495.4 504.824 15
6 -4 1 30264.3 512.476 24
6 -4 1 29797 515.939 23
6 4 2 65110.8 756.781 19
6 -4 2 66267.3 724.445 11
6 -4 2 65443.2 748.177 18
6 4 2 66165.2 748.443 17
6 4 2 66891.3 757.936 15
6 -4 2 66133.1 734.325 24
6 -4 2 64680 753.141 23
6 4 3 23678.9 434.744 19
6 -4 3 23381.7 404.523 11
6 -4 3 24457.9 448.935 18
6 4 3 24435 449.144 17
6 4 3 24336.6 454.797 15
6 -4 3 23994 422.104 24
6 -4 3 24748.1 457.334 23
6 4 4 4940.31 180.909 19
6 -4 4 5147.22 169.662 11
6 -4 4 5474.82 205.735 18
6 4 4 5167.7 200.733 17
6 4 4 5132.09 202.515 15
6 -4 4 4933.91 176.419 24
6 -4 4 5091.2 200.209 23
6 -4 5 24536.1 384.206 18
6 4 5 24834.3 391.515 17
6 -4 5 24294.8 385 23
6 -4 5 24795.6 389.108 13
6 -4 6 2618.97 110.094 18
6 4 6 2817.6 114.866 17
6 -4 6 2656.31 112.052 23
6 -4 6 2653.54 109.526 13
6 -5 -11 12793 208.622 25
6 5 -10 8078.78 166.428 20
6 -5 -10 8046.72 195.609 16
6 -5 -10 7970.27 200.423 25
6 5 -9 12361.7 248.907 20
6 -5 -9 12499.2 287.238 16
6 -5 -9 12122.8 275.465 25
6 5 -8 92536.7 754.223 20
6 -5 -8 94278 850.327 16
6 -5 -8 91905.3 801.156 25
6 5 -7 17116.5 348.567 20
6 -5 -7 16821.4 353.306 11
6 -5 -7 16667.2 373.229 17
6 -5 -7 16534.3 377.725 16
6 -5 -7 16753 353.522 25
6 5 -6 44171.9 580.901 20
6 -5 -6 43947.4 599.425 11
6 -5 -6 43521.2 614.201 17
6 -5 -6 42802.5 617.927 16
6 -5 -6 42790.2 564.048 25
6 -5 -6 44002.7 627.885 24
6 5 -5 17571.5 378.662 20
6 -5 -5 18072.9 396.193 11
6 -5 -5 17870.8 396.556 17
6 -5 -5 18059.6 403.43 16
6 -5 -5 17936.2 409.653 24
6 5 -5 17583.3 396.093 13
6 5 -4 900.843 95.8991 20
6 5 -4 1258.17 104.806 19
6 -5 -4 977.263 103.61 11
6 -5 -4 1227.76 110.15 17
6 -5 -4 1026.02 104.358 16
6 -5 -4 906.137 101.956 24
6 5 -4 953.464 100.342 13
6 5 -3 7053.96 253.585 20
6 5 -3 7123.53 246.453 19
6 -5 -3 7260.07 257.315 11
6 -5 -3 7396.96 242.518 18
6 -5 -3 7071.36 244.267 17
6 -5 -3 7310.41 254.8 16
6 -5 -3 7204.51 263.138 24
6 5 -3 7268.46 247.717 13
6 5 -2 5412.94 226.975 20
6 5 -2 5305.25 219.096 19
6 -5 -2 5323.97 221.483 11
6 -5 -2 5456.08 211.407 18
6 -5 -2 5341.66 207.416 17
6 -5 -2 5259.85 210.693 16
6 -5 -2 5646.83 232.184 24
6 -5 -2 5382.57 217.696 23
6 5 -2 5467.27 208.518 13
6 5 -1 3376.24 241.965 20
6 5 -1 3220.96 177.961 19
6 -5 -1 3446.82 180.497 11
6 -5 -1 3446.38 170.564 18
6 -5 -1 3404.34 163.502 17
6 -5 -1 3270.18 160.018 16
6 -5 -1 3368.79 179.83 24
6 -5 -1 3434.15 176.025 23
6 -5 -1 3634.24 163.165 13
6 5 0 3818.9 191.143 19
6 -5 0 3733.87 186.014 11
6 -5 0 3588.18 174.497 18
6 5 0 3766.42 166.161 17
6 5 0 3880.73 174.889 15
6 -5 0 3640.02 184.621 24
6 -5 0 3712.76 170.075 13
6 5 1 3220.21 174.881 19
6 -5 1 3246.35 168.908 11
6 -5 1 3260.46 165.332 18
6 5 1 3283.4 158.643 17
6 5 1 3255.71 163.13 15
6 -5 1 3268.14 172.21 24
6 -5 1 3320.52 171.642 23
6 5 2 18976.1 390.98 19
6 -5 2 19267.4 379.998 11
6 -5 2 19402.8 380.434 18
6 5 2 19508.4 375.605 17
6 5 2 19137.9 381.353 15
6 -5 2 18950.6 382.989 24
6 -5 2 18972.4 384.46 23
6 5 3 11014.4 275.06 19
6 -5 3 10933.1 264.074 11
6 -5 3 10954.7 274.42 18
6 5 3 11035.9 274.431 17
6 5 3 11104 281.048 15
6 -5 3 10838.3 270.637 24
6 -5 3 11103.4 280.419 23
6 5 4 32352.7 402.217 19
6 -5 4 33264 393.89 11
6 -5 4 33969.9 439.748 18
6 5 4 34007.6 443.14 17
6 -5 4 32593.9 410.019 24
6 -5 4 33397.6 440.371 23
6 -5 5 691.331 61.6176 18
6 5 5 824.384 66.7219 17
6 -5 5 727.061 54.5586 24
6 -5 5 731.336 62.9416 23
6 -5 5 835.493 67.4665 13
6 -5 6 9848.17 160.301 18
6 5 6 10241.1 163.946 17
6 -5 6 10242.5 163.694 13
6 -6 -10 16614.9 211.775 25
6 -6 -9 989.204 69.2118 16
6 -6 -9 934.349 66.2983 25
6 -6 -8 14923.1 291.88 16
6 -6 -8 14725.9 274.695 25
6 6 -7 32402 391.318 20
6 -6 -7 31957.2 465.864 16
6 6 -6 28034.3 398.407 20
6 -6 -6 28170.2 415.344 11
6 -6 -6 28242.1 461.332 16
6 -6 -6 27505.3 407.152 25
6 6 -5 8251.19 232.096 20
6 -6 -5 8239.87 243.776 11
6 -6 -5 7835.74 242.246 17
6 -6 -5 7860.76 253.545 16
6 -6 -5 7862.02 217.908 25
6 -6 -5 8223.31 255.106 24
6 6 -4 9492.63 262.009 20
6 -6 -4 9767.23 275.418 11
6 6 -4 9150.75 245.767 19
6 -6 -4 9478.4 265.332 17
6 -6 -4 9640.99 280.426 16
6 -6 -4 9906.44 287.802 24
6 6 -3 8773.88 276.246 20
6 6 -3 8694.64 254.447 19
6 -6 -3 9031.27 270.906 11
6 -6 -3 8935.16 252.87 17
6 -6 -3 8916.2 266.173 16
6 -6 -3 8951.23 275.201 24
6 6 -2 25607.8 448.654 19
6 -6 -2 25787.9 453.962 11
6 -6 -2 26040.5 410.115 17
6 -6 -2 24953.7 431.455 16
6 -6 -2 25371 457.797 24
6 6 -1 19210.4 394.483 19
6 -6 -1 19710.3 395.994 11
6 -6 -1 19289.9 344.351 18
6 -6 -1 18594 353.74 16
6 -6 -1 19493.3 399.809 24
6 6 0 5677.73 216.203 19
6 -6 0 5557.38 209.487 11
6 -6 0 5515.79 185.678 18
6 -6 0 5798.07 217.333 24
6 -6 0 5760.49 198.508 23
6 6 1 12196.1 302.206 19
6 -6 1 12074.1 292.295 11
6 -6 1 11814.3 264.423 18
6 6 1 11996.3 246.856 17
6 -6 1 11880.8 294.395 24
6 -6 1 12225.4 277.639 23
6 -6 1 12149.3 259.137 13
6 6 2 49849.2 561.65 19
6 -6 2 50009.3 548.217 11
6 -6 2 49039.3 509.826 18
6 6 2 49526.1 492.907 17
6 -6 2 49218.3 552.81 24
6 -6 2 49163.1 523.54 23
6 -6 2 48788 505.25 13
6 6 3 13848.8 262.086 19
6 -6 3 13678.7 256.851 11
6 -6 3 13488.8 247.442 18
6 6 3 13764.5 244.946 17
6 -6 3 13574.1 262.696 24
6 -6 3 13488.7 251.837 23
6 -6 3 13845.4 251.983 13
6 6 4 7280.47 145.202 19
6 -6 4 7458.93 151.973 11
6 -6 4 7314.83 158.401 18
6 6 4 7401.65 159.722 17
6 -6 4 7383.48 163.877 24
6 -6 4 7450.33 161.694 23
6 -6 4 7512.11 165.68 13
6 -7 -8 11663.9 187.811 16
6 -7 -7 9389.33 202.228 16
6 -7 -7 8932.9 170.2 25
6 -7 -6 19564.7 319.559 16
6 -7 -6 19685.4 266.823 25
6 -7 -5 4920.47 144.848 11
6 -7 -5 4812.52 169.416 16
6 -7 -4 999.242 78.1896 11
6 7 -4 1028.69 69.2666 19
6 -7 -4 994.684 84.7832 16
6 -7 -4 969.886 79.442 24
6 7 -3 4944.93 163.272 19
6 -7 -3 5042.28 171.424 11
6 -7 -3 4910.55 172.817 16
6 -7 -3 5046.1 176.445 24
6 7 -2 2468.76 123.69 19
6 -7 -2 2386.68 122.415 11
6 -7 -2 2348.28 117.371 16
6 -7 -2 2410.6 125.702 24
6 7 -1 11550.3 262.927 19
6 -7 -1 11745.7 261.26 11
6 -7 -1 11435.8 233.189 16
6 -7 -1 11567.1 263.344 24
6 7 0 4847.26 168.481 19
6 -7 0 4822.6 164.747 11
6 -7 0 4840.33 166.708 24
6 7 1 6170.06 178.038 19
6 -7 1 6201.74 174.516 11
6 -7 1 6162.72 175.91 24
6 7 2 83.4125 31.3002 19
6 -7 2 77.2229 29.8604 11
6 -7 2 84.8778 31.1374 24
6 -7 3 1159.19 56.5511 11
6 -7 3 1095.91 58.8237 24
6 -8 -5 4607.53 116.436 16
6 -8 -4 17253.2 236.094 16
6 -8 -3 11098.9 187.349 16
6 -8 -2 481.826 40.1676 11
6 8 -2 560.379 43.8553 19
6 -8 -2 545.057 42.7562 16
6 -8 -2 430.85 38.235 24
6 -8 -1 778.332 50.9558 11
6 8 -1 907.429 55.8423 19
6 -8 -1 864.17 51.9983 24
6 8 0 3795.12 102.024 19
6 -8 0 3555.05 94.1969 11
7 0 -13 9574.49 161.372 20
7 0 -12 131.059 39.5281 20
7 0 -11 15517.4 311.732 20
7 0 -10 17.4274 42.2044 20
7 0 -9 36323.7 542.573 20
7 0 -8 22.9291 49.6226 20
7 0 -8 12.1291 52.0998 16
7 0 -7 195128 1263.05 20
7 0 -7 196278 1336.82 16
7 0 -6 159.729 54.6122 20
7 0 -6 -10.5872 62.5393 10
7 0 -6 154.709 51.7032 17
7 0 -6 66.7838 57.7603 16
7 0 -6 18.2203 49.8041 13
7 0 -5 264587 1420.26 20
7 0 -5 269301 1525.99 11
7 0 -5 267769 2143.88 10
7 0 -5 268288 1448.55 17
7 0 -5 267872 1461.18 16
7 0 -5 264693 1515.62 13
7 0 -4 86.1681 44.8634 20
7 0 -4 16.879 39.0305 19
7 0 -4 35.2337 41.4553 11
7 0 -4 195.13 85.2124 10
7 0 -4 32.999 42.4817 17
7 0 -4 87.4868 56.8339 13
7 0 -3 21413.5 408.456 11
7 0 -3 22405.6 429.211 19
7 0 -3 21954.2 430.553 18
7 0 -3 22430 599.136 10
7 0 -3 22364.5 425.308 17
7 0 -3 22190.6 438.939 13
7 0 -2 101.413 50.1589 19
7 0 -2 41.879 40.4395 18
7 0 -2 87.9884 66.0966 10
7 0 -2 40.2957 46.7477 13
7 0 -2 18.7564 50.4864 4
7 0 -1 3293.99 174.74 19
7 0 -1 3177.37 164.157 18
7 0 -1 3064.71 220.802 10
7 0 -1 3281.43 172.385 17
7 0 -1 3401.54 161.357 23
7 0 -1 3130.18 171.438 13
7 0 0 42.7301 48.7517 19
7 0 0 32.7655 40.8943 18
7 0 0 53.8772 47.7138 13
7 0 0 -14.9226 60.3979 4
7 0 1 28470.9 500.452 19
7 0 1 28544.4 470.209 18
7 0 1 29564 508.612 17
7 0 1 28794.3 491.374 14
7 0 1 28465.8 503.022 13
7 0 2 14.7562 46.763 19
7 0 2 18.127 39.6537 18
7 0 2 34.3461 52.2112 17
7 0 2 33.2256 50.152 13
7 0 3 45612.4 597.829 17
7 0 3 44016.7 597.381 14
7 0 3 43933.5 583.186 13
7 0 4 23.3652 39.2881 17
7 0 4 10.0399 43.3616 14
7 0 4 31.1903 36.6545 13
7 0 5 27629.5 370.144 17
7 0 5 28249 411.346 14
7 0 6 22.8535 29.5222 14
7 1 -13 9296.11 158.622 20
7 1 -12 3820.76 137.997 20
7 -1 -12 3871.41 126.115 20
7 1 -11 4529.17 174.095 20
7 -1 -11 4394.09 157.906 20
7 1 -10 12279.9 308.394 20
7 -1 -10 11680.9 280.384 20
7 -1 -10 12153.9 299.129 25
7 1 -9 6638.86 240.223 20
7 -1 -9 6208.37 216.76 20
7 -1 -9 6338.25 247.523 16
7 -1 -9 6124.25 221.575 25
7 1 -8 26742.4 483.56 20
7 -1 -8 25529.7 438.892 20
7 -1 -8 25298.9 437.075 17
7 -1 -8 26651.2 501.237 16
7 -1 -8 26096.8 447.952 25
7 1 -8 26431.8 476.856 13
7 1 -7 82697.3 850.486 20
7 -1 -7 80943.6 774.592 20
7 -1 -7 79631.9 802.298 17
7 -1 -7 82684.6 872.831 16
7 1 -7 81778.6 858.541 13
7 -1 -6 45416.7 838.706 3
7 1 -6 46823.2 633.027 20
7 -1 -6 45035.4 647.844 11
7 1 -6 44581.9 886.261 10
7 -1 -6 44897.7 614.687 17
7 -1 -6 44452.2 893.274 10
7 -1 -6 45656.6 632.327 16
7 1 -6 44606.9 640.314 13
7 -1 -6 46695.2 611.302 13
7 1 -5 16669.8 374.503 20
7 -1 -5 16310.1 486.306 3
7 -1 -5 16051.9 382.179 11
7 1 -5 15354.7 337.107 19
7 1 -5 16189.4 531.241 10
7 -1 -5 15898.9 366.027 17
7 -1 -5 16379 536.827 10
7 -1 -5 16066.4 365.812 16
7 1 -5 15905.3 384.49 13
7 -1 -5 16530.7 369.268 13
7 1 -4 33145.9 523.223 20
7 -1 -4 34414.8 542.39 11
7 1 -4 33799.9 514.929 19
7 -1 -4 34530.2 556.87 18
7 1 -4 32795.4 741.103 10
7 -1 -4 34854.9 539.871 17
7 -1 -4 33492.9 756.621 10
7 1 -4 34152 510.558 17
7 -1 -4 34300.3 508.165 16
7 -1 -4 33807.7 532.123 24
7 1 -4 34391.6 556.043 13
7 -1 -4 33416.1 526.156 13
7 1 -3 11417.4 306.506 20
7 -1 -3 11574 315.051 19
7 1 -3 11472 308.978 19
7 -1 -3 12026.5 314.824 11
7 -1 -3 11662.9 321.625 18
7 1 -3 11494.5 437.906 10
7 -1 -3 11561.5 437.08 10
7 -1 -3 11716.1 313.061 17
7 1 -3 11718.8 305.634 17
7 -1 -3 11670.3 305.165 24
7 1 -3 11611.1 324.072 13
7 -1 -3 11235.5 310.844 13
7 1 -2 7385.15 248.979 20
7 -1 -2 7557.42 260.441 19
7 1 -2 8002.76 265.02 19
7 -1 -2 7580.8 248.384 11
7 1 -2 7540.85 242.447 18
7 -1 -2 7868.93 262.561 18
7 1 -2 7445.77 348.253 10
7 -1 -2 7774.95 259.55 17
7 1 -2 7833.35 254.924 17
7 1 -2 8321.02 343.953 4
7 -1 -2 7706.39 254.732 23
7 1 -2 8052.76 268.774 13
7 -1 -2 7652.02 259.869 13
7 1 -1 19223.4 402.549 20
7 -1 -1 19094.4 413.844 19
7 1 -1 19530.5 415.747 19
7 -1 -1 19398.4 408.202 18
7 -1 -1 18969.3 402.507 17
7 1 -1 19372.9 404.817 17
7 -1 -1 19227.6 566.066 4
7 1 -1 20527 557.777 4
7 -1 -1 19557.8 401.123 23
7 1 -1 19376.3 415.369 13
7 -1 -1 19494.9 416.06 13
7 -1 0 4179.66 199.333 19
7 1 0 4443.31 205.913 19
7 -1 0 4595.1 202.974 18
7 -1 0 5315.83 216.498 17
7 1 0 4303.53 198.315 17
7 -1 0 4470.24 280.094 4
7 1 0 4790.88 282.861 4
7 -1 0 5309.09 213.312 23
7 1 0 5658.58 225.4 13
7 -1 0 4251.98 201.598 13
7 -1 1 17319.2 392.071 19
7 1 1 17382.6 397.437 19
7 -1 1 18173.5 392.071 18
7 -1 1 18036.9 391.758 17
7 1 1 17386.7 393.476 17
7 1 1 17182.6 365.394 14
7 -1 1 17617.8 394.423 14
7 -1 1 17689.2 380.583 23
7 1 1 17344.5 386.202 13
7 -1 1 17890.8 401.675 13
7 1 2 28000.1 486.734 19
7 -1 2 27857 474.916 18
7 -1 2 27756.5 474.243 17
7 1 2 28402.3 496.356 17
7 1 2 28143.6 463.491 14
7 -1 2 28742.5 499.312 14
7 -1 2 27725.9 466.261 23
7 1 2 27368 469.092 13
7 -1 2 27523.5 491.079 13
7 1 3 26666.2 448.345 19
7 -1 3 26329.5 441.196 18
7 -1 3 26701.6 441.901 17
7 1 3 27306.5 472.881 17
7 -1 3 27231.3 476.602 14
7 1 3 27256.4 446.08 14
7 -1 3 27030.2 440.391 23
7 1 3 26066.7 429.55 13
7 -1 3 27280.1 472.072 13
7 -1 4 2545.73 129.424 18
7 -1 4 2620.45 128.995 17
7 1 4 2632.19 141.514 17
7 -1 4 2802.28 150.31 14
7 1 4 2675.03 136.132 14
7 -1 4 2863.71 136.11 23
7 -1 4 2690.76 140.874 13
7 -1 5 11875.1 227.657 18
7 1 5 11942.4 254.843 17
7 1 5 11613 246.511 14
7 -1 5 11955.9 271.892 14
7 -1 5 12170.4 228.745 23
7 -1 5 11711.4 245.134 13
7 1 6 1369.51 70.3219 17
7 -1 6 1335.11 80.4989 14
7 2 -12 5235.82 149.823 20
7 2 -11 10293.7 248.795 20
7 -2 -11 10419.8 206.976 20
7 -2 -11 9858.91 239.647 25
7 2 -10 863.209 89.8509 20
7 -2 -10 932.83 76.1383 20
7 -2 -10 900.313 93.6599 16
7 -2 -10 924.66 87.2237 25
7 2 -9 383.778 74.2758 20
7 -2 -9 437.873 67.043 17
7 -2 -9 413.119 78.0078 16
7 -2 -9 492.262 72.0562 25
7 2 -8 23278.7 451.787 20
7 -2 -8 22606.5 430.74 17
7 -2 -8 22742.5 463.241 16
7 -2 -8 22424.3 412.941 25
7 2 -8 22909.7 454.127 13
7 2 -7 36953.8 575.411 20
7 -2 -7 36942.9 593.117 11
7 -2 -7 37026.2 562.411 17
7 -2 -7 37138.4 586.626 16
7 2 -7 36406 583.307 13
7 2 -6 33755.8 550.137 20
7 -2 -6 33544.4 765.028 3
7 -2 -6 33743.6 563.645 11
7 -2 -6 34098.1 546.807 17
7 -2 -6 34260.6 555.247 16
7 2 -6 33527.5 566.36 13
7 2 -5 90873.7 890.876 20
7 -2 -5 91991.7 918.761 11
7 -2 -5 89867.2 1215.32 3
7 2 -5 91267.3 1277.62 10
7 -2 -5 91129.5 894.175 17
7 -2 -5 91445.9 1268.13 10
7 -2 -5 92184.3 881.361 16
7 -2 -5 91162.9 921.365 24
7 2 -5 90878.5 925.738 13
7 2 -4 30704.5 518.364 20
7 2 -4 29793.3 486.586 19
7 -2 -4 30663.7 523.289 11
7 -2 -4 30293.2 698.367 3
7 -2 -4 30035.2 527.465 18
7 -2 -4 30220.2 511.95 17
7 -2 -4 30193.5 717.396 10
7 -2 -4 29944.9 487.488 16
7 -2 -4 30548.6 523.49 24
7 2 -4 30057.1 720.092 7
7 2 -4 30446.8 534.219 13
7 -2 -4 30862.6 494.908 13
7 2 -3 13690.3 348.951 20
7 2 -3 13852.8 341.77 19
7 -2 -3 13542.7 345.404 11
7 -2 -3 13217.1 349.055 18
7 -2 -3 13706.5 463.335 3
7 -2 -3 13331.1 340.116 17
7 -2 -3 13130.9 467.364 10
7 2 -3 13634.1 322.779 17
7 -2 -3 13400.7 341.445 24
7 2 -3 13036.9 475.448 7
7 2 -3 13539.1 354.839 13
7 -2 -3 13426.8 332.712 13
7 2 -2 2629.44 158.546 20
7 2 -2 2506.82 153.61 19
7 -2 -2 2921.97 161.368 11
7 -2 -2 2585.88 158.477 18
7 -2 -2 2468.6 204.132 3
7 2 -2 2758.93 224.795 10
7 -2 -2 2576.22 153.433 17
7 -2 -2 2241.14 198.688 10
7 2 -2 2433.2 145.769 17
7 -2 -2 2653.4 151.967 24
7 -2 -2 2627.83 158.658 23
7 2 -2 2572.88 214.499 7
7 2 -2 2540.33 157.553 13
7 -2 -2 2458.57 150.583 13
7 2 -1 1983.18 145.942 20
7 2 -1 1701.19 129.86 19
7 -2 -1 1522.85 118.165 11
7 -2 -1 1472.94 123.043 18
7 -2 -1 1595.86 167.386 3
7 -2 -1 1670.26 125.66 17
7 2 -1 1744.48 127.888 17
7 -2 -1 1569.24 119.598 24
7 -2 -1 1634.34 128.669 23
7 2 -1 1894.8 182.021 7
7 2 -1 1691.74 128.695 13
7 -2 -1 1801.33 132.566 13
7 2 0 37899.2 614.47 20
7 2 0 38180.4 591.169 19
7 -2 0 38224.6 538.29 11
7 -2 0 38766.5 584.62 18
7 -2 0 37747 563.212 17
7 2 0 38854.9 580.941 17
7 -2 0 38703.3 580.466 23
7 2 0 37684.3 567.205 13
7 -2 0 38156.8 585.978 13
7 2 1 49312.4 667.225 19
7 -2 1 49988.5 657.116 18
7 -2 1 49089.5 628.243 17
7 2 1 50030.8 663.267 17
7 -2 1 50526.6 660.046 23
7 2 1 48480.5 621.862 13
7 -2 1 49028.5 663.948 13
7 2 2 6115.95 232.777 19
7 -2 2 5783.72 225.435 18
7 -2 2 6056.08 215.828 17
7 2 2 5910.19 231.914 17
7 -2 2 6138.79 234.612 14
7 -2 2 6011.32 227.069 23
7 2 2 5934.86 209.321 13
7 -2 2 6094.28 235.575 13
7 2 3 3351.91 161.605 19
7 -2 3 3384.14 166.225 18
7 -2 3 3382.52 150.287 17
7 2 3 3452.89 174.291 17
7 -2 3 3335.24 170.992 14
7 -2 3 3562.35 168.597 23
7 -2 3 3501.4 173.14 13
7 2 4 827.891 73.9704 19
7 -2 4 757.421 77.7553 18
7 2 4 869.554 88.5432 17
7 -2 4 777.85 83.9908 14
7 -2 4 761.857 78.9045 23
7 -2 4 796.081 84.1478 13
7 -2 5 4618.81 150.473 18
7 2 5 4981.16 165.116 17
7 -2 5 4904.65 169.074 14
7 -2 5 4847.18 155.262 23
7 -2 5 4817.16 159.427 13
7 2 6 50.4859 26.9497 17
7 -2 6 43.582 24.3577 23
7 -2 6 70.8356 25.1254 13
7 3 -12 10564.7 179.595 20
7 3 -11 2332.29 110.656 20
7 -3 -11 2258.72 107.194 25
7 3 -10 1264.62 96.9263 20
7 -3 -10 1268.66 102.08 16
7 -3 -10 1206.21 90.9313 25
7 3 -9 34894 513.893 20
7 -3 -9 34461.6 531.823 16
7 3 -8 11686 314.934 20
7 -3 -8 11460.8 308.942 17
7 -3 -8 11517.3 323.918 16
7 -3 -8 11240.9 284.694 25
7 3 -8 11469.5 321.735 13
7 3 -7 40090 588.045 20
7 -3 -7 39697.6 603.99 11
7 -3 -7 38970.9 585.002 17
7 -3 -7 39897.7 603.092 16
7 3 -7 39667.4 610.148 13
7 3 -6 11520.2 322.338 20
7 -3 -6 11827 336.01 11
7 -3 -6 12049.5 332.508 17
7 -3 -6 11657.9 326.474 16
7 -3 -6 11688.8 340.154 24
7 3 -6 11250 332.408 13
7 3 -5 47861.8 653.874 20
7 -3 -5 47585.2 664.019 11
7 -3 -5 47067.8 651.519 17
7 -3 -5 46824.3 641.523 16
7 -3 -5 47640.7 676.423 24
7 3 -5 47673.6 671.675 13
7 3 -4 16006.5 384.687 20
7 3 -4 15889.7 358.589 19
7 -3 -4 16358.2 388.815 11
7 -3 -4 16218.2 387.509 18
7 -3 -4 16050 379.337 17
7 -3 -4 16093.9 366.346 16
7 -3 -4 16487.7 395.002 24
7 3 -4 16278.3 393.825 13
7 3 -3 6579.15 250.839 20
7 3 -3 6658.58 241.433 19
7 -3 -3 6367.22 244.942 11
7 -3 -3 6356.19 244.266 18
7 -3 -3 6570.91 243.201 17
7 -3 -3 6248.52 221.207 16
7 -3 -3 6781.74 252.923 24
7 3 -3 6423.91 248.576 13
7 -3 -3 6785.67 230.988 13
7 3 -2 13669.6 363.582 20
7 3 -2 13337.2 348.343 19
7 -3 -2 14201.9 356.169 11
7 -3 -2 13539.8 352.548 18
7 -3 -2 13379 341.536 17
7 3 -2 13757.3 323.139 17
7 -3 -2 13914.8 352.642 24
7 -3 -2 13562.8 354.974 23
7 3 -2 13860.8 353.634 13
7 -3 -2 13761.1 336.029 13
7 3 -1 33984.2 580.886 20
7 3 -1 32791.5 548.804 19
7 -3 -1 33955.3 538.066 11
7 -3 -1 33816.2 550.633 18
7 -3 -1 33481.6 528.023 17
7 3 -1 33475 516.946 17
7 -3 -1 33528.7 535.064 24
7 -3 -1 33693.1 552.28 23
7 3 -1 33840.8 534.814 13
7 -3 -1 33363.6 531.183 13
7 3 0 71581.1 808.508 19
7 -3 0 71282.8 758.925 11
7 -3 0 70120.2 789.777 18
7 -3 0 71706.3 754.092 17
7 3 0 71915.4 772.891 17
7 -3 0 70490.1 754.925 24
7 -3 0 71419.6 800.264 23
7 3 0 68754.1 738.843 13
7 -3 0 72515.8 789.284 13
7 3 1 5880.17 234.346 19
7 -3 1 5964.96 213.648 11
7 -3 1 5943.15 233.174 18
7 -3 1 5979.14 213.809 17
7 3 1 6229.49 234.77 17
7 -3 1 6029.38 215.953 24
7 -3 1 6299.12 237.815 23
7 3 1 6040.08 209.783 13
7 -3 1 6083.8 235.012 13
7 3 2 7450.39 250.643 19
7 -3 2 7600.04 255.106 18
7 -3 2 7717.83 224.008 17
7 3 2 7801.06 257.875 17
7 -3 2 7850.63 257.616 23
7 -3 2 7670.86 257.47 13
7 3 3 866.604 85.1071 19
7 -3 3 1064.38 98.163 18
7 3 3 1003.04 95.8213 17
7 -3 3 943.711 93.0607 23
7 -3 3 1028.49 98.3389 13
7 3 4 15237.9 274.305 19
7 -3 4 15316.3 304.767 18
7 3 4 15827.7 316.242 17
7 -3 4 15619.8 308.305 23
7 -3 4 15622.7 313.82 13
7 -3 5 14003.6 248.303 18
7 3 5 14801.1 263.826 17
7 -3 5 14213.2 250.733 23
7 -3 5 14024.5 252.766 13
7 3 6 9331.01 153.517 17
7 4 -11 446.291 45.0405 20
7 -4 -11 368.825 43.9447 25
7 4 -10 9281.44 213.2 20
7 -4 -10 9099.22 227.222 16
7 -4 -10 8939.76 206.596 25
7 4 -9 4209.89 165.823 20
7 -4 -9 4226.63 176.634 16
7 -4 -9 3965.55 153.786 25
7 4 -8 7614.76 238.141 20
7 -4 -8 7338.29 238.349 17
7 -4 -8 7399.66 247.469 16
7 -4 -8 7484.62 218.11 25
7 4 -7 66587.2 724.486 20
7 -4 -7 66528.9 740.409 11
7 -4 -7 65548 737.811 17
7 -4 -7 66285.7 750.806 16
7 4 -7 66758.4 765.353 13
7 4 -6 36651.3 552.321 20
7 -4 -6 35460.8 557.742 11
7 -4 -6 35375.8 555.386 17
7 -4 -6 35238.7 555.088 16
7 -4 -6 35827.6 578.846 24
7 4 -6 36213.5 573.549 13
7 4 -5 16356.5 379.411 20
7 -4 -5 16082.3 383.562 11
7 -4 -5 15889.6 373.996 17
7 -4 -5 16155.9 372.929 16
7 -4 -5 16462.4 395.694 24
7 4 -5 16351.7 388.243 13
7 4 -4 31825.1 535.919 20
7 4 -4 30553.4 487.878 19
7 -4 -4 31256 533.758 11
7 -4 -4 31220.1 516.331 18
7 -4 -4 30771.2 516.486 17
7 -4 -4 31368.4 508.267 16
7 -4 -4 31850.4 548.152 24
7 4 -4 31318.4 529.132 13
7 4 -3 60106.6 742.822 20
7 4 -3 59620.5 705.363 19
7 -4 -3 60400.2 739.125 11
7 -4 -3 59293.4 715.067 18
7 -4 -3 59691.6 710.471 17
7 -4 -3 59940 679.048 16
7 -4 -3 60830.4 745.259 24
7 4 -3 60292.5 721.38 13
7 4 -2 35695.7 579.865 20
7 4 -2 35262 556.361 19
7 -4 -2 35198.3 558.676 11
7 -4 -2 34840.5 548.487 18
7 -4 -2 34955.4 536.65 17
7 -4 -2 34758.6 558.813 24
7 -4 -2 35712.3 562.234 23
7 4 -2 34879.8 536.684 13
7 -4 -2 35648.9 510.595 13
7 4 -1 13250.4 393.236 20
7 4 -1 13342.8 347.8 19
7 -4 -1 13370.2 339.849 11
7 -4 -1 13157.1 337.816 18
7 -4 -1 13403.3 324.064 17
7 4 -1 13371.6 310.249 17
7 -4 -1 13024.9 337.28 24
7 -4 -1 13009.8 340.696 23
7 4 -1 12561.6 310.283 13
7 -4 -1 13471.1 322.125 13
7 4 0 29436.8 513.27 19
7 -4 0 29920.2 491.17 11
7 -4 0 29730.9 499.824 18
7 -4 0 29775.9 463.053 17
7 4 0 29287.9 467.985 17
7 -4 0 29947.4 495.381 24
7 -4 0 29416.6 505.606 23
7 -4 0 29707.9 482.754 13
7 4 1 11758.4 316.277 19
7 -4 1 11604.1 291.506 11
7 -4 1 11737.2 310.297 18
7 -4 1 11789.5 268.912 17
7 4 1 12050 301.82 17
7 -4 1 11625.7 296.329 24
7 -4 1 12239.1 319.6 23
7 -4 1 11785.7 305.514 13
7 4 2 32349.5 487.057 19
7 -4 2 30873.2 432.474 11
7 -4 2 32738.2 491.816 18
7 4 2 32273.3 477.762 17
7 -4 2 30921.7 441.797 24
7 -4 2 32293.4 492.43 23
7 -4 2 32502.6 487.254 13
7 4 3 11643.3 262.759 19
7 -4 3 11901.2 276.486 18
7 4 3 12137.7 277.238 17
7 -4 3 12016.8 239.445 24
7 -4 3 11820.5 276.349 23
7 -4 3 11765.8 276.767 13
7 4 4 2442.36 98.6764 19
7 -4 4 2479.18 115.164 18
7 4 4 2442.58 115.763 17
7 -4 4 2541.14 118.263 23
7 -4 4 2527.09 117.668 13
7 -4 5 5454.11 136.226 18
7 4 5 5349.45 136.797 17
7 -4 5 5494 137.118 23
7 -4 5 5532.14 137.677 13
7 5 -10 4292.26 106.151 20
7 -5 -10 4384.01 114.421 25
7 5 -9 6512.58 166.984 20
7 -5 -9 6800.54 191.415 16
7 -5 -9 6274.12 161.377 25
7 5 -8 12607.2 260.975 20
7 -5 -8 12597 287.536 16
7 -5 -8 12293.2 241.902 25
7 5 -7 24202.9 393.69 20
7 -5 -7 23899.1 394.883 11
7 -5 -7 23256.7 405.422 17
7 -5 -7 23677.4 414.236 16
7 5 -6 1508.66 110.955 20
7 -5 -6 1660.05 117.685 11
7 -5 -6 1605.15 120.111 17
7 -5 -6 1537.41 117.891 16
7 5 -5 29188.3 470.112 20
7 -5 -5 29183.5 480.562 11
7 -5 -5 28762.7 474.902 17
7 -5 -5 28228.9 469.119 16
7 -5 -5 28809.4 494.414 24
7 5 -5 28234.4 474.439 13
7 5 -4 1262.86 110.497 20
7 5 -4 1208.09 97.7407 19
7 -5 -4 1126.22 106.178 11
7 -5 -4 1106 102.516 17
7 -5 -4 1234.03 104.498 16
7 -5 -4 1263.03 115.533 24
7 5 -4 1193.6 105.56 13
7 5 -3 3619.44 184.857 20
7 5 -3 3360.11 164.795 19
7 -5 -3 3438.78 175.57 11
7 -5 -3 3374.43 161.279 18
7 -5 -3 3680.79 169.535 17
7 -5 -3 3500.59 161.941 16
7 -5 -3 3466.2 177.793 24
7 5 -3 3340.85 161.153 13
7 5 -2 5565.58 276.43 20
7 5 -2 5673.35 216.39 19
7 -5 -2 5552.02 218.951 11
7 -5 -2 5482.59 203.875 18
7 -5 -2 5392.26 197.65 17
7 -5 -2 5731.7 192.815 16
7 -5 -2 5609.5 220.513 24
7 5 -2 5489.04 193.854 13
7 5 -1 4517.48 194.873 19
7 -5 -1 4369.43 190.225 11
7 -5 -1 4225.34 179.159 18
7 -5 -1 4342.54 166.959 17
7 -5 -1 4621.66 195.042 24
7 -5 -1 4183.75 183.427 23
7 -5 -1 4355.48 165.582 13
7 5 0 12478.1 313.595 19
7 -5 0 11997.8 296.902 11
7 -5 0 12180 292.388 18
7 5 0 12089.4 262.059 17
7 -5 0 12173.7 300.443 24
7 -5 0 12212.6 299.465 23
7 -5 0 11973.1 273.954 13
7 5 1 60611.9 651.39 19
7 -5 1 59436.5 612.959 11
7 -5 1 59607.4 619.566 18
7 5 1 59165.9 576.2 17
7 -5 1 59703.5 622.167 24
7 -5 1 60953.1 637.347 23
7 -5 1 60467 600.034 13
7 5 2 6043.02 191.668 19
7 -5 2 5695.49 172.52 11
7 -5 2 5689.92 182.737 18
7 5 2 5883.23 177.102 17
7 -5 2 5686.44 177.409 24
7 -5 2 5875.21 188.74 23
7 -5 2 5966.34 183.926 13
7 5 3 5923.61 161.097 19
7 -5 3 5796.38 141.679 11
7 -5 3 5867.41 167.617 18
7 5 3 6018.4 162.904 17
7 -5 3 5545.38 147.373 24
7 -5 3 5829.7 169.251 23
7 -5 3 6148.25 169.663 13
7 -5 4 17771.6 241.335 18
7 5 4 17543.3 234.451 17
7 -5 4 17592.5 242.381 23
7 -5 4 17520.9 240.975 13
7 -6 -9 8450.64 159.463 16
7 -6 -8 13889.6 245.529 16
7 6 -7 40373.2 393.671 20
7 -6 -7 40293.2 459.16 16
7 6 -6 12500.1 246.393 20
7 -6 -6 12414 252.477 11
7 -6 -6 12309.2 270.188 16
7 6 -5 14205.3 286.789 20
7 -6 -5 13892.3 288.088 11
7 -6 -5 13385.2 280.536 17
7 -6 -5 13286.8 286.635 16
7 -6 -5 13857.4 298.178 24
7 6 -4 13981 313.946 20
7 -6 -4 14090.5 302.502 11
7 6 -4 13792.7 266.192 19
7 -6 -4 13691.3 282.777 17
7 -6 -4 13861.2 290.933 16
7 -6 -4 13916.5 308.276 24
7 6 -3 15225.4 300.106 19
7 -6 -3 15293.7 318.306 11
7 -6 -3 14806.1 285.863 17
7 -6 -3 14713.2 289.889 16
7 -6 -3 15683.1 331.811 24
7 6 -2 5578.1 190.351 19
7 -6 -2 5674.21 196.824 11
7 -6 -2 5662.01 165.773 17
7 -6 -2 5654.03 168.354 16
7 -6 -2 5445.23 194.558 24
7 6 -1 17913 336.221 19
7 -6 -1 18125.6 336.038 11
7 -6 -1 17130.6 287.438 18
7 -6 -1 17650.9 336.598 24
7 6 0 3583.98 149.855 19
7 -6 0 3565.96 145.288 11
7 -6 0 3421.17 127.586 18
7 -6 0 3507.67 146.17 24
7 6 1 1599.43 95.9598 19
7 -6 1 1601.82 91.5158 11
7 -6 1 1633.74 86.0284 18
7 -6 1 1664.16 95.1038 24
7 -6 1 1645.38 78.6267 13
7 6 2 5386.25 146.926 19
7 -6 2 5376.71 139.438 11
7 -6 2 5250.98 132.683 18
7 -6 2 5341.66 142.052 24
7 -6 2 5307.4 125.088 13
7 -7 -7 10032 164.882 16
7 -7 -6 1455.08 74.7483 16
7 -7 -5 7521.66 148.604 11
7 -7 -5 7639.54 170.97 16
7 -7 -4 1895.07 86.4443 11
7 -7 -4 1846.52 86.2519 16
7 -7 -3 3809.34 127.068 11
7 7 -3 3965.65 117.608 19
7 -7 -3 3804.66 115.034 16
7 -7 -3 3834.9 130.806 24
7 7 -2 1967.17 88.8657 19
7 -7 -2 1980.31 93.5515 11
7 -7 -2 1938.62 94.8508 24
7 7 -1 6983.15 164.613 19
7 -7 -1 7191.72 167.158 11
7 -7 -1 7223.05 170.692 24
7 7 0 24369.2 283.538 19
7 -7 0 23670.1 276.375 11
7 -7 0 23379.8 279.707 24
8 0 -12 15874.2 213.334 20
8 0 -11 62.2458 33.6515 20
8 0 -10 105038 776.721 20
8 0 -9 73.1632 49.5742 20
8 0 -8 122925 939.224 20
8 0 -8 124409 930.297 13
8 0 -7 -11.145 41.4394 20
8 0 -7 182.313 57.743 13
8 0 -6 9943.4 274.764 20
8 0 -6 9070.98 267.232 17
8 0 -6 9409.25 289.188 13
8 0 -5 53.5792 44.1792 20
8 0 -5 158.647 52.7288 17
8 0 -5 107.277 55.5537 13
8 0 -4 60497.8 711.814 19
8 0 -4 61705 714.101 17
8 0 -4 62165.2 748.357 13
8 0 -3 61.2744 47.6471 19
8 0 -3 38.7496 47.3345 17
8 0 -3 56.4508 52.0737 13
8 0 -2 2809.74 166.481 19
8 0 -2 2752.48 158.115 18
8 0 -2 2874.17 164.104 17
8 0 -2 2892.67 168.157 13
8 0 -1 8.09991 44.2028 19
8 0 -1 81.1438 47.374 18
8 0 -1 301.313 68.4722 17
8 0 -1 209.868 62.8645 13
8 0 0 49709.4 660.009 19
8 0 0 50760.9 617.233 18
8 0 0 50655.1 654.242 17
8 0 0 51705.6 671.143 13
8 0 1 61.8382 52.6858 19
8 0 1 6.62158 37.9249 18
8 0 1 80.6697 54.4036 17
8 0 2 79462.6 750.747 17
8 0 2 76888.3 736.517 13
8 0 3 72.0927 38.8037 17
8 0 3 67.9656 39.9156 13
8 0 4 13491.6 236.47 17
8 0 4 12877.2 217.051 13
8 1 -12 35398.2 330.594 20
8 -1 -11 3346.38 111.274 20
8 1 -11 3296.92 129.096 20
8 1 -10 8722.2 232.254 20
8 -1 -10 8738 206.085 20
8 1 -9 26473.8 433.186 20
8 -1 -9 25075.4 377.576 20
8 -1 -8 71943.5 660.479 20
8 -1 -8 72789.1 694.712 17
8 -1 -8 73673 782.138 16
8 1 -8 73187.7 752.015 13
8 1 -7 12650.6 320.462 20
8 -1 -7 11987.6 304.388 17
8 -1 -7 12380.8 326.021 16
8 1 -7 12285.3 327.324 13
8 1 -6 132512 1033.69 20
8 -1 -6 133267 1041.61 17
8 -1 -6 130700 1038.82 16
8 1 -6 133347 1096.5 13
8 1 -5 5560.61 216.732 20
8 -1 -5 5763.46 232.113 11
8 1 -5 5521.49 207.922 19
8 -1 -5 5841.42 225.899 17
8 1 -5 5692.54 208.578 17
8 -1 -5 5678.34 213.375 16
8 1 -5 5959.91 240.835 13
8 -1 -5 5742 224.55 13
8 1 -4 8432.1 264.158 20
8 -1 -4 7940.6 265.204 11
8 1 -4 7967.15 260.107 19
8 -1 -4 8320.69 270.854 17
8 1 -4 7954.28 252.384 17
8 1 -4 8319.5 281.266 13
8 -1 -4 8087.59 267.613 13
8 1 -3 4793.74 202.458 20
8 -1 -3 4835.74 203.26 11
8 1 -3 4914.81 209.751 19
8 -1 -3 4927.55 215.05 18
8 -1 -3 4963.48 213.53 17
8 1 -3 5115.72 207.665 17
8 1 -3 4758.18 215.239 13
8 -1 -3 5043.51 214.825 13
8 1 -2 31105.8 504.554 20
8 -1 -2 31698.2 490.572 11
8 1 -2 31870.8 534.581 19
8 -1 -2 32325.4 536.535 18
8 -1 -2 32504.5 530.032 17
8 1 -2 32427.2 520.977 17
8 1 -2 32049.9 540.388 13
8 -1 -2 32072.1 536.707 13
8 1 -1 7036.48 255.258 19
8 -1 -1 6937.45 246.562 18
8 -1 -1 6789.99 245.168 17
8 1 -1 6965.53 248.152 17
8 -1 -1 6689.68 232.938 23
8 1 -1 6868.47 250.144 13
8 -1 -1 6779.9 249.352 13
8 1 0 36927.2 567.281 19
8 -1 0 37830.8 552.689 18
8 -1 0 37147.9 555.021 17
8 1 0 37058.3 560.226 17
8 -1 0 36177.3 521.387 23
8 1 0 37389 562.37 13
8 -1 0 37486.1 571.99 13
8 1 1 268.214 63.8214 19
8 -1 1 379.535 64.766 18
8 -1 1 322.952 65.6063 17
8 1 1 308.661 68.2601 17
8 -1 1 297.431 58.0789 23
8 1 1 302.21 61.4608 13
8 -1 1 321.303 72.0689 13
8 1 2 10290.3 269.255 19
8 -1 2 10134.5 256.51 18
8 -1 2 10880.8 270.962 17
8 1 2 10789.2 282.119 17
8 -1 2 10503.3 248.199 23
8 1 2 10258.4 258.983 13
8 -1 2 10605.7 279.667 13
8 -1 3 8685.67 207.247 18
8 -1 3 8948.29 217.968 17
8 1 3 9317.81 238.953 17
8 1 3 8837.17 206.996 13
8 -1 3 9199.65 236.03 13
8 -1 4 7885.67 161.763 17
8 -1 4 7985.02 182.578 13
8 2 -12 121.997 26.4088 20
8 2 -11 486.198 53.882 20
8 2 -10 13272.1 278.839 20
8 2 -9 15848.4 332.207 20
8 -2 -9 15581.5 295.892 17
8 -2 -9 15289.8 338.483 16
8 2 -8 4847.06 197.429 20
8 -2 -8 4835.18 187.87 17
8 -2 -8 5034.47 206.238 16
8 2 -8 4652.24 196.625 13
8 2 -7 14710.7 347.385 20
8 -2 -7 13964 333.035 17
8 -2 -7 14551.7 349.231 16
8 2 -7 14986.5 362.242 13
8 2 -6 3865.07 185.171 20
8 -2 -6 3453.36 183.575 11
8 -2 -6 3561.16 178.734 17
8 -2 -6 3510.81 174.119 16
8 2 -6 3516.91 185.822 13
8 2 -5 20466.1 418.865 20
8 -2 -5 20417.3 430.329 11
8 2 -5 19564.4 378.697 19
8 -2 -5 20252.3 421.313 17
8 -2 -5 19621.9 390.403 16
8 2 -5 20098 435.241 13
8 -2 -5 20465.2 392.03 13
8 2 -4 15452.8 367.448 20
8 -2 -4 15407.3 370.341 11
8 2 -4 14933 348.059 19
8 -2 -4 14845.3 364.001 17
8 2 -4 14878.9 324.889 17
8 -2 -4 14645.2 354.981 24
8 2 -4 15362.5 381.739 13
8 -2 -4 15137.9 348.771 13
8 2 -3 16299.6 379.592 20
8 -2 -3 16086.8 371.358 11
8 2 -3 15700.2 368.911 19
8 -2 -3 15911 384.575 18
8 -2 -3 16230.7 377.21 17
8 2 -3 15598.8 344.118 17
8 -2 -3 15680.8 359.052 24
8 2 -3 16201.1 387.658 13
8 -2 -3 15695.9 361.512 13
8 2 -2 46845 640.522 20
8 2 -2 46059.4 639.167 19
8 -2 -2 45518.1 601.815 11
8 -2 -2 45767.4 638.774 18
8 -2 -2 46034.3 627.239 17
8 2 -2 45453.1 598.519 17
8 -2 -2 45348.4 585.966 24
8 2 -2 46034.7 637.106 13
8 -2 -2 45488.9 620.862 13
8 2 -1 12532.6 336.548 19
8 -2 -1 12564.2 303.654 11
8 -2 -1 12497.6 331.738 18
8 -2 -1 12348.9 321.444 17
8 2 -1 12980.5 325.695 17
8 -2 -1 12791.7 328.27 23
8 2 -1 12847.2 333.025 13
8 -2 -1 12992.5 336.776 13
8 2 0 1365.91 116.975 19
8 -2 0 1287.51 113.173 18
8 -2 0 1493.09 115.746 17
8 2 0 1494.86 119.522 17
8 -2 0 1287.06 109.71 23
8 2 0 1329.95 108.698 13
8 -2 0 1401.68 117.288 13
8 2 1 6465.57 228.211 19
8 -2 1 5897.85 215.889 18
8 -2 1 6151.95 209.791 17
8 2 1 5705.08 214.564 17
8 -2 1 5841.53 208.936 23
8 2 1 5584.36 198.774 13
8 -2 1 6004.37 223.46 13
8 2 2 19106.6 355.087 19
8 -2 2 18999.1 353.419 18
8 -2 2 18865.1 329.319 17
8 2 2 19801.6 371.032 17
8 -2 2 18707.5 341.993 23
8 2 2 19438.1 321.174 13
8 -2 2 19501.1 370.424 13
8 2 3 6395.59 178.54 19
8 -2 3 6474.08 185.033 18
8 -2 3 6344.87 161.574 17
8 2 3 6624.39 197.182 17
8 -2 3 6276.64 177.049 23
8 -2 3 6506.73 195.719 13
8 -2 4 5803.44 140.564 18
8 2 4 6133.9 161.235 17
8 -2 4 5498.23 131.013 23
8 -2 4 5836.96 154.506 13
8 3 -11 9833.74 185.291 20
8 3 -10 13924.8 262.945 20
8 3 -9 894.226 82.4826 20
8 -3 -9 921.766 86.4393 16
8 -3 -8 1431.48 104.795 17
8 -3 -8 1404.19 111.387 16
8 3 -7 22805.6 422.298 20
8 -3 -7 21986.3 425.445 11
8 -3 -7 22301.2 412.995 17
8 -3 -7 22561.4 420.494 16
8 3 -7 22478.3 431.496 13
8 3 -6 12449.6 321.609 20
8 -3 -6 12411.5 331.697 11
8 -3 -6 12152.6 317.119 17
8 -3 -6 12590.4 315.559 16
8 3 -6 12198.2 330.543 13
8 3 -5 51232.4 655.894 20
8 -3 -5 49974.8 659.379 11
8 3 -5 49916.1 579.978 19
8 -3 -5 50799.9 651.371 17
8 -3 -5 49529.4 610.779 16
8 -3 -5 50113.6 661.061 24
8 3 -5 50461 670.352 13
8 3 -4 64559.7 747.427 20
8 -3 -4 64609.4 748.471 11
8 3 -4 63610.1 696.347 19
8 -3 -4 62964 731.846 17
8 -3 -4 62188.5 658.229 16
8 -3 -4 63489.2 737.184 24
8 3 -4 63878.7 751.832 13
8 -3 -4 65794.2 668.704 13
8 3 -3 5818.88 231.465 20
8 3 -3 5380.17 213.318 19
8 -3 -3 5763.35 225.481 11
8 -3 -3 5630.94 228.226 18
8 -3 -3 5398.85 218.733 17
8 3 -3 5724.83 194.685 17
8 -3 -3 5674.43 222.623 24
8 3 -3 5772.42 227.686 13
8 -3 -3 5464.32 204.817 13
8 3 -2 62082.7 747.969 20
8 3 -2 61133.5 719.384 19
8 -3 -2 60630.1 695.821 11
8 -3 -2 59729.7 716.392 18
8 -3 -2 60710.6 700.84 17
8 3 -2 58734.7 637.058 17
8 -3 -2 59637.2 685.338 24
8 3 -2 60787.5 707.373 13
8 -3 -2 60166.7 676.185 13
8 3 -1 25363 464.069 19
8 -3 -1 24667.4 426.506 11
8 -3 -1 25129 458.227 18
8 -3 -1 24951.9 435.742 17
8 3 -1 25208.7 425.63 17
8 -3 -1 24549.9 419.995 24
8 -3 -1 24374.3 446.739 23
8 3 -1 24782.5 432.268 13
8 -3 -1 25086.7 440.907 13
8 3 0 35908.4 536.391 19
8 -3 0 34011.1 466.507 11
8 -3 0 35979.5 531.316 18
8 -3 0 35803.6 495.656 17
8 3 0 36248.7 507.153 17
8 -3 0 34995.9 465.219 24
8 -3 0 35539.4 523.365 23
8 3 0 33998.3 474.163 13
8 -3 0 35527.9 517.592 13
8 3 1 72183.3 718.089 19
8 -3 1 72626 714.022 18
8 -3 1 71166 638.656 17
8 3 1 72206.7 696.879 17
8 -3 1 71361.5 699.791 23
8 -3 1 73030 716.311 13
8 3 2 4605.4 168.065 19
8 -3 2 4602.44 171.001 18
8 -3 2 4958.32 146.78 17
8 3 2 4830.18 174.301 17
8 -3 2 4429.78 165.473 23
8 -3 2 4728.98 174.886 13
8 3 3 4677.54 139.525 19
8 -3 3 4649.04 150.26 18
8 3 3 4614.21 152.641 17
8 -3 3 4589.41 146.348 23
8 -3 3 4937.07 158.541 13
8 -3 4 12959.1 196.738 18
8 3 4 13264.3 210.851 17
8 -3 4 13166.8 208.478 13
8 4 -10 10105.4 187.89 20
8 4 -9 21511.6 322.569 20
8 -4 -9 21034.4 333.195 16
8 4 -8 10110.6 245.394 20
8 -4 -8 10253 246.729 17
8 -4 -8 9890.65 249.852 16
8 4 -7 29274.1 441.813 20
8 -4 -7 28783.8 445.058 11
8 -4 -7 28355 439.429 17
8 -4 -7 28044.7 435.94 16
8 4 -6 14691.7 329.606 20
8 -4 -6 14354.8 332.212 11
8 -4 -6 14590 328.68 17
8 -4 -6 14357.8 317.419 16
8 4 -6 14497.1 335.801 13
8 4 -5 12937.4 319.291 20
8 -4 -5 12358.6 316.352 11
8 4 -5 12203.4 265.781 19
8 -4 -5 12712.5 312.76 17
8 -4 -5 12195.8 290.131 16
8 -4 -5 12493.3 319.336 24
8 4 -5 12377.3 314.5 13
8 4 -4 5654.46 219.124 20
8 -4 -4 5396.4 213.258 11
8 4 -4 5289.4 191.687 19
8 -4 -4 5342.41 206.407 17
8 -4 -4 5176.51 185.218 16
8 -4 -4 5133.36 208.387 24
8 4 -4 5248.72 206.433 13
8 4 -3 40998.6 584.901 20
8 4 -3 38941.1 535.013 19
8 -4 -3 39744.8 556.962 11
8 -4 -3 38890 545.704 18
8 -4 -3 39674.8 539.243 17
8 -4 -3 39850 560.734 24
8 4 -3 38797.5 535.521 13
8 4 -2 8676.56 328.802 20
8 4 -2 8338.21 253.811 19
8 -4 -2 8556.21 255.303 11
8 -4 -2 8298.65 254.235 18
8 -4 -2 8555.46 245.022 17
8 -4 -2 8182.57 249.461 24
8 4 -2 8324.63 240.125 13
8 -4 -2 8305.42 227.986 13
8 4 -1 27209.1 451.713 19
8 -4 -1 27033.5 429.285 11
8 -4 -1 27090.1 444.41 18
8 -4 -1 27323.8 413.398 17
8 4 -1 26636.9 387.4 17
8 -4 -1 26731.5 425.538 24
8 4 -1 26500.9 394.616 13
8 -4 -1 27118.2 412.261 13
8 4 0 8112.65 241.557 19
8 -4 0 7761.15 215.884 11
8 -4 0 7950.49 235.132 18
8 -4 0 7834.58 204.575 17
8 4 0 7918.58 213.108 17
8 -4 0 7987.58 218.846 24
8 -4 0 7975.88 235.363 23
8 -4 0 8151.61 225.939 13
8 4 1 24616.8 385.703 19
8 -4 1 25062.1 334.965 11
8 -4 1 24262.7 379.557 18
8 4 1 24627.6 360.747 17
8 -4 1 24485.7 333.55 24
8 -4 1 24622.7 382.233 23
8 -4 1 24769.6 372.024 13
8 4 2 2729.92 116.248 19
8 -4 2 2530.54 116.03 18
8 4 2 2609.08 111.762 17
8 -4 2 2490 114.599 23
8 -4 2 2645.04 116.827 13
8 4 3 6055.37 127.239 19
8 -4 3 6607.59 154.916 18
8 4 3 6703.58 151.569 17
8 -4 3 6558.27 152.693 23
8 -4 3 6554.45 154.176 13
8 5 -9 32.8465 21.2774 20
8 -5 -9 77.9487 30.0051 16
8 5 -8 9897.13 200.277 20
8 -5 -8 9844.92 212.237 16
8 5 -7 11410.3 238.519 20
8 -5 -7 11540.7 245.456 16
8 5 -6 19109.7 329.633 20
8 -5 -6 18597.3 329.075 11
8 -5 -6 18770.3 328.77 17
8 -5 -6 18245.6 317.815 16
8 5 -5 17064.6 326.746 20
8 -5 -5 16782.1 327.506 11
8 -5 -5 17116.8 323.293 17
8 -5 -5 17120.9 307.937 16
8 -5 -5 16543.9 331.631 24
8 5 -4 12486.5 304.692 20
8 -5 -4 12411.1 287.673 11
8 5 -4 12319.5 253.108 19
8 -5 -4 12233.9 272.296 17
8 -5 -4 12434.9 252.884 16
8 -5 -4 12194.8 288.533 24
8 5 -4 12298.8 269.777 13
8 5 -3 125.38 42.5068 19
8 -5 -3 180.158 52.695 11
8 -5 -3 161.342 44.918 17
8 -5 -3 97.3123 49.0009 24
8 5 -3 110.651 40.0149 13
8 5 -2 1943.54 113.894 19
8 -5 -2 1880.37 113.861 11
8 -5 -2 1800.27 106.128 18
8 -5 -2 1814.68 100.115 17
8 -5 -2 1929.19 115.983 24
8 5 -2 1803.05 94.3559 13
8 5 -1 9624.53 240.057 19
8 -5 -1 9340.54 229.694 11
8 -5 -1 9239.26 224.618 18
8 -5 -1 8831.03 192.729 17
8 -5 -1 9229.57 230.312 24
8 -5 -1 9012.8 190.678 13
8 5 0 4836.74 163.995 19
8 -5 0 4696.88 150.492 11
8 -5 0 4847.27 157.073 18
8 -5 0 4699.83 151.751 24
8 -5 0 4700.36 138.427 13
8 5 1 16442.2 268.626 19
8 -5 1 15770.1 228.834 11
8 -5 1 16095.4 258.612 18
8 5 1 15755.9 215.968 17
8 -5 1 15307.5 230.835 24
8 -5 1 16170.1 238.764 13
8 5 2 18424.7 230.725 19
8 -5 2 18234.2 238.259 18
8 -5 2 18303.6 222.202 13
8 -6 -7 3223.67 102.322 16
8 -6 -6 44472.4 394.166 16
8 -6 -5 1837.45 90.2723 11
8 -6 -5 1833.07 83.6149 16
8 -6 -4 2914.85 117.302 11
8 6 -4 2876.91 94.0321 19
8 -6 -4 2788.78 97.2439 16
8 -6 -4 2817.07 117.917 24
8 -6 -3 1300.16 81.3828 11
8 6 -3 1324.52 73.443 19
8 -6 -3 1197.51 79.9796 24
8 6 -2 13264.5 229.547 19
8 -6 -2 13019.9 235.693 11
8 -6 -2 12760.5 236.136 24
8 6 -1 1032.78 67.1504 19
8 -6 -1 1096.13 68.1013 11
8 -6 -1 996.884 66.8129 24
8 6 0 35114.1 335.198 19
8 -6 0 34860.7 310.852 11
8 -6 0 34586.5 312.5 24
9 0 -10 78.1912 29.6733 20
9 0 -9 16460 268.998 20
9 0 -8 296.01 49.4817 20
9 0 -8 107.709 39.1472 13
9 0 -7 48118.5 515.012 20
9 0 -7 49230.2 566.135 13
9 0 -6 6.84088 37.8931 17
9 0 -6 98.0654 47.7632 13
9 0 -5 19094.1 367.345 17
9 0 -5 19353.1 393.263 13
9 0 -4 9.50881 42.0165 17
9 0 -4 48.186 49.3813 13
9 0 -3 81782.6 782.8 17
9 0 -3 84100.8 826.948 13
9 0 -2 5.14348 43.8338 17
9 0 -2 153.673 61.3323 13
9 0 -1 44407.3 562.574 17
9 0 -1 43775.9 574.618 13
9 0 0 10.8002 42.0391 17
9 0 0 86.8063 46.4842 13
9 0 1 2680.31 128.245 17
9 0 1 2820.98 131.109 13
9 0 2 25.4617 29.0848 17
9 0 2 8.99062 25.9554 13
9 0 3 9997.88 166.933 17
9 1 -11 20325.9 227.217 20
9 1 -10 7265.31 170.226 20
9 1 -9 10288.4 227.124 20
9 1 -8 4821.04 169.693 20
9 -1 -8 4877.02 155.188 17
9 1 -8 4742.93 169.418 13
9 1 -7 22256.1 373.908 20
9 -1 -7 22028.1 364.888 17
9 1 -7 22319.6 394.83 13
9 1 -6 24482.2 400.484 20
9 -1 -6 24764.7 411.199 17
9 1 -6 25314.2 440.709 13
9 -1 -6 24466.9 402.845 13
9 1 -5 31777.4 461.698 20
9 -1 -5 32729.9 490.998 17
9 1 -5 31078.7 442.529 17
9 1 -5 33166.9 519.215 13
9 -1 -5 32418.4 484.906 13
9 1 -4 1206.49 97.9396 20
9 1 -4 1302.52 104.343 19
9 -1 -4 1364.42 111.613 17
9 1 -4 1397.46 103.416 17
9 1 -4 1362.63 116.009 13
9 -1 -4 1375.57 110.479 13
9 1 -3 18279.2 364.193 20
9 1 -3 18509.1 376.527 19
9 -1 -3 19061.7 383.378 17
9 1 -3 18887.4 365.096 17
9 1 -3 19031.6 396.506 13
9 -1 -3 19305.9 387 13
9 1 -2 2394.56 141.602 19
9 -1 -2 2459.8 143.552 17
9 1 -2 2271.41 131.961 17
9 1 -2 2367.53 143.241 13
9 -1 -2 2415.65 143.806 13
9 1 -1 11023.1 290.232 19
9 -1 -1 10243.9 263.83 18
9 -1 -1 10739.6 276.076 17
9 1 -1 10838.4 276.386 17
9 1 -1 11090.7 287.22 13
9 -1 -1 10837.7 285.374 13
9 1 0 5749.78 199.554 19
9 -1 0 5636.67 183.45 18
9 -1 0 5919.81 196.317 17
9 1 0 5860.58 196.579 17
9 1 0 6022.29 198.64 13
9 -1 0 6071.75 204.591 13
9 -1 1 11941.1 235.257 18
9 -1 1 12496.6 257.077 17
9 1 1 12699.8 268.325 17
9 1 1 11921.1 248.473 13
9 -1 1 12547.5 268.851 13
9 -1 2 23317.2 300.534 17
9 1 2 24255.8 326.695 17
9 -1 2 23768.7 320.592 13
9 1 3 9599.99 167.514 17
9 -1 3 8647.59 149.326 13
9 2 -11 13197.4 176.196 20
9 2 -10 677.014 56.3038 20
9 2 -9 2155.98 107.011 20
9 2 -8 8833.3 225.917 20
9 -2 -8 8455.03 209.239 17
9 2 -8 8819.62 229.849 13
9 2 -7 32300.2 451.176 20
9 -2 -7 32061.7 443.22 17
9 -2 -7 32329.5 438.858 16
9 2 -7 32092.4 467.723 13
9 2 -6 6509.56 213.13 20
9 -2 -6 6608.62 215.419 17
9 -2 -6 6601.75 198.56 16
9 2 -6 6745.46 227.995 13
9 2 -5 3864.78 169.384 20
9 -2 -5 3770.79 171.701 11
9 2 -5 3759.91 154.281 19
9 -2 -5 3819.29 171.567 17
9 2 -5 3939.59 180.507 13
9 -2 -5 3699.23 154.441 13
9 2 -4 3225.93 157.025 20
9 -2 -4 3188.21 155.001 11
9 2 -4 3131.03 150.427 19
9 -2 -4 3445.43 165.611 17
9 2 -4 3162.35 137.91 17
9 2 -4 3367.18 170.085 13
9 -2 -4 3269.55 151.591 13
9 2 -3 8597.22 274.241 20
9 -2 -3 8178.4 234.404 11
9 2 -3 8258.98 245.983 19
9 -2 -3 8711.34 256.048 17
9 2 -3 8345.79 228.199 17
9 2 -3 8986.13 266.573 13
9 -2 -3 8396.24 243.411 13
9 -2 -2 813.52 75.7414 11
9 2 -2 831.373 87.5957 19
9 -2 -2 783.081 86.8205 18
9 -2 -2 909.952 89.4321 17
9 2 -2 763.692 78.5148 17
9 2 -2 837.665 86.8634 13
9 -2 -2 719.955 80.8002 13
9 2 -1 9900.33 264.274 19
9 -2 -1 10106.7 261.595 18
9 -2 -1 10040.1 256.187 17
9 2 -1 9904.11 248.895 17
9 2 -1 9970.37 256.467 13
9 -2 -1 9997.09 261.718 13
9 2 0 3591.87 153.339 19
9 -2 0 3463.76 147.079 18
9 -2 0 3448.64 142.093 17
9 2 0 3726.4 151.09 17
9 2 0 3539.89 142.094 13
9 -2 0 3616.84 153.611 13
9 2 1 2946.35 125.733 19
9 -2 1 2763.83 118.448 18
9 -2 1 2829.97 114.377 17
9 2 1 2958.23 126.258 17
9 2 1 2785.57 107.237 13
9 -2 1 2898.12 128.337 13
9 -2 2 829.846 56.8468 18
9 -2 2 736.595 49.2701 17
9 2 2 834.432 63.355 17
9 -2 2 804.422 62.7914 13
9 2 3 13984.9 185.175 17
9 3 -10 2435.12 88.0069 20
9 3 -9 10034.9 205.676 20
9 3 -8 12303.8 252.159 20
9 -3 -8 12033.3 237.523 17
9 -3 -8 11967.3 243.529 16
9 3 -7 2711.41 131.231 20
9 -3 -7 2519.62 123.53 17
9 -3 -7 2576.21 119.85 16
9 3 -7 2689.33 134.529 13
9 3 -6 14205.7 302.559 20
9 -3 -6 13455.7 290.493 17
9 -3 -6 13255.5 264.105 16
9 3 -6 13653.9 306.075 13
9 3 -5 1263.09 99.9852 20
9 -3 -5 1201.69 99.9336 11
9 3 -5 1210.64 83.4633 19
9 -3 -5 1281.95 99.8962 17
9 3 -5 1220.08 101.3 13
9 3 -4 34379.8 487.244 20
9 -3 -4 33967.2 474.49 11
9 3 -4 33812 446.275 19
9 -3 -4 34541.3 478.191 17
9 3 -4 34219.9 486.121 13
9 -3 -4 33890 414.728 13
9 3 -3 16464.5 362.857 20
9 -3 -3 15974.5 316.288 11
9 3 -3 16209.1 321.242 19
9 -3 -3 16161 324.902 17
9 3 -3 16290.2 273.023 17
9 3 -3 16075.5 327.771 13
9 -3 -3 16052.5 298.669 13
9 -3 -2 18324.9 319.662 11
9 3 -2 18423 344.489 19
9 -3 -2 18553.6 349.083 18
9 -3 -2 18630.1 337.003 17
9 3 -2 18600.9 303.872 17
9 3 -2 18519.7 333.955 13
9 -3 -2 18558.2 324.159 13
9 -3 -1 18464.2 283.578 11
9 3 -1 18882.2 341.337 19
9 -3 -1 17884.8 329.15 18
9 -3 -1 18406 314.677 17
9 3 -1 18989.4 305.738 17
9 3 -1 18534.6 307.045 13
9 -3 -1 18781.3 322.455 13
9 3 0 20817.4 332.986 19
9 -3 0 20413.1 327.065 18
9 -3 0 20334.6 295.441 17
9 3 0 20412.5 305.734 17
9 -3 0 20971.3 324.735 13
9 3 1 16609.8 263.838 19
9 -3 1 16363.3 261.88 18
9 3 1 16477.5 255.706 17
9 -3 1 16723.4 265.268 13
9 3 2 11290 182.425 17
9 -3 2 11461.3 187.341 13
9 4 -9 1957.76 78.5553 20
9 4 -8 6605.7 162.156 20
9 -4 -8 6517.43 156.574 16
9 4 -7 9568.09 213.445 20
9 -4 -7 9260.68 205.941 17
9 -4 -7 9451.31 195.506 16
9 4 -6 2615.99 123.103 20
9 -4 -6 2436.4 116.82 17
9 -4 -6 2447.01 102.007 16
9 4 -6 2487.79 120.108 13
9 4 -5 25385.2 383.904 20
9 -4 -5 25616.4 381.275 11
9 -4 -5 25463.8 371.691 17
9 4 -5 25743.5 376.305 13
9 4 -4 1536.8 164.827 20
9 -4 -4 1702.22 103.586 11
9 4 -4 1646.44 91.318 19
9 -4 -4 1587.49 97.6743 17
9 4 -4 1538.04 96.95 13
9 -4 -3 12076.3 253.976 11
9 4 -3 12284.7 250.066 19
9 -4 -3 12442.6 252.676 17
9 4 -3 12212.8 246.246 13
9 -4 -2 6742.64 180.527 11
9 4 -2 6694.23 187.988 19
9 -4 -2 6663.68 175.938 17
9 -4 -2 6597.74 171.935 24
9 4 -2 6712.52 168.334 13
9 -4 -2 6600.15 159.047 13
9 -4 -1 4488.92 130.251 11
9 4 -1 4538.38 150.003 19
9 -4 -1 4145.75 125.24 17
9 4 -1 4202.23 113.857 17
9 -4 -1 4448.11 130.109 13
9 4 0 31776.3 356.401 19
9 -4 0 30646.5 350.038 18
9 4 0 28886.8 279.208 17
9 -4 0 29725.8 316.321 13
9 4 1 18048.4 224.424 19
9 -4 1 17556.7 211.512 13
9 5 -7 22484.1 259.156 20
9 -5 -5 969.267 67.7406 11
9 -5 -5 925.085 62.3451 17
9 -5 -4 14914.3 245.179 11
9 5 -4 14397 192.449 19
9 -5 -4 14289.7 225.898 17
9 5 -3 28719.3 305.093 19
9 -5 -3 28107.2 292.712 17
9 -5 -2 3731.07 113.277 11
9 5 -2 4166.4 119.227 19
9 5 -1 21088 250.255 19
10 0 -7 106.39 31.4599 13
10 0 -6 25750.1 318.607 17
10 0 -6 24943.4 350.211 13
10 0 -5 47.0127 30.4061 17
10 0 -5 162.816 42.5881 13
10 0 -4 48569.6 494.441 17
10 0 -4 49249.9 528.63 13
10 0 -3 136.791 41.8201 17
10 0 -3 27.3577 40.6314 13
10 0 -2 38826.3 433.792 17
10 0 -2 38391.4 448.269 13
10 0 -1 37.8555 31.4791 17
10 0 -1 19.6324 30.1585 13
10 0 0 25834.3 301.508 17
10 0 0 25138.6 298.761 13
10 1 -8 3124.12 96.3064 20
10 1 -7 3381.28 110.394 20
10 -1 -7 3479.28 112.559 17
10 1 -7 3628.31 128.689 13
10 1 -6 716.955 78.2282 20
10 -1 -6 861.824 66.2534 17
10 1 -6 717.909 69.1621 13
10 -1 -6 660.26 57.6966 13
10 -1 -5 2114.38 106.615 17
10 1 -5 2120.3 92.4112 17
10 1 -5 2143.52 114.405 13
10 -1 -5 1968.15 101.25 13
10 -1 -4 30721.8 400.2 17
10 1 -4 30853.9 367.869 17
10 1 -4 31473.4 422.344 13
10 -1 -4 31570.1 403.776 13
10 -1 -3 5158.46 166.104 17
10 1 -3 5124.05 155.096 17
10 1 -3 5198.77 172.736 13
10 -1 -3 5215.26 168.124 13
10 -1 -2 31306.6 387.22 17
10 1 -2 31340.9 371.929 17
10 1 -2 31048.3 394.039 13
10 -1 -2 31865.8 396.045 13
10 -1 -1 3149.24 117.164 17
10 1 -1 3189.59 116.261 17
10 1 -1 3097.18 116.169 13
10 -1 -1 3200.51 121.752 13
10 -1 0 4055.11 116.529 17
10 1 0 4106.06 118.489 17
10 1 0 3745.11 108.323 13
10 -1 0 3902.95 119.699 13
10 2 -8 9814.54 173.644 20
10 2 -7 6934.64 161.432 20
10 -2 -7 7033.67 159.863 17
10 2 -7 7048.84 173.265 13
10 2 -6 16048.2 258.788 20
10 -2 -6 15783.1 261.126 17
10 2 -6 15843.7 277.311 13
10 -2 -5 9092.93 207.575 17
10 2 -5 9295.38 220.101 13
10 -2 -4 4349.39 147.191 17
10 2 -4 4357.19 152 13
10 -2 -3 2039.04 101.721 17
10 2 -3 1944 86.6694 17
10 2 -3 1961.16 101.777 13
10 -2 -3 1980.24 95.9242 13
10 -2 -2 5620.88 155.79 17
10 2 -2 5602.84 141.295 17
10 2 -2 5408.71 152.979 13
10 -2 -2 5804.06 155.926 13
10 -2 -1 4510.12 126.96 17
10 2 -1 4574.65 122.776 17
10 2 -1 4273.16 119.025 13
10 -2 -1 4630.62 132.309 13
10 2 0 20239.9 225.113 17
10 -2 0 20750.7 241.777 13
10 3 -8 7768.36 142.998 20
10 3 -7 17714.6 243.598 20
10 -3 -7 17988.2 229.744 17
10 3 -6 6745.99 178.1 20
10 -3 -6 7000.56 160.476 17
10 3 -6 7103.28 168.343 13
10 -3 -5 11671.8 215.502 17
10 3 -5 11748.1 220.568 13
10 -3 -4 1167.88 72.4828 17
10 3 -4 1215.48 74.1598 13
10 -3 -3 19664.9 268.157 17
10 3 -3 20144.2 266.277 13
10 -3 -2 1092.14 62.1158 17
10 3 -2 1121.42 57.8063 13
10 -3 -2 1001.77 54.2752 13
10 -4 -5 18307.2 215.68 17
10 -4 -4 1928.28 70.3444 17
