#------------------------------------------------------------------------------
#$Date: 2020-07-04 04:53:23 +0300 (Sat, 04 Jul 2020) $
#$Revision: 253731 $
#$URL: file:///home/coder/svn-repositories/cod/cif/4/03/85/4038509.cif $
#------------------------------------------------------------------------------
#
# This file is available in the Crystallography Open Database (COD),
# http://www.crystallography.net/
#
# All data on this site have been placed in the public domain by the
# contributors.
#
data_4038509
loop_
_publ_author_name
'Gao, Shenghua'
'Gao, Xuezhi'
'Wu, Zenong'
'Li, Houyong'
'Yang, Zhezhou'
'Zhang, Fuli'
_publ_section_title
;
 Process for (<i>S</i>)-Ketamine and (<i>S</i>)-Norketamine via Resolution
 Combined with Racemization.
;
_journal_issue                   13
_journal_name_full               'The Journal of organic chemistry'
_journal_page_first              8656
_journal_page_last               8664
_journal_paper_doi               10.1021/acs.joc.0c01090
_journal_volume                  85
_journal_year                    2020
_chemical_absolute_configuration ad
_chemical_formula_sum            'C13 H17 Cl2 N O'
_chemical_formula_weight         274.17
_space_group_crystal_system      monoclinic
_space_group_IT_number           4
_space_group_name_Hall           'P 2yb'
_space_group_name_H-M_alt        'P 1 21 1'
_atom_sites_solution_hydrogens   geom
_audit_creation_method           SHELXL-2013
_cell_angle_alpha                90
_cell_angle_beta                 101.2450(10)
_cell_angle_gamma                90
_cell_formula_units_Z            2
_cell_length_a                   8.5612(3)
_cell_length_b                   7.1443(2)
_cell_length_c                   11.3370(3)
_cell_measurement_reflns_used    9894
_cell_measurement_temperature    293(2)
_cell_measurement_theta_max      54.993
_cell_measurement_theta_min      4.851
_cell_volume                     680.10(4)
_computing_cell_refinement       'Bruker SAINT'
_computing_data_collection       'Bruker APEX2'
_computing_data_reduction        'Bruker SAINT'
_computing_molecular_graphics    'Bruker SHELXTL'
_computing_publication_material  'Bruker SHELXTL'
_computing_structure_refinement  'SHELXL-2013 (Sheldrick, 2013)'
_computing_structure_solution    'SHELXS-97 (Sheldrick 2008)'
_diffrn_ambient_temperature      293(2)
_diffrn_measured_fraction_theta_full 0.979
_diffrn_measured_fraction_theta_max 0.981
_diffrn_measurement_device_type  'Bruker APEX-II CCD'
_diffrn_measurement_method       '\f and \w scans'
_diffrn_radiation_type           MoK\a
_diffrn_radiation_wavelength     0.71073
_diffrn_reflns_av_R_equivalents  0.0411
_diffrn_reflns_av_unetI/netI     0.0303
_diffrn_reflns_Laue_measured_fraction_full 0.979
_diffrn_reflns_Laue_measured_fraction_max 0.981
_diffrn_reflns_limit_h_max       10
_diffrn_reflns_limit_h_min       -10
_diffrn_reflns_limit_k_max       8
_diffrn_reflns_limit_k_min       -8
_diffrn_reflns_limit_l_max       13
_diffrn_reflns_limit_l_min       -13
_diffrn_reflns_number            12148
_diffrn_reflns_point_group_measured_fraction_full 0.982
_diffrn_reflns_point_group_measured_fraction_max 0.983
_diffrn_reflns_theta_full        25.242
_diffrn_reflns_theta_max         25.994
_diffrn_reflns_theta_min         2.426
_exptl_absorpt_coefficient_mu    0.461
_exptl_absorpt_correction_T_max  0.7456
_exptl_absorpt_correction_T_min  0.6127
_exptl_absorpt_correction_type   multi-scan
_exptl_absorpt_process_details   sadabs
_exptl_crystal_colour            colorless
_exptl_crystal_density_diffrn    1.339
_exptl_crystal_description       prismatic
_exptl_crystal_F_000             288
_exptl_crystal_size_max          0.180
_exptl_crystal_size_mid          0.150
_exptl_crystal_size_min          0.120
_refine_diff_density_max         0.185
_refine_diff_density_min         -0.253
_refine_diff_density_rms         0.028
_refine_ls_abs_structure_details
; 
 Flack x determined using 1159 quotients [(I+)-(I-)]/[(I+)+(I-)] 
 (Parsons and Flack (2004), Acta Cryst. A60, s61). 
;
_refine_ls_abs_structure_Flack   -0.01(3)
_refine_ls_extinction_method     none
_refine_ls_goodness_of_fit_ref   1.049
_refine_ls_hydrogen_treatment    constr
_refine_ls_matrix_type           full
_refine_ls_number_parameters     155
_refine_ls_number_reflns         2620
_refine_ls_number_restraints     1
_refine_ls_restrained_S_all      1.049
_refine_ls_R_factor_all          0.0285
_refine_ls_R_factor_gt           0.0279
_refine_ls_shift/su_max          0.000
_refine_ls_shift/su_mean         0.000
_refine_ls_structure_factor_coef Fsqd
_refine_ls_weighting_details
'w=1/[\s^2^(Fo^2^)+(0.0308P)^2^+0.1337P] where P=(Fo^2^+2Fc^2^)/3'
_refine_ls_weighting_scheme      calc
_refine_ls_wR_factor_gt          0.0709
_refine_ls_wR_factor_ref         0.0714
_reflns_Friedel_coverage         0.850
_reflns_Friedel_fraction_full    0.986
_reflns_Friedel_fraction_max     0.987
_reflns_number_gt                2569
_reflns_number_total             2620
_reflns_threshold_expression     'I > 2\s(I)'
_cod_data_source_file            jo0c01090_si_003.cif
_cod_data_source_block           mo_d8v19704_0m
_cod_depositor_comments
'Adding full bibliography for 4038508--4038509.cif.'
_cod_original_sg_symbol_H-M      'P 21'
_cod_database_code               4038509
_shelx_space_group_comment
; 
The symmetry employed for this shelxl refinement is uniquely defined 
by the following loop, which should always be used as a source of 
symmetry information in preference to the above space-group names. 
They are only intended as comments. 
;
_shelx_estimated_absorpt_t_min   0.922
_shelx_estimated_absorpt_t_max   0.947
_shelxl_version_number           2013-4
_shelx_res_file
; 
TITL mo_d8v19704_0m_a.res in P2(1) 
CELL 0.71073 8.5612 7.1443 11.337 90 101.245 90 
ZERR 2 0.0003 0.0002 0.0003 0 0.001 0 
LATT -1 
SYMM -X,0.5+Y,-Z 
SFAC C  H  Cl N  O 
UNIT 26 34 4 2 2 
OMIT 1  -1   1 
OMIT -1 -1 -1 
OMIT 0 0 1 
OMIT  -3.00  52.00 
L.S. 10 
ACTA 
BOND $H 
FMAP 2 
PLAN 20 
LIST 4 
HTAB C13 Cl2_$2 
HTAB C8 Cl2_$2 
EQIV $2 -x+2, y+1/2, -z+1 
HTAB C8 Cl2 
HTAB N1 Cl2_$1 
EQIV $1 -x+2, y-1/2, -z+1 
HTAB N1 Cl2 
conf 
htab 
mpla c1 > c6 
wpdb -1 
size 0.18 0.15 0.12 
HTAB N1 Cl2 
HTAB N1 Cl2_$1 
HTAB C8 Cl2 
HTAB C8 Cl2_$2 
HTAB C13 Cl2_$2 
TEMP 20.24 
WGHT    0.030800    0.133700 
FVAR       2.39954 
CL1   3    0.666999    0.192202    0.126320    11.00000    0.08931    0.04190 = 
         0.06188   -0.01530    0.00847   -0.00818 
O1    5    0.630086    0.287607    0.398409    11.00000    0.06398    0.05091 = 
         0.05278    0.01315    0.01573   -0.01257 
N1    4    0.892935    0.454766    0.375955    11.00000    0.03644    0.03246 = 
         0.03019    0.00160    0.00471   -0.00114 
AFIX  23 
H1A   2    0.887178    0.463240    0.460394    11.00000   -1.20000 
H1B   2    0.895589    0.322907    0.356047    11.00000   -1.20000 
AFIX   0 
C1    1    0.732837    0.410695    0.088908    11.00000    0.04236    0.04529 = 
         0.03522   -0.00460    0.00296    0.00523 
C2    1    0.758321    0.431781   -0.027277    11.00000    0.06245    0.08126 = 
         0.03169   -0.01252    0.00580    0.01380 
AFIX  43 
H2    2    0.740516    0.331599   -0.080591    11.00000   -1.20000 
AFIX   0 
C3    1    0.809711    0.599832   -0.063994    11.00000    0.06481    0.10523 = 
         0.03339    0.01169    0.01690    0.01851 
AFIX  43 
H3    2    0.826940    0.613772   -0.142013    11.00000   -1.20000 
AFIX   0 
C4    1    0.835436    0.746405    0.014399    11.00000    0.06173    0.07745 = 
         0.04553    0.02327    0.01820   -0.00106 
AFIX  43 
H4    2    0.869978    0.860571   -0.010493    11.00000   -1.20000 
AFIX   0 
C5    1    0.810493    0.726523    0.130886    11.00000    0.04731    0.04801 = 
         0.03773    0.00405    0.00942   -0.00556 
AFIX  43 
H5    2    0.828716    0.827891    0.183234    11.00000   -1.20000 
AFIX   0 
C6    1    0.758494    0.557109    0.171186    11.00000    0.03174    0.03989 = 
         0.02765    0.00025    0.00474   -0.00094 
C7    1    0.742082    0.538411    0.302999    11.00000    0.03338    0.03302 = 
         0.02741   -0.00008    0.00432   -0.00217 
C8    1    0.709007    0.726553    0.361329    11.00000    0.04006    0.03641 = 
         0.03228   -0.00413    0.00547   -0.00201 
AFIX  23 
H8A   2    0.715686    0.707902    0.446917    11.00000   -1.20000 
H8B   2    0.790286    0.816368    0.351092    11.00000   -1.20000 
AFIX   0 
C9    1    0.545630    0.805960    0.306697    11.00000    0.04462    0.04328 = 
         0.04482   -0.00123    0.00905    0.00441 
AFIX  23 
H9A   2    0.540810    0.831882    0.222077    11.00000   -1.20000 
H9B   2    0.529984    0.922991    0.346193    11.00000   -1.20000 
AFIX   0 
C10   1    0.413129    0.669798    0.320115    11.00000    0.03947    0.06155 = 
         0.04516    0.00193    0.01223    0.00269 
AFIX  23 
H10A  2    0.409244    0.655807    0.404599    11.00000   -1.20000 
H10B  2    0.311529    0.719530    0.279159    11.00000   -1.20000 
AFIX   0 
C11   1    0.441028    0.479397    0.267368    11.00000    0.03740    0.06119 = 
         0.04894   -0.00256    0.00909   -0.01179 
AFIX  23 
H11A  2    0.361303    0.390919    0.282554    11.00000   -1.20000 
H11B  2    0.433150    0.489708    0.181095    11.00000   -1.20000 
AFIX   0 
C12   1    0.604932    0.412580    0.325767    11.00000    0.04291    0.04094 = 
         0.03340   -0.00437    0.01061   -0.01016 
C13   1    1.045518    0.541128    0.359510    11.00000    0.03468    0.04676 = 
         0.05015    0.00423    0.00714   -0.00225 
AFIX 137 
H13A  2    1.064316    0.511038    0.280933    11.00000   -1.50000 
H13B  2    1.131294    0.493489    0.419396    11.00000   -1.50000 
H13C  2    1.039325    0.674542    0.367597    11.00000   -1.50000 
AFIX   0 
CL2   3    0.947202    0.560875    0.647315    11.00000    0.05590    0.04032 = 
         0.03336    0.00145    0.00581    0.00028 
HKLF 4 
  
REM  mo_d8v19704_0m_a.res in P2(1) 
REM R1 =  0.0279 for    2569 Fo > 4sig(Fo)  and  0.0285 for all    2620 data 
REM    155 parameters refined using      1 restraints 
  
END 
  
WGHT      0.0295      0.1403 
  
REM Instructions for potential hydrogen bonds 
HTAB N1 Cl2 
HTAB N1 Cl2_$1 
HTAB C8 Cl2 
HTAB C8 Cl2_$2 
HTAB C13 Cl2_$2 
  
REM Highest difference peak  0.185,  deepest hole -0.253,  1-sigma level  0.028 
Q1    1   0.7540  0.5439  0.2361  11.00000  0.05    0.18 
Q2    1   0.7622  0.2129  0.1169  11.00000  0.05    0.18 
Q3    1   0.8359  0.7001  0.0833  11.00000  0.05    0.13 
Q4    1   0.7653  0.4611  0.1426  11.00000  0.05    0.13 
Q5    1   0.6715  0.4728  0.3079  11.00000  0.05    0.13 
Q6    1   0.7572  0.9258  0.1257  11.00000  0.05    0.12 
Q7    1   0.7113  0.6356  0.3272  11.00000  0.05    0.11 
Q8    1   0.7629  0.6508  0.1475  11.00000  0.05    0.11 
Q9    1   0.7987  0.6368  0.1531  11.00000  0.05    0.11 
Q10   1   0.6161  0.2720  0.0772  11.00000  0.05    0.11 
Q11   1   0.6424  0.3991  0.3992  11.00000  0.05    0.11 
Q12   1   0.4810  0.7260  0.3216  11.00000  0.05    0.10 
Q13   1   0.9300  0.4217  0.6450  11.00000  0.05    0.10 
Q14   1   0.8218  0.4964  0.3370  11.00000  0.05    0.10 
Q15   1   0.9032  0.6773  0.6481  11.00000  0.05    0.10 
Q16   1   0.6766  0.0936  0.0576  11.00000  0.05    0.10 
Q17   1   0.7278  0.5341 -0.2049  11.00000  0.05    0.10 
Q18   1   0.6275  0.7599  0.3258  11.00000  0.05    0.10 
Q19   1   0.8149  0.8014  0.3878  11.00000  0.05    0.09 
Q20   1   0.5291  0.4272  0.2944  11.00000  0.05    0.09 
;
_shelx_res_checksum              31403
_shelx_hkl_file
; 
   1   0   0    3.60    0.60 
  -1   0   0    4.40    0.80 
  -2   0   0 2978.90  159.58 
   3   0   0 2532.05  132.79 
  -3   0   0 2534.75  133.59 
  -3   0   0 2386.96  132.99 
  -3   0   0 2527.25  132.79 
   3   0   0 2551.44  133.59 
   3   0   0 2368.76  132.99 
  -3   0   0 2350.66  132.99 
   4   0   0    0.80    1.10 
  -4   0   0    1.10    0.90 
  -4   0   0    3.00    1.40 
   4   0   0    0.70    1.20 
  -4   0   0    1.30    1.00 
  -5   0   0   25.70    5.00 
   5   0   0   30.30    4.40 
   5   0   0   21.40    3.90 
  -5   0   0   24.40    4.00 
  -5   0   0   23.80    4.00 
   5   0   0   27.60    3.80 
  -5   0   0   33.30    4.20 
  -6   0   0  702.93   44.80 
  -6   0   0  816.92   46.80 
  -6   0   0  742.63   44.70 
   6   0   0  772.72   45.00 
  -6   0   0  753.02   45.10 
   6   0   0  795.02   44.70 
  -7   0   0   49.00    7.90 
  -7   0   0   48.60    6.50 
  -7   0   0   55.59    6.70 
   8   0   0  154.78   13.50 
  -8   0   0  164.88   14.30 
  -8   0   0  156.98   23.00 
  -8   0   0  159.28   13.80 
   9   0   0  109.69   10.90 
  -9   0   0   90.49   10.50 
  -9   0   0  108.89   11.30 
  -9   0   0   95.59   12.50 
  10   0   0  195.88   16.70 
 -10   0   0  153.48   15.50 
 -10   0   0  170.08   18.80 
 -10   0   0  197.18   17.00 
   0  -1   0    0.00    0.30 
   0  -1   0    1.00    0.20 
   0  -1   0    0.80    0.20 
   0   1   0    0.10    0.40 
   0   1   0    0.00    0.30 
   3  -1   0 2575.54  142.09 
   3  -1   0 2420.56  143.09 
  -3  -1   0 2648.24  143.59 
  -3  -1   0 2667.13  142.19 
  -3  -1   0 2573.34  142.09 
  -3  -1   0 2558.54  142.69 
  -3   1   0 2518.25  141.79 
   3   1   0 2803.82  142.29 
   3   1   0 2608.94  141.99 
  -3   1   0 2662.43  141.59 
  -3   1   0 2720.33  142.69 
   3   1   0 2812.22  142.89 
  -3   1   0 2665.43  141.99 
   4  -1   0 3249.07  176.88 
  -4  -1   0 3188.88  176.98 
   4  -1   0 3124.89  178.28 
  -4  -1   0 3195.18  177.08 
  -4  -1   0 3163.88  177.58 
  -4  -1   0 3273.77  178.78 
   4  -1   0 3045.40  176.68 
   4   1   0 3626.54  177.88 
  -4   1   0 3441.56  176.38 
  -4   1   0 3264.37  176.88 
   4   1   0 3209.98  176.78 
   4   1   0 3582.34  176.98 
  -4   1   0 3228.08  176.68 
   5  -1   0 2281.17  125.79 
  -5  -1   0 2082.49  128.69 
  -5  -1   0 2185.18  127.69 
   5  -1   0 2188.08  125.59 
   5  -1   0 2170.28  127.49 
  -5  -1   0 2257.77  125.99 
  -5  -1   0 2302.57  126.09 
  -5   1   0 2067.59  126.89 
   5   1   0 2323.27  125.79 
   5   1   0 2622.54  126.99 
  -5   1   0 2367.36  124.99 
  -5   1   0 2473.15  126.59 
   5   1   0 2533.55  125.69 
  -6  -1   0  529.85   33.70 
   6  -1   0  527.45   32.90 
  -6  -1   0  547.15   35.40 
  -6  -1   0  523.65   33.00 
   6  -1   0  545.05   33.00 
  -6  -1   0  554.84   33.30 
  -6   1   0  566.44   33.80 
   6   1   0  513.75   32.60 
  -6   1   0  532.55   33.10 
  -6   1   0  539.15   32.10 
  -6   1   0  523.65   32.70 
  -7  -1   0  996.20   59.59 
  -7  -1   0 1040.70   62.09 
  -7  -1   0 1030.40   59.19 
   7  -1   0  967.80   58.39 
  -7  -1   0 1020.70   59.19 
  -7   1   0 1081.69   58.19 
   7   1   0  857.21   57.79 
  -7   1   0  906.81   58.19 
  -7   1   0 1120.19   60.49 
   8  -1   0   60.99    7.80 
  -8  -1   0   70.09   12.30 
  -8  -1   0   59.19    9.10 
  -8  -1   0   50.49    7.70 
   8   1   0   82.79    8.40 
  -8   1   0   78.29    8.20 
  -8   1   0   65.69    7.70 
  -8   1   0   69.59    9.40 
  -9  -1   0   58.59    9.00 
   9  -1   0   47.50    7.80 
  -9  -1   0   45.30    8.60 
  -9  -1   0   56.29   10.00 
  -9   1   0   59.49    9.50 
  -9   1   0   62.19    9.50 
   9   1   0   61.79    9.30 
  -9   1   0   52.89    7.50 
  10  -1   0   92.39   10.70 
 -10  -1   0   76.59   10.40 
 -10  -1   0   89.99   12.80 
 -10  -1   0   71.19   10.70 
  10   1   0   82.99   10.30 
 -10   1   0   82.99   10.50 
 -10   1   0   79.19   12.40 
 -10   1   0   74.89    9.60 
   0  -2   0 3334.17  176.08 
   0  -2   0 3349.26  176.88 
   0   2   0 3189.58  176.58 
   0   2   0 3142.49  175.78 
   0   2   0 3264.17  175.88 
  -2  -2   0 3343.87  182.48 
   2  -2   0 3109.29  180.78 
   2  -2   0 3502.35  179.38 
  -2  -2   0 3535.05  179.78 
   2  -2   0 2847.62  181.48 
  -2  -2   0 3321.37  181.78 
  -2   2   0 3498.85  183.38 
  -2   2   0 3372.16  179.18 
   2   2   0 3426.66  181.38 
   2   2   0 3321.87  179.48 
  -2   2   0 3443.66  180.78 
  -2   2   0 3516.25  179.08 
   2   2   0 3431.16  181.98 
  -2   2   0 3253.67  181.78 
   3  -2   0 2118.69  106.99 
  -3  -2   0 1925.61  109.79 
  -3  -2   0 1998.10  107.19 
   3  -2   0 1755.22  107.59 
  -3  -2   0 1940.91  108.99 
   3  -2   0 1656.93  108.79 
  -3  -2   0 1957.00  106.99 
   3   2   0 1978.90  108.89 
  -3   2   0 1982.00  108.79 
  -3   2   0 1959.40  106.59 
  -3   2   0 2092.89  106.59 
  -3   2   0 2073.49  107.49 
   3   2   0 2130.79  108.49 
   3   2   0 2026.50  106.99 
  -4  -2   0 2241.58  123.29 
  -4  -2   0 2162.28  125.99 
   4  -2   0 2234.88  122.99 
   4  -2   0 1948.51  123.39 
  -4  -2   0 2279.67  123.29 
  -4   2   0 2324.37  123.29 
   4   2   0 2376.26  124.89 
  -4   2   0 2268.17  124.59 
   4   2   0 2430.96  124.09 
   4   2   0 2269.07  122.99 
  -4   2   0 2344.97  122.99 
  -4   2   0 2252.47  122.69 
   5  -2   0   35.50    5.80 
   5  -2   0   39.40    4.60 
  -5  -2   0   37.70    4.70 
   5  -2   0   28.00    4.30 
  -5  -2   0   41.80    5.00 
  -5  -2   0   27.10    6.20 
  -5  -2   0   32.10    5.30 
   5   2   0   40.20    5.30 
   5   2   0   31.40    4.30 
  -5   2   0   32.20    4.90 
   5   2   0   30.60    4.50 
  -5   2   0   34.20    4.20 
  -5   2   0   36.50    5.10 
  -5   2   0   29.00    3.90 
  -6  -2   0 2522.15  146.19 
  -6  -2   0 2535.05  149.69 
  -6  -2   0 2516.35  147.89 
   6  -2   0 2779.42  146.29 
  -6  -2   0 2668.13  146.49 
  -6   2   0 2868.51  147.29 
  -6   2   0 2661.83  145.69 
   6   2   0 2677.33  145.99 
  -6   2   0 2725.03  145.09 
   7  -2   0  145.79   12.70 
  -7  -2   0  156.68   13.10 
  -7  -2   0  149.49   15.90 
  -7  -2   0  165.58   13.50 
  -7  -2   0  154.98   14.40 
  -7   2   0  157.78   13.70 
   7   2   0  127.49   12.00 
  -7   2   0  152.18   12.40 
  -7   2   0  150.28   12.00 
  -8  -2   0  297.07   25.90 
   8  -2   0  346.07   24.00 
  -8  -2   0  319.87   23.80 
  -8  -2   0  320.27   27.40 
  -8  -2   0  321.77   24.10 
  -8   2   0  352.36   25.20 
  -8   2   0  358.46   23.20 
  -8   2   0  341.47   23.60 
   8   2   0  357.46   23.80 
  -9  -2   0   50.29   10.80 
  -9  -2   0   42.50    8.20 
  -9  -2   0   39.20    8.40 
   9  -2   0   48.40    7.70 
  -9   2   0   45.70    7.20 
  -9   2   0   64.19    9.30 
   9   2   0   40.60    7.70 
 -10  -2   0  142.39   18.30 
 -10  -2   0  145.89   14.80 
 -10  -2   0  117.29   15.10 
  10  -2   0  125.49   13.30 
 -10   2   0  142.29   13.70 
  10   2   0  156.48   14.60 
   0  -3   0    1.10    0.60 
   0  -3   0   -0.50    0.70 
   0  -3   0    0.80    0.60 
   0  -3   0    0.90    1.70 
   0   3   0    1.10    1.40 
   0   3   0   -0.50    0.90 
   0   3   0   -0.10    1.00 
  -1  -3   0 2509.45  124.49 
  -1  -3   0 2368.56  129.39 
  -1  -3   0 2321.67  128.19 
   1  -3   0 2537.85  124.29 
   1  -3   0 2215.98  127.29 
   1  -3   0 2424.46  129.49 
  -1  -3   0 2463.05  124.59 
   1   3   0 2199.48  127.49 
  -1   3   0 2239.18  127.29 
  -1   3   0 2135.09  128.09 
   1   3   0 2421.46  123.69 
  -1   3   0 2185.98  127.59 
   1   3   0 2137.89  128.19 
  -1   3   0 2261.47  129.19 
  -2  -3   0  451.95   30.50 
  -2  -3   0  480.85   27.70 
   2  -3   0  497.15   27.30 
   2  -3   0  426.16   29.40 
  -2  -3   0  463.75   27.40 
  -2  -3   0  491.85   31.90 
   2   3   0  513.75   31.30 
  -2   3   0  486.55   26.30 
   2   3   0  467.95   30.00 
  -2   3   0  477.55   31.00 
  -2   3   0  485.55   32.10 
  -2   3   0  511.45   26.30 
   2   3   0  510.35   27.50 
  -2   3   0  493.75   29.80 
  -3  -3   0  432.86   30.00 
  -3  -3   0  490.65   27.60 
  -3  -3   0  459.35   31.30 
   3  -3   0  402.66   28.70 
   3  -3   0  474.75   27.10 
  -3   3   0  475.75   30.50 
  -3   3   0  477.05   26.40 
   3   3   0  488.35   30.50 
   3   3   0  497.55   35.40 
  -3   3   0  460.35   26.50 
  -3   3   0  471.35   40.80 
  -3   3   0  477.45   28.80 
   3   3   0  471.45   27.20 
  -4  -3   0 1535.45   85.79 
  -4  -3   0 1496.25   85.59 
  -4  -3   0 1460.55   89.69 
   4  -3   0 1575.04   85.39 
  -4  -3   0 1458.85   88.59 
  -4   3   0 1573.14   86.39 
  -4   3   0 1549.84   84.59 
   4   3   0 1623.04   88.59 
   4   3   0 1617.84   87.49 
   4   3   0 1580.94   85.49 
  -4   3   0 1635.44   92.09 
  -4   3   0 1475.25   84.69 
  -4   3   0 1566.74   88.29 
  -5  -3   0  128.99   12.50 
   5  -3   0  143.29   10.50 
  -5  -3   0  134.99   10.90 
  -5  -3   0  130.69   13.50 
   5  -3   0  115.39   11.00 
  -5  -3   0  121.19   10.40 
   5   3   0  136.89   10.40 
  -5   3   0  139.49   10.70 
  -5   3   0  120.89    9.60 
  -5   3   0  130.59   11.90 
  -6  -3   0  556.94   41.30 
  -6  -3   0  627.54   39.30 
  -6  -3   0  610.34   43.40 
  -6  -3   0  640.04   39.30 
   6  -3   0  646.74   38.90 
  -6   3   0  692.13   41.00 
   6   3   0  681.63   39.10 
  -6   3   0  684.03   38.60 
  -6   3   0  648.84   38.20 
  -7  -3   0  109.29   11.40 
   7  -3   0  111.19   10.80 
  -7  -3   0  136.69   11.80 
  -7  -3   0  107.29   12.90 
  -7  -3   0  124.89   14.60 
  -7   3   0  135.39   11.00 
   7   3   0  134.89   11.40 
  -7   3   0  141.49   11.10 
  -7   3   0  133.69   19.20 
  -8  -3   0  113.59   11.40 
   8  -3   0   94.49   10.50 
  -8  -3   0  102.79   11.00 
  -8  -3   0  102.89   13.50 
  -8  -3   0   84.89   12.00 
   8   3   0  100.19   10.40 
  -8   3   0  137.49   13.00 
  -8   3   0  124.09   10.60 
  -8   3   0  122.69   10.80 
  -9  -3   0   68.89   12.00 
   9  -3   0   70.29    8.50 
  -9  -3   0   40.00   12.70 
  -9  -3   0   47.80   10.30 
  -9   3   0   71.69   10.00 
   9   3   0   84.89    8.90 
  -9   3   0   57.69    7.80 
  10  -3   0   16.90    5.70 
 -10  -3   0   22.80   10.90 
 -10  -3   0   22.20    6.60 
 -10   3   0   30.40    6.70 
 -10   3   0   27.20    7.90 
   0  -4   0 2097.59  116.79 
   0  -4   0 2200.48  111.89 
   0  -4   0 2081.19  118.09 
   0  -4   0 2169.68  111.59 
   0   4   0 1973.90  116.19 
   0   4   0 2057.39  116.29 
   0   4   0 1916.61  117.29 
   1  -4   0 2888.71  141.19 
   1  -4   0 2641.44  152.18 
   1  -4   0 2849.81  141.39 
  -1  -4   0 2571.94  144.39 
  -1  -4   0 2870.31  141.39 
  -1  -4   0 2708.53  147.99 
  -1  -4   0 2272.67  150.28 
  -1   4   0 2408.36  149.29 
   1   4   0 2669.33  145.69 
  -1   4   0 2704.43  145.49 
  -1   4   0 2189.18  157.88 
   1   4   0 2558.04  149.69 
   1   4   0 2651.73  147.09 
  -1   4   0 2652.53  145.99 
   2  -4   0 2144.49  107.29 
   2  -4   0 1672.53  113.39 
  -2  -4   0 1815.22  115.09 
  -2  -4   0 2043.50  107.69 
  -2  -4   0 1985.00  112.69 
  -2  -4   0 2065.09  107.39 
   2   4   0 2098.79  106.69 
  -2   4   0 1997.30  114.19 
   2   4   0 1973.00  112.59 
  -2   4   0 1985.10  112.79 
   2   4   0 1968.30  111.39 
  -3  -4   0   26.10    6.00 
  -3  -4   0   39.10    4.10 
   3  -4   0   32.70    5.30 
  -3  -4   0   42.60    7.00 
  -3  -4   0   34.00    3.80 
   3  -4   0   34.80    3.70 
   3   4   0   37.40    6.00 
   3   4   0   29.30    3.50 
  -3   4   0   34.80    5.50 
  -3   4   0   31.80    6.90 
  -3   4   0   31.20    5.00 
  -3   4   0   29.00    7.30 
  -4  -4   0  832.92   55.49 
  -4  -4   0  934.91   50.49 
   4  -4   0  902.71   49.70 
   4  -4   0  730.03   51.69 
  -4  -4   0  877.01   54.69 
  -4   4   0  929.11   51.99 
  -4   4   0  910.21   48.20 
   4   4   0  856.41   49.70 
  -4   4   0  890.01   54.09 
  -5  -4   0  183.38   17.30 
  -5  -4   0  207.68   14.80 
  -5  -4   0  173.88   18.00 
  -5  -4   0  193.18   14.40 
   5  -4   0  200.08   14.10 
  -5   4   0  209.08   17.20 
  -5   4   0  202.78   12.90 
   5   4   0  194.98   14.20 
  -5   4   0  192.68   14.90 
  -6  -4   0  212.28   16.10 
  -6  -4   0  216.68   20.70 
  -6  -4   0  187.58   18.70 
  -6  -4   0  219.58   16.30 
   6  -4   0  216.58   15.80 
  -6   4   0  228.98   18.40 
  -6   4   0  199.18   15.80 
   6   4   0  223.48   15.90 
  -6   4   0  212.38   14.60 
  -7  -4   0  189.08   16.30 
  -7  -4   0  198.78   16.80 
   7  -4   0  211.28   16.30 
  -7  -4   0  188.38   20.70 
  -7  -4   0  216.58   20.00 
   7   4   0  213.78   16.40 
  -7   4   0  233.48   18.70 
  -7   4   0  215.48   16.30 
  -7   4   0  222.48   15.30 
  -8  -4   0   35.80    7.20 
  -8  -4   0   34.80    8.50 
  -8  -4   0   37.00   10.50 
  -8  -4   0   45.20    7.50 
   8  -4   0   33.80    6.50 
  -8   4   0   46.70    7.90 
   8   4   0   34.80    6.40 
  -8   4   0   35.90    6.50 
  -8   4   0   34.50    6.00 
   9  -4   0  127.49   12.60 
  -9  -4   0   95.09   14.20 
  -9  -4   0   97.09   12.10 
  -9  -4   0   97.99   16.10 
  -9   4   0  143.89   22.10 
  -9   4   0  138.29   12.40 
   0  -5   0    2.60    1.10 
   0  -5   0    2.70    2.50 
   0  -5   0    1.60    2.60 
   0  -5   0    1.70    1.00 
   0   5   0    1.10    1.90 
  -1  -5   0 1626.74   96.59 
   1  -5   0 1649.73   96.59 
  -1  -5   0 1642.94   88.49 
  -1  -5   0 1620.14   94.99 
   1  -5   0 1689.43   88.39 
  -1  -5   0 1720.23   88.79 
   1  -5   0 1581.24   88.59 
  -1   5   0 1478.95   94.69 
  -1   5   0 1613.14   93.69 
   1   5   0 1610.14   94.59 
  -2  -5   0  483.55   35.10 
  -2  -5   0  476.45   27.80 
   2  -5   0  474.05   28.10 
   2  -5   0  481.45   27.50 
  -2  -5   0  487.45   28.20 
  -2  -5   0  471.45   33.50 
   2  -5   0  498.85   35.30 
  -2   5   0  457.95   33.60 
  -2   5   0  457.65   31.90 
  -3  -5   0  210.08   21.10 
  -3  -5   0  212.88   20.00 
  -3  -5   0  230.48   16.10 
  -3  -5   0  235.88   15.70 
   3  -5   0  238.98   15.40 
  -3   5   0  275.27   21.40 
   3   5   0  263.77   14.80 
  -3   5   0  264.87   19.30 
  -4  -5   0  166.28   17.80 
  -4  -5   0  175.38   17.10 
  -4  -5   0  171.98   12.60 
  -4  -5   0  178.08   13.10 
   4  -5   0  178.38   12.40 
  -4   5   0  187.78   17.10 
  -4   5   0  166.08   14.60 
   4   5   0  163.88   11.90 
   5  -5   0  501.25   30.30 
  -5  -5   0  498.25   31.00 
  -5  -5   0  440.06   35.10 
  -5  -5   0  478.35   37.30 
  -5   5   0  519.25   35.60 
  -5   5   0  512.05   32.40 
   5   5   0  477.15   30.00 
  -6  -5   0   55.19    6.90 
   6  -5   0   62.89    6.80 
  -6  -5   0   37.40    9.40 
  -6  -5   0   65.09    7.60 
  -6  -5   0   46.40   11.20 
  -6   5   0   60.89    9.10 
   6   5   0   56.89    6.50 
  -6   5   0   48.40    5.90 
  -6   5   0   59.79    7.40 
  -7  -5   0  170.88   14.50 
  -7  -5   0  133.99   13.60 
  -7  -5   0  156.88   17.50 
  -7  -5   0  158.18   18.70 
   7  -5   0  154.18   13.40 
  -7   5   0  145.49   12.20 
  -7   5   0  175.28   14.10 
   7   5   0  146.79   16.30 
  -7   5   0  179.58   17.00 
  -8  -5   0   45.40    7.90 
  -8  -5   0   39.40   11.30 
  -8  -5   0   46.40   10.80 
   8  -5   0   41.40    7.40 
  -8   5   0   47.50    9.80 
  -8   5   0   56.39    7.30 
  -9  -5   0   -2.90    4.60 
  -9  -5   0    0.10    5.40 
  -9  -5   0    8.90    3.60 
   9  -5   0    1.60    3.40 
  -9   5   0   -0.10    3.40 
  -9   5   0    2.60    3.20 
   0  -6   0 1656.53   90.19 
   0  -6   0 1629.94   90.19 
   0  -6   0 1693.43  100.29 
   0   6   0 1694.03   97.49 
   0   6   0 1570.64   98.19 
  -1  -6   0  776.12   43.50 
  -1  -6   0  732.63   51.99 
  -1  -6   0  762.02   50.59 
  -1  -6   0  780.12   43.10 
   1  -6   0  759.02   43.20 
   1  -6   0  805.62   52.79 
   1  -6   0  777.22   43.00 
   1   6   0  766.32   50.19 
  -1   6   0  726.93   48.90 
  -1   6   0  712.53   50.49 
   2  -6   0  166.78   12.10 
  -2  -6   0  158.88   11.70 
  -2  -6   0  165.38   17.20 
  -2  -6   0  186.18   19.50 
   2  -6   0  189.98   19.30 
  -2  -6   0  184.08   12.60 
   2  -6   0  169.58   11.60 
  -2   6   0  170.48   17.60 
  -2   6   0  174.28   16.40 
   2   6   0  197.18   18.10 
   3  -6   0  916.61   49.70 
  -3  -6   0  864.21   59.59 
   3  -6   0  892.11   50.69 
  -3  -6   0  878.71   50.79 
  -3  -6   0  845.72   57.39 
  -3  -6   0  888.11   50.09 
  -3   6   0  842.42   54.59 
  -3   6   0  879.11   57.79 
   4  -6   0  313.97   19.40 
  -4  -6   0  295.97   25.80 
  -4  -6   0  291.57   26.80 
  -4  -6   0  309.97   19.80 
  -4  -6   0  294.07   20.20 
  -4   6   0  278.67   22.50 
  -4   6   0  274.77   25.10 
  -5  -6   0   14.50    7.10 
  -5  -6   0   13.90    3.70 
   5  -6   0   26.90    4.30 
  -5  -6   0   17.90    6.50 
  -5  -6   0   20.50    4.50 
   5   6   0   23.80    3.70 
  -5   6   0   20.10    6.90 
  -6  -6   0   39.20   11.40 
  -6  -6   0   42.20    7.50 
   6  -6   0   55.79    6.60 
  -6  -6   0   34.70    9.10 
   6   6   0   53.89    6.10 
  -6   6   0   62.59    9.80 
  -6   6   0   36.70    7.50 
  -7  -6   0   57.29   12.60 
  -7  -6   0   47.20    8.10 
   7  -6   0   62.59    7.80 
  -7  -6   0   53.69   12.90 
  -7   6   0   71.29   11.00 
  -7   6   0   71.09    9.20 
  -8  -6   0   15.20    7.00 
   8  -6   0   26.10    5.70 
  -8   6   0   33.10    6.70 
  -8   6   0   21.10    7.00 
   0  -7   0    3.00    4.70 
   0  -7   0    1.90    1.60 
   0  -7   0    2.30    1.60 
   0   7   0    2.60    2.80 
   0   7   0    3.40    3.00 
   1  -7   0  379.86   23.40 
  -1  -7   0  389.26   23.40 
  -1  -7   0  405.76   33.80 
  -1  -7   0  395.96   24.20 
  -1  -7   0  383.66   31.60 
   1  -7   0  389.46   23.80 
   1  -7   0  416.46   33.70 
  -1   7   0  357.26   29.70 
   1   7   0  381.36   31.00 
  -1   7   0  359.46   31.20 
  -2  -7   0  118.99    8.70 
  -2  -7   0  110.59   15.90 
   2  -7   0   90.39    8.60 
   2  -7   0  103.19    8.30 
  -2  -7   0  105.49    9.20 
  -2  -7   0  109.79   14.10 
  -2   7   0  113.09   13.30 
   2   7   0  121.69   14.70 
  -2   7   0  105.09   14.50 
  -3  -7   0   48.00   11.60 
  -3  -7   0   50.69    5.40 
   3  -7   0   40.30    9.50 
  -3  -7   0   49.10    6.00 
  -3  -7   0   39.50    9.70 
   3  -7   0   48.40    5.10 
  -3   7   0   66.79   10.90 
  -3   7   0   50.69    9.60 
   3   7   0   47.40   10.20 
  -4  -7   0   56.99    7.10 
  -4  -7   0   64.09    6.90 
   4  -7   0   53.29    6.80 
  -4  -7   0   63.09   12.50 
   4  -7   0   68.39    6.50 
  -4  -7   0   66.49   14.00 
  -4   7   0   57.59    9.00 
  -4   7   0   57.49   12.00 
   4   7   0   55.79   12.00 
   5  -7   0  619.34   35.30 
  -5  -7   0  583.34   35.90 
  -5  -7   0  509.15   42.90 
   5  -7   0  557.24   36.40 
  -5  -7   0  552.04   45.30 
  -5  -7   0  548.95   36.30 
  -5   7   0  598.94   43.10 
  -5   7   0  577.64   39.20 
  -6  -7   0   33.60   10.80 
  -6  -7   0   43.70    7.80 
  -6   7   0   65.59   20.90 
  -6   7   0   61.49    9.30 
  -7  -7   0   29.30    9.80 
  -7  -7   0   28.40   11.00 
   7  -7   0   37.00    6.20 
  -7  -7   0   16.20    5.20 
  -7   7   0   39.30    7.30 
  -7   7   0   36.90    9.20 
   0  -8   0 1238.78   82.79 
   0  -8   0 1251.87   68.59 
   0  -8   0 1292.77   69.29 
   0   8   0 1116.99   79.49 
   0   8   0 1218.58   78.69 
  -1  -8   0   31.50    9.30 
   1  -8   0   18.80    3.80 
   1  -8   0   34.50    4.10 
  -1  -8   0   21.60    3.70 
   1  -8   0   30.70    9.60 
  -1  -8   0   22.50    4.40 
   1   8   0    8.00    5.10 
  -1   8   0   25.30    7.90 
  -1   8   0   37.80   10.20 
   1   8   0   21.40    8.10 
  -2  -8   0   30.50    8.50 
  -2  -8   0   12.50    7.60 
   2  -8   0   20.80    3.60 
  -2  -8   0   26.10    4.60 
   2  -8   0   23.90    4.40 
  -2  -8   0   23.00    4.00 
  -2   8   0   14.50    6.20 
   2   8   0   18.60    7.40 
  -2   8   0   11.90    6.30 
   3  -8   0  237.78   17.40 
   3  -8   0  260.57   16.80 
  -3  -8   0  269.57   17.70 
  -3  -8   0  278.67   28.20 
  -3  -8   0  249.58   18.40 
  -3  -8   0  236.98   25.20 
   3   8   0  266.97   26.50 
  -3   8   0  222.38   24.30 
  -3   8   0  233.08   22.40 
  -4  -8   0   29.80    5.40 
   4  -8   0   24.30    5.20 
  -4  -8   0   21.80    9.30 
   4  -8   0   25.30    4.70 
  -4  -8   0   22.30   12.50 
  -4  -8   0   17.80    7.80 
  -4   8   0   27.20    9.10 
  -4   8   0   26.00    7.60 
   4   8   0   23.90   13.40 
  -5  -8   0   23.80    5.90 
  -5  -8   0   19.30   10.20 
  -5  -8   0   11.00    7.30 
   5  -8   0   26.00    4.90 
   5  -8   0   19.00    5.90 
   5   8   0   24.00    8.30 
  -5   8   0   35.60    7.70 
  -5   8   0   32.90    9.70 
   0  -9   0   13.60    8.30 
   0  -9   0   -3.00    2.00 
   0  -9   0    1.70    2.30 
   0   9   0    2.00    5.40 
   0   9   0    2.80    4.50 
   1  -9   0  155.98   11.70 
  -1  -9   0  136.09   11.20 
  -1  -9   0  156.58   25.10 
  -1  -9   0  158.58   12.50 
   1  -9   0  151.58   11.50 
  -1   9   0  155.68   19.80 
  -1   9   0  165.18   18.70 
   1   9   0  137.49   20.00 
   1   9   0  159.38   20.50 
  -2  -9   0  268.57   19.40 
   2  -9   0  286.37   17.80 
  -2  -9   0  261.07   18.10 
   2  -9   0  271.07   18.30 
  -2  -9   0  273.97   30.80 
   2   9   0  238.08   26.30 
  -2   9   0  240.38   24.60 
  -2   9   0  268.97   27.80 
 -11   0   1   -2.30    4.10 
  11   0  -1   -2.90    3.00 
 -11   0   1    3.00    4.10 
 -10   0   1   27.90    8.10 
 -10   0   1   34.90    7.10 
  10   0  -1   45.00    7.80 
 -10   0   1   31.00    6.50 
  -9   0   1   -0.10    3.30 
   9   0  -1    3.60    2.70 
  -9   0   1   -5.30    2.40 
   8   0  -1  323.97   22.10 
  -8   0   1  282.57   32.60 
  -8   0   1  309.67   22.30 
  -8   0   1  302.97   21.80 
  -7   0   1  605.34   38.30 
  -7   0   1  589.54   35.90 
   7   0  -1  614.54   36.10 
  -7   0   1  518.75   35.80 
   6   0  -1 3317.37  186.78 
  -6   0   1 3453.25  187.18 
  -6   0   1 3380.86  187.08 
  -6   0   1 3472.25  188.78 
  -6   0   1 3438.06  186.68 
   6   0  -1 3563.14  186.28 
   5   0  -1 3054.49  159.68 
  -5   0   1 2871.11  160.48 
   5   0  -1 3109.79  161.58 
  -5   0   1 2934.01  161.68 
   5   0  -1 2852.71  160.28 
  -5   0   1 2988.10  160.08 
  -5   0   1 2859.81  160.48 
   4   0  -1 1026.40   55.49 
  -4   0   1  967.30   56.09 
  -4   0   1  951.00   56.09 
   4   0  -1 1004.50   56.09 
  -4   0   1 1014.30   55.79 
   4   0  -1 1056.19   56.99 
  -4   0   1 1007.20   57.09 
   3   0  -1 1199.48   63.49 
   3   0  -1 1180.88   64.19 
  -3   0   1 1157.58   64.69 
   3   0  -1 1241.28   64.59 
  -3   0   1 1102.09   63.89 
  -3   0   1 1151.08   63.59 
   3   0  -1 1127.69   63.89 
   0   0   1    0.10    0.20 
   4   0   1  323.77   20.60 
  -4   0  -1  339.27   20.00 
   4   0   1  312.87   19.80 
  -4   0  -1  310.77   20.10 
   4   0   1  316.17   20.10 
  -4   0  -1  333.47   20.60 
  -5   0  -1  881.01   49.60 
  -5   0  -1  807.72   48.60 
  -5   0  -1  852.91   48.50 
   5   0   1  880.61   48.80 
   5   0   1  826.92   49.50 
   5   0   1  815.02   48.30 
  -6   0  -1    4.20    3.70 
  -6   0  -1    0.50    1.80 
  -6   0  -1    2.00    1.90 
   6   0   1   -0.60    1.60 
  -6   0  -1    1.90    1.80 
   7   0   1  394.76   26.50 
  -7   0  -1  419.66   28.30 
  -7   0  -1  436.06   26.80 
  -7   0  -1  334.37   25.70 
  -8   0  -1  102.99   14.80 
  -8   0  -1  109.99   11.10 
  -8   0  -1  133.09   11.70 
   8   0   1  102.49   10.20 
  -9   0  -1  181.18   16.50 
  -9   0  -1  198.28   20.20 
   9   0   1  218.28   17.10 
  -9   0  -1  184.98   18.20 
 -10   0  -1   44.00    7.50 
 -10   0  -1   28.90    6.90 
  10   0   1   29.60    6.70 
 -10   0  -1   33.60    9.10 
 -10  -1   1    3.40    3.90 
 -10  -1   1    7.70    5.20 
 -10  -1   1    4.10    3.60 
  10  -1  -1    7.60    3.70 
  10   1  -1   -2.60    3.70 
 -10   1   1    7.00    4.00 
 -10   1   1    9.90    5.60 
  -9  -1   1   49.20    8.00 
  -9  -1   1   37.30    9.10 
   9  -1  -1   49.60    8.10 
  -9  -1   1   34.70    7.40 
  -9   1   1   50.59    7.20 
  -9   1   1   62.69    7.70 
   9   1  -1   40.40    7.30 
  -9   1   1   48.40    8.30 
  -8  -1   1  280.17   27.10 
  -8  -1   1  231.28   27.80 
  -8  -1   1  286.87   21.50 
   8  -1  -1  292.07   20.70 
  -8   1   1  310.87   23.00 
  -8   1   1  286.67   20.80 
  -8   1   1  280.47   19.90 
   8   1  -1  272.17   20.50 
  -7  -1   1  294.27   22.60 
   7  -1  -1  362.66   22.90 
  -7  -1   1  356.06   26.00 
  -7  -1   1  328.87   23.50 
  -7  -1   1  332.77   23.00 
  -7   1   1  361.16   22.10 
   7   1  -1  270.57   21.80 
  -7   1   1  324.47   22.60 
  -7   1   1  376.96   24.50 
  -6  -1   1  959.50   58.29 
  -6  -1   1  942.21   55.79 
  -6  -1   1  976.70   55.79 
   6  -1  -1  949.71   54.99 
  -6  -1   1  909.61   55.89 
   6  -1  -1  973.10   55.39 
  -6   1   1  991.00   54.49 
   6   1  -1  960.00   55.39 
   6   1  -1 1053.09   54.99 
  -6   1   1  873.41   54.99 
  -6   1   1  962.90   55.89 
  -6   1   1  975.90   56.39 
  -5  -1   1  547.55   35.40 
  -5  -1   1  533.75   33.70 
   5  -1  -1  528.05   34.60 
   5  -1  -1  547.95   33.00 
  -5  -1   1  555.54   33.50 
  -5  -1   1  569.84   33.50 
   5  -1  -1  511.15   32.60 
  -5   1   1  543.15   33.00 
  -5   1   1  580.14   32.30 
   5   1  -1  551.64   33.10 
   5   1  -1  616.84   34.30 
  -5   1   1  588.64   34.00 
   5   1  -1  578.34   32.80 
   4  -1  -1 2213.78  126.99 
   4  -1  -1 2118.29  125.09 
  -4  -1   1 2159.08  126.19 
  -4  -1   1 2316.87  125.99 
  -4  -1   1 2306.37  127.89 
  -4  -1   1 2302.67  125.89 
   4  -1  -1 2271.37  125.49 
  -4   1   1 2442.66  126.29 
  -4   1   1 2378.56  124.79 
   4   1  -1 2484.15  125.69 
   4   1  -1 2510.75  126.89 
  -4   1   1 2300.17  125.59 
   4   1  -1 2276.67  125.69 
  -4   1   1 2300.17  125.49 
  -2  -1   1 3111.49  169.68 
   2  -1  -1 3041.90  169.68 
   2  -1  -1 2943.71  168.68 
  -2  -1   1 3312.67  168.98 
   2   1  -1 3201.38  168.98 
  -2   1   1 3215.28  168.68 
  -2   1   1 3248.27  168.58 
   1  -1  -1 1290.87   70.69 
   1  -1  -1 1172.08   71.09 
  -1  -1   1 1339.37   72.29 
   1  -1  -1 1380.66   70.09 
  -1  -1   1 1289.77   71.49 
   1  -1  -1 1331.47   70.09 
  -1  -1   1 1393.46   70.89 
  -1   1   1 1271.67   70.69 
  -1   1   1 1345.07   69.99 
   1   1  -1 1277.87   71.89 
   1   1  -1 1274.97   71.39 
   1   1  -1 1341.77   70.69 
  -1   1   1 1240.38   71.09 
  -1   1   1 1346.27   69.89 
   1   1  -1 1358.26   70.79 
  -1  -1  -1   -0.10    0.10 
  -2  -1  -1 3344.57  169.38 
   2  -1   1 3032.70  169.68 
   2  -1   1 2795.22  170.18 
  -2   1  -1 3294.87  169.38 
  -2   1  -1 3136.79  170.18 
  -2   1  -1 3343.17  169.58 
  -4  -1  -1 9432.46  518.85 
  -4   1  -1 9999.00  518.95 
  -5  -1  -1  764.62   45.60 
   5  -1   1  678.23   46.20 
  -5  -1  -1  747.63   46.50 
  -5  -1  -1  760.12   45.10 
   5  -1   1  730.83   45.00 
   5  -1   1  731.63   44.80 
   5   1   1  785.62   44.90 
   5   1   1  846.92   45.70 
  -5   1  -1  849.91   45.70 
  -5   1  -1  663.53   49.70 
  -5   1  -1  836.42   44.60 
   5   1   1  841.62   44.90 
  -6  -1  -1 1276.17   71.29 
   6  -1   1 1220.48   70.99 
  -6  -1  -1 1206.78   72.99 
  -6  -1  -1 1268.07   71.89 
  -6  -1  -1 1250.17   71.19 
  -6   1  -1 1294.27   70.39 
  -6   1  -1 1197.28   70.69 
  -6   1  -1 1374.86   71.99 
   6   1   1 1197.58   70.59 
  -6   1  -1 1172.88   71.59 
  -7  -1  -1  800.52   51.59 
  -7  -1  -1  854.11   50.29 
   7  -1   1  861.31   49.50 
  -7  -1  -1  831.82   49.60 
  -7  -1  -1  860.91   49.70 
   7   1   1  680.43   48.10 
  -7   1  -1  909.71   50.59 
  -7   1  -1  850.61   48.60 
  -7   1  -1  739.13   48.60 
  -8  -1  -1  205.88   19.20 
  -8  -1  -1  202.48   23.80 
   8  -1   1  250.27   18.40 
  -8  -1  -1  233.18   18.40 
  -8   1  -1  252.57   19.90 
  -8   1  -1  231.88   17.70 
   8   1   1  248.98   18.00 
  -8   1  -1  231.58   18.10 
  -9  -1  -1    6.20    4.70 
  -9  -1  -1    5.70    3.30 
  -9  -1  -1   12.70    4.10 
   9  -1   1   12.50    4.50 
   9   1   1    8.10    3.40 
  -9   1  -1   12.40    5.60 
  -9   1  -1    7.00    3.50 
  -9   1  -1   26.20    5.50 
 -10  -1  -1   11.40    5.10 
 -10  -1  -1   10.10    5.30 
  10  -1   1   19.10    4.90 
 -10  -1  -1    6.00    5.50 
  10   1   1   11.40    4.90 
 -10   1  -1    4.40    5.30 
 -10   1  -1   14.80    5.50 
 -10  -2   1   12.10    5.10 
 -10  -2   1    3.00    4.20 
  10  -2  -1   10.00    4.60 
 -10  -2   1    5.10    5.70 
 -10   2   1   19.60    5.10 
  10   2  -1    6.20    4.90 
 -10   2   1   11.10    8.60 
  -9  -2   1   49.40   10.70 
   9  -2  -1   40.60    6.80 
  -9  -2   1   37.90    7.60 
  -9  -2   1   24.40    7.40 
   9   2  -1   44.70    7.50 
  -9   2   1   41.50    6.90 
  -9   2   1   39.30    8.80 
  -8  -2   1  267.27   24.10 
  -8  -2   1  270.97   20.60 
  -8  -2   1  232.58   21.10 
  -8  -2   1  272.17   21.30 
   8  -2  -1  272.07   20.00 
  -8   2   1  315.17   22.20 
   8   2  -1  282.77   20.10 
  -8   2   1  264.67   19.80 
  -8   2   1  278.77   19.20 
   7  -2  -1 1908.21  107.19 
  -7  -2   1 1938.41  112.39 
  -7  -2   1 2128.59  108.59 
  -7  -2   1 1744.03  108.89 
  -7  -2   1 1964.70  107.99 
  -7   2   1 1940.61  106.99 
   7   2  -1 1702.53  106.69 
  -7   2   1 2033.80  106.09 
  -6  -2   1 1163.38   71.29 
   6  -2  -1 1117.59   70.79 
  -6  -2   1 1227.78   75.09 
  -6  -2   1 1184.28   72.69 
   6  -2  -1 1286.37   70.99 
  -6  -2   1 1226.78   71.29 
  -6   2   1 1294.17   70.69 
  -6   2   1 1403.96   72.49 
  -6   2   1 1358.06   69.99 
   6   2  -1 1244.58   70.99 
  -5  -2   1 1059.99   61.89 
   5  -2  -1  959.60   61.29 
   5  -2  -1 1118.19   61.29 
  -5  -2   1 1038.70   61.49 
  -5  -2   1 1083.69   65.09 
   5  -2  -1  981.40   63.69 
  -5  -2   1 1002.20   62.99 
   5   2  -1 1128.49   61.59 
   5   2  -1 1194.78   63.49 
  -5   2   1 1165.48   62.59 
  -5   2   1 1113.49   60.99 
  -5   2   1 1067.09   60.89 
   5   2  -1 1146.39   61.89 
  -5   2   1 1141.99   60.59 
   4  -2  -1 3310.77  203.18 
   4  -2  -1 3259.27  200.98 
   4  -2  -1 3945.21  200.88 
  -4  -2   1 3658.43  204.38 
  -4  -2   1 3835.52  201.18 
  -4  -2   1 3522.75  202.78 
  -4  -2   1 3900.71  201.58 
  -4   2   1 3820.72  200.58 
  -4   2   1 3844.82  200.48 
   4   2  -1 3816.12  203.08 
   4   2  -1 3837.72  201.18 
   4   2  -1 3858.51  201.88 
  -4   2   1 3964.40  202.38 
  -4   2   1 3638.24  200.38 
   3  -2  -1 5383.06  313.97 
   3  -2  -1 5181.58  315.37 
  -3  -2   1 6184.18  313.77 
   3   2  -1 5967.00  314.97 
   3   2  -1 5948.60  313.67 
  -3   2   1 6001.00  315.17 
   3   2  -1 6208.78  316.17 
  -3   2   1 6035.90  312.87 
  -2  -2   1 2273.87  118.59 
   2  -2  -1 2087.49  118.09 
   2  -2  -1 1844.12  119.79 
   2  -2  -1 1986.70  118.99 
   2  -2  -1 2280.17  117.69 
  -2  -2   1 2166.38  121.39 
  -2   2   1 2243.58  117.19 
   2   2  -1 2286.77  121.19 
   2   2  -1 2258.37  118.49 
   2   2  -1 2181.98  119.99 
   2   2  -1 2290.87  118.39 
  -2   2   1 2255.17  117.29 
  -2   2   1 2174.68  119.99 
  -2   2   1 2207.38  118.99 
  -2   2   1 2383.96  121.89 
  -1  -2   1 1124.39   61.49 
   1  -2  -1 1260.57   62.39 
  -1  -2   1 1168.08   59.59 
   1  -2  -1  948.81   60.79 
   1   2  -1 1139.29   59.59 
   1   2  -1 1015.20   61.69 
  -1   2   1 1053.09   60.39 
  -1   2   1 1084.39   61.79 
  -1   2   1 1027.50   60.99 
   1   2  -1 1025.10   60.99 
   1   2  -1 1149.39   59.19 
   0  -2  -1 2871.81  158.28 
   0  -2  -1 2917.31  158.78 
   0  -2   1 3117.69  156.78 
   0  -2   1 2827.12  158.38 
   0  -2   1 2870.71  159.58 
   0  -2   1 3151.58  156.98 
   0   2  -1 2796.22  158.38 
   0   2  -1 3047.09  156.38 
   0   2   1 2710.43  162.28 
   0   2  -1 2779.92  159.28 
   0   2  -1 2873.91  158.68 
   0   2   1 2805.32  157.98 
   0   2  -1 3248.07  156.78 
   2  -2   1 1522.95   90.19 
  -2  -2  -1 1586.94   91.09 
  -2  -2  -1 1641.64   90.89 
   2  -2   1 1398.16   90.89 
   2  -2   1 1787.92   89.09 
  -2   2  -1 1578.14   91.19 
  -2   2  -1 1678.93   90.19 
   2   2   1 1682.43   90.29 
  -2   2  -1 1677.13   88.89 
  -2   2  -1 1736.23   92.89 
   2   2   1 1740.33   90.79 
   2   2   1 1650.13   88.59 
   3  -2   1 6848.71  406.56 
  -3   2  -1 8293.67  404.46 
  -4  -2  -1  892.71   51.29 
   4  -2   1  772.42   51.59 
   4  -2   1  894.11   51.09 
  -4  -2  -1  834.82   53.39 
  -4  -2  -1  867.21   53.49 
  -4   2  -1  861.81   52.69 
  -4   2  -1  996.60   51.49 
  -4   2  -1  842.02   59.29 
   4   2   1 1017.30   52.59 
   4   2   1  896.91   50.89 
   4   2   1 1024.10   52.09 
  -5  -2  -1  304.97   20.80 
   5  -2   1  318.77   20.70 
  -5  -2  -1  318.67   20.90 
  -5  -2  -1  301.07   22.10 
   5  -2   1  287.97   21.20 
  -5  -2  -1  290.37   22.70 
  -5   2  -1  354.26   22.00 
   5   2   1  354.36   21.70 
  -5   2  -1  311.97   20.40 
  -5   2  -1  320.47   20.30 
   5   2   1  317.47   21.90 
  -6  -2  -1  624.34   40.40 
   6  -2   1  600.44   38.30 
  -6  -2  -1  625.74   38.70 
  -6  -2  -1  600.74   41.30 
  -6  -2  -1  654.93   38.90 
  -6   2  -1  681.33   39.60 
  -6   2  -1  697.83   38.10 
   6   2   1  582.14   37.80 
  -6   2  -1  631.84   38.10 
  -7  -2  -1  789.32   53.19 
  -7  -2  -1  777.02   51.29 
  -7  -2  -1  816.12   49.99 
  -7  -2  -1  841.52   49.99 
   7  -2   1  785.72   49.60 
  -7   2  -1  918.91   50.99 
  -7   2  -1  827.52   49.50 
  -7   2  -1  892.31   49.00 
   7   2   1  782.92   49.00 
  -8  -2  -1  163.58   16.10 
  -8  -2  -1  164.78   17.50 
   8  -2   1  176.88   14.90 
  -8  -2  -1  166.68   14.90 
  -8  -2  -1  177.38   14.90 
   8   2   1  188.38   14.60 
  -8   2  -1  172.38   14.30 
  -8   2  -1  143.99   19.90 
  -8   2  -1  175.08   16.00 
   9  -2   1  141.99   13.90 
  -9  -2  -1  129.29   16.30 
  -9  -2  -1  153.98   14.80 
  -9  -2  -1  140.39   15.10 
  -9   2  -1  155.48   13.90 
  -9   2  -1  164.68   13.90 
  -9   2  -1  151.98   15.40 
   9   2   1  148.79   13.70 
 -10  -2  -1   62.19   15.40 
 -10  -2  -1   47.80   11.80 
 -10  -2  -1   42.90    9.60 
  10  -2   1   68.39    9.00 
 -10   2  -1   60.89    9.10 
 -10   2  -1   51.19   10.90 
 -10  -3   1   37.50   10.90 
 -10  -3   1   30.40    7.90 
  10  -3  -1   21.20    6.10 
 -10  -3   1   36.10    8.70 
 -10   3   1   52.89    7.60 
 -10   3   1   41.10    9.80 
  -9  -3   1  243.28   20.00 
   9  -3  -1  231.18   18.50 
  -9  -3   1  212.98   23.60 
  -9  -3   1  191.78   20.60 
  -9   3   1  255.77   21.00 
  -9   3   1  240.18   17.90 
   9   3  -1  235.78   18.70 
   8  -3  -1   82.49    8.60 
  -8  -3   1   62.09    9.90 
  -8  -3   1   78.79    9.00 
  -8  -3   1   64.39   13.00 
  -8  -3   1   81.49    9.60 
   8   3  -1   87.49    8.90 
  -8   3   1   75.19    8.00 
  -8   3   1   66.79    7.90 
  -8   3   1   79.09    9.90 
  -7  -3   1   59.49    7.60 
   7  -3  -1   71.69    7.50 
  -7  -3   1   51.39    9.40 
  -7  -3   1   58.89   10.00 
  -7  -3   1   74.29    7.90 
  -7   3   1   56.79    6.60 
  -7   3   1   70.69    7.10 
  -7   3   1   75.19   10.40 
   7   3  -1   55.79    7.10 
  -6  -3   1   79.39   10.50 
  -6  -3   1   66.99    7.40 
   6  -3  -1   77.69    7.40 
   6  -3  -1   56.79    7.70 
  -6  -3   1   62.39    7.50 
  -6  -3   1   68.99    9.10 
  -6   3   1   69.39    6.80 
  -6   3   1   69.09    8.40 
  -6   3   1   69.69    6.70 
   6   3  -1   62.99    7.00 
  -5  -3   1 1133.09   70.59 
   5  -3  -1 1215.38   65.39 
  -5  -3   1 1189.98   66.29 
  -5  -3   1 1199.18   65.99 
  -5  -3   1 1128.09   68.79 
   5  -3  -1 1047.10   66.29 
  -5   3   1 1203.48   65.49 
   5   3  -1 1220.28   65.99 
  -5   3   1 1244.28   67.89 
  -5   3   1 1021.80   67.49 
   4  -3  -1  728.63   40.10 
  -4  -3   1  667.93   43.40 
  -4  -3   1  684.03   40.90 
  -4  -3   1  642.04   44.50 
  -4  -3   1  695.83   40.50 
   4  -3  -1  590.94   41.20 
   4   3  -1  752.32   43.90 
  -4   3   1  717.73   39.40 
  -4   3   1  753.32   41.10 
  -4   3   1  727.93   42.90 
  -4   3   1  701.93   39.40 
   4   3  -1  733.93   42.60 
   4   3  -1  728.23   40.80 
   3  -3  -1  438.26   32.80 
   3  -3  -1  485.15   31.90 
  -3  -3   1  512.75   33.50 
  -3  -3   1  584.54   31.30 
   3  -3  -1  559.44   30.00 
  -3  -3   1  513.75   34.80 
   3   3  -1  526.35   32.80 
  -3   3   1  505.95   29.00 
  -3   3   1  527.85   33.20 
  -3   3   1  528.35   29.00 
  -3   3   1  560.14   35.50 
  -3   3   1  541.35   31.70 
   3   3  -1  553.44   30.90 
   3   3  -1  550.24   34.10 
   2  -3  -1 5055.49  290.87 
  -2  -3   1 5828.02  289.47 
  -2  -3   1 5262.67  292.37 
  -2  -3   1 5407.86  293.97 
  -2  -3   1 5285.77  288.97 
   2   3  -1 5388.56  292.97 
  -2   3   1 5447.56  290.87 
   2   3  -1 5233.38  291.77 
  -2   3   1 5419.36  293.67 
  -2   3   1 5365.36  291.57 
   2   3  -1 5773.52  289.37 
  -2   3   1 5384.46  292.27 
  -1  -3   1 1457.25   84.89 
   1  -3  -1 1571.84   85.79 
  -1  -3   1 1523.25   81.79 
  -1  -3   1 1587.04   81.89 
   1   3  -1 1619.44   81.09 
  -1   3   1 1459.45   85.49 
  -1   3   1 1479.35   84.09 
  -1   3   1 1427.76   84.69 
   1   3  -1 1594.14   81.59 
   1   3  -1 1415.96   85.39 
  -1   3   1 1466.35   83.89 
   1   3  -1 1446.06   84.49 
   1   3  -1 1479.65   84.79 
   0  -3  -1 4890.81  247.18 
   0  -3  -1 4652.83  251.57 
   0  -3   1 4775.62  248.88 
   0  -3   1 4588.94  253.17 
   0  -3   1 4927.11  248.68 
   0  -3   1 4762.42  252.17 
   0  -3  -1 4564.84  252.27 
   0   3   1 4509.75  251.07 
   0   3  -1 4320.77  252.67 
   0   3   1 4436.26  252.07 
   0   3  -1 4456.75  251.67 
   0   3   1 4575.54  251.37 
   0   3  -1 4622.64  251.57 
   0   3  -1 4998.50  247.68 
   1  -3   1 1857.41  102.19 
  -1  -3  -1 1876.41   96.59 
  -1  -3  -1 1789.72  100.49 
   1  -3   1 1941.61   97.49 
  -1  -3  -1 1872.11  101.49 
   1  -3   1 1726.53   99.99 
   1  -3   1 1760.82   98.29 
  -1   3  -1 1611.34  100.79 
  -1   3  -1 1775.22   99.99 
  -1   3  -1 1786.92  102.09 
   1   3   1 1752.22  100.59 
  -1   3  -1 1831.02   96.59 
   1   3   1 1795.82   99.89 
  -1   3  -1 1798.22  100.79 
   2  -3   1  725.13   47.60 
   2  -3   1  854.11   45.70 
  -2  -3  -1  803.02   48.70 
  -2  -3  -1  818.32   49.50 
  -2  -3  -1  846.92   45.30 
   2   3   1  797.72   46.50 
  -2   3  -1  816.22   50.49 
  -2   3  -1  820.82   49.50 
   2   3   1  857.21   48.80 
   2   3   1  815.12   47.90 
  -2   3  -1  821.22   47.90 
  -2   3  -1  840.72   45.20 
   3  -3   1  124.39   11.40 
  -3  -3  -1  120.09   11.80 
   3  -3   1  111.69   10.60 
  -3  -3  -1  126.39   12.00 
   3  -3   1  105.59   11.20 
   3   3   1  141.99   11.60 
  -3   3  -1  146.79   11.00 
   3   3   1  138.39    9.10 
  -3   3  -1  138.29    9.20 
  -3   3  -1  138.89   13.30 
   3   3   1  146.59   11.20 
  -3   3  -1  136.09   12.50 
   4  -3   1  127.19    9.10 
  -4  -3  -1  111.39    8.90 
  -4  -3  -1  122.49    9.10 
  -4  -3  -1  120.89   11.30 
   4  -3   1  110.59   10.10 
   4  -3   1   99.79   10.90 
  -4  -3  -1   97.39   10.70 
   4   3   1  108.59    8.40 
   4   3   1  106.49    9.70 
  -4   3  -1  108.79   10.60 
  -4   3  -1  102.79    8.30 
   4   3   1  115.69   10.60 
  -4   3  -1  110.79    9.50 
  -4   3  -1  109.39   12.70 
  -5  -3  -1  277.07   22.40 
  -5  -3  -1  301.77   20.20 
  -5  -3  -1  286.37   23.40 
   5  -3   1  319.87   20.30 
  -5  -3  -1  295.77   20.30 
  -5   3  -1  351.46   20.90 
  -5   3  -1  311.07   19.60 
  -5   3  -1  307.37   22.10 
   5   3   1  293.67   19.70 
  -6  -3  -1  294.67   21.50 
  -6  -3  -1  298.77   21.50 
  -6  -3  -1  293.37   23.90 
  -6  -3  -1  305.67   25.00 
   6  -3   1  324.07   21.70 
  -6   3  -1  342.07   23.40 
  -6   3  -1  326.67   21.00 
   6   3   1  341.97   21.40 
  -6   3  -1  321.67   21.30 
  -7  -3  -1    6.70    4.50 
   7  -3   1   -0.10    1.50 
  -7  -3  -1    0.00    2.70 
  -7  -3  -1   -2.00    2.10 
  -7  -3  -1    3.50    2.40 
  -7   3  -1    2.30    2.60 
   7   3   1    4.80    2.10 
  -7   3  -1    1.70    2.00 
  -7   3  -1    9.90    3.40 
  -8  -3  -1  382.46   30.20 
  -8  -3  -1  351.06   31.20 
  -8  -3  -1  372.26   27.40 
   8  -3   1  373.76   27.00 
  -8  -3  -1  359.36   27.80 
  -8   3  -1  404.76   26.60 
   8   3   1  403.86   26.70 
  -8   3  -1  398.36   26.40 
  -8   3  -1  441.66   29.20 
  -9  -3  -1  198.58   17.10 
  -9  -3  -1  169.78   18.60 
  -9  -3  -1  157.98   19.40 
   9  -3   1  164.38   16.10 
  -9   3  -1  207.28   16.30 
  -9   3  -1  195.28   17.90 
   9   3   1  186.98   15.80 
 -10  -3  -1   99.59   13.90 
 -10  -3  -1   81.99   19.70 
  10  -3   1  123.89   13.20 
 -10  -3  -1   97.19   13.00 
 -10   3  -1  137.39   15.70 
 -10   3  -1  152.18   13.70 
  -9  -4   1    1.80    2.80 
   9  -4  -1    5.80    3.20 
  -9  -4   1   -0.80    3.60 
  -9  -4   1    4.90    5.60 
  -9   4   1    0.90    3.20 
  -9   4   1    3.80    4.50 
  -8  -4   1  121.49   16.20 
   8  -4  -1  112.69   11.20 
  -8  -4   1  115.09   11.50 
  -8  -4   1  111.19   12.10 
  -8  -4   1   86.39   13.00 
   8   4  -1  116.59   11.60 
  -8   4   1  134.79   13.70 
  -8   4   1  117.49   11.00 
  -8   4   1  132.79   10.70 
  -7  -4   1  719.93   45.10 
  -7  -4   1  754.82   45.80 
   7  -4  -1  744.03   44.40 
  -7  -4   1  677.93   50.89 
  -7  -4   1  643.84   48.20 
  -7   4   1  827.12   47.80 
   7   4  -1  740.43   45.00 
  -7   4   1  753.42   44.00 
  -7   4   1  721.93   42.90 
   6  -4  -1  137.19   11.00 
  -6  -4   1  141.69   11.70 
  -6  -4   1  121.59   11.40 
  -6  -4   1  128.59   15.20 
  -6  -4   1  114.79   13.30 
  -6   4   1  119.49    9.60 
   6   4  -1  121.79   11.10 
  -6   4   1  156.68   13.70 
  -6   4   1  135.19   11.10 
   5  -4  -1  473.15   26.50 
  -5  -4   1  447.16   27.00 
  -5  -4   1  434.46   32.50 
   5  -4  -1  352.16   30.80 
  -5  -4   1  397.86   30.50 
  -5  -4   1  425.36   27.40 
  -5   4   1  460.75   30.00 
  -5   4   1  424.76   27.20 
  -5   4   1  422.36   24.70 
   5   4  -1  406.56   26.70 
  -4  -4   1 1837.92  113.69 
   4  -4  -1 2063.99  106.99 
  -4  -4   1 1860.31  112.09 
  -4  -4   1 2078.69  108.49 
   4  -4  -1 1702.43  109.39 
   4   4  -1 1958.10  107.79 
  -4   4   1 2080.59  109.29 
  -4   4   1 2130.29  112.09 
  -4   4   1 1920.71  104.69 
  -3  -4   1  158.58   10.50 
   3  -4  -1  168.68    9.90 
  -3  -4   1  141.39   14.60 
   3  -4  -1  115.59   12.60 
   3  -4  -1  121.89   16.20 
  -3  -4   1  159.38   11.10 
  -3  -4   1  142.79   13.70 
  -3   4   1  150.78   15.00 
   3   4  -1  136.49   12.70 
  -3   4   1  135.19   14.50 
  -3   4   1  153.88   12.40 
   3   4  -1  131.99   11.30 
   3   4  -1  155.28   14.00 
  -3   4   1  156.48   13.80 
  -2  -4   1  439.36   32.50 
   2  -4  -1  497.25   26.10 
  -2  -4   1  494.05   27.70 
  -2  -4   1  468.15   31.40 
   2  -4  -1  433.86   29.70 
  -2  -4   1  450.95   27.00 
  -2   4   1  453.75   29.70 
  -2   4   1  482.55   31.40 
   2   4  -1  446.86   30.40 
   2   4  -1  454.55   26.80 
  -2   4   1  477.85   32.60 
  -2   4   1  481.95   30.60 
   2   4  -1  447.06   31.50 
   1  -4  -1  930.31   49.30 
   1  -4  -1  932.81   56.09 
  -1  -4   1  882.31   55.09 
  -1  -4   1  845.02   60.29 
  -1  -4   1  951.00   51.09 
  -1  -4   1  949.90   51.09 
  -1   4   1  886.11   54.19 
  -1   4   1  924.51   54.19 
   1   4  -1  860.61   55.69 
   1   4  -1  998.70   49.80 
  -1   4   1  918.71   56.19 
   1   4  -1  889.21   54.69 
   1   4  -1  908.81   54.99 
  -1   4   1  881.41   55.09 
   0  -4   1 3199.18  168.78 
   0  -4  -1 3355.26  167.38 
   0  -4  -1 3175.18  173.98 
   0  -4  -1 3338.77  167.08 
   0  -4  -1 3123.59  172.78 
   0   4   1 3078.39  172.08 
   0   4   1 2957.60  173.38 
   0   4  -1 2972.50  172.78 
   0   4  -1 2950.70  174.18 
   0   4   1 3141.09  172.48 
   1  -4   1 1010.40   53.49 
  -1  -4  -1  952.30   52.49 
   1  -4   1  980.70   59.49 
   1  -4   1  959.40   53.79 
  -1  -4  -1  883.41   54.69 
  -1  -4  -1  998.30   58.99 
   1  -4   1  888.11   56.79 
   1   4   1  967.50   57.09 
   1   4   1  984.10   58.19 
  -1   4  -1  920.61   58.29 
  -1   4  -1  964.30   59.49 
  -1   4  -1 1020.80   58.09 
  -1   4  -1  994.50   57.99 
  -2  -4  -1  305.87   22.90 
  -2  -4  -1  313.37   18.70 
   2  -4   1  323.37   19.10 
  -2  -4  -1  321.97   18.60 
   2  -4   1  352.86   25.30 
  -2  -4  -1  295.47   23.50 
   2  -4   1  273.17   21.60 
  -2   4  -1  311.77   21.90 
  -2   4  -1  329.07   17.90 
  -2   4  -1  292.47   23.20 
  -2   4  -1  327.87   17.40 
  -2   4  -1  288.87   22.40 
   2   4   1  313.57   22.10 
  -2   4  -1  312.77   24.50 
   2   4   1  320.67   23.60 
   3  -4   1 3568.74  190.28 
  -3  -4  -1 3490.85  196.18 
  -3  -4  -1 3590.14  190.18 
  -3  -4  -1 3665.93  190.18 
  -3  -4  -1 3453.65  195.08 
   3  -4   1 3105.49  193.18 
   3   4   1 3659.73  194.68 
  -3   4  -1 3720.33  193.48 
  -3   4  -1 3489.75  195.38 
  -3   4  -1 3665.23  188.88 
  -3   4  -1 3373.36  189.08 
   3   4   1 3542.45  189.48 
  -4  -4  -1 2896.41  160.98 
   4  -4   1 3041.40  161.08 
  -4  -4  -1 3022.50  161.18 
  -4  -4  -1 2750.72  166.28 
   4   4   1 2917.11  160.28 
  -4   4  -1 3104.39  163.28 
  -4   4  -1 3022.70  165.68 
  -4   4  -1 2944.01  159.58 
   5  -4   1   59.59    6.40 
  -5  -4  -1   59.59    9.20 
  -5  -4  -1   57.69    6.60 
  -5  -4  -1   59.49    6.80 
  -5  -4  -1   74.19    9.50 
  -5   4  -1   63.29    6.00 
  -5   4  -1   65.39    8.70 
   5   4   1   64.29    6.40 
  -5   4  -1   61.69    7.40 
  -6  -4  -1  467.25   35.80 
   6  -4   1  502.15   30.60 
  -6  -4  -1  480.65   30.80 
  -6  -4  -1  432.66   35.00 
  -6  -4  -1  424.56   30.20 
  -6   4  -1  501.05   29.40 
   6   4   1  493.05   30.10 
  -6   4  -1  489.95   31.00 
  -6   4  -1  511.55   37.20 
  -7  -4  -1   41.60    7.20 
  -7  -4  -1   20.70    7.10 
  -7  -4  -1   37.80    9.90 
   7  -4   1   37.70    6.30 
  -7  -4  -1   46.30   11.70 
  -7   4  -1   41.80    5.40 
   7   4   1   35.20    5.90 
  -7   4  -1   32.50    7.30 
  -7   4  -1   37.40    7.90 
  -8  -4  -1    4.70    4.90 
  -8  -4  -1   18.60    7.30 
   8  -4   1   14.00    4.60 
  -8  -4  -1    4.10    3.10 
  -8   4  -1   14.50    4.50 
   8   4   1   12.30    3.80 
  -8   4  -1   20.10    8.10 
  -8   4  -1   23.40    6.50 
   9  -4   1  100.09   10.90 
  -9  -4  -1   87.09   10.50 
  -9  -4  -1   70.89   15.50 
  -9  -4  -1   86.19   17.10 
  -9   4  -1   95.29   12.40 
  -9   4  -1   76.89   10.20 
   9  -5  -1   25.80    6.20 
  -9  -5   1   25.10    8.00 
  -9  -5   1   22.50    9.80 
  -9  -5   1   43.40    8.10 
  -9   5   1   36.70    9.00 
  -9   5   1   33.10    6.50 
  -8  -5   1   11.60    4.50 
   8  -5  -1    1.60    2.80 
  -8  -5   1    1.80    4.00 
  -8  -5   1    8.40    5.00 
  -8   5   1   -2.60    3.50 
  -8   5   1    0.80    3.00 
  -7  -5   1   19.80    5.20 
   7  -5  -1   22.10    4.90 
  -7  -5   1   22.20    7.20 
  -7  -5   1   19.90    6.90 
  -7  -5   1   17.10    4.70 
   7   5  -1   22.40    5.00 
  -7   5   1   28.50    6.90 
  -7   5   1   18.50    4.50 
  -6  -5   1   33.40    6.10 
   6  -5  -1   21.00    4.10 
  -6  -5   1   21.10    7.20 
  -6  -5   1   23.70    7.30 
  -6  -5   1   24.70    5.00 
  -6   5   1   25.10    5.40 
  -6   5   1   33.00    7.80 
  -5  -5   1  591.24   43.20 
  -5  -5   1  655.93   38.20 
  -5  -5   1  574.34   44.70 
  -5  -5   1  661.33   39.10 
   5  -5  -1  636.74   37.30 
  -5   5   1  643.74   39.50 
   5   5  -1  579.64   37.70 
  -5   5   1  694.43   42.90 
  -4  -5   1  105.89    9.60 
   4  -5  -1  125.89    8.70 
  -4  -5   1  111.79   12.70 
  -4  -5   1  101.69   13.40 
  -4  -5   1  103.39    9.00 
   4   5  -1  110.49    9.00 
  -4   5   1  113.59   12.50 
  -4   5   1  109.49   10.90 
  -3  -5   1   33.70    4.70 
  -3  -5   1   38.60    9.00 
   3  -5  -1   39.70    3.90 
  -3  -5   1   34.60    4.30 
  -3  -5   1   30.90    7.30 
  -3   5   1   48.50    7.60 
  -3   5   1   49.80    6.70 
   3   5  -1   45.50    4.40 
  -2  -5   1 2556.54  134.39 
  -2  -5   1 2377.16  139.79 
  -2  -5   1 2426.46  133.59 
   2  -5  -1 2524.05  132.39 
  -2  -5   1 2457.25  142.19 
   2   5  -1 2585.84  131.99 
   2   5  -1 2373.66  139.59 
  -2   5   1 2513.65  137.99 
  -2   5   1 2298.07  138.19 
  -2   5   1 2491.65  139.89 
  -1  -5   1  124.59    9.30 
   1  -5  -1  135.89    8.00 
  -1  -5   1  120.89    9.20 
   1  -5  -1  159.18   15.00 
  -1  -5   1  136.09   14.50 
  -1  -5   1  130.39   13.20 
   1  -5  -1  122.99    8.10 
  -1   5   1  111.49   11.70 
  -1   5   1  112.59   11.80 
   1   5  -1  134.59   13.10 
  -1   5   1  100.19   12.10 
   0  -5   1  162.58   16.50 
   0  -5  -1  151.68   14.70 
   0  -5  -1  166.78    9.90 
   0  -5  -1  153.68   15.40 
   0  -5   1  145.39   10.90 
   0  -5  -1  156.38    9.70 
   0  -5   1  153.48   10.90 
   0   5  -1  175.78   15.30 
   0   5   1  147.29   15.30 
   0   5   1  167.18   14.80 
  -1  -5  -1 2577.24  147.59 
  -1  -5  -1 2592.44  139.19 
   1  -5   1 2577.74  140.69 
  -1  -5  -1 2567.14  146.19 
  -1  -5  -1 2656.93  139.39 
   1  -5   1 2664.03  140.39 
   1  -5   1 2666.83  148.69 
  -1   5  -1 2612.64  145.29 
  -1   5  -1 2473.85  146.99 
   1   5   1 2650.73  146.19 
   1   5   1 2441.66  146.09 
   2  -5   1 1727.93   93.19 
  -2  -5  -1 1699.33   92.49 
   2  -5   1 1821.02  102.09 
   2  -5   1 1653.63   93.79 
  -2  -5  -1 1629.94  100.39 
  -2  -5  -1 1630.04   98.89 
  -2  -5  -1 1695.23   92.69 
  -2   5  -1 1656.43   99.69 
  -2   5  -1 1778.92   97.99 
  -3  -5  -1  530.25   32.20 
  -3  -5  -1  479.55   37.00 
  -3  -5  -1  538.35   32.10 
  -3  -5  -1  571.04   39.40 
   3  -5   1  551.74   32.30 
  -3   5  -1  565.44   38.50 
  -3   5  -1  598.84   36.50 
   3   5   1  546.25   29.90 
  -4  -5  -1  831.32   50.79 
  -4  -5  -1  867.21   50.89 
  -4  -5  -1  855.41   57.99 
   4  -5   1  924.81   50.89 
  -4  -5  -1  837.62   56.49 
  -4   5  -1  942.81   57.09 
   4   5   1  877.21   49.70 
  -4   5  -1  885.61   48.20 
  -4   5  -1  938.61   54.29 
  -5  -5  -1  181.98   19.40 
  -5  -5  -1  173.48   22.30 
  -5  -5  -1  221.38   15.20 
  -5   5  -1  214.28   16.70 
  -5   5  -1  204.18   21.40 
   5   5   1  180.68   13.60 
  -5   5  -1  184.98   12.50 
   6  -5   1  249.28   17.50 
  -6  -5  -1  195.78   20.80 
  -6  -5  -1  223.38   17.50 
  -6  -5  -1  241.48   17.80 
  -6  -5  -1  217.78   31.10 
   6   5   1  225.28   16.70 
  -6   5  -1  268.17   21.50 
  -6   5  -1  238.48   20.60 
  -7  -5  -1    6.20    3.20 
  -7  -5  -1    9.20    6.20 
  -7  -5  -1    2.00    3.60 
   7  -5   1    5.60    3.10 
   7   5   1    6.80    3.30 
  -7   5  -1    9.30    4.90 
  -7   5  -1    9.80    3.50 
   8  -5   1  158.18   14.90 
  -8  -5  -1  176.38   15.90 
  -8  -5  -1  149.99   20.10 
  -8   5  -1  195.38   18.50 
  -8   5  -1  170.58   15.10 
   9  -5   1   -6.00    2.10 
  -9  -5  -1    1.30    3.90 
  -9  -5  -1    0.50    4.00 
  -9  -5  -1    9.80    7.30 
  -9   5  -1   10.70    5.10 
  -9   5  -1    1.00    3.90 
  -8  -6   1   39.40   13.60 
  -8  -6   1   24.20    8.20 
   8  -6  -1   26.60    5.40 
  -8  -6   1   34.30    7.40 
  -8   6   1   33.90    6.90 
  -8   6   1   38.30    9.60 
  -7  -6   1  207.08   22.70 
  -7  -6   1  200.38   18.20 
  -7  -6   1  200.48   23.90 
   7  -6  -1  239.18   17.50 
  -7   6   1  254.27   22.00 
  -7   6   1  235.48   18.50 
   6  -6  -1  174.58   13.40 
  -6  -6   1  168.68   14.10 
  -6  -6   1  158.18   14.70 
  -6  -6   1  170.48   20.30 
  -6  -6   1  164.78   18.70 
   6   6  -1  154.38   13.20 
  -6   6   1  178.68   15.30 
  -6   6   1  197.88   18.40 
  -5  -6   1   97.89   15.00 
  -5  -6   1   94.09   10.30 
   5  -6  -1  120.89    9.40 
  -5  -6   1  104.89   14.40 
  -5  -6   1  112.99   10.10 
  -5   6   1  128.69   14.10 
  -5   6   1  111.19   11.90 
  -4  -6   1  547.05   34.90 
  -4  -6   1  575.64   35.40 
  -4  -6   1  526.55   40.50 
   4  -6  -1  608.24   33.40 
  -4   6   1  592.54   40.90 
  -4   6   1  580.34   37.80 
   4   6  -1  535.05   32.70 
  -3  -6   1  967.80   68.89 
   3  -6  -1 1175.88   58.99 
  -3  -6   1 1066.99   67.79 
  -3  -6   1 1022.00   60.79 
  -3  -6   1 1037.50   59.79 
  -3   6   1 1040.10   64.29 
  -3   6   1 1111.09   67.39 
   3   6  -1 1031.60   67.39 
  -2  -6   1   66.09   11.10 
  -2  -6   1   67.99    6.30 
   2  -6  -1   74.59    5.50 
  -2  -6   1   65.59   10.50 
   2  -6  -1   64.29    5.60 
  -2  -6   1   68.79    6.90 
  -2   6   1   72.69    9.50 
  -2   6   1   70.99   10.30 
   2   6  -1   70.99   10.50 
  -1  -6   1 1004.70   66.69 
  -1  -6   1 1080.19   60.39 
  -1  -6   1 1076.89   69.59 
   1  -6  -1  972.30   60.99 
  -1  -6   1 1080.39   59.99 
   1  -6  -1 1088.69   58.49 
   1  -6  -1 1103.69   68.59 
   1   6  -1 1108.49   66.99 
  -1   6   1 1128.19   66.09 
  -1   6   1 1024.50   66.89 
   0  -6  -1  115.89    8.00 
   0  -6  -1  125.59   13.80 
   0  -6   1  100.49   13.90 
   0  -6  -1  112.59    8.00 
   0  -6   1  115.99    9.30 
   0  -6   1  113.49    9.20 
   0  -6  -1  117.39   14.10 
   0   6  -1  122.39   13.30 
   0   6   1  110.89   13.40 
   0   6   1  135.79   13.90 
   1  -6   1   13.90    3.20 
  -1  -6  -1   17.10    6.10 
  -1  -6  -1    7.80    4.20 
  -1  -6  -1   14.10    2.30 
   1  -6   1   11.60    2.60 
   1  -6   1   20.70    6.20 
  -1  -6  -1   15.20    2.60 
   1   6   1    9.40    4.50 
  -1   6  -1    6.80    4.00 
  -1   6  -1    6.00    3.70 
   2  -6   1 1198.08   70.09 
  -2  -6  -1 1205.48   78.39 
   2  -6   1 1361.46   80.29 
   2  -6   1 1267.17   69.59 
  -2  -6  -1 1128.89   76.19 
  -2  -6  -1 1236.18   69.19 
  -2  -6  -1 1226.08   68.79 
  -2   6  -1 1305.47   75.59 
  -2   6  -1 1247.68   77.69 
   2   6   1 1296.07   77.29 
  -3  -6  -1 1213.48   77.19 
  -3  -6  -1 1157.98   69.19 
  -3  -6  -1 1221.18   67.59 
  -3  -6  -1 1158.18   75.49 
   3  -6   1 1286.07   68.69 
   3  -6   1 1214.48   68.79 
  -3   6  -1 1174.58   76.99 
  -3   6  -1 1215.18   72.79 
  -4  -6  -1  468.05   30.20 
   4  -6   1  532.55   30.40 
  -4  -6  -1  503.65   38.60 
  -4  -6  -1  483.05   37.00 
  -4  -6  -1  513.45   30.40 
   4  -6   1  512.35   31.50 
  -4   6  -1  480.85   36.40 
  -4   6  -1  417.26   34.30 
  -5  -6  -1  131.09   16.30 
   5  -6   1  145.89   11.80 
  -5  -6  -1  141.19   11.90 
  -5  -6  -1  138.99   17.20 
  -5  -6  -1  138.69   12.00 
  -5   6  -1  155.78   16.90 
  -5   6  -1  148.29   14.40 
  -6  -6  -1   69.19   13.90 
   6  -6   1   67.79    7.50 
  -6  -6  -1   54.89    7.40 
  -6  -6  -1   51.29   11.40 
  -6   6  -1   59.39    9.70 
  -6   6  -1   48.70    9.10 
   6   6   1   51.89    7.10 
   7  -6   1   72.09    8.70 
  -7  -6  -1   59.89    9.60 
  -7  -6  -1   87.99   14.20 
  -7  -6  -1   80.49   13.20 
  -7   6  -1   95.09   12.70 
  -7   6  -1   98.09   10.70 
  -8  -6  -1   50.89    9.20 
  -8  -6  -1   66.39   15.70 
  -8  -6  -1   54.39   12.40 
   8  -6   1   84.09    9.70 
  -8   6  -1   78.39   11.70 
  -8   6  -1   58.19    9.40 
  -7  -7   1   26.90    6.20 
  -7  -7   1   18.10    7.90 
   7  -7  -1   17.00    4.60 
  -7  -7   1   24.90    8.00 
  -7   7   1   23.90    5.90 
  -7   7   1   28.40    7.90 
  -6  -7   1  150.68   20.40 
  -6  -7   1  183.68   16.20 
  -6  -7   1  171.68   22.00 
   6  -7  -1  185.58   15.90 
  -6   7   1  194.18   20.00 
  -6   7   1  187.88   17.00 
  -5  -7   1  167.88   19.50 
   5  -7  -1  167.88   12.40 
  -5  -7   1  169.38   21.20 
  -5  -7   1  144.09   16.80 
  -5  -7   1  145.99   13.90 
   5   7  -1  154.08   19.00 
  -5   7   1  176.88   18.50 
  -5   7   1  164.48   15.70 
  -4  -7   1  180.78   20.50 
   4  -7  -1  196.88   13.40 
  -4  -7   1  189.98   14.40 
  -4  -7   1  196.38   15.60 
  -4  -7   1  194.28   22.60 
  -4   7   1  203.78   20.50 
  -4   7   1  184.68   17.80 
   4   7  -1  194.58   20.70 
  -3  -7   1  439.76   36.50 
  -3  -7   1  467.95   30.10 
   3  -7  -1  497.05   27.80 
   3  -7  -1  435.06   28.20 
  -3  -7   1  468.75   28.90 
  -3  -7   1  477.15   39.50 
  -3   7   1  473.95   36.50 
   3   7  -1  482.65   37.30 
  -3   7   1  480.85   34.10 
  -2  -7   1   96.09    8.80 
  -2  -7   1   74.99   12.00 
   2  -7  -1   92.89    7.40 
  -2  -7   1   97.39    8.10 
   2  -7  -1   94.89    6.90 
  -2  -7   1   91.79   14.40 
   2   7  -1   92.59   12.70 
  -2   7   1   81.69   18.10 
  -2   7   1   76.79   12.20 
  -1  -7   1  387.16   32.60 
   1  -7  -1  363.56   21.50 
   1  -7  -1  373.06   21.40 
  -1  -7   1  347.97   22.30 
   1  -7  -1  392.46   36.80 
  -1  -7   1  372.66   23.20 
   1   7  -1  307.17   28.20 
  -1   7   1  309.77   29.90 
  -1   7   1  319.27   37.30 
   0  -7   1   85.09    8.00 
   0  -7   1   91.89    8.20 
   0  -7   1   98.99   14.30 
   0  -7  -1   97.69    7.00 
   0  -7  -1   85.99   13.90 
   0  -7  -1  100.99    7.50 
   0   7   1   81.39   11.40 
   0   7   1   82.19   14.20 
   0   7  -1   84.49   12.90 
   0   7  -1  102.89   13.00 
   1  -7   1    2.60    2.20 
  -1  -7  -1    8.10    2.20 
  -1  -7  -1   15.40    2.60 
   1  -7   1    5.50    4.90 
  -1  -7  -1    5.30    5.30 
   1  -7   1   13.70    3.00 
  -1  -7  -1    9.10    6.30 
   1   7   1   14.10    5.30 
  -1   7  -1    6.60    4.50 
  -1   7  -1   14.50    6.10 
   2  -7   1  557.34   42.00 
  -2  -7  -1  490.65   38.50 
   2  -7   1  520.95   31.00 
  -2  -7  -1  524.75   30.30 
   2  -7   1  524.35   31.80 
  -2  -7  -1  475.15   45.40 
  -2  -7  -1  497.85   30.80 
  -2   7  -1  497.05   39.30 
   2   7   1  496.65   38.50 
  -2   7  -1  536.45   37.60 
   3  -7   1  115.49   10.30 
  -3  -7  -1  116.69    9.70 
  -3  -7  -1  108.29   15.70 
   3  -7   1  114.49    9.40 
  -3  -7  -1  122.49    9.50 
  -3  -7  -1   93.49   14.20 
   3   7   1  101.89   14.40 
  -3   7  -1  130.39   14.20 
  -3   7  -1  118.39   14.80 
  -4  -7  -1  274.17   18.00 
  -4  -7  -1  257.67   18.30 
  -4  -7  -1  227.68   24.00 
  -4  -7  -1  224.68   25.30 
   4  -7   1  275.67   17.90 
   4  -7   1  230.18   18.60 
  -4   7  -1  260.37   22.20 
  -4   7  -1  266.27   24.80 
  -5  -7  -1   25.20    5.30 
  -5  -7  -1   21.50    7.90 
  -5  -7  -1   13.80    7.70 
   5  -7   1   19.00    5.20 
   5  -7   1   23.40    4.50 
  -5  -7  -1   21.90    5.00 
  -5   7  -1   11.70    6.20 
  -5   7  -1   17.60    6.20 
  -6  -7  -1   17.90    8.30 
  -6  -7  -1    8.60    7.10 
  -6  -7  -1    6.30    6.40 
   6  -7   1   20.10    4.60 
  -6   7  -1   19.90    7.60 
  -6   7  -1   10.60    5.10 
  -5  -8   1  127.79   17.40 
  -5  -8   1  100.19   11.40 
  -5  -8   1   84.99   18.60 
   5  -8  -1   99.79   10.40 
   5  -8  -1  114.49    9.70 
  -5   8   1  128.49   16.70 
  -5   8   1  124.39   14.00 
   5   8  -1  115.79   17.40 
  -4  -8   1  103.99   17.00 
   4  -8  -1   99.49    8.40 
   4  -8  -1   91.39    9.10 
  -4  -8   1   85.39    9.40 
  -4   8   1  112.59   13.80 
  -4   8   1  107.99   15.50 
   3  -8  -1  121.09    9.10 
  -3  -8   1  118.09   11.50 
   3  -8  -1  122.59    9.90 
  -3  -8   1  107.29   10.00 
  -3  -8   1  137.99   19.60 
  -3  -8   1  109.79   16.10 
  -3   8   1  117.69   15.90 
   3   8  -1  126.89   17.00 
  -3   8   1  130.49   15.20 
  -2  -8   1   16.60    3.90 
   2  -8  -1   15.00    2.90 
  -2  -8   1   13.10    3.30 
  -2  -8   1    5.40    6.10 
   2  -8  -1   12.80    2.50 
  -2  -8   1   12.60    6.20 
   2   8  -1    9.20    5.10 
  -2   8   1    4.10    5.10 
  -2   8   1   10.60    5.10 
  -1  -8   1  373.26   35.60 
  -1  -8   1  410.66   25.80 
   1  -8  -1  390.56   23.40 
  -1  -8   1  397.36   26.20 
   1  -8  -1  467.35   37.20 
   1  -8  -1  417.86   23.60 
  -1   8   1  330.17   32.00 
   1   8  -1  389.76   32.90 
  -1   8   1  337.27   30.70 
   0  -8   1   37.60    5.10 
   0  -8   1   56.79   13.40 
   0  -8  -1   36.70    4.40 
   0  -8   1   34.10    5.60 
   0  -8  -1   35.20    3.80 
   0  -8  -1   42.90   11.80 
   0   8   1   32.30    8.60 
   0   8  -1   35.80    9.10 
   0   8  -1   29.60    9.30 
   0   8   1   32.50    8.80 
  -1  -8  -1   21.60    3.40 
   1  -8   1   29.30   10.30 
  -1  -8  -1   27.70    8.50 
   1  -8   1   30.10    5.00 
  -1  -8  -1   32.00    4.70 
  -1  -8  -1   24.60    8.10 
   1  -8   1   23.90    4.50 
  -1   8  -1   28.40    8.10 
   1   8   1   24.40    7.50 
  -1   8  -1   22.60    8.00 
   1   8   1   31.40    9.00 
   2  -8   1  790.32   45.50 
  -2  -8  -1  769.62   55.99 
  -2  -8  -1  784.62   45.70 
  -2  -8  -1  777.02   44.60 
   2  -8   1  764.02   46.10 
  -2  -8  -1  826.22   58.89 
  -2   8  -1  732.53   55.69 
   2   8   1  719.03   54.49 
  -2   8  -1  817.42   53.99 
   3  -8   1   33.00    5.80 
  -3  -8  -1   29.50    5.20 
   3  -8   1   38.40    5.00 
  -3  -8  -1   38.70    5.10 
  -3  -8  -1   29.60    9.60 
  -3  -8  -1   32.70    9.80 
   3   8   1   34.50    9.60 
  -3   8  -1   36.60   10.20 
  -3   8  -1   29.20    7.70 
  -4  -8  -1   26.10    9.00 
  -4  -8  -1   11.60    4.20 
  -4  -8  -1   21.50    9.10 
   4  -8   1   27.90    5.20 
   4  -8   1   24.80    4.40 
  -4  -8  -1   29.20    5.30 
   4   8   1   18.00    8.60 
  -4   8  -1   18.70    9.60 
  -4   8  -1   22.30    7.00 
  -5  -8  -1   94.19   18.60 
  -5  -8  -1   73.99    9.30 
  -5  -8  -1   93.69   15.20 
   5  -8   1  117.69   10.00 
  -5   8  -1   84.89   20.40 
  -5   8  -1   91.99   15.30 
   5   8   1   61.09   14.00 
  -2  -9   1  170.28   22.50 
   2  -9  -1  129.39   10.90 
  -2  -9   1  147.29   13.30 
   2  -9  -1  162.28   10.90 
  -2  -9   1  156.78   12.40 
  -2   9   1  165.38   25.70 
  -2   9   1  154.08   19.40 
   2   9  -1  154.68   19.50 
  -1  -9   1   59.59    7.40 
  -1  -9   1   70.89    7.10 
   1  -9  -1   71.19    7.90 
   1  -9  -1   55.89    7.30 
  -1  -9   1   54.79   14.70 
   1  -9  -1   40.10   20.30 
   1   9  -1   70.49   14.50 
   1   9  -1   69.99   14.70 
  -1   9   1   72.49   18.90 
  -1   9   1   46.60   15.70 
   0  -9  -1  176.58   23.80 
   0  -9   1  158.18   21.80 
   0  -9   1  156.48   12.50 
   0  -9  -1  155.58   12.50 
   0  -9  -1  155.48   11.20 
   0  -9   1  163.68   13.00 
   0   9   1  142.79   23.00 
   0   9   1  186.08   20.30 
   0   9  -1  147.59   20.50 
   0   9  -1  187.98   20.40 
   1  -9   1   46.30   13.10 
   1  -9   1   61.39    6.60 
  -1  -9  -1   52.99    5.70 
   1  -9   1   60.09    6.80 
  -1  -9  -1   54.79    6.40 
  -1  -9  -1   41.60   15.30 
   1   9   1   36.20   14.90 
   1   9   1   57.09   12.40 
  -1   9  -1   37.10   11.10 
  -1   9  -1   46.00   11.10 
  -2  -9  -1   35.00   10.20 
  -2  -9  -1   39.40    6.30 
   2  -9   1   31.20    5.70 
  -2  -9  -1   44.70    5.50 
   2  -9   1   56.59    6.20 
  -2  -9  -1    5.90   13.40 
   2   9   1   36.50   12.10 
   2   9   1   39.70   10.40 
  -2   9  -1   37.70   10.10 
  -2   9  -1   47.30   11.70 
 -11   0   2  130.29   17.20 
 -11   0   2  133.29   14.90 
  11   0  -2  150.68   15.00 
 -10   0   2    0.10    2.60 
 -10   0   2    0.10    2.60 
  10   0  -2    1.50    3.50 
 -10   0   2    4.90    3.80 
  -9   0   2   19.20    4.70 
   9   0  -2   23.20    5.60 
  -9   0   2   12.60    5.70 
  -9   0   2   25.80    5.30 
  -8   0   2    1.10    4.60 
  -8   0   2    0.90    1.70 
  -8   0   2   -1.30    1.80 
  -7   0   2 1684.73   93.39 
  -7   0   2 1377.76   90.19 
   7   0  -2 1745.73   89.69 
   7   0  -2 1649.44   90.59 
  -7   0   2 1571.34   90.19 
   6   0  -2  170.08   12.20 
   6   0  -2  160.38   11.10 
  -6   0   2  148.09   11.90 
  -6   0   2  138.09   13.10 
  -6   0   2  141.79   11.30 
  -6   0   2  145.79   11.80 
  -5   0   2 1084.59   63.89 
   5   0  -2 1267.67   65.29 
   5   0  -2 1109.69   63.79 
  -5   0   2 1153.08   65.69 
  -5   0   2 1090.19   64.09 
   5   0  -2 1184.08   62.89 
  -5   0   2 1064.99   63.19 
  -4   0   2 5694.53  314.07 
   4   0  -2 6476.25  315.07 
   4   0  -2 6128.69  313.17 
  -4   0   2 5696.33  313.47 
  -4   0   2 5533.45  314.37 
   4   0  -2 5648.53  314.17 
  -4   0   2 5866.61  315.37 
   3   0  -2 1944.71   98.59 
   3   0  -2 2039.80  100.19 
   3   0  -2 1798.02   99.39 
  -3   0   2 1799.62  100.29 
  -3   0   2 1781.52   99.79 
  -3   0   2 1756.92   98.79 
  -3   0   2 1755.72   99.29 
   3   0  -2 1778.82   99.59 
   1   0  -2  332.17   19.60 
  -1   0   2  359.86   20.40 
  -1   0   2  349.96   20.20 
   1   0  -2  369.06   20.20 
   1   0  -2  373.56   20.40 
  -1   0   2  370.96   20.40 
   2   0   2 2395.16  134.29 
   2   0   2 2529.25  134.39 
   2   0   2 2293.07  134.49 
  -2   0  -2 2659.63  134.39 
  -2   0  -2 2658.83  134.19 
  -2   0  -2 2427.96  134.39 
  -3   0  -2    9.70    2.30 
  -3   0  -2    5.90    1.80 
   3   0   2    6.60    1.90 
   3   0   2   10.30    2.20 
   3   0   2    9.80    2.30 
  -3   0  -2   12.80    2.40 
  -4   0  -2 1850.41   97.39 
   4   0   2 1782.52   97.39 
   4   0   2 1708.73   97.79 
  -4   0  -2 1918.71   97.79 
   4   0   2 1690.13   97.29 
  -4   0  -2 1670.73   97.39 
   5   0   2  727.43   43.90 
  -5   0  -2  807.72   44.70 
   5   0   2  728.63   43.80 
   5   0   2  736.93   44.70 
  -5   0  -2  719.73   43.90 
  -5   0  -2  778.32   43.90 
  -6   0  -2 2859.51  160.68 
  -6   0  -2 2979.30  161.38 
   6   0   2 2791.42  160.28 
  -6   0  -2 3075.89  160.58 
  -7   0  -2  747.03   45.60 
   7   0   2  651.33   43.60 
  -7   0  -2  761.62   44.40 
  -8   0  -2  186.38   15.70 
  -8   0  -2  192.18   16.50 
   8   0   2  165.68   15.00 
  -8   0  -2  193.58   17.50 
   9   0   2    5.50    2.80 
  -9   0  -2    5.20    3.40 
  -9   0  -2   -3.30    2.40 
  -9   0  -2    2.10    4.30 
  10   0   2  105.49   11.30 
 -10   0  -2   85.49   11.70 
 -10   0  -2   80.69   12.90 
 -10   0  -2  100.39   11.50 
 -11  -1   2    8.40    5.90 
 -11  -1   2    3.20    4.10 
  11  -1  -2   -6.20    3.60 
  11   1  -2   -4.30    3.80 
 -11   1   2   -4.10    4.40 
 -11   1   2    1.20    3.50 
 -10  -1   2   50.09    7.80 
  10  -1  -2   62.69    9.50 
 -10  -1   2   50.29   11.50 
 -10  -1   2   60.39    9.90 
  10   1  -2   42.80    8.00 
 -10   1   2   43.00    7.90 
 -10   1   2   47.60    7.50 
 -10   1   2   55.49   11.00 
   9  -1  -2  308.77   21.60 
  -9  -1   2  253.97   21.60 
  -9  -1   2  294.37   25.40 
  -9  -1   2  292.37   22.30 
  -9   1   2  266.17   20.40 
  -9   1   2  286.67   21.60 
   9   1  -2  274.67   21.20 
  -9   1   2  288.67   23.60 
  -8  -1   2  323.67   24.20 
  -8  -1   2  363.36   24.70 
  -8  -1   2  340.77   27.50 
   8  -1  -2  333.17   23.70 
  -8   1   2  331.37   22.70 
  -8   1   2  358.16   25.80 
   8   1  -2  333.67   23.60 
  -8   1   2  356.06   24.00 
  -7  -1   2  174.38   15.00 
  -7  -1   2  196.78   15.00 
   7  -1  -2  187.38   14.00 
  -7  -1   2  167.88   14.60 
   7  -1  -2  186.08   14.40 
  -7  -1   2  201.98   17.80 
   7   1  -2  175.68   14.40 
  -7   1   2  197.98   16.20 
  -7   1   2  191.28   14.90 
  -7   1   2  216.58   14.20 
  -6  -1   2  318.57   24.00 
   6  -1  -2  332.37   21.30 
   6  -1  -2  319.17   20.60 
  -6  -1   2  345.77   21.80 
  -6  -1   2  289.57   21.50 
  -6  -1   2  338.47   22.10 
   6   1  -2  315.87   21.20 
   6   1  -2  332.77   20.50 
  -6   1   2  317.17   21.30 
  -6   1   2  332.97   20.30 
  -6   1   2  325.57   22.40 
  -5  -1   2   23.20    4.00 
  -5  -1   2   31.20    6.20 
   5  -1  -2   26.30    3.60 
   5  -1  -2   28.80    3.50 
   5  -1  -2   23.50    4.20 
  -5  -1   2   28.60    4.60 
  -5  -1   2   24.90    4.50 
   5   1  -2   31.20    4.50 
  -5   1   2   25.60    4.50 
   5   1  -2   26.80    4.30 
  -5   1   2   22.00    3.90 
  -5   1   2   30.60    4.10 
  -5   1   2   25.00    3.20 
   4  -1  -2 1209.28   67.89 
  -4  -1   2 1194.98   68.99 
   4  -1  -2 1195.88   66.49 
  -4  -1   2 1245.68   67.29 
  -4  -1   2 1149.39   66.49 
  -4  -1   2 1128.49   66.99 
   4  -1  -2 1227.18   66.39 
   4  -1  -2 1129.99   65.69 
   4   1  -2 1255.97   66.39 
  -4   1   2 1167.98   66.29 
   4   1  -2 1154.78   66.59 
   4   1  -2 1214.98   66.89 
  -4   1   2 1248.08   65.39 
  -4   1   2 1254.77   67.19 
   4   1  -2 1237.68   67.79 
  -4   1   2 1176.08   66.59 
  -3  -1   2 1194.38   66.69 
  -3  -1   2 1183.48   68.09 
   3  -1  -2 1170.98   66.99 
   3  -1  -2 1073.49   65.19 
  -3  -1   2 1177.98   66.19 
   3  -1  -2 1207.18   65.89 
  -3  -1   2 1103.59   66.59 
  -3   1   2 1191.88   65.79 
   3   1  -2 1234.08   66.49 
  -3   1   2 1318.27   66.69 
   3   1  -2 1259.37   66.29 
  -3   1   2 1250.77   66.19 
   3   1  -2 1195.68   66.29 
   3   1  -2 1236.58   67.39 
  -3   1   2 1260.67   64.99 
   2  -1  -2 3139.99  181.78 
  -2  -1   2 3233.58  183.18 
   2  -1  -2 3351.26  183.08 
  -2  -1   2 3556.94  182.68 
  -2  -1   2 3497.35  183.08 
   2   1  -2 3454.85  182.88 
  -2   1   2 3567.74  182.38 
   2   1  -2 3193.98  183.18 
  -2   1   2 3599.74  182.08 
   2   1  -2 3470.55  183.08 
   0  -1   2 3949.20  211.48 
   1  -1   2 4969.30  266.07 
   2  -1   2 1651.23   95.69 
  -2  -1  -2 1879.11   96.09 
  -2  -1  -2 1727.83   95.59 
   2  -1   2 1809.02   95.49 
   2  -1   2 1500.85   96.09 
  -2  -1  -2 1762.02   95.19 
  -2   1  -2 1712.83   95.49 
  -2   1  -2 1726.83   95.39 
  -2   1  -2 1653.13   95.89 
   2   1   2 1935.11   95.19 
   2   1   2 1916.21   95.59 
   2   1   2 1810.52   95.19 
  -3  -1  -2 2010.00  104.49 
   3  -1   2 1630.04  104.39 
  -3  -1  -2 1903.11  103.69 
   3  -1   2 1913.61  103.79 
  -3  -1  -2 1863.21  104.19 
   3  -1   2 1798.52  103.99 
  -3   1  -2 1886.91  104.09 
   3   1   2 2096.69  103.89 
  -3   1  -2 1842.72  103.69 
  -3   1  -2 1932.11  103.49 
   3   1   2 1850.91  103.49 
   3   1   2 2087.79  103.69 
  -4  -1  -2 4264.47  226.38 
   4  -1   2 3806.62  226.18 
   4  -1   2 3677.13  226.28 
   4  -1   2 4334.57  225.48 
  -4  -1  -2 3890.41  228.18 
  -4  -1  -2 4170.68  225.38 
   4   1   2 4179.18  225.18 
   4   1   2 4799.52  225.68 
  -4   1  -2 4400.36  225.68 
  -4   1  -2 4360.46  224.98 
  -4   1  -2 4036.00  225.28 
   4   1   2 4215.78  227.18 
   5  -1   2 1750.92  114.39 
  -5  -1  -2 2010.90  113.29 
  -5  -1  -2 2097.89  114.09 
   5  -1   2 1878.21  113.39 
  -5  -1  -2 1972.50  114.49 
   5   1   2 2312.47  113.99 
  -5   1  -2 1973.50  113.19 
  -5   1  -2 2241.98  112.99 
   5   1   2 2059.69  113.19 
  -5   1  -2 2231.18  113.79 
  -6  -1  -2  220.18   16.70 
  -6  -1  -2  215.88   17.20 
  -6  -1  -2  243.88   18.60 
   6  -1   2  226.18   16.60 
  -6   1  -2  249.18   17.50 
   6   1   2  205.88   16.10 
  -6   1  -2  240.48   16.40 
   7  -1   2  411.56   26.70 
  -7  -1  -2  410.06   27.70 
  -7  -1  -2  377.76   28.30 
  -7  -1  -2  391.16   26.60 
  -7  -1  -2  429.96   27.10 
  -7   1  -2  356.06   26.00 
  -7   1  -2  425.76   27.40 
   7   1   2  313.47   25.10 
  -7   1  -2  424.96   26.30 
  -8  -1  -2   17.10    4.80 
  -8  -1  -2    4.00    5.60 
   8  -1   2   17.00    4.50 
  -8  -1  -2   15.50    4.90 
  -8   1  -2   11.80    4.10 
   8   1   2   11.30    3.80 
  -8   1  -2   15.80    4.50 
  -8   1  -2   13.40    5.20 
  -9  -1  -2   13.40    5.90 
  -9  -1  -2   18.80    5.50 
   9  -1   2   19.00    4.80 
  -9  -1  -2   19.30    5.30 
  -9   1  -2   11.70    4.10 
   9   1   2   10.00    4.00 
  -9   1  -2   12.50    4.30 
  -9   1  -2   14.90    5.70 
 -10  -1  -2  122.29   19.20 
  10  -1   2  106.59   12.50 
 -10  -1  -2  101.19   14.40 
 -10  -1  -2  126.69   13.10 
 -10   1  -2  107.29   16.20 
  10   1   2   92.49   11.10 
 -10   1  -2  107.49   12.60 
  10  -2  -2  104.29   11.50 
 -10  -2   2   92.79   12.40 
 -10  -2   2   95.19   14.20 
 -10  -2   2   99.19   11.90 
  10   2  -2   89.69   10.50 
 -10   2   2   99.79   14.10 
 -10   2   2  100.69   10.60 
  -9  -2   2   20.20    7.10 
  -9  -2   2   26.10    5.70 
  -9  -2   2   17.30    5.30 
   9  -2  -2    9.20    3.70 
  -9   2   2   15.80    4.30 
  -9   2   2   30.60    7.80 
  -9   2   2   23.30    5.40 
   9   2  -2   30.80    6.30 
  -8  -2   2  120.29   13.10 
  -8  -2   2  129.19   15.50 
  -8  -2   2  120.99   12.30 
   8  -2  -2  135.19   12.10 
  -8   2   2  140.99   11.40 
   8   2  -2  146.49   12.70 
  -8   2   2  170.28   12.90 
  -8   2   2  145.19   13.80 
   7  -2  -2  123.99   11.20 
   7  -2  -2  127.59   11.10 
  -7  -2   2  126.39   12.80 
  -7  -2   2  131.69   14.70 
  -7  -2   2  132.09   12.10 
  -7   2   2  134.79   10.40 
  -7   2   2  146.49   11.60 
  -7   2   2  153.28   13.20 
   7   2  -2  123.89   11.20 
   6  -2  -2  187.98   14.40 
  -6  -2   2  218.28   18.60 
  -6  -2   2  204.68   14.90 
  -6  -2   2  175.18   15.10 
   6  -2  -2  209.48   14.60 
  -6  -2   2  172.88   15.70 
   6   2  -2  219.48   15.40 
  -6   2   2  190.78   14.30 
   6   2  -2  191.78   14.80 
  -6   2   2  213.48   13.60 
  -6   2   2  218.98   15.80 
  -5  -2   2 2767.32  152.38 
   5  -2  -2 2802.92  151.28 
   5  -2  -2 2513.45  153.98 
   5  -2  -2 2391.26  150.98 
  -5  -2   2 2782.62  151.88 
  -5  -2   2 2782.52  155.98 
  -5   2   2 2996.00  152.78 
  -5   2   2 2826.32  151.38 
   5   2  -2 2951.80  153.98 
   5   2  -2 2830.02  151.98 
  -5   2   2 2872.91  150.28 
   5   2  -2 2955.20  152.18 
  -5   2   2 2739.63  150.98 
  -4  -2   2 2793.42  171.08 
  -4  -2   2 2951.50  167.98 
   4  -2  -2 2721.73  165.78 
   4  -2  -2 2778.92  168.08 
   4  -2  -2 3272.17  165.88 
  -4  -2   2 3172.18  166.98 
  -4  -2   2 3091.19  170.48 
  -4   2   2 3315.77  167.28 
   4   2  -2 3220.08  167.18 
  -4   2   2 3139.49  165.18 
   4   2  -2 3226.08  166.58 
  -4   2   2 3179.88  165.78 
   4   2  -2 3054.29  166.48 
  -2  -2   2 2493.45  124.29 
   2  -2  -2 2192.08  123.79 
   2  -2  -2 2423.36  122.79 
   2  -2  -2 2502.75  122.59 
  -2  -2   2 2367.26  127.09 
  -2  -2   2 2282.27  125.49 
   2  -2  -2 1994.00  124.69 
  -2  -2   2 2414.56  123.79 
  -2   2   2 2190.78  123.49 
  -2   2   2 2227.18  124.49 
   2   2  -2 2189.58  124.99 
   2   2  -2 2269.87  126.19 
  -2   2   2 2248.28  121.89 
  -2   2   2 2276.67  121.79 
   2   2  -2 2374.96  123.69 
   2   2  -2 2219.48  123.89 
  -2   2   2 2237.78  124.09 
   0  -2   2 2181.98  124.29 
   0  -2   2 2440.86  123.19 
   0  -2  -2 2230.98  123.79 
   0  -2  -2 2352.36  121.29 
   0  -2   2 2244.08  125.59 
   0  -2  -2 2201.38  123.89 
   0  -2  -2 2397.66  121.49 
   0   2  -2 2341.07  122.89 
   0   2   2 2164.88  123.79 
   0   2   2 2252.67  123.49 
   0   2  -2 2357.26  123.19 
   0   2  -2 2279.27  124.79 
   0   2  -2 2284.47  124.29 
   0   2  -2 2153.28  125.19 
   1  -2   2 2277.17  119.39 
   1  -2   2 2299.37  116.39 
  -1  -2  -2 2228.48  115.29 
  -1  -2  -2 2063.39  117.29 
   1  -2   2 1967.80  117.29 
  -1  -2  -2 2158.98  117.49 
   1   2   2 2177.28  115.19 
   1   2   2 2126.39  116.99 
   1   2   2 2210.88  116.89 
  -1   2  -2 2119.39  116.09 
  -1   2  -2 2090.69  118.99 
  -1   2  -2 2111.39  117.39 
   1   2   2 2223.08  114.79 
  -1   2  -2 2022.10  118.29 
   2  -2   2   42.70    5.50 
   2  -2   2   41.20    5.00 
  -2  -2  -2   51.09    5.60 
  -2  -2  -2   50.69    5.50 
   2  -2   2   48.30    4.60 
  -2   2  -2   57.69    6.70 
   2   2   2   60.79    5.40 
  -2   2  -2   59.19    6.30 
   2   2   2   65.59    4.50 
  -2   2  -2   55.59    4.80 
   2   2   2   57.49    5.40 
  -2   2  -2   58.79    5.50 
  -3  -2  -2 2350.76  132.69 
  -3  -2  -2 2242.08  132.49 
   3  -2   2 2518.95  131.29 
   3  -2   2 2103.59  131.89 
  -3  -2  -2 2356.16  130.89 
   3   2   2 2581.94  131.79 
   3   2   2 2512.05  131.69 
  -3   2  -2 2507.85  135.49 
   3   2   2 2465.85  130.59 
  -3   2  -2 2568.84  131.79 
  -3   2  -2 2381.46  131.09 
  -3   2  -2 2378.06  132.79 
   4  -2   2  963.70   61.29 
  -4  -2  -2 1102.99   60.59 
   4  -2   2  907.41   62.19 
  -4  -2  -2 1052.89   62.39 
   4  -2   2 1129.49   60.69 
  -4  -2  -2 1120.79   62.49 
  -4   2  -2 1069.29   61.69 
  -4   2  -2 1087.29   60.49 
   4   2   2 1152.28   60.99 
   4   2   2 1075.99   60.09 
  -4   2  -2 1015.10   60.39 
   4   2   2 1178.38   61.09 
  -5  -2  -2 1482.55   88.09 
   5  -2   2 1551.84   88.29 
  -5  -2  -2 1454.85   90.19 
  -5  -2  -2 1482.35   89.89 
  -5   2  -2 1611.64   89.19 
   5   2   2 1809.82   88.99 
   5   2   2 1610.24   87.89 
  -5   2  -2 1625.34   87.99 
   6  -2   2 1387.66   81.69 
  -6  -2  -2 1393.86   83.59 
  -6  -2  -2 1320.27   83.99 
  -6  -2  -2 1443.76   81.99 
  -6   2  -2 1519.75   81.19 
   6   2   2 1417.96   81.19 
  -6   2  -2 1591.84   82.89 
  -7  -2  -2  138.89   13.40 
  -7  -2  -2  125.29   11.60 
  -7  -2  -2  119.99   11.60 
   7  -2   2  111.19   11.20 
  -7  -2  -2  112.29   13.30 
  -7   2  -2  127.89   12.00 
   7   2   2  129.69   11.00 
  -7   2  -2  116.59   11.10 
  -7   2  -2  118.29   10.80 
   8  -2   2  194.88   15.90 
  -8  -2  -2  199.68   16.70 
  -8  -2  -2  192.68   16.40 
  -8  -2  -2  174.38   18.50 
  -8  -2  -2  193.08   17.80 
  -8   2  -2  199.48   15.80 
  -8   2  -2  198.28   16.00 
  -8   2  -2  186.48   16.70 
   8   2   2  182.08   15.60 
  -9  -2  -2  108.89   14.20 
  -9  -2  -2  122.39   12.80 
  -9  -2  -2   93.99   12.80 
   9  -2   2  119.59   12.50 
  -9   2  -2  131.49   14.20 
  -9   2  -2   97.39   11.70 
   9   2   2  117.79   11.90 
  -9   2  -2  105.39   11.50 
 -10  -2  -2   54.19   12.90 
 -10  -2  -2   42.80    9.30 
  10  -2   2   55.69    9.10 
 -10  -2  -2   64.19   10.30 
 -10   2  -2   61.29   11.70 
 -10   2  -2   51.39   10.70 
 -10  -3   2    3.40    3.30 
 -10  -3   2   -1.90    4.10 
  10  -3  -2    2.40    2.70 
 -10  -3   2    4.80    4.40 
 -10   3   2    0.80    4.30 
 -10   3   2    0.50    2.70 
  -9  -3   2   50.69   10.20 
  -9  -3   2   70.29   14.40 
   9  -3  -2   79.19    9.00 
  -9  -3   2   83.39    9.90 
  -9   3   2   58.39   10.20 
  -9   3   2   64.69    7.70 
   9   3  -2   70.59    9.30 
  -8  -3   2   59.79   12.80 
   8  -3  -2   73.39    8.10 
  -8  -3   2   65.59    9.20 
  -8  -3   2   72.09    9.20 
  -8  -3   2   73.19   12.00 
  -8   3   2   90.99   10.20 
  -8   3   2   71.89    8.10 
   8   3  -2   88.89    9.20 
  -8   3   2   80.69    8.00 
  -7  -3   2   29.70    5.70 
  -7  -3   2   22.60    7.00 
  -7  -3   2   24.90    6.30 
   7  -3  -2   36.50    5.80 
  -7  -3   2   23.70    5.20 
  -7   3   2   27.60    4.40 
   7   3  -2   25.90    5.30 
  -7   3   2   24.30    5.90 
  -7   3   2   20.40    4.90 
   6  -3  -2  185.08   13.10 
  -6  -3   2  185.68   16.10 
  -6  -3   2  167.28   17.10 
  -6  -3   2  172.28   13.40 
   6  -3  -2  147.39   13.20 
  -6  -3   2  167.78   13.80 
  -6   3   2  170.28   12.20 
  -6   3   2  167.88   12.40 
   6   3  -2  169.88   13.60 
  -6   3   2  184.78   14.60 
   5  -3  -2 1260.67   82.69 
  -5  -3   2 1514.25   83.69 
   5  -3  -2 1516.35   82.09 
  -5  -3   2 1515.05   82.89 
  -5  -3   2 1390.66   87.69 
  -5  -3   2 1395.46   85.49 
   5   3  -2 1496.35   83.09 
  -5   3   2 1657.93   84.79 
  -5   3   2 1585.84   81.99 
  -5   3   2 1465.85   81.39 
   4  -3  -2  445.36   25.40 
   4  -3  -2  365.26   28.20 
  -4  -3   2  388.36   28.40 
  -4  -3   2  429.96   30.50 
   4  -3  -2  401.96   26.70 
  -4  -3   2  449.46   27.10 
  -4  -3   2  453.15   26.30 
  -4   3   2  437.46   24.50 
  -4   3   2  440.86   26.00 
  -4   3   2  407.46   24.50 
   4   3  -2  439.96   27.90 
  -4   3   2  455.85   28.00 
   4   3  -2  452.85   29.30 
   4   3  -2  439.06   26.60 
  -3  -3   2 5973.70  314.87 
   3  -3  -2 5399.56  315.67 
   3  -3  -2 5858.41  313.87 
   3  -3  -2 6052.69  313.77 
  -3  -3   2 5988.20  315.67 
   3  -3  -2 4904.61  316.97 
  -3  -3   2 5698.93  318.07 
  -3   3   2 5975.50  315.47 
  -3   3   2 6293.27  320.17 
  -3   3   2 5682.13  316.37 
   3   3  -2 6111.59  315.47 
   3   3  -2 6651.53  316.87 
   3   3  -2 5772.32  317.17 
   3   3  -2 5832.12  322.37 
  -3   3   2 5990.30  317.17 
   2  -3  -2  180.28    9.90 
  -2  -3   2  156.68   13.40 
   2  -3  -2  137.89   12.60 
   2  -3  -2  156.58   12.10 
  -2  -3   2  161.98   14.70 
  -2  -3   2  190.48   12.00 
   2  -3  -2  183.28   10.00 
   2   3  -2  184.48   11.20 
   2   3  -2  190.38   11.90 
   2   3  -2  155.98   13.90 
  -2   3   2  175.48   14.20 
  -2   3   2  162.38   12.10 
   2   3  -2  161.18   13.10 
  -2   3   2  162.88   12.50 
  -2   3   2  162.28   13.00 
   1  -3  -2 3034.70  165.48 
  -1  -3   2 2998.30  166.68 
  -1  -3   2 2907.51  167.98 
  -1  -3   2 2688.33  163.48 
   1  -3  -2 3319.07  167.08 
  -1  -3   2 3147.79  163.88 
   1   3  -2 3175.58  163.08 
   1   3  -2 3071.79  166.38 
  -1   3   2 3051.19  166.78 
  -1   3   2 3063.99  165.18 
   1   3  -2 3019.10  166.38 
   1   3  -2 2922.01  167.28 
   1   3  -2 3208.48  163.78 
  -1   3   2 3015.80  165.18 
  -1   3   2 2911.11  165.68 
   0  -3  -2 5908.11  318.87 
   0  -3   2 5692.93  318.67 
   0  -3   2 5935.01  320.77 
   0  -3   2 5981.80  316.57 
   0   3  -2 6038.60  315.67 
   0   3  -2 6659.23  316.47 
   0   3   2 5852.01  317.87 
   0   3  -2 5770.22  319.17 
   0   3   2 5710.43  318.77 
   0   3  -2 5614.14  320.07 
   0   3  -2 5869.71  318.77 
   1  -3   2 2005.10  111.19 
   1  -3   2 2017.40  107.29 
   1  -3   2 2073.99  106.79 
  -1  -3  -2 2044.70  105.29 
  -1  -3  -2 1938.01  109.39 
  -1  -3  -2 1971.70  109.09 
   1  -3   2 1771.12  108.59 
   1   3   2 2026.80  108.39 
  -1   3  -2 1987.90  106.19 
  -1   3  -2 2001.30  108.99 
   1   3   2 1939.11  108.89 
  -1   3  -2 1805.92  109.79 
  -1   3  -2 1901.61  110.89 
  -2  -3  -2 2345.37  132.79 
   2  -3   2 2196.48  131.79 
   2  -3   2 2562.84  129.89 
  -2  -3  -2 2184.38  130.29 
  -2  -3  -2 2293.07  132.29 
   2   3   2 2586.44  128.99 
   2   3   2 2473.85  131.49 
   2   3   2 2399.46  128.19 
  -2   3  -2 2326.57  133.29 
  -2   3  -2 2523.85  131.99 
  -2   3  -2 2365.96  129.39 
  -2   3  -2 2376.36  134.69 
   2   3   2 2444.96  131.89 
  -3  -3  -2 2197.18  124.39 
   3  -3   2 2015.00  123.29 
   3  -3   2 2342.87  121.69 
  -3  -3  -2 2201.78  124.69 
  -3  -3  -2 2191.48  121.09 
   3   3   2 2343.97  123.09 
  -3   3  -2 2196.08  124.79 
   3   3   2 2259.57  120.49 
  -3   3  -2 2308.57  123.09 
  -3   3  -2 2173.08  121.19 
   3   3   2 2307.57  123.39 
  -3   3  -2 2192.88  126.79 
  -4  -3  -2  195.48   16.50 
   4  -3   2  167.18   15.90 
  -4  -3  -2  213.88   14.40 
   4  -3   2  218.48   14.60 
  -4  -3  -2  175.48   19.20 
   4   3   2  212.08   13.80 
   4   3   2  216.28   17.30 
  -4   3  -2  218.88   15.20 
  -4   3  -2  213.88   16.60 
  -5  -3  -2   17.80    5.20 
  -5  -3  -2   11.10    4.40 
  -5  -3  -2   24.10    4.40 
   5  -3   2   19.00    3.90 
   5   3   2   22.70    4.00 
  -5   3  -2   19.20    4.90 
  -5   3  -2   15.70    3.80 
   5   3   2   20.60    5.10 
  -6  -3  -2  268.07   19.20 
  -6  -3  -2  266.87   22.20 
  -6  -3  -2  262.47   19.10 
  -6  -3  -2  265.07   21.80 
   6  -3   2  243.68   18.70 
  -6   3  -2  266.57   18.80 
   6   3   2  265.37   18.40 
  -6   3  -2  273.87   18.60 
  -6   3  -2  283.57   20.70 
  -7  -3  -2  143.99   15.60 
  -7  -3  -2  150.38   15.20 
  -7  -3  -2  127.29   12.70 
   7  -3   2  154.18   13.10 
  -7  -3  -2  139.49   12.80 
  -7   3  -2  163.38   18.20 
  -7   3  -2  147.39   12.40 
   7   3   2  142.89   12.20 
  -7   3  -2  143.39   13.70 
  -8  -3  -2    3.10    4.20 
  -8  -3  -2    7.50    4.60 
  -8  -3  -2    7.60    5.10 
  -8  -3  -2    2.80    3.70 
   8  -3   2   16.00    4.90 
  -8   3  -2    9.70    4.00 
  -8   3  -2    4.80    3.10 
  -8   3  -2    9.90    4.20 
   8   3   2   10.80    4.00 
  -9  -3  -2   23.60    8.30 
  -9  -3  -2   30.00    8.00 
   9  -3   2   27.40    6.20 
  -9  -3  -2   43.20    8.10 
  -9   3  -2   28.60    6.90 
  -9   3  -2   24.60    6.50 
  10  -4  -2   32.80    6.60 
 -10  -4   2   29.60   10.10 
 -10  -4   2   15.10    8.10 
 -10  -4   2   35.10    8.90 
 -10   4   2   41.30    7.00 
 -10   4   2   43.20    9.70 
  -9  -4   2   -0.30    4.80 
  -9  -4   2    0.60    3.30 
   9  -4  -2    0.40    2.40 
  -9  -4   2    1.50    3.50 
  -9   4   2   -0.60    2.50 
  -9   4   2    3.40    4.30 
  -8  -4   2  152.88   19.10 
   8  -4  -2  165.28   14.00 
  -8  -4   2  141.59   16.50 
  -8  -4   2  151.68   16.00 
  -8  -4   2  159.88   17.30 
  -8   4   2  159.08   12.50 
  -8   4   2  184.58   13.50 
   8   4  -2  157.28   18.90 
  -8   4   2  186.38   16.50 
  -7  -4   2   88.19   21.80 
  -7  -4   2  137.89   12.30 
  -7  -4   2  127.59   16.30 
   7  -4  -2  143.59   11.80 
  -7  -4   2  132.09   12.50 
  -7   4   2  136.79   11.10 
  -7   4   2  122.89   10.20 
   7   4  -2  136.49   12.50 
  -7   4   2  160.58   14.50 
  -6  -4   2   60.09    7.10 
   6  -4  -2   72.29    6.80 
  -6  -4   2   58.19    7.70 
  -6  -4   2   54.59   11.50 
  -6  -4   2   60.89    9.10 
  -6   4   2   76.09    8.80 
  -6   4   2   66.99    6.80 
  -6   4   2   60.99    5.60 
   6   4  -2   59.59    7.20 
  -5  -4   2  867.41   51.59 
  -5  -4   2  820.02   55.49 
   5  -4  -2  774.02   52.59 
  -5  -4   2  868.41   52.59 
  -5  -4   2  872.31   58.19 
   5  -4  -2  925.81   50.89 
  -5   4   2  933.21   51.79 
  -5   4   2 1033.40   55.29 
   5   4  -2  917.51   52.29 
  -4  -4   2 2075.89  115.49 
   4  -4  -2 2175.98  114.49 
  -4  -4   2 2009.10  122.09 
  -4  -4   2 2225.58  116.79 
  -4  -4   2 2021.00  119.99 
  -4   4   2 2266.17  119.29 
  -4   4   2 2097.09  116.69 
  -4   4   2 1941.91  118.69 
   4   4  -2 2128.79  116.09 
  -3  -4   2  675.43   44.00 
   3  -4  -2  655.53   41.70 
  -3  -4   2  674.73   45.80 
   3  -4  -2  757.32   38.50 
  -3  -4   2  724.83   40.80 
   3   4  -2  655.93   42.70 
  -3   4   2  671.23   44.90 
  -3   4   2  656.73   42.20 
  -3   4   2  701.53   43.20 
  -3   4   2  712.93   41.50 
   3   4  -2  679.13   40.20 
   2  -4  -2 3444.96  173.08 
  -2  -4   2 3178.78  179.38 
  -2  -4   2 3269.97  181.68 
  -2  -4   2 3253.17  174.98 
   2  -4  -2 3378.06  172.78 
  -2  -4   2 3391.26  175.58 
  -2   4   2 3190.28  177.08 
   2   4  -2 3250.77  173.98 
  -2   4   2 3118.49  177.48 
   2   4  -2 3082.09  178.38 
   2   4  -2 3092.39  179.78 
   2   4  -2 3257.07  174.98 
   2   4  -2 3159.68  179.08 
  -1  -4   2  100.59   10.40 
  -1  -4   2  105.79    7.80 
   1  -4  -2   98.49   10.40 
  -1  -4   2   96.49    7.70 
  -1  -4   2   99.49   11.20 
   1  -4  -2   97.49    9.60 
   1   4  -2   94.09    6.50 
   1   4  -2   99.49    7.20 
   1   4  -2   86.29    9.50 
  -1   4   2   82.59    9.20 
   1   4  -2   77.19    9.10 
  -1   4   2   89.09    9.00 
  -1   4   2   92.09    8.90 
  -1   4   2   89.49   10.10 
   1   4  -2   86.09   10.10 
   0  -4   2  556.54   31.30 
   0  -4  -2  543.95   28.70 
   0  -4  -2  553.14   35.00 
   0  -4  -2  522.55   34.10 
   0  -4   2  530.85   36.30 
   0  -4   2  524.05   36.20 
   0   4   2  521.35   34.70 
   0   4  -2  505.55   34.00 
   0   4  -2  532.75   34.80 
   0   4  -2  549.85   29.80 
   0   4   2  531.85   33.50 
   0   4   2  543.45   34.10 
   0   4  -2  477.65   35.30 
  -1  -4  -2 1823.62   89.79 
   1  -4   2 1727.53   97.69 
  -1  -4  -2 1595.44   96.29 
   1  -4   2 1736.93   91.59 
  -1  -4  -2 1696.63   95.89 
   1  -4   2 1566.34   94.59 
  -1   4  -2 1647.54   90.09 
  -1   4  -2 1554.14   95.99 
  -1   4  -2 1721.83   94.89 
  -1   4  -2 1622.94   95.49 
   1   4   2 1635.14   94.89 
   1   4   2 1641.74   93.99 
   2  -4   2 5428.56  287.47 
  -2  -4  -2 5473.65  292.57 
   2  -4   2 5444.56  288.37 
  -2  -4  -2 5172.98  291.47 
  -2  -4  -2 5409.26  286.47 
   2  -4   2 4896.41  290.57 
   2  -4   2 6188.08  295.67 
   2   4   2 5351.06  290.97 
  -2   4  -2 5202.38  286.37 
   2   4   2 5404.66  290.17 
  -2   4  -2 5482.35  290.67 
  -2   4  -2 5045.70  293.67 
  -2   4  -2 5143.58  292.47 
  -3  -4  -2  775.22   50.09 
   3  -4   2  814.42   45.60 
  -3  -4  -2  755.32   49.30 
  -3   4  -2  768.62   49.80 
   3   4   2  780.42   43.90 
   3   4   2  800.42   48.40 
  -3   4  -2  840.92   48.30 
  -4  -4  -2  592.44   41.10 
  -4  -4  -2  627.74   37.00 
  -4  -4  -2  582.74   41.20 
   4  -4   2  630.44   37.10 
  -4   4  -2  609.34   40.90 
   4   4   2  601.54   35.80 
  -4   4  -2  674.43   39.30 
   4   4   2  660.23   39.90 
  -5  -4  -2 1563.04   97.49 
  -5  -4  -2 1522.25   97.69 
  -5  -4  -2 1669.03   93.29 
  -5  -4  -2 1718.93   93.29 
   5  -4   2 1704.13   93.39 
   5   4   2 1662.63   93.69 
  -5   4  -2 1725.43   97.19 
  -5   4  -2 1746.73   94.69 
  -6  -4  -2  787.42   52.09 
   6  -4   2  825.02   47.50 
  -6  -4  -2  725.23   51.69 
  -6  -4  -2  813.82   47.60 
  -6  -4  -2  739.93   47.00 
  -6   4  -2  759.32   47.60 
  -6   4  -2  789.02   46.70 
  -6   4  -2  834.92   50.89 
   6   4   2  803.02   46.50 
  -7  -4  -2   24.60    7.30 
   7  -4   2   23.30    5.60 
  -7  -4  -2   24.80    5.20 
  -7  -4  -2   29.50    6.00 
  -7   4  -2   19.20    6.10 
  -7   4  -2   18.20    4.90 
  -7   4  -2   21.10    4.60 
   7   4   2   24.30    4.70 
  -8  -4  -2   40.70    8.30 
  -8  -4  -2   28.60    8.40 
   8  -4   2   22.50    5.50 
  -8  -4  -2   26.90    6.00 
  -8  -4  -2   17.90    6.80 
  -8   4  -2   25.20    5.70 
  -8   4  -2   29.20    7.20 
  -9  -4  -2    8.70    4.80 
  -9  -4  -2    7.40    5.70 
   9  -4   2   12.10    5.20 
  -9  -4  -2    3.40    6.50 
  -9   4  -2   14.60    5.60 
  -9   4  -2   10.70    4.70 
  -9  -5   2    3.80    3.90 
   9  -5  -2    1.30    2.60 
  -9  -5   2    7.70    6.20 
  -9   5   2   -0.80    3.70 
  -9   5   2   -2.80    2.50 
  -8  -5   2   16.80    7.40 
  -8  -5   2   28.00    6.50 
  -8  -5   2   10.10    6.10 
   8  -5  -2   24.20    4.90 
  -8   5   2   21.30    5.10 
  -8   5   2   22.70    7.20 
  -7  -5   2   48.30    8.00 
   7  -5  -2   61.29    6.90 
  -7  -5   2   52.19   12.60 
  -7  -5   2   56.39   10.90 
  -7  -5   2   48.50    8.70 
   7   5  -2   50.09    8.20 
  -7   5   2   77.29    9.80 
  -7   5   2   60.49    7.00 
  -6  -5   2   31.60    9.70 
  -6  -5   2   44.50    6.80 
  -6  -5   2   42.10   11.30 
  -6  -5   2   36.70    8.60 
   6  -5  -2   49.10    5.60 
   6   5  -2   50.49    6.60 
  -6   5   2   55.29    6.60 
  -6   5   2   54.99    8.80 
  -5  -5   2  508.75   32.40 
   5  -5  -2  520.05   30.20 
  -5  -5   2  424.66   37.30 
  -5  -5   2  478.05   31.20 
  -5  -5   2  472.05   36.00 
  -5   5   2  530.15   32.50 
  -5   5   2  569.04   35.70 
  -4  -5   2  294.77   20.30 
  -4  -5   2  270.67   25.30 
  -4  -5   2  284.77   24.00 
   4  -5  -2  292.07   17.90 
  -4   5   2  295.27   23.10 
   4   5  -2  290.37   19.50 
  -4   5   2  293.57   21.00 
  -3  -5   2  380.46   23.90 
  -3  -5   2  375.36   30.50 
  -3  -5   2  404.16   24.90 
  -3  -5   2  387.96   29.10 
   3  -5  -2  388.66   22.20 
  -3   5   2  410.86   28.70 
  -3   5   2  382.76   26.40 
  -3   5   2  377.56   27.00 
   3   5  -2  362.56   28.60 
   3   5  -2  375.76   23.70 
  -2  -5   2  308.97   24.30 
  -2  -5   2  323.87   20.20 
  -2  -5   2  282.87   25.20 
   2  -5  -2  313.97   17.30 
   2   5  -2  304.27   18.70 
  -2   5   2  306.87   22.40 
  -2   5   2  289.17   22.30 
  -2   5   2  293.67   23.30 
   2   5  -2  314.27   24.10 
  -1  -5   2   76.29    6.80 
   1  -5  -2   85.49   10.20 
  -1  -5   2   81.09   11.00 
  -1  -5   2   70.09    6.60 
  -1  -5   2   78.89   10.00 
   1  -5  -2   78.39    9.40 
  -1   5   2   79.19    8.60 
   1   5  -2   67.39    9.10 
  -1   5   2   62.49    8.60 
  -1   5   2   64.69    9.30 
  -1   5   2   56.79    7.90 
   0  -5  -2 4489.45  239.08 
   0  -5   2 4382.56  240.88 
   0  -5   2 4327.57  233.08 
   0  -5  -2 4425.16  230.08 
   0  -5  -2 4336.37  230.08 
   0  -5  -2 4268.27  237.58 
   0  -5   2 4662.73  233.08 
   0   5   2 4135.29  237.28 
   0   5   2 4226.78  238.28 
   0   5   2 3885.01  236.98 
   0   5  -2 4286.27  237.48 
   0   5   2 4391.86  237.38 
   1  -5   2 1231.08   67.39 
   1  -5   2 1199.28   67.79 
   1  -5   2 1201.88   74.69 
  -1  -5  -2 1229.38   65.39 
  -1  -5  -2 1242.38   73.59 
  -1  -5  -2 1202.08   72.29 
  -1   5  -2 1094.39   72.89 
   1   5   2 1196.88   72.29 
  -1   5  -2 1220.78   71.69 
  -2  -5  -2  614.64   41.30 
  -2  -5  -2  585.54   40.10 
   2  -5   2  662.23   43.20 
   2  -5   2  599.84   35.20 
   2  -5   2  574.84   35.80 
  -2  -5  -2  591.94   33.90 
   2   5   2  560.44   39.10 
  -2   5  -2  628.44   39.30 
  -2   5  -2  554.74   40.50 
   3  -5   2 3237.58  174.78 
  -3  -5  -2 3199.28  174.08 
  -3  -5  -2 3184.38  181.78 
  -3  -5  -2 2996.40  180.18 
  -3  -5  -2 3187.08  173.98 
   3  -5   2 3125.79  175.78 
  -3   5  -2 3269.77  172.48 
  -3   5  -2 3237.28  181.48 
  -3   5  -2 3521.25  179.18 
   4  -5   2  128.79   10.20 
  -4  -5  -2  118.39   14.10 
  -4  -5  -2  117.89   13.90 
   4  -5   2  101.29   10.70 
  -4  -5  -2  131.09   10.00 
  -4   5  -2  112.19   13.40 
  -4   5  -2  112.39   11.90 
  -4   5  -2  118.89    8.40 
  -5  -5  -2  327.97   28.30 
  -5  -5  -2  304.67   27.20 
   5  -5   2  368.16   23.40 
  -5  -5  -2  343.77   23.00 
  -5  -5  -2  353.56   23.10 
  -5   5  -2  365.96   25.30 
   5   5   2  311.47   21.30 
  -5   5  -2  364.86   27.70 
  -5   5  -2  358.26   21.30 
  -6  -5  -2   19.80    7.00 
  -6  -5  -2   19.90    4.90 
   6  -5   2   28.50    5.40 
  -6  -5  -2   19.20    6.70 
  -6  -5  -2   11.30    4.20 
  -6   5  -2   27.40    5.80 
  -6   5  -2   19.00    3.50 
   6   5   2   18.60    4.10 
  -6   5  -2   28.40    7.20 
  -7  -5  -2  135.49   13.00 
  -7  -5  -2  130.99   12.50 
  -7  -5  -2  128.59   16.70 
   7  -5   2  139.19   12.90 
  -7  -5  -2  128.39   16.80 
  -7   5  -2  157.28   16.20 
  -7   5  -2  135.59   13.40 
   8  -5   2   33.80    6.90 
  -8  -5  -2   16.70    9.30 
  -8  -5  -2   29.50    7.10 
  -8  -5  -2   38.10   10.70 
  -8   5  -2   36.10    7.30 
  -8   5  -2   22.90   11.20 
   8  -6  -2   11.30    4.10 
  -8  -6   2   10.70    7.40 
  -8  -6   2   14.30    5.00 
  -8  -6   2    8.40    5.40 
  -8   6   2    3.50    3.50 
  -8   6   2   14.60    6.00 
  -7  -6   2   17.90    5.20 
  -7  -6   2   31.30    8.10 
   7  -6  -2   14.70    4.20 
  -7  -6   2   32.80   10.80 
  -7   6   2   29.50    6.10 
  -7   6   2   20.30    6.50 
  -6  -6   2  130.89   18.10 
  -6  -6   2  162.98   18.30 
  -6  -6   2  139.29   12.70 
  -6  -6   2  140.79   13.50 
   6  -6  -2  157.28   12.00 
  -6   6   2  150.98   13.60 
  -6   6   2  159.28   16.60 
   6   6  -2  142.19   12.30 
  -5  -6   2  260.97   24.60 
  -5  -6   2  274.17   27.20 
  -5  -6   2  300.17   21.00 
   5  -6  -2  268.37   17.90 
  -5   6   2  303.57   24.20 
  -5   6   2  259.67   20.50 
   5   6  -2  265.87   18.80 
  -4  -6   2  476.45   29.60 
   4  -6  -2  482.25   26.60 
  -4  -6   2  457.85   34.90 
  -4  -6   2  467.05   28.20 
  -4  -6   2  446.26   36.70 
  -4   6   2  378.56   36.30 
   4   6  -2  395.96   33.60 
  -4   6   2  443.76   30.80 
  -3  -6   2  974.80   65.99 
   3  -6  -2 1056.59   54.19 
  -3  -6   2 1022.50   56.39 
  -3  -6   2  928.81   63.09 
  -3  -6   2 1002.30   57.49 
  -3   6   2  968.30   59.99 
   3   6  -2  953.90   62.99 
   3   6  -2  980.00   54.59 
  -3   6   2  924.61   61.79 
  -2  -6   2  961.60   53.69 
  -2  -6   2  965.80   54.49 
   2  -6  -2  965.90   50.99 
  -2  -6   2  947.21   60.89 
  -2  -6   2  916.81   62.99 
  -2   6   2  896.31   57.79 
   2   6  -2  936.01   60.29 
  -2   6   2  883.41   59.29 
  -1  -6   2 1629.84   90.99 
  -1  -6   2 1703.23   91.49 
   1  -6  -2 1637.64   88.09 
   1  -6  -2 1737.13   99.09 
   1  -6  -2 1709.43   88.09 
  -1  -6   2 1655.53  100.79 
  -1   6   2 1486.25   96.49 
  -1   6   2 1571.64   95.69 
   1   6  -2 1592.44   96.99 
   0  -6  -2  189.28   10.80 
   0  -6  -2  181.98   10.60 
   0  -6   2  163.58   12.90 
   0  -6   2  180.38   13.10 
   0  -6  -2  179.08   17.50 
   0  -6  -2  167.18   17.60 
   0  -6   2  186.88   19.60 
   0   6   2  151.38   16.10 
   0   6   2  152.78   16.30 
   0   6  -2  188.48   17.10 
  -1  -6  -2  596.64   33.90 
  -1  -6  -2  605.54   33.80 
   1  -6   2  599.84   44.20 
  -1  -6  -2  606.04   43.00 
  -1  -6  -2  593.34   41.60 
   1  -6   2  604.24   36.40 
   1  -6   2  646.44   36.20 
   1   6   2  585.74   41.20 
  -1   6  -2  604.34   40.90 
  -1   6  -2  571.14   42.60 
  -2  -6  -2  501.15   37.40 
  -2  -6  -2  506.35   29.00 
   2  -6   2  469.35   30.70 
  -2  -6  -2  471.75   35.90 
   2  -6   2  541.55   39.50 
   2  -6   2  515.15   30.30 
  -2  -6  -2  492.95   28.80 
  -2   6  -2  476.85   34.40 
  -2   6  -2  469.65   36.70 
  -3  -6  -2  319.07   20.40 
   3  -6   2  336.87   21.20 
   3  -6   2  304.37   21.90 
  -3  -6  -2  322.27   27.80 
  -3  -6  -2  320.97   20.40 
  -3   6  -2  322.27   27.20 
  -3   6  -2  321.77   25.10 
  -4  -6  -2  155.18   18.20 
  -4  -6  -2  151.38   17.30 
   4  -6   2  172.98   13.10 
  -4  -6  -2  181.98   13.00 
   4  -6   2  158.88   13.80 
  -4  -6  -2  170.88   12.90 
  -4   6  -2  162.18   17.40 
  -4   6  -2  178.68   16.20 
  -5  -6  -2  247.48   24.90 
  -5  -6  -2  264.17   35.90 
  -5  -6  -2  296.17   20.10 
   5  -6   2  283.27   21.40 
  -5  -6  -2  252.77   21.80 
   5  -6   2  290.47   20.20 
  -5   6  -2  319.87   23.30 
  -5   6  -2  296.07   25.60 
   6  -6   2  356.26   23.80 
  -6  -6  -2  328.17   29.60 
  -6  -6  -2  331.27   23.50 
  -6  -6  -2  325.57   30.10 
  -6  -6  -2  344.27   23.80 
   6  -6   2  326.87   25.10 
  -6   6  -2  315.17   25.00 
  -6   6  -2  347.07   28.30 
  -7  -6  -2  141.29   13.40 
  -7  -6  -2  109.99   17.40 
  -7  -6  -2  116.59   17.90 
   7  -6   2  150.38   14.20 
  -7   6  -2  168.38   15.40 
  -7   6  -2  152.38   19.60 
   7  -7  -2   10.30    3.70 
  -7  -7   2    1.60    5.40 
  -7  -7   2    5.70    5.80 
  -7  -7   2    8.40    4.50 
  -7   7   2   12.10    4.50 
  -7   7   2   11.50    6.10 
   6  -7  -2  116.79   10.60 
  -6  -7   2  127.99   13.00 
  -6  -7   2  113.99   17.10 
  -6  -7   2  107.59   16.20 
   6   7  -2  103.29   16.40 
  -6   7   2  139.29   15.80 
  -6   7   2  128.09   12.90 
   5  -7  -2   86.79    7.70 
  -5  -7   2   73.19   14.60 
  -5  -7   2   69.09   15.50 
  -5  -7   2   89.79   10.00 
  -5  -7   2   85.19    8.90 
  -5   7   2   96.59   13.30 
  -5   7   2   85.79   10.50 
   5   7  -2   88.79   13.90 
   4  -7  -2  218.78   13.90 
  -4  -7   2  201.58   23.60 
  -4  -7   2  192.18   21.20 
  -4  -7   2  205.08   15.50 
  -4  -7   2  214.38   16.90 
  -4   7   2  208.28   20.60 
  -4   7   2  224.88   19.10 
   4   7  -2  199.28   21.80 
  -3  -7   2  268.67   18.80 
  -3  -7   2  278.77   26.00 
   3  -7  -2  254.07   17.30 
   3  -7  -2  303.57   17.00 
  -3  -7   2  288.97   20.40 
  -3  -7   2  288.97   28.20 
  -3   7   2  252.57   23.60 
   3   7  -2  302.17   26.50 
  -3   7   2  280.57   25.10 
  -2  -7   2  170.58   12.60 
   2  -7  -2  163.38   10.80 
  -2  -7   2  170.18   20.40 
  -2  -7   2  169.98   13.50 
   2  -7  -2  171.28   10.40 
  -2  -7   2  171.78   18.80 
   2   7  -2  136.69   17.20 
  -2   7   2  179.98   18.10 
  -2   7   2  162.78   16.50 
  -1  -7   2  420.86   26.10 
   1  -7  -2  417.66   23.50 
   1  -7  -2  416.36   23.70 
  -1  -7   2  430.16   26.90 
   1  -7  -2  440.96   34.60 
  -1  -7   2  421.06   35.80 
   1   7  -2  405.46   32.40 
  -1   7   2  370.36   31.40 
  -1   7   2  370.66   32.90 
   0  -7  -2   47.70   10.60 
   0  -7  -2   50.09    6.00 
   0  -7   2   48.80    6.20 
   0  -7   2   43.30    5.90 
   0  -7   2   55.59   12.70 
   0  -7  -2   48.20    4.00 
   0  -7  -2   44.60   15.80 
   0   7   2   57.99    9.50 
   0   7  -2   45.60   11.20 
   0   7  -2   44.20    9.70 
   0   7   2   56.89   12.20 
  -1  -7  -2 1025.90   56.19 
  -1  -7  -2 1019.00   67.39 
   1  -7   2 1060.89   69.39 
   1  -7   2  954.00   58.19 
  -1  -7  -2 1035.10   65.99 
  -1  -7  -2 1012.80   55.69 
   1  -7   2 1057.29   58.29 
   1   7   2  926.81   64.39 
  -1   7  -2  938.71   66.29 
  -1   7  -2 1044.40   64.79 
  -2  -7  -2  207.68   21.60 
   2  -7   2  187.28   14.20 
   2  -7   2  184.18   14.90 
  -2  -7  -2  195.88   20.20 
  -2  -7  -2  198.08   15.90 
  -2  -7  -2  180.18   13.20 
   2  -7   2  204.58   22.50 
  -2   7  -2  182.28   20.20 
  -2   7  -2  215.48   19.20 
   2   7   2  191.88   19.90 
  -3  -7  -2   83.99   13.60 
  -3  -7  -2   76.09    7.10 
  -3  -7  -2   75.09    7.20 
   3  -7   2   62.19    8.10 
  -3  -7  -2   59.79   12.40 
   3  -7   2   69.79    7.50 
  -3   7  -2   77.49   10.90 
  -3   7  -2   88.59   13.00 
  -4  -7  -2  215.38   22.70 
  -4  -7  -2  214.38   23.20 
   4  -7   2  240.48   16.70 
  -4  -7  -2  237.88   16.30 
   4  -7   2  196.68   17.20 
  -4  -7  -2  197.78   15.80 
  -4   7  -2  238.28   23.60 
  -4   7  -2  229.58   20.30 
  -5  -7  -2   26.90    8.80 
  -5  -7  -2   19.20    4.60 
   5  -7   2   22.60    6.10 
   5  -7   2   36.40    5.60 
  -5  -7  -2   26.30    5.20 
  -5  -7  -2   21.90    7.80 
  -5   7  -2   28.30    7.60 
  -5   7  -2   38.70    9.50 
  -6  -7  -2   57.69   13.60 
  -6  -7  -2   63.79    8.10 
  -6  -7  -2   58.69   12.90 
   6  -7   2   60.99    8.20 
  -6   7  -2   63.59   10.30 
  -6   7  -2   73.29   11.50 
  -5  -8   2   86.09   10.50 
   5  -8  -2   66.49    8.30 
   5  -8  -2   73.49    7.10 
  -5  -8   2   73.69   15.00 
  -5  -8   2   69.89   16.40 
  -5   8   2   69.59   14.00 
  -5   8   2   88.99   11.00 
   5   8  -2   76.09   15.60 
   4  -8  -2  410.66   26.60 
  -4  -8   2  402.76   39.10 
   4  -8  -2  458.65   25.90 
  -4  -8   2  451.85   53.39 
  -4  -8   2  401.86   28.80 
  -4   8   2  431.36   35.30 
  -4   8   2  471.75   33.40 
   4   8  -2  382.76   50.19 
  -3  -8   2   10.70    6.90 
  -3  -8   2    2.80    5.00 
   3  -8  -2   12.70    2.30 
  -3  -8   2   12.70    3.40 
  -3  -8   2   11.70    3.70 
  -3   8   2   11.90    6.00 
   3   8  -2   10.80    6.00 
  -3   8   2    9.20    4.70 
   2  -8  -2   52.29    4.30 
  -2  -8   2   64.99    7.50 
   2  -8  -2   40.60    4.40 
  -2  -8   2   61.69    6.40 
  -2  -8   2   30.60   10.80 
  -2   8   2   41.30   10.40 
   2   8  -2   55.09   12.70 
  -2   8   2   43.30   10.10 
   1  -8  -2  242.78   14.20 
  -1  -8   2  219.18   17.20 
  -1  -8   2  201.18   25.40 
  -1  -8   2  246.98   16.80 
   1  -8  -2  225.38   13.90 
   1  -8  -2  263.47   26.50 
  -1   8   2  220.98   23.10 
   1   8  -2  237.08   23.30 
  -1   8   2  219.38   21.80 
   0  -8  -2   92.59   14.30 
   0  -8   2   94.79   15.50 
   0  -8   2   90.29    8.90 
   0  -8  -2   90.89    7.00 
   0  -8  -2   90.99    6.40 
   0  -8   2   88.29    8.50 
   0   8   2   55.29   11.50 
   0   8   2   83.99   12.90 
   0   8  -2   94.59   14.50 
   0   8  -2   83.09   12.70 
  -1  -8  -2  134.59    9.40 
   1  -8   2  140.29   18.70 
   1  -8   2  123.19   11.50 
   1  -8   2  131.99   11.30 
  -1  -8  -2  136.09   10.00 
  -1  -8  -2  119.09   16.10 
  -1  -8  -2  178.08   20.20 
  -1   8  -2  141.29   16.70 
   1   8   2  106.09   15.70 
   1   8   2  117.99   16.10 
  -1   8  -2  137.19   17.90 
  -2  -8  -2  119.49    9.60 
   2  -8   2  115.49   11.30 
  -2  -8  -2  128.49   17.10 
  -2  -8  -2  110.29   17.30 
  -2  -8  -2  135.49   10.40 
   2  -8   2  124.69   10.90 
  -2   8  -2  152.78   16.90 
  -2   8  -2  132.59   17.60 
   2   8   2  123.79   16.80 
   3  -8   2   12.30    4.20 
  -3  -8  -2   10.40    3.20 
   3  -8   2    9.90    3.30 
  -3  -8  -2    9.10    6.20 
  -3  -8  -2   15.40    3.70 
  -3  -8  -2    6.50    5.50 
  -3   8  -2   16.20    7.00 
   3   8   2   12.00    6.40 
  -3   8  -2    9.90    5.20 
  -4  -8  -2  298.07   20.60 
  -4  -8  -2  268.17   28.70 
   4  -8   2  278.47   21.90 
   4  -8   2  320.07   21.10 
  -4  -8  -2  282.47   29.90 
  -4  -8  -2  301.97   20.90 
   4   8   2  268.07   28.50 
  -4   8  -2  290.97   28.20 
  -4   8  -2  306.77   35.10 
   5  -8   2   46.20    5.90 
  -5  -8  -2   24.20    5.50 
  -5  -8  -2   37.50   10.50 
  -5  -8  -2   30.20   10.90 
  -5   8  -2   31.70    8.00 
  -5   8  -2   32.30    9.70 
  -2  -9   2    5.40    6.10 
  -2  -9   2   13.40    4.60 
   2  -9  -2   15.20    2.40 
   2   9  -2   19.50    8.30 
  -2   9   2   10.90    7.10 
  -2   9   2    2.60    7.00 
  -1  -9   2   41.00   12.30 
   1  -9  -2   51.69    4.20 
  -1  -9   2   41.60    6.40 
   1  -9  -2   50.99    4.50 
  -1  -9   2   51.19    7.70 
  -1   9   2   48.40   14.40 
   1   9  -2   52.09   12.00 
  -1   9   2   46.50   15.50 
   1   9  -2   57.79   13.30 
   0  -9  -2   76.69   16.80 
   0  -9   2   66.19    8.10 
   0  -9   2   67.39    8.00 
   0  -9  -2   74.19    5.60 
   0  -9   2   67.29   15.60 
   0   9   2   84.49   17.80 
   0   9   2   62.39   13.90 
   0   9  -2   53.69   13.10 
   0   9  -2   64.99   12.90 
  -1  -9  -2   49.30    5.70 
   1  -9   2   49.10    7.40 
   1  -9   2   57.79    6.80 
  -1  -9  -2   38.70   11.20 
   1  -9   2   45.10   13.70 
  -1   9  -2   42.80   11.30 
  -1   9  -2   57.59   12.20 
   1   9   2   41.00   11.40 
   1   9   2   34.90    9.90 
 -11   0   3   28.50    8.80 
 -11   0   3   31.00    7.00 
  11   0  -3   29.00    7.00 
 -10   0   3   20.50    5.50 
 -10   0   3   24.30    7.50 
  10   0  -3   31.60    6.50 
 -10   0   3   19.00    5.40 
   9   0  -3  238.08   18.00 
  -9   0   3  216.88   20.70 
  -9   0   3  235.78   18.40 
  -9   0   3  198.88   17.20 
  -8   0   3   17.10    4.30 
   8   0  -3   14.90    4.10 
  -8   0   3   21.00    4.70 
  -8   0   3   17.50    6.30 
  -7   0   3  140.09   13.90 
  -7   0   3  120.69   10.70 
   7   0  -3  139.49   10.30 
   7   0  -3  123.39   10.90 
  -7   0   3  118.09   11.20 
  -6   0   3  403.76   28.00 
  -6   0   3  403.66   26.60 
  -6   0   3  386.36   25.30 
   6   0  -3  446.86   24.80 
  -6   0   3  402.76   26.10 
   6   0  -3  425.16   26.20 
  -5   0   3 2219.18  121.29 
  -5   0   3 2012.20  120.29 
   5   0  -3 2358.86  119.79 
   5   0  -3 2485.15  122.59 
  -5   0   3 2189.38  121.89 
   5   0  -3 2161.08  121.19 
   5   0  -3 2149.48  121.39 
  -5   0   3 2143.29  122.89 
   4   0  -3  266.27   16.40 
  -4   0   3  224.38   16.60 
   4   0  -3  233.28   15.80 
  -4   0   3  224.48   14.90 
   4   0  -3  237.88   15.60 
  -4   0   3  247.18   15.60 
   4   0  -3  261.37   14.50 
  -4   0   3  242.38   16.20 
  -3   0   3   59.39    5.50 
  -3   0   3   59.09    5.00 
   3   0  -3   54.09    5.20 
  -3   0   3   61.09    4.70 
   3   0  -3   67.49    5.50 
  -3   0   3   54.99    5.90 
   3   0  -3   65.49    4.30 
   3   0  -3   65.49    5.60 
   1   0  -3  399.06   21.20 
   1   0  -3  377.06   21.70 
  -1   0   3  351.86   20.60 
  -1   0   3  384.96   21.70 
   1   0  -3  352.26   20.40 
   1   0  -3  370.16   21.70 
   2   0   3   76.19    6.10 
  -2   0  -3   64.69    5.90 
   2   0   3   73.99    6.70 
   2   0   3   75.29    6.10 
  -2   0  -3   81.49    6.00 
  -2   0  -3   83.29    5.70 
  -3   0  -3  227.28   13.90 
  -3   0  -3  194.68   14.10 
   3   0   3  223.08   14.30 
  -3   0  -3  236.48   14.30 
   3   0   3  215.28   14.30 
   3   0   3  194.78   14.10 
  -4   0  -3  304.17   19.70 
  -4   0  -3  319.87   19.50 
  -4   0  -3  325.07   19.70 
   4   0   3  301.07   19.50 
   4   0   3  282.37   19.70 
   4   0   3  286.77   19.50 
  -5   0  -3  706.43   43.20 
  -5   0  -3  775.62   43.40 
   5   0   3  673.73   43.60 
  -5   0  -3  762.92   43.20 
   5   0   3  730.93   43.20 
  -6   0  -3 2352.56  133.89 
  -6   0  -3 2287.97  133.69 
  -6   0  -3 2604.74  133.99 
   7   0   3    4.10    2.40 
  -7   0  -3   -1.00    2.90 
  -7   0  -3    0.10    1.90 
  -8   0  -3  166.38   16.20 
  -8   0  -3  173.88   15.40 
   8   0   3  166.38   14.90 
  -9   0  -3  378.96   29.60 
   9   0   3  371.96   27.50 
  -9   0  -3  423.46   28.80 
  -9   0  -3  372.26   28.30 
 -10   0  -3   14.40    6.50 
 -10   0  -3    4.50    5.20 
 -10   0  -3   10.00    4.30 
  10   0   3   13.90    5.10 
 -11  -1   3   20.00    6.40 
 -11  -1   3   15.10    6.80 
  11  -1  -3   15.60    5.40 
 -11   1   3   14.50    6.80 
  11   1  -3   17.70    5.50 
 -11   1   3   10.70    4.50 
  10  -1  -3    2.00    3.00 
 -10  -1   3    3.20    3.90 
 -10  -1   3    4.70    5.00 
 -10  -1   3    0.90    3.10 
 -10   1   3    6.80    5.40 
 -10   1   3    3.80    3.50 
 -10   1   3    1.70    3.50 
  10   1  -3    3.00    3.40 
   9  -1  -3   -1.90    2.30 
  -9  -1   3    2.70    3.50 
  -9  -1   3    6.20    3.20 
  -9  -1   3    3.00    3.10 
  -9   1   3    2.70    4.20 
   9   1  -3    2.40    2.30 
  -9   1   3    3.20    2.60 
  -8  -1   3  208.88   19.40 
  -8  -1   3  191.18   16.40 
  -8  -1   3  218.38   17.20 
   8  -1  -3  213.78   16.10 
  -8   1   3  200.28   16.20 
  -8   1   3  225.08   18.40 
  -8   1   3  189.08   14.80 
   8   1  -3  179.28   15.60 
  -7  -1   3 1100.89   64.69 
  -7  -1   3 1020.50   64.69 
   7  -1  -3 1067.39   62.99 
  -7  -1   3 1102.09   68.29 
   7  -1  -3 1082.49   64.09 
   7   1  -3 1281.17   63.49 
  -7   1   3 1092.39   64.59 
   7   1  -3 1068.69   64.39 
  -7   1   3 1190.68   66.59 
  -7   1   3 1133.89   63.89 
   6  -1  -3  537.05   32.20 
  -6  -1   3  548.45   34.40 
  -6  -1   3  577.34   34.70 
   6  -1  -3  590.74   33.60 
  -6  -1   3  505.95   33.70 
  -6  -1   3  550.84   36.70 
  -6   1   3  538.25   34.50 
   6   1  -3  580.14   32.60 
  -6   1   3  542.15   33.70 
   6   1  -3  540.35   33.60 
  -6   1   3  550.94   32.10 
   5  -1  -3   79.69    6.60 
  -5  -1   3   95.39    8.50 
  -5  -1   3   83.29    7.60 
   5  -1  -3   85.19    7.80 
   5  -1  -3   85.99    8.60 
   5  -1  -3   84.29    7.60 
  -5  -1   3   76.29    7.80 
  -5  -1   3   77.79    9.10 
   5   1  -3   90.59    8.00 
   5   1  -3   98.89    8.80 
  -5   1   3   90.59    8.50 
   5   1  -3   97.39    7.30 
  -5   1   3   90.49    7.90 
  -5   1   3   95.59    6.70 
  -5   1   3   94.19    7.60 
   5   1  -3   86.49    7.80 
  -4  -1   3 4306.37  234.48 
  -4  -1   3 4165.88  233.58 
   4  -1  -3 4024.00  233.38 
  -4  -1   3 3922.11  233.78 
  -4  -1   3 4172.78  236.08 
   4  -1  -3 4311.27  234.68 
   4  -1  -3 4438.26  233.38 
   4   1  -3 4321.27  233.98 
   4   1  -3 4552.74  234.98 
   4   1  -3 4382.16  233.98 
  -4   1   3 4293.57  233.78 
   4   1  -3 4642.34  233.28 
  -4   1   3 4216.28  233.18 
  -4   1   3 4705.93  232.08 
  -4   1   3 4683.83  234.28 
  -3  -1   3 2232.28  128.89 
   3  -1  -3 2101.59  126.99 
   3  -1  -3 2377.86  128.09 
  -3  -1   3 2502.05  129.49 
  -3  -1   3 2358.96  130.69 
   3  -1  -3 2434.96  129.19 
  -3  -1   3 2417.46  128.59 
   3   1  -3 2348.27  128.39 
  -3   1   3 2605.94  128.79 
  -3   1   3 2319.27  127.89 
   3   1  -3 2391.36  129.79 
   3   1  -3 2262.77  128.79 
   3   1  -3 2290.77  128.79 
  -3   1   3 2400.46  128.49 
  -3   1   3 2562.74  126.79 
  -2  -1   3  488.85   28.30 
   2  -1  -3  485.45   27.20 
  -2  -1   3  491.85   27.80 
   2  -1  -3  472.75   27.70 
  -2  -1   3  483.85   29.40 
  -2  -1   3  449.66   28.00 
   2   1  -3  450.15   28.10 
   2   1  -3  481.45   28.20 
  -2   1   3  561.94   27.60 
   2   1  -3  447.26   27.80 
  -2   1   3  466.85   26.10 
   2   1  -3  466.25   27.80 
  -2   1   3  500.25   27.00 
   2   1  -3  483.85   28.80 
  -2   1   3  482.55   27.40 
  -2   1   3  492.95   25.90 
   1  -1   3 1135.19   60.29 
   1  -1   3 1120.99   61.09 
   1  -1   3 1017.90   60.29 
  -1  -1  -3 1075.49   59.09 
  -1  -1  -3 1213.68   60.69 
  -1  -1  -3 1173.88   60.09 
  -1   1  -3  964.00   60.49 
  -1   1  -3 1022.70   62.79 
   1   1   3 1077.39   59.39 
   1   1   3 1071.09   60.19 
   1   1   3 1214.48   58.69 
  -1   1  -3 1050.29   60.19 
   1   1   3 1139.19   59.59 
  -1   1  -3 1012.90   61.59 
  -1   1  -3 1050.89   60.09 
  -2  -1  -3  238.58   15.50 
  -2  -1  -3  235.68   15.60 
   2  -1   3  233.98   16.70 
  -2  -1  -3  257.47   16.20 
   2  -1   3  253.97   16.00 
   2  -1   3  219.48   16.00 
  -2   1  -3  254.47   15.90 
  -2   1  -3  252.37   16.30 
  -2   1  -3  265.57   17.80 
   2   1   3  262.67   15.60 
   2   1   3  293.47   15.20 
  -2   1  -3  262.67   16.20 
   2   1   3  263.77   15.80 
   2   1   3  260.07   16.60 
  -3  -1  -3 1381.66   79.49 
   3  -1   3 1479.35   79.79 
   3  -1   3 1349.77   79.89 
  -3  -1  -3 1452.05   79.99 
  -3  -1  -3 1345.87   79.29 
  -3   1  -3 1330.87   79.49 
  -3   1  -3 1442.16   79.69 
   3   1   3 1555.14   79.49 
   3   1   3 1407.26   79.29 
  -3   1  -3 1485.65   79.39 
   3   1   3 1589.84   79.09 
  -4  -1  -3 2421.56  138.29 
  -4  -1  -3 2570.14  138.69 
   4  -1   3 2335.37  138.49 
  -4  -1  -3 2599.04  138.29 
   4  -1   3 2582.64  138.19 
  -4   1  -3 2649.43  138.19 
   4   1   3 2648.03  137.79 
  -4   1  -3 2563.54  137.69 
   4   1   3 2439.06  137.79 
  -4   1  -3 2402.96  137.99 
   4   1   3 2593.54  137.89 
  -5  -1  -3  466.25   30.50 
  -5  -1  -3  489.95   30.40 
   5  -1   3  408.96   30.60 
  -5  -1  -3  488.45   29.90 
   5  -1   3  459.05   29.60 
  -5   1  -3  463.05   29.60 
   5   1   3  461.65   29.30 
  -5   1  -3  505.05   29.40 
  -5   1  -3  509.35   29.80 
   5   1   3  498.85   29.80 
   6  -1   3  192.98   14.50 
  -6  -1  -3  166.28   14.80 
  -6  -1  -3  188.48   14.80 
  -6  -1  -3  158.28   13.80 
  -6   1  -3  172.28   13.50 
  -6   1  -3  176.28   14.10 
  -7  -1  -3  174.98   16.60 
   7  -1   3  170.78   15.10 
  -7  -1  -3  197.18   22.10 
  -7  -1  -3  184.08   15.20 
   7   1   3  178.38   15.00 
  -7   1  -3  200.38   16.10 
  -7   1  -3  205.48   15.50 
  -8  -1  -3   38.70    8.30 
  -8  -1  -3   27.70    6.00 
   8  -1   3   25.40    5.60 
  -8  -1  -3   19.20    5.70 
  -8   1  -3   32.40    6.40 
  -8   1  -3   23.40    6.30 
   8   1   3   24.30    5.30 
  -8   1  -3   21.80    5.20 
  -9  -1  -3   24.40    6.30 
  -9  -1  -3   14.90    5.20 
   9  -1   3   26.30    6.40 
  -9  -1  -3   26.80    7.80 
  -9   1  -3   22.90    6.10 
   9   1   3   30.20    6.00 
  -9   1  -3   20.80    6.00 
  -9   1  -3   36.00    8.80 
  10  -1   3  111.29   12.10 
 -10  -1  -3   89.79   11.50 
 -10  -1  -3   87.09   13.50 
 -10  -1  -3   86.59   12.60 
 -10   1  -3   88.99   11.80 
 -10  -2   3   90.79   14.30 
 -10  -2   3   82.99   11.80 
  10  -2  -3  117.19   11.90 
 -10  -2   3  117.59   12.70 
 -10   2   3   88.39   12.20 
  10   2  -3   98.29   11.40 
 -10   2   3  122.99   14.90 
  -9  -2   3  116.29   12.60 
  -9  -2   3  111.29   15.30 
   9  -2  -3  112.49   11.30 
  -9   2   3  106.69   11.10 
   9   2  -3  118.39   11.90 
  -9   2   3  113.79   10.50 
  -9   2   3  113.29   13.10 
   8  -2  -3   76.79    8.60 
  -8  -2   3   86.19   11.90 
  -8  -2   3   88.29    9.70 
  -8  -2   3   61.79    9.00 
  -8   2   3   74.89    7.40 
  -8   2   3   80.39   10.00 
  -8   2   3   72.29    8.10 
   8   2  -3   96.69    9.50 
   7  -2  -3  121.09   10.60 
  -7  -2   3  129.19   11.30 
   7  -2  -3  114.79   10.30 
  -7  -2   3  121.69   14.10 
  -7  -2   3  118.49   12.00 
  -7  -2   3  135.49   12.10 
  -7   2   3  128.39    9.60 
  -7   2   3  133.09   12.10 
   7   2  -3  102.39   10.60 
  -7   2   3  120.69   10.70 
   6  -2  -3  474.35   28.70 
  -6  -2   3  402.86   30.00 
  -6  -2   3  442.36   33.00 
   6  -2  -3  381.46   27.80 
  -6  -2   3  478.15   29.40 
  -6  -2   3  451.95   30.00 
  -6   2   3  526.35   30.50 
   6   2  -3  530.35   29.30 
   6   2  -3  433.06   29.20 
  -6   2   3  490.75   29.10 
  -6   2   3  499.15   27.40 
   5  -2  -3  748.63   42.00 
  -5  -2   3  699.03   43.30 
  -5  -2   3  672.43   43.80 
   5  -2  -3  601.34   41.20 
  -5  -2   3  744.73   42.60 
  -5  -2   3  718.93   46.50 
   5  -2  -3  664.13   44.30 
  -5   2   3  731.13   42.10 
   5   2  -3  788.62   43.00 
  -5   2   3  845.82   43.60 
   5   2  -3  730.43   43.00 
  -5   2   3  781.62   40.70 
  -4  -2   3 1021.70   62.29 
   4  -2  -3  932.71   59.89 
  -4  -2   3 1046.00   65.29 
   4  -2  -3  992.00   61.49 
  -4  -2   3 1146.49   61.99 
   4  -2  -3  957.70   59.79 
   4  -2  -3 1010.60   62.49 
  -4  -2   3 1153.48   61.09 
   4   2  -3 1112.89   61.39 
   4   2  -3 1159.68   61.29 
   4   2  -3 1132.19   63.29 
   4   2  -3 1147.39   61.69 
  -4   2   3 1172.88   59.89 
  -4   2   3 1120.19   60.19 
  -4   2   3 1144.29   59.19 
   3  -2  -3  702.13   39.50 
   3  -2  -3  618.64   41.10 
   3  -2  -3  692.33   39.20 
   3  -2  -3  636.54   39.40 
  -3  -2   3  617.84   41.40 
  -3  -2   3  692.43   43.50 
  -3  -2   3  716.03   40.30 
  -3  -2   3  704.63   41.00 
   3   2  -3  666.33   45.30 
   3   2  -3  710.13   41.30 
  -3   2   3  775.22   40.80 
  -3   2   3  765.32   38.90 
  -3   2   3  729.43   39.00 
  -3   2   3  719.23   39.20 
  -3   2   3  696.83   39.90 
   3   2  -3  751.82   42.80 
   3   2  -3  770.82   40.70 
  -2  -2   3 5772.22  294.67 
   2  -2  -3 4782.92  294.37 
  -2  -2   3 5344.37  295.57 
  -2  -2   3 5568.94  294.17 
   2  -2  -3 5494.05  292.97 
  -2  -2   3 5496.05  297.27 
   2   2  -3 5674.53  294.17 
   2   2  -3 5544.45  296.57 
  -2   2   3 5952.60  291.87 
  -2   2   3 5322.97  293.37 
  -2   2   3 5486.15  293.27 
   2   2  -3 5698.43  294.67 
   2   2  -3 5397.86  295.37 
   2   2  -3 5318.97  295.17 
   0  -2  -3 4184.68  210.38 
   0  -2   3 4092.69  212.08 
   0  -2   3 3738.13  212.98 
   0  -2   3 3902.51  214.48 
   0  -2  -3 4014.70  211.98 
   0  -2  -3 4143.89  210.88 
   0  -2   3 4221.08  212.58 
   0  -2  -3 3838.02  212.18 
   0   2  -3 4031.70  211.98 
   0   2   3 3786.92  211.78 
   0   2  -3 3701.13  213.98 
   0   2   3 3515.35  211.38 
   0   2  -3 4130.99  212.48 
   0   2   3 3975.00  211.58 
   0   2  -3 3873.91  212.88 
  -1  -2  -3 1325.67   77.49 
   1  -2   3 1415.26   78.29 
   1  -2   3 1465.35   80.39 
  -1  -2  -3 1385.06   78.09 
   1  -2   3 1280.47   78.29 
  -1  -2  -3 1446.56   76.39 
   1  -2   3 1459.05   77.59 
  -1   2  -3 1403.16   77.49 
  -1   2  -3 1437.76   78.39 
  -1   2  -3 1323.97   79.19 
   1   2   3 1494.75   75.99 
   1   2   3 1413.96   77.19 
  -1   2  -3 1329.47   79.79 
   1   2   3 1444.66   76.39 
   1   2   3 1489.15   77.49 
  -2  -2  -3 1559.34   86.89 
   2  -2   3 1641.94   85.99 
  -2  -2  -3 1486.55   86.29 
   2  -2   3 1348.77   86.39 
   2  -2   3 1536.15   86.79 
  -2   2  -3 1590.04   86.49 
  -2   2  -3 1540.45   85.79 
   2   2   3 1718.63   85.99 
   2   2   3 1623.14   84.79 
   2   2   3 1690.73   85.99 
  -2   2  -3 1450.95   88.59 
  -2   2  -3 1476.25   87.39 
   2   2   3 1609.74   85.39 
   3  -2   3 1519.15   97.19 
  -3  -2  -3 1748.82   95.99 
  -3  -2  -3 1554.94   98.39 
   3  -2   3 1759.02   96.49 
  -3  -2  -3 1643.14   97.09 
   3   2   3 1946.61  101.19 
   3   2   3 1936.01   96.19 
  -3   2  -3 1846.82  100.69 
  -3   2  -3 1792.72   98.09 
  -3   2  -3 1686.33   96.39 
   3   2   3 1837.72   95.79 
  -4  -2  -3  637.74   41.40 
  -4  -2  -3  672.03   41.90 
   4  -2   3  701.23   40.70 
   4  -2   3  578.04   40.90 
  -4  -2  -3  677.13   40.20 
  -4   2  -3  671.53   41.30 
   4   2   3  768.72   40.30 
  -4   2  -3  691.83   44.80 
   4   2   3  731.73   40.60 
  -4   2  -3  688.63   40.60 
  -4   2  -3  720.33   40.60 
   4   2   3  696.03   39.90 
  -5  -2  -3  161.98   13.00 
   5  -2   3  159.28   13.10 
  -5  -2  -3  162.98   14.30 
  -5  -2  -3  152.18   14.00 
   5   2   3  169.58   12.60 
  -5   2  -3  185.58   13.30 
   5   2   3  191.78   13.20 
  -5   2  -3  167.68   13.60 
  -6  -2  -3  759.72   49.40 
   6  -2   3  713.53   47.10 
  -6  -2  -3  760.42   47.30 
  -6  -2  -3  767.32   49.20 
  -6   2  -3  854.31   48.20 
   6   2   3  793.62   46.90 
  -6   2  -3  875.31   47.30 
  -7  -2  -3  498.85   35.80 
   7  -2   3  440.76   32.80 
  -7  -2  -3  497.95   35.10 
  -7  -2  -3  505.75   33.50 
   7   2   3  507.45   32.60 
  -7   2  -3  544.15   33.10 
  -7   2  -3  569.14   34.30 
  -8  -2  -3  276.87   24.80 
  -8  -2  -3  304.07   23.10 
   8  -2   3  299.67   23.20 
  -8  -2  -3  261.07   29.90 
  -8  -2  -3  294.57   24.60 
  -8   2  -3  330.07   22.60 
   8   2   3  301.57   22.00 
  -8   2  -3  321.57   23.00 
  -8   2  -3  326.47   23.70 
  -9  -2  -3  200.58   19.90 
   9  -2   3  180.28   17.80 
  -9  -2  -3  179.28   19.70 
  -9  -2  -3  202.98   24.90 
  -9   2  -3  222.88   19.80 
  -9   2  -3  231.48   18.10 
   9   2   3  220.38   17.30 
  -9   2  -3  211.98   18.30 
 -10  -3   3   42.50    9.40 
  10  -3  -3   37.60    7.40 
 -10  -3   3   50.89   10.90 
 -10  -3   3   36.10   10.70 
 -10   3   3   30.90    8.90 
 -10   3   3   38.30    6.70 
  -9  -3   3   23.20    6.00 
   9  -3  -3   14.20    4.20 
  -9  -3   3   17.10    5.00 
  -9  -3   3   19.20    7.60 
  -9   3   3   28.30    7.20 
   9   3  -3   22.40    5.80 
  -9   3   3   27.80    5.40 
   8  -3  -3   51.29    6.60 
  -8  -3   3   48.30    8.70 
  -8  -3   3   52.89    8.50 
  -8  -3   3   78.79    8.60 
  -8  -3   3   59.29   10.40 
  -8   3   3   62.89    7.20 
  -8   3   3   52.99    8.30 
  -8   3   3   62.99    6.60 
   8   3  -3   56.49    7.60 
  -7  -3   3  159.78   14.60 
  -7  -3   3  144.29   15.50 
   7  -3  -3  160.08   13.30 
  -7  -3   3  193.68   14.70 
  -7  -3   3  165.18   21.00 
  -7   3   3  197.88   15.50 
  -7   3   3  166.28   13.20 
   7   3  -3  184.08   14.90 
  -7   3   3  197.28   12.70 
  -6  -3   3  772.92   54.79 
  -6  -3   3  786.92   52.19 
  -6  -3   3  882.51   50.09 
   6  -3  -3  905.11   49.20 
  -6  -3   3  834.82   50.89 
  -6   3   3  895.51   47.90 
   6   3  -3  809.82   50.19 
  -6   3   3  853.91   48.60 
  -5  -3   3  534.75   36.80 
  -5  -3   3  571.04   35.50 
  -5  -3   3  536.05   39.00 
   5  -3  -3  495.55   33.90 
   5  -3  -3  555.44   33.30 
  -5  -3   3  578.54   34.40 
   5   3  -3  599.54   35.80 
  -5   3   3  613.54   33.00 
  -5   3   3  630.84   35.80 
  -5   3   3  564.44   32.80 
   4  -3  -3  946.21   64.69 
   4  -3  -3 1091.79   61.49 
  -4  -3   3 1102.99   64.79 
   4  -3  -3 1158.88   61.79 
  -4  -3   3 1054.99   65.39 
  -4  -3   3 1100.59   62.69 
  -4  -3   3 1044.40   67.39 
   4  -3  -3  993.50   62.59 
   4   3  -3 1169.58   66.49 
  -4   3   3 1186.78   60.49 
  -4   3   3 1171.98   61.89 
   4   3  -3 1208.98   63.79 
  -4   3   3 1085.29   63.39 
  -4   3   3 1096.99   60.59 
   4   3  -3 1175.38   62.99 
  -4   3   3 1194.48   64.19 
   4   3  -3 1124.89   64.59 
   3  -3  -3 2600.94  137.59 
  -3  -3   3 2525.05  144.09 
  -3  -3   3 2458.15  141.79 
  -3  -3   3 2645.64  139.09 
   3  -3  -3 2548.95  137.39 
   3  -3  -3 2278.67  138.99 
  -3  -3   3 2690.33  140.09 
   3   3  -3 2644.74  139.89 
  -3   3   3 2503.15  138.69 
   3   3  -3 2592.04  142.79 
   3   3  -3 2643.64  139.19 
  -3   3   3 2461.85  139.59 
   3   3  -3 2455.65  140.99 
  -3   3   3 2654.23  140.49 
  -3   3   3 2657.53  143.29 
  -2  -3   3 1930.31  115.29 
   2  -3  -3 2128.79  108.69 
  -2  -3   3 2068.59  110.99 
  -2  -3   3 2112.79  111.49 
   2  -3  -3 2062.39  108.99 
  -2  -3   3 1963.30  113.49 
   2   3  -3 2070.49  111.39 
   2   3  -3 1972.80  114.29 
  -2   3   3 2114.19  113.99 
   2   3  -3 1934.41  112.99 
  -2   3   3 1991.30  111.09 
  -2   3   3 1939.81  111.29 
   2   3  -3 2090.79  110.59 
  -2   3   3 2089.49  112.29 
   2   3  -3 1953.80  113.09 
   1  -3  -3 5261.47  292.37 
   1  -3  -3 5527.95  288.87 
  -1  -3   3 5500.45  291.77 
  -1  -3   3 5271.27  295.77 
   1   3  -3 5886.61  291.97 
  -1   3   3 5375.56  293.57 
   1   3  -3 5338.17  293.57 
   1   3  -3 5316.77  293.97 
  -1   3   3 5418.86  292.67 
   1   3  -3 5131.19  294.77 
  -1   3   3 5462.25  292.07 
   1   3  -3 5666.43  291.17 
  -1   3   3 5464.75  292.37 
   0  -3  -3  440.96   23.50 
   0  -3   3  392.56   27.00 
   0  -3  -3  429.16   23.10 
   0  -3   3  421.26   25.40 
   0  -3  -3  413.26   26.50 
   0  -3  -3  432.66   26.70 
   0  -3   3  428.26   29.00 
   0   3  -3  412.56   27.60 
   0   3  -3  431.66   25.50 
   0   3  -3  418.96   24.90 
   0   3   3  411.46   26.50 
   0   3  -3  403.86   28.40 
   0   3  -3  418.56   27.00 
   0   3   3  415.76   25.90 
   1  -3   3  770.12   47.40 
   1  -3   3  799.52   43.50 
   1  -3   3  698.33   45.10 
  -1  -3  -3  737.53   44.90 
  -1  -3  -3  712.13   44.60 
  -1  -3  -3  790.32   41.70 
  -1   3  -3  738.63   46.40 
   1   3   3  734.93   44.30 
   1   3   3  807.52   44.30 
  -1   3  -3  785.12   45.20 
  -1   3  -3  748.93   43.00 
  -1   3  -3  751.92   47.20 
   2  -3   3 1394.16   75.69 
  -2  -3  -3 1355.96   76.69 
  -2  -3  -3 1268.57   73.69 
   2  -3   3 1432.46   74.69 
   2  -3   3 1218.48   75.99 
  -2  -3  -3 1370.96   76.59 
  -2   3  -3 1318.47   74.09 
  -2   3  -3 1333.97   75.89 
   2   3   3 1411.06   75.49 
   2   3   3 1347.47   72.29 
   2   3   3 1344.07   75.19 
   2   3   3 1343.77   74.49 
  -2   3  -3 1225.88   81.99 
  -3  -3  -3   50.19    6.40 
  -3  -3  -3   56.09    6.80 
   3  -3   3   56.59    5.70 
   3  -3   3   47.40    6.70 
   3  -3   3   57.29    6.40 
  -3  -3  -3   49.40    5.00 
   3  -3   3   47.70    6.40 
  -3   3  -3   51.29    7.70 
  -3   3  -3   46.10    6.80 
   3   3   3   48.80    5.20 
  -3   3  -3   45.20    5.10 
  -3   3  -3   48.70    6.00 
   3   3   3   47.50    5.90 
   3   3   3   49.00    4.50 
   3   3   3   49.10    5.80 
  -4  -3  -3  775.52   51.29 
  -4  -3  -3  831.82   48.90 
   4  -3   3  890.21   49.50 
  -4  -3  -3  769.32   51.49 
  -4   3  -3  865.61   51.89 
   4   3   3  855.81   48.20 
   4   3   3  877.51   49.80 
  -4   3  -3  921.21   50.39 
  -5  -3  -3 1032.00   58.39 
   5  -3   3 1021.00   58.49 
  -5  -3  -3  920.61   60.89 
  -5  -3  -3  892.71   60.49 
  -5   3  -3 1086.69   58.99 
   5   3   3  984.40   57.29 
  -5   3  -3 1010.40   60.29 
   5   3   3 1098.39   58.79 
  -6  -3  -3  144.89   12.70 
   6  -3   3  150.08   12.90 
  -6  -3  -3  142.99   15.00 
  -6  -3  -3  138.79   15.00 
  -6   3  -3  181.88   13.60 
   6   3   3  152.28   12.40 
  -6   3  -3  179.78   14.90 
  -7  -3  -3  228.88   21.20 
  -7  -3  -3  242.78   19.10 
  -7  -3  -3  221.68   21.50 
   7  -3   3  231.28   18.90 
   7   3   3  262.47   18.50 
  -7   3  -3  307.37   21.30 
  -7   3  -3  256.47   18.90 
  -8  -3  -3    5.60    4.10 
  -8  -3  -3    6.70    4.30 
  -8  -3  -3   -2.00    2.80 
  -8  -3  -3   13.40    4.80 
   8  -3   3   14.40    4.10 
  -8   3  -3    2.90    3.30 
   8   3   3    5.10    3.00 
  -8   3  -3   12.40    4.20 
  -8   3  -3    5.60    3.30 
  -9  -3  -3   45.20   12.20 
  -9  -3  -3   41.90   11.20 
  -9  -3  -3   67.49   10.50 
   9  -3   3   53.59    9.30 
  -9   3  -3   78.49   10.60 
  -9   3  -3   61.29    9.40 
  10  -4  -3  121.19   13.20 
 -10  -4   3  125.59   16.60 
 -10  -4   3  123.19   19.80 
 -10  -4   3  134.49   15.20 
 -10   4   3  156.68   16.90 
 -10   4   3  153.98   12.90 
  -9  -4   3   40.90   11.90 
   9  -4  -3   39.50    7.00 
  -9  -4   3   36.90    9.20 
  -9  -4   3   45.60    8.00 
  -9   4   3   45.00    9.20 
  -9   4   3   35.80    5.80 
  -8  -4   3  282.47   26.30 
  -8  -4   3  304.57   23.30 
   8  -4  -3  291.47   21.70 
  -8   4   3  358.86   25.30 
  -8   4   3  316.67   21.00 
   8   4  -3  315.87   23.70 
  -7  -4   3   19.50    4.90 
  -7  -4   3   25.20    5.40 
   7  -4  -3   21.50    4.60 
  -7  -4   3   23.20    7.30 
  -7  -4   3   19.80    6.10 
  -7   4   3   29.10    6.40 
  -7   4   3   24.20    4.20 
   7   4  -3   32.70    5.80 
  -6  -4   3   46.70    7.70 
   6  -4  -3   40.00    6.60 
  -6  -4   3   51.99    6.40 
  -6  -4   3   50.79   11.00 
  -6  -4   3   50.49    8.20 
   6  -4  -3   71.29    6.40 
   6   4  -3   43.40    7.00 
  -6   4   3   50.69    4.60 
  -6   4   3   61.79    6.00 
  -6   4   3   57.29    7.60 
  -5  -4   3   30.30    5.00 
  -5  -4   3   28.50    6.90 
   5  -4  -3   32.20    3.90 
  -5  -4   3   25.20    5.20 
  -5  -4   3   39.30    9.40 
   5   4  -3   26.20    5.00 
  -5   4   3   31.20    4.50 
  -5   4   3   38.90    6.10 
  -5   4   3   25.00    5.60 
  -4  -4   3  752.22   53.19 
  -4  -4   3  818.72   51.59 
  -4  -4   3  820.12   47.40 
   4  -4  -3  852.11   45.90 
  -4  -4   3  862.61   48.80 
   4  -4  -3  842.12   46.00 
   4  -4  -3  738.23   48.20 
  -4   4   3  836.32   47.70 
   4   4  -3  821.52   48.20 
  -4   4   3  775.52   48.80 
  -4   4   3  864.21   49.99 
  -3  -4   3 1356.46   75.59 
  -3  -4   3 1359.46   79.99 
  -3  -4   3 1417.56   76.89 
   3  -4  -3 1403.56   73.69 
  -3  -4   3 1329.17   82.09 
   3   4  -3 1329.27   79.59 
   3   4  -3 1202.28   79.49 
  -3   4   3 1358.56   77.49 
  -3   4   3 1391.96   76.69 
  -3   4   3 1293.37   80.29 
  -3   4   3 1411.26   78.49 
   3   4  -3 1400.86   76.39 
  -2  -4   3  603.74   42.30 
   2  -4  -3  663.93   34.20 
  -2  -4   3  637.74   37.40 
   2  -4  -3  634.74   34.30 
  -2  -4   3  619.84   40.60 
   2   4  -3  593.34   40.90 
   2   4  -3  685.53   37.40 
  -2   4   3  620.84   38.40 
   2   4  -3  646.04   36.20 
   2   4  -3  597.14   39.90 
  -2   4   3  599.04   40.50 
   2   4  -3  600.94   39.80 
  -2   4   3  643.34   39.50 
  -2   4   3  627.34   38.20 
   1  -4  -3 4893.01  244.98 
  -1  -4   3 4357.76  246.88 
  -1  -4   3 4591.94  241.18 
   1  -4  -3 4441.76  243.18 
  -1  -4   3 4682.93  241.28 
   1   4  -3 4519.55  239.78 
  -1   4   3 4386.06  242.38 
   1   4  -3 4270.97  244.28 
  -1   4   3 4375.36  244.38 
  -1   4   3 4488.05  242.88 
   1   4  -3 4754.22  240.88 
   1   4  -3 4123.29  245.28 
  -1   4   3 4329.47  243.28 
   1   4  -3 4354.36  244.08 
   0  -4   3 1582.24   93.49 
   0  -4  -3 1703.73   93.39 
   0  -4  -3 1688.53   93.59 
   0  -4   3 1635.74   96.09 
   0  -4  -3 1767.92   87.59 
   0  -4   3 1626.84   90.79 
   0  -4   3 1743.53   90.69 
   0   4  -3 1564.64   95.29 
   0   4  -3 1571.04   93.99 
   0   4   3 1512.95   92.39 
   0   4  -3 1627.24   93.39 
   0   4   3 1622.24   91.99 
   0   4  -3 1666.43   89.39 
   0   4   3 1568.34   93.09 
   1  -4   3 1031.80   62.29 
  -1  -4  -3  982.00   59.49 
   1  -4   3 1002.30   57.09 
  -1  -4  -3  994.40   59.39 
   1  -4   3 1016.80   56.49 
  -1  -4  -3 1050.49   54.39 
   1  -4   3  909.81   58.99 
   1   4   3 1000.60   58.89 
  -1   4  -3  991.90   59.19 
  -1   4  -3  974.30   55.39 
   1   4   3 1013.30   58.09 
  -1   4  -3  991.70   60.29 
  -1   4  -3  962.30   60.89 
   2  -4   3  405.16   29.40 
  -2  -4  -3  390.16   22.50 
  -2  -4  -3  365.86   26.80 
   2  -4   3  381.06   24.70 
   2  -4   3  366.56   23.70 
  -2  -4  -3  369.26   26.60 
  -2   4  -3  377.46   27.80 
   2   4   3  383.86   25.20 
  -2   4  -3  381.56   26.10 
   2   4   3  374.26   25.60 
  -3  -4  -3  879.41   54.69 
  -3  -4  -3  885.41   50.69 
  -3  -4  -3  868.11   54.79 
   3  -4   3  955.00   51.29 
  -3   4  -3  947.01   53.49 
  -3   4  -3  885.41   55.39 
   3   4   3  858.31   48.60 
   3   4   3  777.72   58.89 
  -4  -4  -3  201.48   14.20 
   4  -4   3  197.88   14.60 
   4  -4   3  206.58   16.00 
  -4  -4  -3  190.78   17.50 
  -4  -4  -3  164.08   16.60 
  -4   4  -3  199.78   17.60 
   4   4   3  191.58   13.00 
   4   4   3  209.38   16.00 
  -4   4  -3  201.48   15.90 
  -5  -4  -3  746.93   45.90 
  -5  -4  -3  726.53   49.99 
  -5  -4  -3  737.63   50.09 
   5  -4   3  831.22   46.70 
   5   4   3  744.93   44.70 
  -5   4  -3  852.61   47.90 
  -5   4  -3  775.32   49.50 
  -6  -4  -3  271.97   23.80 
   6  -4   3  253.67   20.90 
  -6  -4  -3  275.17   20.00 
  -6  -4  -3  259.27   23.20 
   6   4   3  259.37   18.90 
  -6   4  -3  299.17   22.90 
  -6   4  -3  320.37   21.30 
  -7  -4  -3  376.16   34.50 
  -7  -4  -3  445.46   34.80 
  -7  -4  -3  496.95   31.30 
   7  -4   3  417.26   30.20 
  -7  -4  -3  402.66   30.10 
  -7   4  -3  485.75   31.10 
  -7   4  -3  522.45   33.80 
  -7   4  -3  483.35   30.00 
   7   4   3  466.15   29.70 
  -8  -4  -3  137.69   18.20 
  -8  -4  -3  167.68   18.80 
   8  -4   3  190.08   16.20 
  -8  -4  -3  158.78   15.70 
  -8   4  -3  206.28   16.40 
  -8   4  -3  198.88   17.90 
  -9  -4  -3   47.20   11.40 
  -9  -4  -3   33.50    9.20 
  -9  -4  -3   43.60    8.60 
   9  -4   3   64.39    9.80 
  -9   4  -3   62.99    8.80 
  -9   4  -3   50.49   10.10 
  -9  -5   3   -2.30    3.60 
  -9  -5   3   -4.90    2.70 
   9  -5  -3    1.30    2.70 
  -9  -5   3    8.00    6.30 
  -9   5   3   -1.60    3.80 
  -9   5   3    3.30    3.10 
   8  -5  -3   44.20    7.20 
  -8  -5   3   31.90    8.40 
  -8  -5   3   39.70   11.30 
  -8  -5   3   44.40    7.70 
  -8   5   3   51.29    8.60 
  -8   5   3   54.29    6.50 
  -7  -5   3  157.78   14.10 
  -7  -5   3  144.29   18.90 
  -7  -5   3  142.89   16.70 
   7  -5  -3  170.58   13.20 
  -7  -5   3  171.08   15.50 
  -7   5   3  192.88   16.70 
   7   5  -3  163.48   14.70 
  -7   5   3  164.38   13.10 
  -6  -5   3  168.08   13.80 
  -6  -5   3  156.58   17.10 
  -6  -5   3  149.69   21.00 
  -6  -5   3  159.98   19.10 
   6  -5  -3  168.68   12.70 
  -6   5   3  200.28   16.80 
  -6   5   3  181.28   13.60 
   6   5  -3  174.98   14.70 
   5  -5  -3  427.96   26.40 
  -5  -5   3  427.76   36.10 
  -5  -5   3  421.26   27.40 
  -5  -5   3  430.46   32.50 
  -5  -5   3  409.76   28.60 
   5   5  -3  412.16   28.10 
  -5   5   3  457.55   30.80 
  -5   5   3  434.26   27.90 
  -4  -5   3  337.37   27.00 
   4  -5  -3  356.86   20.40 
  -4  -5   3  322.57   28.60 
  -4  -5   3  335.07   23.40 
  -4  -5   3  337.07   22.10 
   4   5  -3  317.27   27.40 
  -4   5   3  356.06   23.40 
  -4   5   3  357.16   25.70 
  -4   5   3  321.77   24.20 
   4   5  -3  309.67   26.30 
  -3  -5   3  949.40   63.99 
   3  -5  -3  997.00   53.69 
  -3  -5   3 1014.30   57.49 
  -3  -5   3  917.91   61.19 
  -3   5   3  989.80   58.29 
   3   5  -3  979.90   61.49 
  -3   5   3  954.20   58.99 
   3   5  -3  987.70   56.39 
  -3   5   3 1040.20   60.49 
  -2  -5   3   47.50    9.20 
   2  -5  -3   47.00    3.20 
  -2  -5   3   49.20    5.50 
  -2  -5   3   52.59    6.10 
  -2  -5   3   51.59    8.90 
   2  -5  -3   49.30    3.30 
  -2   5   3   42.40   10.30 
  -2   5   3   50.09    6.90 
  -2   5   3   44.60    6.30 
   2   5  -3   51.59    5.50 
  -2   5   3   47.60    7.20 
   2   5  -3   43.40    8.70 
   1  -5  -3  621.84   40.50 
  -1  -5   3  614.74   37.50 
  -1  -5   3  667.13   37.90 
  -1  -5   3  643.04   44.40 
   1  -5  -3  676.33   42.30 
  -1   5   3  569.94   41.20 
  -1   5   3  616.64   39.70 
   1   5  -3  653.73   36.50 
   1   5  -3  638.34   41.50 
  -1   5   3  630.74   40.20 
  -1   5   3  581.14   40.40 
   0  -5  -3   56.49    3.80 
   0  -5  -3   51.39    7.70 
   0  -5   3   51.89    6.30 
   0  -5   3   60.59    6.30 
   0  -5   3   60.99    9.60 
   0  -5  -3   46.30    7.70 
   0   5  -3   76.79    9.20 
   0   5   3   70.29    8.10 
   0   5   3   66.49    8.30 
   0   5   3   55.79    8.00 
   0   5   3   50.39    7.60 
   1  -5   3   89.09    9.00 
  -1  -5  -3   83.99   10.30 
  -1  -5  -3   96.39    6.40 
   1  -5   3  107.09    8.60 
  -1  -5  -3   88.19   11.00 
   1  -5   3   97.39   12.40 
  -1   5  -3   90.49   10.40 
   1   5   3   88.29   10.30 
  -1   5  -3   79.99   10.90 
   2  -5   3  714.73   46.50 
   2  -5   3  614.64   39.30 
  -2  -5  -3  592.24   42.30 
  -2  -5  -3  646.14   36.90 
   2  -5   3  671.83   38.70 
  -2  -5  -3  640.34   43.30 
   2   5   3  663.73   41.90 
  -2   5  -3  647.74   41.90 
  -2   5  -3  631.24   44.00 
   3  -5   3  333.97   24.10 
  -3  -5  -3  357.26   22.10 
  -3  -5  -3  339.27   27.50 
   3  -5   3  371.66   23.20 
  -3  -5  -3  320.07   26.70 
  -3   5  -3  398.46   26.60 
  -3   5  -3  356.26   28.10 
  -4  -5  -3  328.57   20.90 
  -4  -5  -3  303.17   25.80 
   4  -5   3  319.47   22.60 
   4  -5   3  335.47   21.50 
  -4  -5  -3  293.47   25.40 
   4   5   3  271.37   18.30 
  -4   5  -3  332.07   26.30 
  -4   5  -3  336.97   24.00 
  -5  -5  -3  551.94   33.40 
  -5  -5  -3  512.75   32.90 
  -5  -5  -3  489.35   38.20 
  -5  -5  -3  491.45   38.20 
   5  -5   3  563.44   33.90 
  -5   5  -3  567.44   38.70 
  -5   5  -3  586.24   36.20 
   5   5   3  491.55   31.20 
  -6  -5  -3   14.00    5.80 
   6  -5   3   20.10    6.00 
   6  -5   3   29.00    5.60 
  -6  -5  -3   35.00    6.10 
  -6  -5  -3   22.90    5.00 
  -6  -5  -3   23.20    7.10 
  -6   5  -3   41.50    7.70 
   6   5   3   27.10    4.70 
  -6   5  -3   33.10    7.90 
  -6   5  -3   31.40    4.80 
  -7  -5  -3   -7.50    5.70 
  -7  -5  -3    6.40    5.70 
   7  -5   3    7.40    3.20 
  -7  -5  -3    2.90    2.90 
  -7  -5  -3    8.40    4.60 
  -7   5  -3    0.40    2.80 
  -7   5  -3    5.50    4.40 
  -8  -5  -3  161.18   21.20 
  -8  -5  -3  201.28   22.30 
  -8  -5  -3  199.68   17.90 
   8  -5   3  191.58   17.70 
  -8   5  -3  224.28   21.50 
  -8   5  -3  245.78   21.00 
  -8  -6   3   23.40    6.60 
  -8  -6   3   11.00    7.10 
   8  -6  -3   18.20    4.40 
  -8   6   3   18.50    7.00 
  -8   6   3   14.00    4.50 
  -7  -6   3   23.10    6.10 
  -7  -6   3   41.60   10.10 
   7  -6  -3   27.70    5.00 
  -7  -6   3   21.90    8.80 
  -7   6   3   33.70    6.00 
  -7   6   3   28.30    7.50 
  -6  -6   3   89.29   12.60 
  -6  -6   3   81.59    8.60 
  -6  -6   3   68.89    9.00 
   6  -6  -3   80.69    7.60 
  -6  -6   3   75.69   13.30 
  -6   6   3   65.49   10.10 
  -6   6   3   84.89    9.20 
   6   6  -3   76.59    9.00 
   5  -6  -3  118.09    8.80 
  -5  -6   3   83.39   13.90 
  -5  -6   3  118.29   11.60 
  -5  -6   3  103.99   10.20 
  -5  -6   3  116.19   14.50 
  -5   6   3  120.69   13.20 
   5   6  -3  100.29   14.00 
  -5   6   3  112.29   11.10 
   5   6  -3  107.39   10.00 
   4  -6  -3  159.68   10.10 
  -4  -6   3  138.59   12.70 
  -4  -6   3   98.59   13.10 
  -4  -6   3  165.48   18.90 
  -4  -6   3  148.39   16.60 
  -4   6   3  142.69   15.20 
   4   6  -3  146.19   16.40 
   4   6  -3  129.69   11.20 
  -4   6   3  156.88   13.70 
  -3  -6   3 1154.18   66.19 
  -3  -6   3 1277.27   71.29 
  -3  -6   3 1235.28   79.49 
   3  -6  -3 1240.38   63.39 
  -3   6   3 1118.99   71.09 
   3   6  -3 1118.09   65.19 
  -3   6   3 1062.89   68.79 
   3   6  -3 1106.39   74.29 
   2  -6  -3  756.32   38.50 
  -2  -6   3  717.93   51.49 
  -2  -6   3  661.13   42.80 
  -2  -6   3  749.62   43.30 
  -2  -6   3  734.13   49.00 
   2   6  -3  687.03   47.70 
  -2   6   3  694.53   45.60 
   2   6  -3  701.73   41.40 
  -2   6   3  677.33   46.80 
  -1  -6   3  365.56   24.60 
  -1  -6   3  410.36   25.40 
   1  -6  -3  436.36   31.00 
   1  -6  -3  394.36   29.10 
  -1  -6   3  405.96   32.80 
   1   6  -3  375.36   29.30 
  -1   6   3  350.86   27.80 
  -1   6   3  337.27   28.30 
   0  -6  -3  621.94   42.50 
   0  -6  -3  642.94   43.50 
   0  -6   3  624.24   38.10 
   0  -6  -3  614.34   34.20 
   0  -6  -3  654.43   34.30 
   0  -6   3  641.54   38.00 
   0  -6   3  638.64   46.20 
   0   6  -3  627.14   42.80 
   0   6   3  571.84   41.90 
   0   6   3  611.14   42.00 
  -1  -6  -3  646.84   45.00 
   1  -6   3  645.74   40.30 
   1  -6   3  741.93   49.40 
  -1  -6  -3  682.33   46.10 
   1  -6   3  690.53   40.10 
  -1   6  -3  609.44   46.20 
  -1   6  -3  676.53   44.50 
   1   6   3  633.84   44.60 
  -2  -6  -3   22.40    3.40 
  -2  -6  -3   18.70    3.10 
  -2  -6  -3   30.90    7.90 
   2  -6   3   20.30    5.90 
  -2  -6  -3   19.90    6.40 
   2  -6   3   18.60    4.40 
  -2   6  -3   13.80    8.80 
  -2   6  -3   18.80    5.90 
  -3  -6  -3  106.99    8.30 
   3  -6   3  102.09    9.00 
  -3  -6  -3   87.39   12.30 
  -3  -6  -3   89.49    7.80 
   3  -6   3   94.39    9.70 
  -3  -6  -3   94.69   13.00 
  -3   6  -3   90.49   11.30 
  -3   6  -3   87.89   12.20 
  -4  -6  -3  125.29   15.60 
   4  -6   3  116.99   10.70 
  -4  -6  -3  107.09   14.40 
   4  -6   3  114.99   11.80 
  -4  -6  -3  122.99   10.40 
  -4  -6  -3  127.19   10.20 
  -4   6  -3  116.79   14.30 
  -4   6  -3  134.99   13.60 
   5  -6   3  153.28   12.80 
  -5  -6  -3  141.79   11.70 
   5  -6   3  139.69   13.60 
  -5  -6  -3  128.49   11.60 
  -5  -6  -3  149.09   17.00 
  -5  -6  -3  120.99   16.20 
  -5   6  -3  135.89   15.90 
  -5   6  -3  126.39   14.20 
  -6  -6  -3   93.79   14.10 
  -6  -6  -3   72.29    8.90 
   6  -6   3   95.89    9.90 
  -6  -6  -3   77.39   13.50 
  -6  -6  -3   73.09    9.10 
  -6   6  -3   96.19   12.60 
  -6   6  -3   96.29   11.60 
  -7  -6  -3   58.19    9.20 
   7  -6   3   52.29    9.20 
  -7  -6  -3   46.30   11.50 
  -7  -6  -3   62.69   13.20 
  -7   6  -3   67.99   10.70 
   7  -7  -3   55.39    6.70 
  -7  -7   3   37.50   11.50 
  -7  -7   3   53.49   14.30 
  -7  -7   3   46.80    8.80 
  -7   7   3   64.29   11.00 
   7   7  -3   47.70   11.70 
  -7   7   3   73.69    8.60 
   6  -7  -3   18.20    3.90 
  -6  -7   3   24.70    9.70 
  -6  -7   3   17.40    6.80 
  -6  -7   3   23.40    5.60 
  -6   7   3   11.70    4.30 
  -6   7   3   23.80    7.10 
   6   7  -3   11.20    6.30 
  -5  -7   3   43.50   11.70 
  -5  -7   3   29.50    9.10 
  -5  -7   3   47.90    8.00 
   5  -7  -3   50.29    5.20 
  -5   7   3   35.70    8.80 
   5   7  -3   39.30   10.60 
  -5   7   3   40.40    7.80 
  -4  -7   3  322.97   32.80 
   4  -7  -3  393.26   22.00 
  -4  -7   3  378.86   26.40 
  -4  -7   3  381.86   24.60 
  -4  -7   3  387.46   32.20 
  -4   7   3  347.37   29.70 
  -4   7   3  364.56   27.30 
   4   7  -3  337.57   31.20 
  -3  -7   3   69.29   13.30 
  -3  -7   3   65.29    7.60 
   3  -7  -3   80.99    5.70 
  -3  -7   3   74.39   16.10 
  -3  -7   3   80.89    9.00 
  -3   7   3   79.19   10.40 
   3   7  -3   91.39   12.80 
  -3   7   3   70.89   10.90 
  -2  -7   3   77.29   13.60 
   2  -7  -3   77.89    5.30 
  -2  -7   3   73.99    7.90 
  -2  -7   3   94.89    9.30 
  -2   7   3   74.79   10.60 
   2   7  -3   76.19   11.40 
  -1  -7   3  115.09   10.50 
   1  -7  -3  152.78   17.10 
  -1  -7   3  107.19   10.40 
  -1  -7   3  120.39   16.70 
   1   7  -3  117.59   14.40 
  -1   7   3  113.49   13.60 
  -1   7   3  121.79   14.40 
   0  -7   3  202.08   22.30 
   0  -7   3  212.08   15.30 
   0  -7  -3  196.98   12.10 
   0  -7  -3  228.28   21.60 
   0  -7  -3  211.28   11.70 
   0  -7   3  211.18   15.30 
   0   7  -3  171.38   20.30 
   0   7  -3  170.58   18.50 
   0   7   3  160.28   18.40 
   0   7   3  159.88   20.80 
  -1  -7  -3  288.37   17.20 
   1  -7   3  281.47   20.30 
  -1  -7  -3  295.07   26.10 
  -1  -7  -3  286.17   26.30 
   1  -7   3  301.87   20.10 
  -1  -7  -3  282.37   17.30 
   1  -7   3  322.37   28.90 
  -1   7  -3  292.27   24.70 
  -1   7  -3  264.47   26.10 
   1   7   3  272.77   24.90 
   1   7   3  246.88   24.20 
   2  -7   3  158.38   14.30 
  -2  -7  -3  170.88   19.60 
   2  -7   3  178.68   14.20 
   2  -7   3  195.98   21.80 
  -2  -7  -3  180.98   19.60 
  -2  -7  -3  193.08   12.60 
  -2  -7  -3  189.18   12.60 
   2   7   3  189.68   19.90 
  -2   7  -3  173.58   19.90 
  -2   7  -3  200.48   18.60 
  -3  -7  -3  405.16   24.70 
  -3  -7  -3  340.67   31.40 
   3  -7   3  357.96   26.70 
  -3  -7  -3  391.46   24.50 
   3  -7   3  398.46   25.90 
  -3   7  -3  407.76   33.70 
  -3   7  -3  445.86   31.40 
  -4  -7  -3  187.28   14.80 
  -4  -7  -3  181.98   20.60 
   4  -7   3  203.48   17.30 
  -4  -7  -3  200.88   15.10 
   4  -7   3  221.68   16.10 
  -4  -7  -3  168.58   20.90 
  -4   7  -3  224.78   19.80 
  -4   7  -3  221.58   22.50 
  -5  -7  -3   10.70    6.70 
  -5  -7  -3   19.00    4.60 
  -5  -7  -3   26.00    7.80 
   5  -7   3   24.40    5.40 
  -5  -7  -3   23.30    4.80 
  -5   7  -3   31.60    7.60 
  -5   7  -3   29.60    8.70 
  -6  -7  -3   54.69   12.00 
  -6  -7  -3   48.80   12.80 
  -6  -7  -3   69.29    8.30 
   6  -7   3   81.69    8.80 
  -6   7  -3   78.39   10.10 
  -6   7  -3   71.69   11.80 
   5  -8  -3  203.78   14.20 
  -5  -8   3  208.88   26.20 
  -5  -8   3  225.18   24.90 
  -5  -8   3  223.28   18.70 
   5   8  -3  188.48   22.80 
  -5   8   3  229.48   19.90 
  -5   8   3  203.48   24.50 
  -4  -8   3    3.60    3.50 
   4  -8  -3    1.00    1.40 
   4  -8  -3   -3.00    1.50 
  -4  -8   3   -0.10    4.50 
  -4  -8   3   -5.20    7.00 
  -4   8   3    6.80    5.00 
   4   8  -3   -2.60    4.20 
  -4   8   3   -2.20    3.20 
  -3  -8   3   19.80    4.20 
  -3  -8   3   19.80    5.50 
   3  -8  -3   24.70    2.60 
  -3  -8   3   20.10    8.10 
   3   8  -3   19.40    7.30 
  -3   8   3   10.20    5.40 
  -3   8   3   40.00    9.90 
  -2  -8   3  565.34   35.70 
  -2  -8   3  588.24   37.40 
  -2  -8   3  579.04   48.10 
   2   8  -3  569.04   44.00 
  -2   8   3  575.14   43.30 
  -1  -8   3  102.69   16.80 
  -1  -8   3  109.89   10.40 
  -1  -8   3  103.59    9.80 
   1   8  -3   91.89   13.60 
  -1   8   3   79.59   12.50 
  -1   8   3   88.59   13.90 
   0  -8  -3  108.99    7.20 
   0  -8  -3   93.39    6.50 
   0  -8   3  101.79   16.30 
   0  -8   3   96.49    9.80 
   0  -8  -3   83.09   14.50 
   0  -8   3   92.09    9.70 
   0   8  -3   86.39   14.30 
   0   8   3   85.69   13.20 
   0   8   3   91.29   13.50 
   0   8  -3  111.79   14.50 
  -1  -8  -3  306.57   18.20 
  -1  -8  -3  270.47   26.50 
   1  -8   3  310.37   30.90 
   1  -8   3  328.57   21.30 
  -1  -8  -3  320.47   29.60 
   1  -8   3  257.37   20.80 
  -1  -8  -3  292.77   17.60 
  -1   8  -3  304.77   26.50 
   1   8   3  259.37   25.90 
  -1   8  -3  270.07   28.40 
   1   8   3  246.68   25.80 
  -2  -8  -3  144.59   18.30 
   2  -8   3  126.09   11.50 
  -2  -8  -3  122.39   10.10 
  -2  -8  -3  134.29   10.00 
  -2  -8  -3  125.99   17.00 
   2  -8   3  113.19   11.90 
  -2   8  -3  124.39   17.50 
  -2   8  -3  147.59   16.30 
   2   8   3  140.49   17.20 
  -3  -8  -3    6.40    5.30 
   3  -8   3   19.20    5.00 
   3  -8   3   14.10    5.40 
  -3  -8  -3   17.20    3.70 
  -3  -8  -3   29.50    9.30 
  -3   8  -3   32.60    9.60 
   3   8   3   13.50    6.50 
  -3   8  -3   10.10    6.90 
  -4  -8  -3   39.10   11.10 
  -4  -8  -3   40.30    6.30 
  -4  -8  -3   25.10    8.60 
   4  -8   3   29.40    5.40 
  -4  -8  -3   26.00    4.90 
  -4   8  -3   32.00    8.60 
  -4   8  -3   25.30    9.40 
  -1  -9   3   41.90   13.00 
  -1  -9   3   52.49    8.10 
  -1   9   3   61.79   12.80 
   1   9  -3   64.59   13.10 
  -1   9   3   33.20   10.10 
   1   9  -3   34.80   10.70 
   0  -9   3   98.19   10.20 
   0  -9   3  124.99   19.30 
   0  -9  -3   94.49    6.70 
   0  -9  -3  102.99    8.10 
   0  -9  -3  106.19   17.30 
   0   9   3   87.09   21.40 
   0   9  -3  101.99   15.50 
   0   9  -3   92.69   16.10 
   0   9   3   91.79   14.70 
  -1  -9  -3   10.50    2.90 
  -1  -9  -3    9.10    6.80 
   1  -9   3    5.40    6.40 
  -1  -9  -3   12.90    7.80 
  -1  -9  -3    4.70    2.20 
   1   9   3   12.40    6.90 
   1   9   3    6.80    5.70 
  -1   9  -3   10.60    6.10 
  -1   9  -3    8.10    6.00 
  11   0  -4    3.70    3.70 
 -11   0   4    0.50    3.00 
 -11   0   4   -3.50    3.00 
  10   0  -4   48.40    9.00 
 -10   0   4   39.50    8.30 
 -10   0   4   56.39    8.30 
 -10   0   4   58.69   10.40 
  -9   0   4   51.09    8.30 
  -9   0   4   55.89    9.90 
   9   0  -4   35.60    6.80 
  -9   0   4   45.30    6.70 
  -8   0   4   59.69    8.90 
  -8   0   4   45.70    6.40 
   8   0  -4   56.49    6.00 
   8   0  -4   53.99    8.00 
  -8   0   4   53.19    8.80 
   7   0  -4 1169.08   63.59 
  -7   0   4  935.01   62.99 
   7   0  -4 1148.39   60.89 
  -7   0   4 1008.00   61.89 
  -7   0   4 1108.99   65.99 
   7   0  -4 1142.79   63.19 
   6   0  -4 1096.09   60.69 
  -6   0   4 1044.10   62.59 
  -6   0   4  994.30   59.29 
  -6   0   4 1028.30   60.09 
  -6   0   4 1032.70   60.99 
   6   0  -4 1106.59   58.19 
   6   0  -4 1042.00   60.29 
   5   0  -4  861.41   44.20 
  -5   0   4  764.82   47.80 
  -5   0   4  712.63   44.90 
  -5   0   4  780.82   46.50 
  -5   0   4  790.02   46.90 
   5   0  -4  898.51   47.20 
   5   0  -4  773.02   46.20 
   5   0  -4  788.72   46.20 
   4   0  -4 1079.19   61.09 
  -4   0   4 1044.20   62.09 
   4   0  -4 1081.49   60.89 
   4   0  -4 1157.98   58.89 
   4   0  -4 1230.28   61.59 
  -4   0   4 1008.10   60.39 
  -4   0   4  989.60   59.59 
   3   0  -4 4809.22  234.38 
   3   0  -4 4171.48  234.38 
  -3   0   4 4316.27  233.78 
  -3   0   4 3966.30  232.58 
   3   0  -4 4339.67  234.28 
   3   0  -4 4650.73  232.18 
  -3   0   4 4371.56  235.08 
  -3   0   4 4227.68  234.58 
   2   0  -4  975.20   53.79 
  -2   0   4  979.30   53.79 
   2   0  -4 1053.29   53.19 
   2   0  -4  927.71   51.89 
   2   0  -4  902.51   51.69 
  -2   0   4  974.20   53.89 
   2   0  -4  937.81   53.69 
  -2   0   4  933.51   53.09 
   1   0  -4  120.09    8.90 
   1   0  -4  122.59    7.80 
   1   0  -4  123.29    8.70 
  -1   0   4  118.19    8.40 
  -1   0   4  123.89    8.60 
  -1   0   4  121.59    8.30 
   1   0  -4  112.49    7.70 
  -1   0   4  110.09    7.50 
  -1   0  -4 4206.28  225.78 
  -1   0  -4 4111.99  224.88 
   1   0   4 4276.77  225.78 
  -1   0  -4 4109.39  224.28 
   1   0   4 4228.28  224.68 
   2   0   4  599.94   35.50 
   2   0   4  619.04   35.60 
  -2   0  -4  640.64   34.50 
   2   0   4  633.44   37.00 
  -2   0  -4  650.63   35.30 
  -2   0  -4  535.15   38.90 
   3   0   4 7923.71  408.86 
   3   0   4 7031.90  406.76 
  -3   0  -4 7865.01  407.36 
  -4   0  -4   61.99    6.30 
  -4   0  -4   59.59    6.10 
  -4   0  -4   56.39    6.20 
   4   0   4   53.39    6.10 
   4   0   4   54.09    6.10 
   4   0   4   63.89    6.40 
  -5   0  -4   44.70    5.70 
  -5   0  -4   40.70    5.70 
   5   0   4   36.80    5.60 
  -5   0  -4   35.00    5.60 
   5   0   4   36.60    4.90 
  -6   0  -4  820.22   46.40 
  -6   0  -4  737.13   46.20 
  -6   0  -4  779.62   46.30 
   6   0   4  706.43   45.60 
  -7   0  -4  100.09   10.20 
   7   0   4   98.99    9.90 
  -7   0  -4   87.69   10.40 
  -8   0  -4   82.39   11.20 
   8   0   4   87.89   10.20 
  -8   0  -4   84.39   10.50 
  -9   0  -4  107.29   11.80 
   9   0   4  108.09   11.90 
  -9   0  -4   92.79   11.90 
  -9   0  -4  108.59   13.10 
 -11  -1   4    3.20    3.80 
 -11  -1   4    4.70    5.60 
  11  -1  -4    7.60    4.40 
 -11   1   4    8.30    6.30 
  11   1  -4    9.20    5.70 
 -11   1   4   -1.50    3.10 
  10  -1  -4   24.50    5.80 
 -10  -1   4   33.90    7.00 
 -10  -1   4   23.80    6.30 
 -10  -1   4   36.30   10.10 
 -10   1   4   23.00    7.60 
 -10   1   4   40.30    7.20 
  10   1  -4   26.50    6.10 
  -9  -1   4   88.19   13.40 
  -9  -1   4  105.69   11.50 
  -9  -1   4   93.99   10.90 
   9  -1  -4  106.39   10.80 
  -9   1   4  109.19   10.20 
  -9   1   4  110.39   11.20 
   9   1  -4  115.19   11.20 
  -9   1   4  112.79   13.00 
  -8  -1   4   63.49    8.30 
   8  -1  -4   65.29    6.80 
  -8  -1   4   73.99   10.70 
   8  -1  -4   55.99    7.40 
  -8  -1   4   60.79    9.40 
  -8   1   4   77.69    9.90 
   8   1  -4   67.89    8.00 
  -8   1   4   65.29    7.00 
  -8   1   4   76.99    8.40 
  -7  -1   4  294.07   23.70 
   7  -1  -4  363.96   21.90 
   7  -1  -4  355.86   23.30 
  -7  -1   4  342.97   23.80 
  -7  -1   4  356.56   27.10 
  -7   1   4  342.77   23.70 
  -7   1   4  360.06   25.30 
   6  -1  -4   48.30    4.80 
   6  -1  -4   42.80    5.90 
   6  -1  -4   57.59    6.00 
  -6  -1   4   44.90    7.70 
  -6  -1   4   60.99    7.10 
  -6  -1   4   58.19    6.20 
  -6  -1   4   50.79    6.10 
  -6   1   4   44.50    4.70 
   6   1  -4   44.10    5.80 
   6   1  -4   52.99    6.20 
   6   1  -4   56.79    5.30 
  -6   1   4   51.19    6.20 
  -6   1   4   54.99    7.20 
  -5  -1   4 1996.80  113.69 
   5  -1  -4 1935.61  110.29 
   5  -1  -4 2088.49  111.79 
  -5  -1   4 1999.40  111.59 
  -5  -1   4 2001.50  110.39 
   5  -1  -4 2032.40  110.19 
  -5  -1   4 1821.12  110.39 
   5  -1  -4 1814.12  108.19 
   5   1  -4 2204.18  109.39 
   5   1  -4 1956.90  110.79 
  -5   1   4 2150.68  111.59 
  -5   1   4 1962.80  108.39 
  -5   1   4 1980.40  109.89 
   5   1  -4 1981.50  110.79 
   5   1  -4 2177.38  111.79 
  -5   1   4 1997.60  110.79 
   4  -1  -4  352.16   22.40 
  -4  -1   4  365.26   24.90 
  -4  -1   4  367.76   23.50 
   4  -1  -4  381.56   23.20 
   4  -1  -4  314.97   20.40 
  -4  -1   4  375.06   22.50 
   4  -1  -4  392.96   22.40 
  -4  -1   4  324.37   22.40 
  -4   1   4  388.56   23.10 
   4   1  -4  372.76   22.90 
   4   1  -4  360.66   22.90 
  -4   1   4  343.57   20.40 
  -4   1   4  358.16   22.20 
  -4   1   4  373.96   22.70 
   4   1  -4  390.26   23.70 
   4   1  -4  375.96   21.80 
  -3  -1   4 2335.77  126.59 
   3  -1  -4 2445.26  123.99 
  -3  -1   4 2334.67  124.29 
   3  -1  -4 2411.16  124.49 
  -3  -1   4 2395.66  125.29 
  -3  -1   4 2202.78  124.29 
  -3   1   4 2213.88  123.99 
   3   1  -4 2277.57  125.29 
   3   1  -4 2045.90  123.89 
   3   1  -4 2241.58  124.79 
   3   1  -4 2166.38  124.59 
  -3   1   4 2477.95  124.29 
   3   1  -4 2180.68  123.79 
  -3   1   4 2268.07  123.39 
  -2  -1   4 3630.14  192.08 
  -2  -1   4 3530.55  192.48 
   2  -1  -4 3529.05  191.28 
   2  -1  -4 3525.35  191.38 
  -2  -1   4 3521.45  193.68 
   2   1  -4 3682.93  192.68 
  -2   1   4 3524.65  190.78 
  -2   1   4 3974.90  191.28 
  -2   1   4 3526.65  191.38 
   2   1  -4 3439.96  192.28 
   2   1  -4 3616.74  192.88 
   2   1  -4 3267.77  191.48 
   1  -1  -4 4265.67  220.58 
   1  -1  -4 3767.32  219.18 
  -1  -1   4 3768.92  220.58 
  -1  -1   4 4108.39  221.28 
  -1  -1   4 3986.50  221.98 
  -1  -1   4 4278.07  221.28 
   1   1  -4 4184.48  221.18 
   1   1  -4 3926.31  220.38 
   1   1  -4 4185.38  221.68 
   1   1  -4 4341.57  221.68 
  -1   1   4 4160.08  219.88 
  -1   1   4 4359.66  219.88 
   0  -1   4  435.16   27.10 
   0  -1   4  506.25   27.60 
   0  -1  -4  518.65   26.40 
   0  -1  -4  497.85   27.40 
   0  -1   4  469.65   28.00 
   0   1  -4  378.96   28.90 
   0   1   4  434.36   26.60 
   0   1  -4  466.65   26.90 
   0   1  -4  460.75   27.90 
   0   1  -4  458.25   27.30 
   0   1   4  450.45   26.20 
   1  -1   4 5219.88  272.37 
  -1  -1  -4 4988.00  269.27 
  -1  -1  -4 5139.69  270.77 
   1  -1   4 5092.59  271.27 
  -1  -1  -4 5204.78  271.67 
   1  -1   4 4585.14  271.07 
  -1   1  -4 5355.46  272.37 
  -1   1  -4 4868.71  272.07 
  -1   1  -4 5000.60  271.37 
   1   1   4 5382.46  270.47 
   1   1   4 5156.18  271.37 
  -1   1  -4 4679.13  271.27 
   2  -1   4 3981.20  205.68 
   2  -1   4 3192.38  204.18 
   2  -1   4 3907.21  204.08 
  -2  -1  -4 3837.42  203.68 
  -2  -1  -4 4032.70  203.98 
   2  -1   4 3541.45  204.08 
  -2  -1  -4 3654.53  202.68 
   2   1   4 3860.91  204.78 
   2   1   4 3893.81  202.38 
  -2   1  -4 3909.81  203.68 
  -2   1  -4 3807.12  205.68 
  -2   1  -4 3706.33  204.08 
   2   1   4 4098.09  203.48 
   2   1   4 3704.63  203.28 
  -2   1  -4 3605.84  203.78 
  -3  -1  -4 3169.38  168.58 
   3  -1   4 3317.07  168.98 
   3  -1   4 2637.54  169.08 
  -3  -1  -4 3025.60  171.18 
   3  -1   4 3085.59  170.38 
   3  -1   4 2971.10  169.18 
  -3  -1  -4 3074.19  168.08 
  -3   1  -4 3194.08  168.58 
  -3   1  -4 3187.58  169.08 
   3   1   4 3240.88  167.68 
  -3   1  -4 3052.19  168.88 
  -3   1  -4 3338.67  171.68 
   3   1   4 3155.28  168.28 
   3   1   4 3205.18  169.98 
   3   1   4 2984.20  170.18 
  -4  -1  -4  199.18   14.60 
  -4  -1  -4  228.28   15.40 
   4  -1   4  211.58   14.80 
  -4  -1  -4  205.38   14.70 
   4   1   4  199.08   14.30 
  -4   1  -4  183.78   14.60 
  -4   1  -4  201.18   14.20 
   4   1   4  190.08   16.10 
   4   1   4  199.28   14.00 
  -4   1  -4  209.78   14.40 
  -5  -1  -4 1006.20   59.29 
  -5  -1  -4  993.10   59.69 
   5  -1   4  853.21   59.99 
  -5  -1  -4 1092.49   60.19 
   5  -1   4 1004.10   59.19 
  -5   1  -4 1101.09   58.99 
   5   1   4  989.00   58.89 
   5   1   4 1038.50   59.09 
  -5   1  -4 1007.10   59.39 
  -5   1  -4 1135.19   59.19 
   6  -1   4    8.50    3.20 
  -6  -1  -4    6.20    3.70 
  -6  -1  -4    7.40    3.00 
  -6  -1  -4    6.30    3.40 
  -6   1  -4   13.20    3.90 
  -6   1  -4   18.40    4.50 
   6   1   4   14.00    3.50 
  -7  -1  -4  167.68   15.90 
  -7  -1  -4  173.58   15.10 
  -7  -1  -4  176.18   15.90 
   7  -1   4  181.58   14.90 
  -7   1  -4  169.28   14.50 
  -7   1  -4  196.58   15.60 
   7   1   4  164.58   14.50 
  -8  -1  -4   80.29   10.70 
   8  -1   4   72.49    9.50 
  -8  -1  -4   81.39   10.50 
  -8   1  -4   71.59    9.30 
   8   1   4   82.99    9.20 
  -8   1  -4   73.49   10.30 
  -9  -1  -4   16.70    6.70 
   9  -1   4   18.30    5.00 
  -9  -1  -4   22.50    5.90 
  -9  -1  -4   11.90    5.10 
   9   1   4   28.10    6.20 
  -9   1  -4   24.20    7.20 
  -9   1  -4   20.30    6.60 
  -9   1  -4    9.80    5.00 
  10  -2  -4   86.59   11.00 
 -10  -2   4  113.89   13.00 
 -10  -2   4  113.49   28.10 
 -10  -2   4   90.29   12.40 
 -10   2   4  109.09   14.60 
 -10   2   4  112.59   10.80 
  10   2  -4  103.69   11.80 
  -9  -2   4  120.49   13.30 
  -9  -2   4  115.89   15.60 
   9  -2  -4  119.69   11.80 
  -9  -2   4  119.09   12.90 
  -9   2   4  131.89   11.20 
   9   2  -4  121.69   12.30 
  -9   2   4  144.09   12.40 
  -9   2   4  129.19   14.10 
  -8  -2   4  403.76   31.60 
   8  -2  -4  412.66   29.10 
   8  -2  -4  480.25   30.60 
  -8  -2   4  454.35   32.10 
  -8  -2   4  502.95   36.80 
   8   2  -4  539.75   32.50 
  -8   2   4  516.05   31.40 
  -8   2   4  479.35   28.90 
  -7  -2   4  599.34   35.30 
  -7  -2   4  504.45   35.60 
  -7  -2   4  585.34   36.40 
   7  -2  -4  518.55   33.10 
  -7  -2   4  552.14   39.80 
   7  -2  -4  566.54   34.30 
  -7   2   4  491.65   32.00 
  -7   2   4  649.54   36.80 
  -7   2   4  579.94   34.80 
   7   2  -4  506.45   34.80 
  -6  -2   4  399.76   29.40 
  -6  -2   4  387.36   25.10 
   6  -2  -4  331.07   23.10 
   6  -2  -4  414.16   24.50 
   6  -2  -4  376.06   24.50 
  -6  -2   4  357.66   25.90 
  -6  -2   4  377.66   26.00 
  -6   2   4  373.66   24.50 
   6   2  -4  430.56   25.60 
   6   2  -4  430.46   24.70 
  -6   2   4  340.87   22.30 
  -6   2   4  427.56   26.00 
   6   2  -4  346.57   25.00 
   5  -2  -4 1049.49   65.29 
   5  -2  -4  944.51   61.69 
  -5  -2   4 1161.98   64.99 
  -5  -2   4 1175.08   63.69 
  -5  -2   4 1045.20   67.49 
  -5  -2   4 1069.49   64.89 
   5  -2  -4 1146.09   62.89 
  -5   2   4 1175.48   60.99 
  -5   2   4 1095.19   62.89 
  -5   2   4 1248.98   64.29 
   5   2  -4 1197.48   63.69 
   5   2  -4 1098.39   66.19 
   5   2  -4 1138.49   64.39 
  -4  -2   4  350.16   25.50 
  -4  -2   4  346.37   22.10 
   4  -2  -4  317.07   20.70 
  -4  -2   4  314.97   23.20 
   4  -2  -4  337.47   21.60 
  -4  -2   4  367.36   23.50 
   4  -2  -4  359.16   21.40 
   4  -2  -4  331.77   23.40 
  -4   2   4  402.86   22.60 
  -4   2   4  336.67   21.30 
   4   2  -4  372.96   24.40 
   4   2  -4  362.46   22.60 
   4   2  -4  361.06   23.00 
   4   2  -4  349.07   22.60 
  -4   2   4  375.86   20.00 
  -4   2   4  379.36   21.20 
  -3  -2   4 1170.68   69.99 
   3  -2  -4 1220.48   67.99 
   3  -2  -4 1085.29   69.09 
   3  -2  -4 1246.38   67.59 
  -3  -2   4 1151.08   71.79 
  -3  -2   4 1214.48   68.69 
  -3  -2   4 1257.87   69.79 
   3   2  -4 1301.77   69.29 
  -3   2   4 1215.88   66.69 
  -3   2   4 1380.56   68.69 
   3   2  -4 1285.27   69.69 
   3   2  -4 1310.07   71.29 
  -3   2   4 1197.68   67.19 
  -3   2   4 1312.27   67.19 
   3   2  -4 1196.48   69.49 
   3   2  -4 1188.18   69.79 
   2  -2  -4  536.45   29.60 
  -2  -2   4  533.15   31.60 
   2  -2  -4  450.15   30.60 
  -2  -2   4  520.35   33.80 
   2  -2  -4  533.55   30.00 
  -2  -2   4  523.65   32.20 
  -2  -2   4  528.85   31.10 
  -2   2   4  534.45   29.40 
   2   2  -4  528.05   31.10 
  -2   2   4  539.65   28.80 
   2   2  -4  556.04   31.90 
   2   2  -4  487.15   31.70 
  -2   2   4  563.74   30.20 
  -2   2   4  513.95   29.50 
   2   2  -4  528.35   33.00 
   2   2  -4  514.35   31.70 
  -2   2   4  529.25   28.90 
   1  -2  -4 6913.61  360.66 
  -1  -2   4 6534.35  362.86 
  -1  -2   4 6759.52  362.36 
   1   2  -4 7184.08  362.96 
   1   2  -4 6641.94  363.36 
   1   2  -4 6804.12  362.16 
   1   2  -4 6535.95  363.96 
  -1   2   4 6719.83  361.86 
   0  -2  -4 4100.79  211.88 
   0  -2  -4 3818.92  212.38 
   0  -2   4 3590.74  213.28 
   0  -2   4 3886.51  213.18 
   0  -2   4 3882.71  214.98 
   0  -2   4 4120.79  212.98 
   0  -2  -4 3288.57  213.38 
   0   2  -4 3704.53  214.48 
   0   2  -4 4227.88  212.98 
   0   2   4 4208.28  211.18 
   0   2  -4 4080.29  213.38 
   0   2   4 4268.07  211.68 
   0   2   4 4047.40  210.58 
   0   2  -4 4047.00  213.38 
   0   2   4 3889.11  211.48 
  -1  -2  -4 8358.66  423.66 
   1  -2   4 7144.79  424.36 
   1  -2   4 8198.78  424.96 
  -1  -2  -4 7697.63  422.76 
  -1   2  -4 7867.31  423.86 
  -1   2  -4 7537.15  425.36 
  -1   2  -4 7511.55  426.06 
   1   2   4 8143.98  422.76 
  -1   2  -4 8855.31  425.26 
   2  -2   4 5169.28  311.17 
   2  -2   4 6164.88  310.77 
  -2  -2  -4 5985.60  311.47 
   2  -2   4 5830.52  311.97 
  -2  -2  -4 5559.54  310.17 
  -2   2  -4 5661.33  313.57 
  -2   2  -4 5441.46  311.87 
  -2   2  -4 6030.40  310.97 
  -2   2  -4 5739.03  310.57 
   2   2   4 6048.29  311.07 
   2   2   4 5986.90  309.37 
   3  -2   4 1795.72  114.29 
  -3  -2  -4 2036.60  113.09 
  -3  -2  -4 2059.59  114.79 
   3  -2   4 2085.49  115.29 
   3  -2   4 2035.40  113.59 
   3   2   4 2270.27  113.49 
  -3   2  -4 2066.19  114.89 
  -3   2  -4 2135.79  113.89 
   3   2   4 2163.38  114.29 
   3   2   4 2056.79  112.59 
  -3   2  -4 2008.50  117.09 
  -4  -2  -4  211.38   15.10 
  -4  -2  -4  186.98   15.40 
  -4  -2  -4  198.08   16.20 
   4  -2   4  219.78   16.90 
   4  -2   4  198.78   16.80 
   4   2   4  238.38   14.60 
  -4   2  -4  212.08   15.90 
  -4   2  -4  203.78   15.30 
  -4   2  -4  214.38   18.50 
  -4   2  -4  231.78   15.40 
   4   2   4  204.08   14.50 
  -5  -2  -4  272.17   21.90 
  -5  -2  -4  292.57   20.90 
   5  -2   4  292.97   20.90 
  -5  -2  -4  268.07   21.50 
  -5   2  -4  326.87   21.60 
  -5   2  -4  323.97   21.00 
   5   2   4  355.66   20.90 
   5   2   4  315.47   20.50 
  -6  -2  -4  272.87   22.00 
  -6  -2  -4  300.67   20.80 
   6  -2   4  277.27   20.60 
  -6  -2  -4  273.27   21.90 
   6   2   4  275.17   19.80 
  -6   2  -4  298.97   20.50 
  -6   2  -4  317.57   21.40 
  -7  -2  -4   70.09   10.10 
  -7  -2  -4   64.79    9.50 
   7  -2   4   80.89    9.40 
  -7  -2  -4   66.79    8.50 
   7   2   4   90.39    8.90 
  -7   2  -4   97.99    9.90 
  -8  -2  -4   60.79    9.20 
  -8  -2  -4   54.39    9.70 
   8  -2   4   57.99    9.50 
  -8   2  -4   69.49   10.00 
   8   2   4   66.09    8.20 
  -8   2  -4   78.19    9.50 
  -9  -2  -4   33.60    8.80 
   9  -2   4   39.30    7.40 
  -9  -2  -4   28.40    7.20 
  -9  -2  -4   25.60    8.60 
  -9   2  -4   34.60    8.40 
  -9   2  -4   41.50    8.50 
 -10  -3   4   85.19   12.30 
 -10  -3   4   99.19   14.90 
  10  -3  -4  104.09   11.10 
 -10  -3   4  106.29   17.00 
 -10   3   4  105.89   13.50 
 -10   3   4  101.49   10.10 
  -9  -3   4    5.70    4.40 
  -9  -3   4   13.20    7.40 
  -9  -3   4   15.10    5.20 
   9  -3  -4   15.50    4.60 
  -9   3   4   12.60    3.50 
   9   3  -4   19.00    5.30 
  -9   3   4    8.60    4.90 
  -8  -3   4   86.99   14.00 
   8  -3  -4  100.89   10.00 
   8  -3  -4   90.39    9.40 
  -8  -3   4  109.39   11.80 
  -8  -3   4   91.59   11.60 
  -8   3   4  110.79   11.70 
  -8   3   4  107.09    9.90 
  -8   3   4  104.39    8.70 
   8   3  -4   99.19   10.70 
  -7  -3   4   55.29    8.60 
   7  -3  -4   43.60    8.30 
   7  -3  -4   63.19    6.80 
  -7  -3   4   49.99   11.30 
  -7  -3   4   66.39    8.00 
  -7  -3   4   36.10    7.70 
  -7   3   4   67.59    6.10 
   7   3  -4   58.79    7.80 
  -7   3   4   55.09    6.30 
  -7   3   4   76.89    8.70 
   6  -3  -4  306.87   21.60 
  -6  -3   4  327.77   24.80 
  -6  -3   4  337.07   22.70 
   6  -3  -4  350.16   22.00 
   6  -3  -4  349.17   21.70 
  -6  -3   4  339.17   27.80 
  -6  -3   4  332.47   23.70 
  -6   3   4  303.37   19.90 
   6   3  -4  293.97   22.70 
  -6   3   4  398.66   24.00 
  -6   3   4  344.27   21.20 
   5  -3  -4   86.29    7.10 
  -5  -3   4   79.89    9.10 
   5  -3  -4   68.79    6.90 
  -5  -3   4   81.69    7.60 
   5  -3  -4   90.19    7.10 
  -5  -3   4   78.29    8.30 
  -5  -3   4   65.09    9.90 
  -5   3   4   69.89    5.90 
   5   3  -4   86.09    8.50 
  -5   3   4   71.89    6.10 
  -5   3   4   89.49    8.50 
  -5   3   4   71.99    7.30 
   5   3  -4   70.39    7.80 
   4  -3  -4  440.66   25.90 
  -4  -3   4  426.46   31.60 
  -4  -3   4  455.85   27.20 
  -4  -3   4  465.85   29.90 
   4  -3  -4  455.75   25.70 
   4  -3  -4  399.06   26.20 
   4  -3  -4  382.46   28.50 
  -4  -3   4  429.26   28.20 
  -4   3   4  451.65   25.50 
   4   3  -4  418.16   28.30 
   4   3  -4  433.66   30.20 
  -4   3   4  436.16   26.80 
  -4   3   4  453.05   24.40 
   4   3  -4  464.15   27.30 
  -4   3   4  409.16   24.40 
  -4   3   4  468.45   27.70 
   3  -3  -4  899.11   60.39 
  -3  -3   4 1079.09   60.49 
  -3  -3   4 1031.70   61.99 
  -3  -3   4 1062.79   64.49 
   3  -3  -4 1063.69   57.59 
  -3  -3   4 1088.79   59.59 
   3  -3  -4 1065.59   57.99 
  -3   3   4 1003.30   58.89 
   3   3  -4 1006.40   61.09 
   3   3  -4 1015.60   61.59 
  -3   3   4 1043.70   58.39 
   3   3  -4 1081.79   59.49 
  -3   3   4 1101.99   59.99 
   3   3  -4 1136.19   60.79 
   3   3  -4 1016.60   62.69 
  -3   3   4 1112.29   62.99 
  -2  -3   4   72.69    7.20 
  -2  -3   4   80.49   10.30 
  -2  -3   4   71.59    6.90 
   2  -3  -4   73.99    5.50 
   2  -3  -4   75.19    5.60 
  -2  -3   4   74.69    8.40 
   2  -3  -4   65.19    7.10 
  -2   3   4   79.89    6.80 
  -2   3   4   79.99    7.20 
  -2   3   4   77.39    6.60 
   2   3  -4   78.49   16.00 
   2   3  -4   71.59    7.90 
   2   3  -4   89.49    8.40 
  -2   3   4   92.49    8.60 
   2   3  -4   79.59    8.30 
   2   3  -4   77.89    7.30 
   1  -3  -4 1299.37   66.59 
  -1  -3   4 1274.97   73.19 
  -1  -3   4 1284.47   69.19 
   1  -3  -4 1291.27   66.49 
  -1  -3   4 1340.77   69.39 
  -1  -3   4 1193.68   70.49 
   1  -3  -4 1224.08   69.09 
   1   3  -4 1218.48   69.19 
   1   3  -4 1201.28   68.39 
   1   3  -4 1179.08   70.29 
   1   3  -4 1131.39   71.49 
  -1   3   4 1193.38   68.19 
  -1   3   4 1177.98   68.59 
   1   3  -4 1197.58   70.89 
  -1   3   4 1179.98   69.69 
   0  -3   4 2854.31  164.28 
   0  -3  -4 3036.60  158.18 
   0  -3  -4 2998.10  160.88 
   0  -3  -4 2873.81  161.28 
   0  -3   4 3067.09  160.68 
   0  -3   4 2682.23  161.98 
   0  -3   4 2997.40  161.08 
   0  -3  -4 3019.80  158.88 
   0   3  -4 3238.58  161.38 
   0   3  -4 2752.42  163.58 
   0   3   4 2751.32  160.18 
   0   3   4 3100.19  160.38 
   0   3  -4 3056.49  160.38 
   0   3  -4 2985.20  162.18 
   0   3  -4 2971.00  163.28 
   0   3   4 2867.11  160.68 
   1  -3   4  265.47   20.80 
  -1  -3  -4  255.77   18.50 
  -1  -3  -4  274.27   16.10 
   1  -3   4  258.77   17.60 
  -1  -3  -4  244.88   17.70 
   1  -3   4  245.08   18.80 
   1  -3   4  250.77   18.10 
  -1   3  -4  265.57   20.10 
  -1   3  -4  281.67   17.60 
  -1   3  -4  243.08   20.20 
  -1   3  -4  262.27   18.80 
   1   3   4  274.67   14.50 
   1   3   4  282.37   17.70 
   1   3   4  271.87   14.60 
   1   3   4  282.27   17.70 
  -2  -3  -4  221.08   16.20 
  -2  -3  -4  208.88   16.50 
   2  -3   4  227.98   16.60 
   2  -3   4  229.18   15.50 
  -2  -3  -4  223.08   14.30 
   2  -3   4  191.88   16.30 
  -2   3  -4  229.58   16.50 
   2   3   4  239.88   15.30 
   2   3   4  228.18   13.50 
   2   3   4  245.08   15.70 
   2   3   4  221.08   14.10 
  -2   3  -4  216.58   15.30 
  -2   3  -4  204.78   18.30 
  -2   3  -4  206.98   17.50 
   3  -3   4  208.88   16.30 
   3  -3   4  231.58   15.50 
  -3  -3  -4  197.78   16.20 
  -3  -3  -4  222.58   17.10 
  -3  -3  -4  208.48   14.40 
  -3   3  -4  203.38   18.50 
   3   3   4  217.88   14.10 
  -3   3  -4  222.48   16.10 
  -3   3  -4  212.08   17.20 
   3   3   4  213.28   14.80 
   4  -3   4  746.93   48.00 
   4  -3   4  685.53   43.10 
  -4  -3  -4  708.13   42.60 
  -4  -3  -4  660.03   44.50 
  -4  -3  -4  713.63   45.70 
   4   3   4  722.63   41.90 
   4   3   4  813.62   43.00 
  -4   3  -4  743.63   43.90 
  -4   3  -4  733.63   45.50 
  -5  -3  -4   32.40    5.40 
  -5  -3  -4   38.50    7.70 
   5  -3   4   35.30    7.20 
  -5  -3  -4   24.10    6.20 
   5  -3   4   38.10    6.10 
   5   3   4   38.30    5.20 
  -5   3  -4   51.19    7.00 
  -5   3  -4   35.00    5.60 
   5   3   4   39.40    5.10 
   6  -3   4  547.15   36.10 
  -6  -3  -4  553.14   39.00 
  -6  -3  -4  470.85   37.60 
  -6  -3  -4  552.94   36.20 
  -6   3  -4  634.24   38.00 
   6   3   4  593.64   35.30 
  -6   3  -4  637.94   36.70 
  -7  -3  -4  147.19   14.60 
   7  -3   4  169.58   14.80 
  -7  -3  -4  154.78   16.80 
  -7  -3  -4  144.09   16.20 
  -7   3  -4  184.68   15.10 
  -7   3  -4  197.88   16.30 
   7   3   4  190.08   14.40 
  -8  -3  -4   25.80    7.70 
  -8  -3  -4   25.90    7.60 
  -8  -3  -4   32.30    6.70 
   8  -3   4   33.10    7.00 
  -8   3  -4   39.90    7.30 
  -8   3  -4   37.50    8.10 
  -9  -3  -4   80.29   13.30 
   9  -3   4   89.49   11.20 
  -9  -3  -4   88.69   13.10 
  -9  -3  -4   93.79   11.70 
  -9   3  -4   85.79   10.90 
  -9  -4   4  103.79   17.50 
   9  -4  -4  130.79   12.10 
  -9  -4   4  121.19   13.90 
  -9   4   4  132.49   10.90 
  -9   4   4  130.29   14.40 
  -8  -4   4   84.89   14.30 
  -8  -4   4   89.39   10.20 
   8  -4  -4   88.39    9.20 
  -8  -4   4   82.59   10.80 
  -8  -4   4   60.89   12.20 
   8   4  -4  103.09   11.30 
  -8   4   4  120.99   12.30 
  -8   4   4  119.59    9.00 
  -8   4   4   90.79    8.20 
   7  -4  -4  166.68   11.90 
  -7  -4   4  125.29   14.10 
  -7  -4   4  136.19   12.40 
  -7  -4   4  130.09   13.40 
   7  -4  -4  116.09   11.50 
  -7  -4   4  126.29   16.50 
  -7   4   4  124.89    9.60 
   7   4  -4  140.39   12.90 
  -7   4   4  142.39   13.30 
  -7   4   4  139.99   10.30 
  -6  -4   4 1185.48   66.29 
  -6  -4   4 1030.00   77.89 
  -6  -4   4 1190.28   67.89 
   6  -4  -4 1158.38   65.09 
  -6  -4   4 1023.60   69.29 
   6   4  -4 1135.79   67.09 
  -6   4   4 1273.17   68.09 
  -6   4   4 1073.99   67.09 
  -6   4   4 1153.08   64.29 
  -5  -4   4  158.08   15.80 
   5  -4  -4  178.98   11.90 
   5  -4  -4  156.48   13.20 
  -5  -4   4  175.18   14.60 
   5  -4  -4  172.08   12.10 
  -5  -4   4  175.58   18.30 
  -5  -4   4  176.38   13.30 
  -5   4   4  148.89   11.70 
   5   4  -4  173.68   14.10 
  -5   4   4  195.38   14.90 
  -5   4   4  158.48   13.50 
  -4  -4   4   58.69    7.50 
  -4  -4   4   57.49    8.70 
   4  -4  -4   59.79    5.40 
   4  -4  -4   67.69    5.50 
  -4  -4   4   52.69    9.40 
  -4  -4   4   61.19    6.50 
  -4   4   4   66.59    7.10 
   4   4  -4   63.69    8.80 
   4   4  -4   57.29    7.10 
  -4   4   4   68.99    7.90 
  -4   4   4   62.39    6.30 
  -3  -4   4  136.09   15.10 
  -3  -4   4  128.79   11.40 
   3  -4  -4  112.79   11.80 
   3  -4  -4  139.09    9.20 
   3  -4  -4  145.19    8.90 
  -3  -4   4  133.99   13.40 
  -3  -4   4  139.09   10.90 
  -3   4   4  144.09   11.10 
  -3   4   4  134.89   11.30 
  -3   4   4  160.08   12.70 
   3   4  -4  139.89   11.40 
   3   4  -4  127.79   13.00 
  -3   4   4  128.59   13.40 
  -2  -4   4  717.23   40.80 
   2  -4  -4  692.13   37.50 
  -2  -4   4  684.43   46.20 
  -2  -4   4  750.62   41.50 
   2  -4  -4  709.23   37.80 
   2   4  -4  630.64   43.00 
   2   4  -4  675.03   43.30 
  -2   4   4  665.83   43.40 
   2   4  -4  679.03   40.90 
  -2   4   4  698.63   42.00 
  -2   4   4  662.43   41.00 
  -2   4   4  659.33   40.90 
  -1  -4   4  609.84   37.70 
  -1  -4   4  698.83   38.40 
   1  -4  -4  695.63   34.70 
  -1  -4   4  609.14   42.70 
   1  -4  -4  674.23   34.60 
   1  -4  -4  647.54   39.20 
  -1   4   4  615.24   38.80 
   1   4  -4  555.64   40.00 
  -1   4   4  616.24   39.80 
  -1   4   4  618.74   38.90 
   1   4  -4  562.64   41.10 
  -1   4   4  631.54   38.20 
   1   4  -4  660.23   40.50 
   1   4  -4  634.44   37.80 
   1   4  -4  625.74   40.20 
   0  -4  -4  228.38   17.20 
   0  -4  -4  228.88   13.60 
   0  -4   4  226.08   15.70 
   0  -4   4  197.48   17.40 
   0  -4  -4  233.98   13.10 
   0  -4   4  226.98   19.80 
   0  -4  -4  207.18   16.80 
   0   4  -4  194.58   17.90 
   0   4  -4  242.88   15.90 
   0   4  -4  222.88   17.60 
   0   4  -4  214.88   19.20 
   0   4   4  208.48   16.40 
   0   4   4  237.08   16.40 
   0   4   4  219.98   16.90 
  -1  -4  -4 2011.10  105.79 
  -1  -4  -4 1846.12  110.39 
   1  -4   4 2081.29  108.49 
  -1  -4  -4 1953.10  110.19 
   1  -4   4 2044.10  114.29 
  -1   4  -4 1780.22  111.99 
   1   4   4 1913.91  109.29 
   1   4   4 2007.10  108.99 
  -1   4  -4 1970.10  110.59 
  -2  -4  -4 1986.70  116.59 
   2  -4   4 2086.49  114.29 
   2  -4   4 2262.47  121.29 
  -2  -4  -4 1944.91  116.99 
   2  -4   4 2082.49  115.69 
  -2  -4  -4 2017.90  112.39 
   2   4   4 2116.69  115.29 
  -2   4  -4 2026.80  118.69 
  -2   4  -4 2105.89  116.69 
  -3  -4  -4  273.47   21.40 
  -3  -4  -4  247.98   18.90 
   3  -4   4  269.07   20.00 
   3  -4   4  273.27   18.60 
  -3  -4  -4  265.37   21.00 
  -3   4  -4  261.27   21.80 
   3   4   4  253.97   16.00 
   3   4   4  294.37   19.40 
  -3   4  -4  284.77   20.40 
  -4  -4  -4 1028.10   59.09 
   4  -4   4  995.30   61.49 
  -4  -4  -4  972.20   62.89 
  -4  -4  -4  934.91   63.09 
   4  -4   4 1036.50   59.99 
  -4   4  -4 1121.09   61.89 
   4   4   4 1014.50   57.59 
   4   4   4 1090.69   60.39 
  -4   4  -4 1084.59   64.09 
   5  -4   4  323.27   26.90 
   5  -4   4  361.56   24.90 
  -5  -4  -4  381.76   24.60 
  -5  -4  -4  355.26   27.60 
  -5   4  -4  390.86   28.10 
   5   4   4  376.36   23.20 
   6  -4   4   20.90    7.30 
  -6  -4  -4   40.20    8.70 
  -6  -4  -4   38.80    8.90 
   6  -4   4   51.39    7.90 
  -6  -4  -4   46.00    7.30 
   6   4   4   49.10    6.10 
  -6   4  -4   58.19    7.60 
  -6   4  -4   43.70    7.80 
  -7  -4  -4   83.49   13.10 
  -7  -4  -4  103.29   11.10 
   7  -4   4  111.49   11.60 
  -7  -4  -4  102.69   14.10 
   7  -4   4  105.39   13.00 
  -7   4  -4  124.29   12.00 
   7   4   4  101.09   10.00 
  -7   4  -4  112.39   12.80 
   8  -4   4    3.40    4.00 
  -8  -4  -4   -0.40    3.80 
  -8  -4  -4    2.90    3.20 
  -8  -4  -4    3.10    5.50 
  -8   4  -4    1.30    3.80 
  -8   4  -4    2.70    3.60 
  -9  -5   4   15.50    5.70 
   9  -5  -4   13.40    4.40 
  -9  -5   4    7.30    5.70 
  -9  -5   4   17.20    7.50 
  -9   5   4   14.80    4.30 
  -9   5   4   12.70    5.70 
  -8  -5   4   30.30    8.50 
   8  -5  -4   23.30    5.30 
  -8  -5   4   48.50   12.40 
  -8  -5   4   23.30    5.90 
  -8   5   4   40.20    5.60 
  -8   5   4   36.00    8.00 
  -7  -5   4   40.30    8.20 
   7  -5  -4   46.30    5.80 
  -7  -5   4   46.60   11.90 
  -7  -5   4   25.90    7.80 
  -7  -5   4   48.60    7.60 
  -7   5   4   58.89    8.80 
  -7   5   4   52.09    6.00 
   7   5  -4   40.70    7.60 
  -6  -5   4   18.60    7.80 
  -6  -5   4   37.20   11.60 
  -6  -5   4   27.80    5.30 
  -6  -5   4   26.00    7.10 
   6  -5  -4   25.80    4.40 
  -6   5   4   39.00    7.70 
   6   5  -4   26.40    5.50 
  -6   5   4   37.70    4.80 
  -6   5   4   36.10    7.20 
  -5  -5   4  317.37   29.50 
  -5  -5   4  352.16   23.10 
  -5  -5   4  308.37   26.80 
   5  -5  -4  330.87   21.40 
  -5  -5   4  341.67   24.50 
  -5   5   4  337.17   24.40 
  -5   5   4  361.06   22.80 
   5   5  -4  335.27   27.60 
  -5   5   4  383.06   25.90 
   5   5  -4  325.57   23.70 
  -4  -5   4  931.51   55.19 
  -4  -5   4  867.01   62.69 
   4  -5  -4  970.30   52.89 
  -4  -5   4  919.31   60.39 
   4  -5  -4  960.60   52.79 
  -4  -5   4  943.61   56.79 
  -4   5   4  975.30   55.89 
  -4   5   4  990.50   58.29 
   4   5  -4  948.21   55.99 
  -4   5   4  960.40   57.19 
   4   5  -4  968.40   60.59 
   3  -5  -4    9.90    1.70 
   3  -5  -4    6.50    1.50 
  -3  -5   4    2.30    4.00 
  -3  -5   4    8.70    4.60 
  -3  -5   4    6.20    3.10 
  -3  -5   4    2.40    2.20 
  -3   5   4    6.80    3.50 
  -3   5   4    4.80    2.90 
   3   5  -4    3.40    2.30 
   3   5  -4    8.10    4.20 
  -3   5   4    7.30    3.00 
  -2  -5   4  269.27   19.10 
   2  -5  -4  267.27   15.10 
  -2  -5   4  273.87   24.30 
   2  -5  -4  275.37   14.90 
  -2   5   4  257.27   19.60 
   2   5  -4  268.27   21.90 
   2   5  -4  264.37   18.30 
  -2   5   4  249.08   19.40 
  -2   5   4  274.17   20.70 
  -2   5   4  245.38   21.30 
  -1  -5   4  901.01   54.49 
  -1  -5   4  929.91   61.39 
   1  -5  -4  929.01   50.29 
  -1  -5   4  972.70   54.79 
   1  -5  -4  943.01   50.49 
   1  -5  -4  942.61   56.99 
   1   5  -4  994.70   53.99 
   1   5  -4  931.51   58.09 
  -1   5   4  873.61   56.49 
  -1   5   4  902.11   57.79 
  -1   5   4  955.10   56.69 
  -1   5   4  940.51   55.79 
   0  -5  -4  263.77   14.60 
   0  -5  -4  264.17   20.40 
   0  -5   4  292.87   18.30 
   0  -5  -4  253.47   23.60 
   0  -5   4  239.48   17.90 
   0  -5   4  246.68   22.80 
   0   5  -4  229.18   19.90 
   0   5   4  244.98   20.00 
   0   5   4  225.18   19.30 
   0   5   4  259.07   21.40 
   1  -5   4   85.09    8.30 
   1  -5   4   77.79    7.80 
   1  -5   4   87.89   11.90 
  -1  -5  -4   77.29    5.70 
  -1  -5  -4   81.09   10.00 
  -1  -5  -4   76.49   11.70 
  -1   5  -4   61.09    8.70 
   1   5   4   64.39    8.70 
  -1   5  -4   76.49   10.40 
   2  -5   4  155.08   13.10 
   2  -5   4  162.28   12.50 
   2  -5   4  174.98   18.20 
  -2  -5  -4  159.08   15.30 
  -2  -5  -4  146.29   14.90 
  -2  -5  -4  162.08   10.80 
   2   5   4  139.49   13.50 
  -2   5  -4  146.39   14.30 
  -2   5  -4  143.19   15.90 
  -3  -5  -4   83.19    7.30 
  -3  -5  -4   68.09    9.90 
   3  -5   4   83.19    8.20 
  -3  -5  -4   77.89   10.50 
  -3   5  -4   88.59   10.10 
  -3   5  -4   64.89   10.80 
   3   5   4   94.99    9.70 
  -4  -5  -4  357.46   23.20 
   4  -5   4  360.36   25.80 
  -4  -5  -4  279.27   30.80 
  -4  -5  -4  362.66   28.20 
   4  -5   4  378.46   29.70 
  -4   5  -4  388.06   26.70 
   5  -5   4   48.50    8.50 
  -5  -5  -4   48.80   10.20 
  -5  -5  -4   46.00    9.50 
  -5  -5  -4   32.00    5.90 
   5  -5   4   43.50    6.90 
  -5   5  -4   49.20    8.60 
   5   5   4   39.90    4.80 
  -5   5  -4   52.59    7.50 
   6  -5   4  188.08   16.10 
  -6  -5  -4  193.48   20.30 
  -6  -5  -4  194.58   20.30 
   6  -5   4  189.68   18.00 
  -6  -5  -4  193.48   16.20 
   6   5   4  189.28   15.50 
  -6   5  -4  240.08   18.40 
  -6   5  -4  224.18   20.10 
  -7  -5  -4  121.79   17.00 
   7  -5   4  152.88   13.90 
  -7  -5  -4  119.59   16.00 
  -7  -5  -4  123.59   12.80 
  -7   5  -4  146.29   14.40 
  -7   5  -4  172.58   17.20 
  -8  -5  -4   45.50   10.80 
  -8  -5  -4   46.90    8.20 
  -8  -5  -4   54.29   12.50 
  -8   5  -4   47.30    9.90 
  -8   5  -4   40.60    8.80 
  -8  -6   4  130.29   14.70 
  -8  -6   4  116.59   19.00 
  -8  -6   4  101.09   17.80 
   8  -6  -4  115.59   11.10 
  -8   6   4  131.49   12.00 
  -8   6   4  141.29   15.20 
   7  -6  -4  169.48   13.10 
  -7  -6   4  166.68   16.20 
  -7  -6   4  147.29   18.60 
  -7  -6   4  157.48   21.90 
  -7   6   4  207.38   18.40 
   7   6  -4  146.09   19.00 
  -7   6   4  173.88   13.90 
  -6  -6   4  140.09   14.10 
   6  -6  -4  159.48   11.50 
  -6  -6   4  132.59   16.60 
  -6  -6   4  139.89   13.30 
  -6  -6   4  119.69   18.40 
  -6   6   4  147.99   15.60 
   6   6  -4  147.49   17.30 
  -6   6   4  171.38   13.40 
   6   6  -4  142.29   13.40 
  -5  -6   4  110.99   16.10 
   5  -6  -4  122.09    9.10 
  -5  -6   4  120.99   12.20 
  -5  -6   4  123.39   11.30 
  -5  -6   4  103.09   14.50 
  -5   6   4  133.29   11.70 
  -5   6   4  133.49   13.90 
   5   6  -4  103.89   14.20 
   5   6  -4  121.99   11.30 
   4  -6  -4   59.49    5.00 
  -4  -6   4   52.99   11.90 
  -4  -6   4   58.19    6.80 
  -4  -6   4   56.39   11.40 
  -4  -6   4   63.79    7.90 
  -4   6   4   65.89    9.20 
   4   6  -4   64.69   12.20 
  -4   6   4   52.49    7.40 
   4   6  -4   54.79    6.90 
   3  -6  -4   81.49    5.60 
  -3  -6   4   85.09   13.00 
  -3  -6   4   78.99   12.60 
  -3  -6   4   92.39   10.10 
   3   6  -4   85.69    8.00 
  -3   6   4   82.79   10.60 
   3   6  -4   82.09   16.50 
  -3   6   4   67.99    9.00 
  -2  -6   4   65.59    7.60 
  -2  -6   4   62.29    7.00 
  -2  -6   4   66.29   20.50 
   2   6  -4   66.99    6.50 
  -2   6   4   62.29    9.20 
   2   6  -4   63.09    9.70 
  -2   6   4   62.09    8.40 
  -1  -6   4  232.88   23.60 
   1  -6  -4  262.67   21.00 
  -1  -6   4  276.37   18.20 
  -1  -6   4  225.78   17.20 
  -1   6   4  211.18   19.50 
  -1   6   4  218.78   19.60 
   1   6  -4  225.88   20.70 
   0  -6   4 1088.89   62.19 
   0  -6   4 1129.89   71.29 
   0  -6  -4 1115.19   67.29 
   0  -6  -4 1071.29   66.49 
   0  -6   4 1081.29   62.49 
   0  -6  -4 1069.79   57.79 
   0   6  -4 1074.89   66.59 
   0   6   4  965.80   65.29 
   0   6   4 1004.50   65.49 
  -1  -6  -4   39.90    8.70 
   1  -6   4   31.80   13.60 
   1  -6   4   31.50    5.90 
  -1  -6  -4   38.00    3.60 
  -1  -6  -4   30.00    7.70 
   1  -6   4   39.50    7.50 
  -1   6  -4   29.00    9.30 
   2  -6   4  620.44   37.70 
  -2  -6  -4  604.04   42.80 
   2  -6   4  681.53   47.20 
  -2  -6  -4  626.84   35.30 
  -2  -6  -4  557.64   42.00 
   2  -6   4  592.44   38.60 
  -2   6  -4  577.54   43.70 
  -2   6  -4  616.94   41.40 
   3  -6   4  716.63   42.80 
   3  -6   4  702.93   44.30 
  -3  -6  -4  661.23   48.00 
  -3  -6  -4  712.53   41.00 
  -3  -6  -4  720.33   48.90 
  -3   6  -4  673.43   49.10 
  -3   6  -4  713.23   46.40 
  -4  -6  -4  141.39   16.80 
  -4  -6  -4  155.48   12.40 
   4  -6   4  158.48   14.80 
   4  -6   4  171.48   13.70 
  -4  -6  -4  150.18   17.30 
  -4   6  -4  156.28   15.70 
  -4   6  -4  152.98   17.30 
  -5  -6  -4  120.89   15.80 
   5  -6   4  134.69   12.30 
  -5  -6  -4  122.79   11.10 
  -5  -6  -4  130.69   11.80 
  -5  -6  -4  114.09   15.50 
  -5   6  -4  129.09   15.90 
  -5   6  -4  123.49   13.70 
  -5   6  -4  139.09   10.30 
  -6  -6  -4   58.79   12.70 
  -6  -6  -4   61.59    8.00 
  -6  -6  -4   67.29   13.50 
   6  -6   4   79.49    9.10 
  -6   6  -4   80.89   10.20 
  -6   6  -4   84.19   12.60 
  -7  -6  -4   18.40    7.60 
  -7  -6  -4   15.70    7.10 
  -7  -6  -4   11.60    4.40 
   7  -6   4   13.90    4.60 
  -7   6  -4   10.10    5.00 
  -7   6  -4   19.20    7.10 
  -7  -7   4   14.60    7.80 
   7  -7  -4   26.50    4.60 
  -7  -7   4   25.30    6.70 
  -7  -7   4   38.70   11.60 
  -7   7   4   30.80    6.20 
  -7   7   4   27.80    7.60 
   7   7  -4   18.90    8.60 
  -6  -7   4   72.89   19.10 
  -6  -7   4  100.39   15.50 
  -6  -7   4   88.09   11.40 
  -6   7   4   86.99   11.40 
  -6   7   4  109.59   13.40 
   6   7  -4   82.29   15.70 
  -5  -7   4   92.49   16.10 
   5  -7  -4   97.29    7.90 
  -5  -7   4  110.89   15.70 
  -5  -7   4  105.89   11.30 
  -5  -7   4   91.19   11.20 
   5   7  -4  111.59   15.60 
  -5   7   4  105.59   13.70 
  -5   7   4  105.29   11.40 
  -4  -7   4   89.29    9.00 
  -4  -7   4   76.79   14.40 
  -4  -7   4   81.99   14.30 
  -4  -7   4   80.29   10.10 
   4  -7  -4   92.29    6.60 
   4   7  -4   79.89   12.90 
  -4   7   4   93.99   12.40 
  -4   7   4   83.09   10.50 
   3  -7  -4   82.29    5.50 
  -3  -7   4   85.99    9.90 
  -3  -7   4   65.49   14.90 
  -3  -7   4   70.09    8.50 
   3   7  -4   86.89   12.70 
  -3   7   4   79.89   11.20 
  -3   7   4   89.19   11.10 
  -2  -7   4  363.06   25.30 
  -2  -7   4  411.46   35.60 
  -2  -7   4  394.46   26.50 
  -2   7   4  375.36   29.80 
   2   7  -4  377.16   31.00 
  -2   7   4  340.27   28.10 
  -1  -7   4  140.09   11.80 
  -1  -7   4  131.29   11.70 
  -1  -7   4  116.89   17.40 
   1   7  -4  109.39   14.00 
  -1   7   4  110.79   13.70 
  -1   7   4  131.09   14.30 
   0  -7  -4  260.57   15.30 
   0  -7   4  274.07   19.70 
   0  -7  -4  270.97   15.30 
   0  -7  -4  296.67   25.50 
   0  -7   4  271.87   27.30 
   0  -7   4  279.67   19.70 
   0   7  -4  247.08   25.30 
   0   7   4  249.97   22.80 
   0   7   4  243.48   26.60 
   0   7  -4  235.98   22.90 
  -1  -7  -4  393.76   23.50 
   1  -7   4  420.76   27.30 
  -1  -7  -4  409.86   23.50 
  -1  -7  -4  435.56   33.50 
   1  -7   4  438.66   36.90 
   1  -7   4  410.96   27.60 
  -1  -7  -4  377.46   31.70 
   1   7   4  379.96   31.10 
  -1   7  -4  362.96   33.30 
   1   7   4  387.36   31.60 
  -1   7  -4  418.16   31.80 
   2  -7   4   83.99   14.40 
  -2  -7  -4   70.49    6.50 
  -2  -7  -4   78.09    6.60 
  -2  -7  -4   83.69   13.10 
  -2  -7  -4   71.39   13.30 
   2  -7   4   77.79    9.20 
   2  -7   4   80.49    8.40 
  -2   7  -4   77.49   12.90 
  -2   7  -4   72.99   10.70 
  -3  -7  -4    8.40    2.90 
  -3  -7  -4   15.40    3.10 
  -3  -7  -4   10.30    5.40 
   3  -7   4    7.50    4.40 
   3  -7   4   10.20    3.50 
  -3  -7  -4    9.40    6.20 
  -3   7  -4   18.00    7.50 
  -3   7  -4   15.00    5.90 
  -4  -7  -4   34.90    5.50 
  -4  -7  -4   26.40    8.40 
   4  -7   4   41.40    6.70 
  -4  -7  -4   27.00    5.20 
  -4  -7  -4   39.70    9.90 
  -4   7  -4   38.70    8.80 
  -4   7  -4   27.00    9.50 
  -5  -7  -4  101.09    9.90 
  -5  -7  -4   87.49   14.50 
   5  -7   4  111.49   11.10 
  -5  -7  -4   68.79   18.10 
  -5   7  -4   98.89   14.30 
  -5   7  -4  107.49   15.00 
  -5  -8   4   70.09   13.90 
   5  -8  -4   80.79    6.70 
  -5  -8   4   55.89   14.80 
  -5  -8   4   73.79   11.80 
   5   8  -4   88.09   16.70 
  -5   8   4  100.99   22.90 
  -5   8   4   94.09   11.10 
  -4  -8   4  126.79   13.20 
   4  -8  -4  128.49    8.50 
  -4  -8   4  107.59   18.50 
  -4   8   4  128.59   15.60 
   4   8  -4  112.59   16.20 
  -4   8   4  127.59   13.90 
  -3  -8   4  109.19   13.40 
  -3  -8   4   74.89   20.30 
   3  -8  -4   95.39    5.90 
  -3   8   4  102.39   14.00 
  -3   8   4   95.69   12.50 
   3   8  -4   86.19   16.50 
  -2  -8   4   62.69    7.90 
  -2  -8   4   59.39   14.20 
  -2  -8   4   67.99    8.00 
   2   8  -4   58.29   12.10 
  -2   8   4   52.29   10.50 
  -2   8   4   49.90   10.60 
  -1  -8   4    7.00    3.10 
  -1  -8   4    3.00    5.20 
  -1  -8   4    1.20    2.80 
   1   8  -4    2.40    4.40 
  -1   8   4    5.20    3.70 
   1   8  -4   -1.70    3.60 
  -1   8   4   -2.50    3.80 
   0  -8  -4  508.35   30.80 
   0  -8   4  568.64   46.80 
   0  -8   4  532.15   34.80 
   0  -8  -4  593.24   43.50 
   0  -8  -4  484.65   40.40 
   0  -8   4  520.25   34.90 
   0  -8  -4  572.94   30.10 
   0   8   4  501.15   40.00 
   0   8  -4  541.35   41.10 
   0   8   4  529.25   40.80 
   1  -8   4  143.89   13.00 
  -1  -8  -4  148.29    9.90 
  -1  -8  -4  127.39   17.60 
  -1  -8  -4  126.49   16.80 
  -1  -8  -4  126.99    9.30 
   1  -8   4  140.79   12.90 
   1  -8   4  155.48   20.70 
  -1   8  -4  133.49   18.50 
   1   8   4  129.09   16.70 
   1   8   4  142.09   17.00 
  -1   8  -4  159.88   17.60 
   2  -8   4   93.99   10.60 
  -2  -8  -4   84.79   13.70 
  -2  -8  -4   91.09    7.50 
  -2  -8  -4  108.49   15.70 
  -2  -8  -4   74.79    7.30 
   2   8   4   89.09   13.80 
   2   8   4   77.29   12.60 
  -3  -8  -4  163.28   12.90 
  -3  -8  -4  166.28   13.00 
  -3  -8  -4  196.78   22.00 
   3  -8   4  175.58   14.80 
  -3  -8  -4  193.38   36.80 
  -3   8  -4  162.38   18.20 
  -3   8  -4  190.18   21.50 
  -4  -8  -4   17.10    8.90 
  -4  -8  -4   26.00    4.70 
  -4  -8  -4   20.50    9.50 
   4  -8   4   35.80    6.60 
  -4   8  -4   29.40    9.30 
  -4   8  -4   28.20    8.00 
 -11   0   5   22.70    7.20 
  10   0  -5    3.80    3.50 
 -10   0   5   -0.20    4.10 
 -10   0   5    6.20    3.60 
 -10   0   5    7.00    5.90 
   9   0  -5   36.50    6.80 
  -9   0   5   22.70    7.10 
  -9   0   5   25.20    6.00 
  -9   0   5   38.60    6.10 
   8   0  -5   93.49    7.70 
   8   0  -5   74.89    8.80 
  -8   0   5   81.29    8.60 
  -8   0   5   80.69    9.40 
  -8   0   5   76.89   10.90 
   7   0  -5  560.34   31.40 
   7   0  -5  563.04   34.40 
   7   0  -5  559.14   34.30 
  -7   0   5  537.55   36.60 
  -7   0   5  462.65   34.00 
   6   0  -5  524.65   32.90 
   6   0  -5  540.45   32.80 
  -6   0   5  541.05   35.10 
   6   0  -5  597.64   30.30 
  -6   0   5  438.86   31.00 
  -6   0   5  520.05   33.40 
   5   0  -5 1377.96   79.49 
  -5   0   5 1374.16   78.89 
  -5   0   5 1412.86   81.29 
   5   0  -5 1489.85   76.69 
   5   0  -5 1564.14   80.09 
   5   0  -5 1398.86   79.59 
  -5   0   5 1406.26   80.19 
  -5   0   5 1296.17   77.69 
  -4   0   5 2854.61  165.98 
   4   0  -5 3443.36  168.28 
  -4   0   5 3059.59  169.38 
   4   0  -5 2932.21  168.58 
   4   0  -5 3070.19  168.18 
  -4   0   5 3098.59  167.48 
   4   0  -5 3392.36  165.18 
  -4   0   5 2877.11  169.48 
  -3   0   5 4603.34  246.58 
  -3   0   5 4551.04  246.18 
  -3   0   5 4462.65  245.08 
   3   0  -5 4716.03  243.18 
   3   0  -5 5089.69  245.48 
   3   0  -5 4512.25  245.98 
   3   0  -5 4410.56  245.98 
   3   0  -5 4179.38  243.18 
   2   0  -5 1334.77   76.39 
  -2   0   5 1427.16   78.29 
   2   0  -5 1525.15   77.29 
   2   0  -5 1392.56   75.79 
   2   0  -5 1434.36   78.59 
   2   0  -5 1460.75   78.69 
  -2   0   5 1450.45   77.79 
  -2   0   5 1390.36   78.19 
  -2   0   5 1308.87   76.29 
   0   0  -5  773.72   47.50 
   0   0  -5  938.81   48.00 
   0   0   5  867.71   49.60 
   0   0  -5  866.91   49.40 
   0   0   5  889.71   49.10 
   0   0  -5  874.81   47.70 
   0   0   5  813.92   48.20 
   0   0   5  915.51   48.00 
   0   0  -5  886.01   50.09 
  -1   0  -5  267.97   17.70 
  -1   0  -5  237.78   15.60 
  -1   0  -5  251.17   14.90 
   1   0   5  267.27   17.50 
   1   0   5  253.37   16.10 
   1   0   5  249.78   16.40 
  -1   0  -5  250.37   16.70 
  -1   0  -5  278.27   15.90 
   2   0   5 3091.09  162.88 
   2   0   5 2951.20  160.98 
   2   0   5 2919.31  161.08 
  -2   0  -5 3062.39  161.48 
   2   0   5 2523.35  160.28 
  -2   0  -5 2814.42  161.28 
  -2   0  -5 3215.38  160.78 
  -2   0  -5 3191.98  159.58 
   3   0   5  891.41   50.59 
  -3   0  -5  841.02   50.89 
   3   0   5  762.92   50.09 
   3   0   5  859.01   52.39 
   3   0   5  867.71   50.69 
  -3   0  -5  983.10   49.50 
  -3   0  -5  947.91   50.49 
   4   0   5  316.07   20.70 
  -4   0  -5  343.17   20.90 
   4   0   5  263.27   20.40 
  -4   0  -5  349.37   20.20 
  -4   0  -5  296.97   20.90 
   4   0   5  288.27   22.00 
   5   0   5  555.84   39.90 
  -5   0  -5  711.63   39.70 
   5   0   5  592.54   39.50 
   5   0   5  649.83   45.30 
  -5   0  -5  697.43   40.70 
  -5   0  -5  735.33   40.40 
   6   0   5  395.56   29.40 
  -6   0  -5  496.55   30.70 
  -6   0  -5  483.05   30.30 
  -6   0  -5  462.05   30.70 
   7   0   5   16.10    4.80 
  -7   0  -5   19.50    5.20 
  -7   0  -5   14.80    5.50 
   8   0   5  358.06   25.60 
  -8   0  -5  363.56   26.50 
  -8   0  -5  333.87   26.40 
  -9   0  -5   11.20    7.10 
  -9   0  -5    4.40    4.80 
   9   0   5    1.20    4.40 
 -10  -1   5    2.80    5.40 
  10  -1  -5   11.80    4.40 
 -10  -1   5    2.50    4.30 
 -10  -1   5   13.00    4.90 
 -10   1   5   13.90    6.00 
 -10   1   5   13.20    3.90 
  10   1  -5   15.80    5.00 
   9  -1  -5   28.00    5.60 
   9  -1  -5   39.90    7.40 
  -9  -1   5   32.80    8.60 
  -9  -1   5   33.50    6.70 
  -9  -1   5   33.40    7.30 
  -9   1   5   48.70   10.00 
  -9   1   5   15.50    5.10 
  -9   1   5   28.40    5.30 
   9   1  -5   26.00    6.20 
  -8  -1   5  905.11   52.69 
   8  -1  -5  869.91   50.79 
   8  -1  -5  811.12   48.10 
  -8  -1   5  741.03   50.29 
  -8  -1   5  893.91   56.09 
  -8   1   5  882.61   53.59 
  -8   1   5  831.82   51.29 
  -8   1   5  802.72   48.70 
   8   1  -5  842.82   51.19 
   8   1  -5  825.62   50.79 
   7  -1  -5   93.09    8.80 
   7  -1  -5   84.09    8.50 
  -7  -1   5   65.39    8.60 
   7  -1  -5   77.19    6.80 
  -7  -1   5   99.79   11.80 
   7   1  -5   92.09    9.30 
  -7   1   5   93.69    9.30 
  -7   1   5   66.59    6.90 
   7   1  -5   87.89    9.30 
   7   1  -5  108.19    9.00 
  -6  -1   5    8.60    4.00 
   6  -1  -5    7.10    2.80 
   6  -1  -5    4.60    1.40 
  -6  -1   5    3.00    2.20 
   6  -1  -5    4.10    1.80 
  -6  -1   5    4.60    2.70 
  -6  -1   5    6.10    3.00 
  -6   1   5    3.10    3.20 
  -6   1   5    6.40    1.90 
   6   1  -5    7.70    2.80 
   6   1  -5    4.20    1.80 
   6   1  -5   12.00    3.20 
  -6   1   5    6.20    2.60 
  -5  -1   5  786.02   45.00 
  -5  -1   5  724.53   44.80 
   5  -1  -5  802.62   45.90 
   5  -1  -5  771.32   45.00 
  -5  -1   5  751.52   48.00 
   5  -1  -5  684.13   42.10 
  -5  -1   5  745.03   46.10 
   5  -1  -5  756.32   44.70 
   5   1  -5  855.11   43.60 
  -5   1   5  711.33   42.40 
  -5   1   5  764.02   45.30 
   5   1  -5  764.62   45.70 
   5   1  -5  846.62   46.30 
   5   1  -5  803.32   45.60 
  -5   1   5  784.62   45.90 
   4  -1  -5   23.20    4.00 
  -4  -1   5   20.60    4.20 
   4  -1  -5   18.40    3.20 
  -4  -1   5   17.10    3.40 
  -4  -1   5   17.50    4.40 
   4  -1  -5   28.30    5.00 
  -4  -1   5   15.50    3.20 
   4   1  -5   18.90    2.70 
   4   1  -5   16.60    3.40 
  -4   1   5   16.00    2.90 
   4   1  -5   14.80    3.10 
  -4   1   5   12.00    3.00 
   4   1  -5   21.20    4.70 
   4   1  -5   11.70    3.10 
  -3  -1   5 3167.88  168.18 
   3  -1  -5 3100.29  167.18 
   3  -1  -5 3164.78  166.98 
   3  -1  -5 3223.28  166.78 
  -3  -1   5 3159.08  169.58 
  -3  -1   5 3072.79  167.08 
   3   1  -5 3136.99  167.98 
   3   1  -5 2887.91  166.38 
  -3   1   5 3102.59  166.08 
   3   1  -5 2915.41  167.48 
   3   1  -5 3025.00  167.88 
  -3   1   5 3082.09  166.88 
   3   1  -5 2936.41  166.38 
  -3   1   5 3206.48  166.98 
   2  -1  -5 1585.54   86.69 
  -2  -1   5 1598.34   88.09 
  -2  -1   5 1561.74   88.49 
  -2  -1   5 1563.54   89.49 
   2  -1  -5 1530.05   87.59 
   2   1  -5 1659.73   88.69 
  -2   1   5 1635.04   87.29 
  -2   1   5 1598.04   86.79 
   2   1  -5 1714.73   89.19 
   2   1  -5 1615.24   88.49 
   2   1  -5 1496.65   87.49 
   2   1  -5 1531.15   87.19 
  -2   1   5 1655.33   86.99 
  -1  -1   5  898.31   54.49 
  -1  -1   5  945.11   54.09 
  -1  -1   5  857.21   53.29 
   1  -1  -5  970.60   53.79 
   1  -1  -5  858.91   51.49 
  -1  -1   5  959.30   53.99 
   1  -1  -5  974.70   51.89 
   1   1  -5  990.00   54.29 
  -1   1   5  991.60   52.79 
   1   1  -5 1015.70   54.89 
  -1   1   5 1000.60   51.79 
  -1   1   5  937.41   52.69 
   1   1  -5  952.40   54.19 
  -1   1   5  997.70   51.59 
   1   1  -5  925.41   52.89 
   0  -1  -5  307.77   17.80 
   0  -1  -5  289.07   19.00 
   0  -1   5  265.77   19.10 
   0  -1   5  301.37   19.20 
   0  -1   5  246.48   18.90 
   0  -1   5  247.48   18.40 
   0   1  -5  330.87   20.20 
   0   1  -5  319.37   19.40 
   0   1  -5  314.07   18.40 
   0   1   5  299.97   18.00 
   0   1   5  335.07   17.60 
   0   1   5  321.07   18.70 
   0   1  -5  290.77   19.20 
  -1  -1  -5  270.47   17.80 
  -1  -1  -5  292.57   16.70 
   1  -1   5  259.07   17.10 
   1  -1   5  273.27   18.20 
   1  -1   5  253.87   17.10 
  -1  -1  -5  267.77   16.80 
   1   1   5  271.97   16.10 
  -1   1  -5  262.07   16.60 
  -1   1  -5  269.27   17.50 
  -1   1  -5  225.78   16.70 
  -1   1  -5  234.78   17.30 
  -1   1  -5  268.57   18.20 
   1   1   5  261.37   17.20 
   1   1   5  267.27   16.40 
  -2  -1  -5 1978.50  100.39 
   2  -1   5 1829.82  102.09 
   2  -1   5 1679.43  100.49 
  -2  -1  -5 1792.82  100.19 
   2  -1   5 1868.11  100.59 
  -2  -1  -5 1743.33   98.49 
   2   1   5 1788.22   99.59 
   2   1   5 1664.83   98.29 
   2   1   5 1937.81   99.79 
   2   1   5 1902.31  101.49 
  -2   1  -5 1935.21   99.99 
  -2   1  -5 1867.21  100.89 
  -2   1  -5 1740.13   99.89 
  -2   1  -5 1786.92  101.69 
  -3  -1  -5 1408.16   74.29 
   3  -1   5 1281.07   73.89 
   3  -1   5 1286.17   75.79 
  -3  -1  -5 1232.58   73.69 
  -3  -1  -5 1232.28   72.59 
   3  -1   5 1190.88   74.19 
   3   1   5 1390.06   73.59 
  -3   1  -5 1316.47   74.39 
   3   1   5 1309.37   73.39 
  -3   1  -5 1435.66   73.69 
   3   1   5 1353.06   75.39 
  -3   1  -5 1365.16   76.39 
  -3   1  -5 1387.46   73.49 
   3   1   5 1222.78   72.39 
   4  -1   5  824.02   49.90 
  -4  -1  -5  934.31   50.79 
  -4  -1  -5  814.92   49.20 
  -4  -1  -5  835.12   49.90 
   4  -1   5  828.82   51.79 
   4   1   5  811.42   49.00 
  -4   1  -5  765.12   56.89 
  -4   1  -5  928.31   49.80 
   4   1   5  838.92   49.50 
  -4   1  -5  922.01   49.50 
   5  -1   5   55.69    7.70 
   5  -1   5   56.09    6.70 
  -5  -1  -5   49.90    7.80 
   5  -1   5   75.49    9.00 
  -5  -1  -5   60.59    7.50 
  -5  -1  -5   60.59    7.00 
   5   1   5   41.60    6.10 
   5   1   5   67.39    7.00 
  -5   1  -5   71.89    7.30 
  -5   1  -5   57.49    7.40 
   6  -1   5   84.29    9.50 
  -6  -1  -5   81.49    9.30 
  -6  -1  -5  108.79   15.30 
  -6  -1  -5   82.99    9.60 
  -6   1  -5   94.19   13.50 
   6   1   5   92.89    9.20 
  -6   1  -5   90.29    9.40 
  -7  -1  -5  119.49   12.20 
   7  -1   5   98.29   11.00 
  -7  -1  -5   94.59   11.60 
  -7   1  -5  115.89   11.60 
   7   1   5  116.99   11.00 
  -7   1  -5  110.69   11.10 
  -8  -1  -5   46.70    8.30 
   8  -1   5   43.90    8.50 
  -8  -1  -5   35.40    8.20 
   8   1   5   55.59    7.30 
  -8   1  -5   51.19    8.60 
  -8   1  -5   48.90    7.70 
   9  -1   5   18.00    5.20 
  -9  -1  -5   18.70    6.70 
  -9  -1  -5   11.30    5.30 
  -9   1  -5    9.90    5.90 
  -9   1  -5   13.00    5.30 
 -10  -2   5   50.99   10.00 
  10  -2  -5   47.50    7.80 
 -10  -2   5   48.00    9.00 
 -10  -2   5   44.00   13.50 
  10   2  -5   48.10    9.10 
 -10   2   5   51.49    6.90 
 -10   2   5   46.60   15.70 
   9  -2  -5  105.49    9.90 
  -9  -2   5  107.29   15.20 
   9  -2  -5  105.09   11.00 
  -9  -2   5  106.09   11.80 
  -9  -2   5   92.19   11.70 
  -9   2   5  114.49    9.60 
  -9   2   5  101.09   11.10 
  -9   2   5  115.49   13.10 
   9   2  -5  104.19   12.20 
  -8  -2   5  215.08   21.70 
   8  -2  -5  217.68   17.50 
  -8  -2   5  194.88   17.90 
   8  -2  -5  194.88   14.90 
  -8  -2   5  205.78   18.20 
  -8   2   5  212.98   14.80 
  -8   2   5  207.48   16.80 
  -8   2   5  234.08   18.90 
   8   2  -5  228.98   18.10 
   7  -2  -5 1072.29   58.19 
  -7  -2   5 1010.60   64.09 
   7  -2  -5  874.41   55.59 
   7  -2  -5 1063.49   57.89 
  -7  -2   5 1002.00   63.29 
  -7  -2   5  843.52   58.59 
  -7   2   5  863.01   54.79 
   7   2  -5 1133.09   60.29 
  -7   2   5 1005.30   57.89 
   7   2  -5  960.50   58.99 
  -7   2   5 1087.19   59.89 
  -6  -2   5  617.84   40.40 
  -6  -2   5  693.63   44.70 
  -6  -2   5  642.44   40.80 
   6  -2  -5  564.94   36.80 
  -6  -2   5  658.03   39.50 
   6  -2  -5  683.73   38.90 
   6  -2  -5  663.23   39.10 
  -6   2   5  676.53   39.10 
   6   2  -5  727.43   38.90 
  -6   2   5  567.24   36.10 
   6   2  -5  649.14   39.80 
   6   2  -5  565.24   39.60 
  -6   2   5  738.73   40.60 
   5  -2  -5 1075.59   68.29 
   5  -2  -5 1229.48   66.49 
  -5  -2   5 1193.98   68.69 
   5  -2  -5 1065.39   64.49 
  -5  -2   5 1159.38   67.09 
  -5  -2   5 1107.39   68.19 
  -5  -2   5 1202.28   71.89 
   5   2  -5 1162.58   67.59 
   5   2  -5 1214.48   66.99 
   5   2  -5 1207.48   68.29 
  -5   2   5 1224.68   63.89 
  -5   2   5 1183.68   66.49 
  -5   2   5 1332.97   67.79 
   4  -2  -5 2384.46  138.69 
   4  -2  -5 2531.95  136.99 
  -4  -2   5 2542.75  137.89 
  -4  -2   5 2510.75  142.09 
  -4  -2   5 2412.96  138.99 
  -4  -2   5 2643.54  139.49 
   4  -2  -5 2559.44  137.39 
   4   2  -5 2583.34  140.09 
  -4   2   5 2747.63  134.39 
  -4   2   5 2777.12  137.79 
  -4   2   5 2387.76  134.89 
   4   2  -5 2472.15  137.99 
   4   2  -5 2526.25  138.99 
   4   2  -5 2498.65  138.29 
   4   2  -5 2327.47  138.49 
  -4   2   5 2428.56  136.69 
  -4   2   5 2512.55  136.29 
   3  -2  -5 3048.20  162.78 
   3  -2  -5 2928.31  163.08 
  -3  -2   5 3119.39  165.08 
  -3  -2   5 2889.31  167.28 
  -3  -2   5 3142.79  164.08 
   3  -2  -5 2725.43  163.68 
  -3  -2   5 3042.40  165.08 
  -3   2   5 2953.50  161.78 
   3   2  -5 2890.91  164.38 
   3   2  -5 2891.11  164.28 
  -3   2   5 2934.21  162.38 
   3   2  -5 3102.79  166.18 
   3   2  -5 3024.10  164.28 
  -3   2   5 3440.76  163.18 
  -3   2   5 3090.09  160.48 
  -3   2   5 3045.60  160.58 
   3   2  -5 2982.60  164.88 
  -2  -2   5  104.29   10.80 
   2  -2  -5  105.99    8.30 
  -2  -2   5  102.79    9.00 
  -2  -2   5  101.19    9.30 
   2  -2  -5  107.39    8.20 
   2  -2  -5   92.09    8.20 
   2   2  -5  120.29    9.50 
  -2   2   5  121.39    7.00 
  -2   2   5  124.49    7.40 
   2   2  -5  102.19    9.20 
   2   2  -5  113.99   10.40 
   2   2  -5  103.89    9.50 
   2   2  -5  132.29   10.30 
  -2   2   5  133.39    8.10 
  -2   2   5  122.59    7.50 
  -2   2   5  111.29    9.00 
   1  -2  -5  199.88   13.50 
   1  -2  -5  207.38   13.40 
  -1  -2   5  216.78   14.90 
  -1  -2   5  215.98   14.90 
  -1  -2   5  192.78   16.10 
   1  -2  -5  210.68   13.80 
  -1  -2   5  195.28   14.90 
   1   2  -5  191.88   14.50 
   1   2  -5  206.18   15.50 
   1   2  -5  236.08   15.70 
  -1   2   5  214.08   13.70 
   1   2  -5  196.58   15.60 
   1   2  -5  208.48   14.70 
  -1   2   5  239.28   12.60 
  -1   2   5  209.78   12.40 
  -1   2   5  215.98   12.50 
   0  -2   5  465.45   25.90 
   0  -2  -5  423.96   24.10 
   0  -2  -5  429.36   24.90 
   0  -2   5  404.36   25.80 
   0  -2   5  377.96   25.60 
   0  -2   5  402.26   27.10 
   0  -2  -5  414.26   24.70 
   0   2  -5  399.46   25.30 
   0   2   5  446.76   23.70 
   0   2  -5  369.36   26.40 
   0   2   5  393.06   22.40 
   0   2  -5  392.26   25.30 
   0   2   5  390.36   22.70 
   0   2  -5  409.36   26.00 
   0   2   5  415.36   23.30 
   0   2   5  387.06   23.30 
  -1  -2  -5  678.33   37.80 
   1  -2   5  652.73   38.90 
   1  -2   5  695.43   40.10 
  -1  -2  -5  642.54   38.60 
  -1  -2  -5  623.94   36.50 
  -1  -2  -5  629.54   40.10 
   1  -2   5  575.54   39.00 
   1  -2   5  697.43   41.30 
  -1   2  -5  686.43   40.00 
  -1   2  -5  593.54   39.70 
   1   2   5  707.93   38.10 
   1   2   5  697.13   37.60 
  -1   2  -5  648.64   38.80 
   1   2   5  679.53   37.10 
  -1   2  -5  642.24   38.90 
   1   2   5  727.83   35.90 
  -1   2  -5  602.24   40.30 
   2  -2   5 1245.08   66.19 
  -2  -2  -5 1211.28   66.59 
   2  -2   5 1238.88   67.79 
  -2  -2  -5 1120.29   64.69 
   2  -2   5 1061.19   66.49 
   2   2   5 1292.17   63.39 
   2   2   5 1178.48   64.49 
   2   2   5 1173.98   65.69 
  -2   2  -5 1085.69   66.79 
  -2   2  -5 1097.09   65.89 
  -2   2  -5 1182.78   65.99 
  -2   2  -5 1095.59   68.19 
   2   2   5 1140.19   66.69 
  -3  -2  -5 1415.96   82.89 
  -3  -2  -5 1314.47   81.19 
   3  -2   5 1452.55   82.19 
  -3  -2  -5 1340.37   81.19 
   3  -2   5 1447.46   83.99 
   3   2   5 1594.94   81.69 
  -3   2  -5 1469.65   82.49 
  -3   2  -5 1262.97   93.39 
  -3   2  -5 1448.06   82.89 
   3   2   5 1516.85   81.09 
   3   2   5 1678.93   80.29 
  -3   2  -5 1541.65   82.19 
  -4  -2  -5 1724.13  105.59 
   4  -2   5 1901.91  106.19 
  -4  -2  -5 1849.11  105.59 
  -4  -2  -5 1925.11  107.49 
   4  -2   5 1831.52  107.89 
  -4   2  -5 1995.20  105.89 
  -4   2  -5 1959.20  106.59 
   4   2   5 1911.81  105.09 
   4   2   5 2075.49  104.59 
  -4   2  -5 1834.42  109.99 
  -5  -2  -5  503.35   35.80 
  -5  -2  -5  531.45   35.90 
   5  -2   5  457.45   36.00 
   5  -2   5  579.24   35.10 
  -5  -2  -5  542.35   34.60 
   5   2   5  577.44   33.80 
   5   2   5  563.74   34.10 
  -5   2  -5  595.54   34.70 
  -5   2  -5  599.94   35.20 
  -6  -2  -5  304.27   24.30 
  -6  -2  -5  299.67   23.50 
   6  -2   5  308.77   24.80 
   6  -2   5  317.27   23.00 
  -6  -2  -5  344.57   23.30 
  -6   2  -5  349.07   23.20 
   6   2   5  266.57   26.90 
  -6   2  -5  348.57   22.80 
   7  -2   5  166.38   15.70 
  -7  -2  -5  173.58   17.00 
  -7  -2  -5  151.48   15.00 
  -7  -2  -5  164.08   16.50 
  -7   2  -5  205.88   16.50 
   7   2   5  203.58   15.20 
  -7   2  -5  198.88   15.90 
  -8  -2  -5   31.90    7.80 
  -8  -2  -5   37.30    8.30 
   8  -2   5   32.20    6.70 
  -8   2  -5   38.70    7.90 
   8   2   5   25.00    5.80 
  -8   2  -5   28.50    6.40 
   9  -2   5   52.59    8.90 
  -9  -2  -5   45.40   10.40 
  -9  -2  -5   28.80    8.80 
  -9   2  -5   52.69   10.40 
  -9   2  -5   29.20    7.30 
  10  -3  -5    3.30    3.70 
 -10  -3   5   -3.90    4.30 
 -10  -3   5    4.30    4.70 
 -10  -3   5   12.00    5.10 
 -10   3   5    4.30    5.00 
 -10   3   5   -2.70    2.40 
   9  -3  -5  134.79   12.50 
  -9  -3   5  118.79   17.50 
  -9  -3   5  124.69   14.60 
  -9  -3   5  127.09   14.40 
  -9   3   5  152.38   11.40 
  -9   3   5  179.28   16.90 
   9   3  -5  142.39   14.30 
  -8  -3   5  103.09   12.40 
   8  -3  -5  114.49   10.50 
  -8  -3   5   75.89   13.30 
  -8  -3   5  119.49   12.70 
  -8   3   5   89.79    9.80 
   8   3  -5  112.49   11.90 
  -8   3   5  115.79   12.20 
  -7  -3   5   71.29   10.10 
   7  -3  -5  100.09    9.20 
   7  -3  -5   75.49    8.00 
  -7  -3   5   95.09   13.40 
  -7  -3   5  100.59   11.20 
  -7  -3   5   97.39    9.60 
  -7   3   5   97.99   10.50 
  -7   3   5  111.39    9.10 
  -7   3   5  101.59    7.50 
   7   3  -5  112.49   11.00 
   6  -3  -5  118.89    9.60 
   6  -3  -5  106.29    9.00 
   6  -3  -5  113.39    9.80 
  -6  -3   5  107.09   11.80 
  -6  -3   5  124.79   11.50 
  -6  -3   5  116.89   10.20 
  -6  -3   5  115.89   14.20 
  -6   3   5  122.39   11.20 
   6   3  -5  102.59   10.70 
  -6   3   5  109.49    8.90 
  -6   3   5  103.69    9.30 
  -6   3   5  110.29    7.70 
  -5  -3   5  234.68   17.70 
   5  -3  -5  207.38   14.30 
  -5  -3   5  234.58   16.20 
   5  -3  -5  229.58   15.30 
   5  -3  -5  220.58   14.80 
  -5  -3   5  201.08   17.60 
  -5  -3   5  240.08   20.90 
  -5   3   5  199.68   13.10 
   5   3  -5  217.48   17.00 
  -5   3   5  257.67   16.70 
   5   3  -5  210.78   16.60 
  -5   3   5  207.88   13.80 
  -5   3   5  214.48   14.70 
   4  -3  -5   67.19    6.30 
  -4  -3   5   71.79    8.60 
   4  -3  -5   53.79    7.50 
  -4  -3   5   59.69    9.40 
  -4  -3   5   72.29    8.20 
  -4  -3   5   69.19    7.10 
   4  -3  -5   65.39    6.00 
   4   3  -5   79.89    8.30 
  -4   3   5   82.09    7.40 
  -4   3   5   71.69    5.30 
   4   3  -5   70.49    8.40 
  -4   3   5   70.69    4.90 
   4   3  -5   86.19    8.40 
   4   3  -5   68.79    7.20 
  -3  -3   5  675.73   40.20 
   3  -3  -5  557.74   39.20 
  -3  -3   5  655.53   43.50 
   3  -3  -5  660.53   37.10 
   3  -3  -5  670.33   37.60 
  -3  -3   5  662.53   39.10 
  -3  -3   5  620.74   41.00 
  -3   3   5  698.33   38.50 
   3   3  -5  687.23   41.10 
  -3   3   5  678.83   37.10 
   3   3  -5  652.63   41.90 
  -3   3   5  677.03   41.40 
  -3   3   5  606.84   40.20 
   3   3  -5  675.83   39.20 
   3   3  -5  642.34   40.60 
   2  -3  -5 3931.41  204.18 
   2  -3  -5 3889.41  203.88 
  -2  -3   5 4101.29  207.08 
  -2  -3   5 4126.49  206.68 
   2  -3  -5 3214.08  205.58 
  -2  -3   5 3977.00  211.28 
   2  -3  -5 3821.32  205.18 
   2   3  -5 3784.52  205.98 
  -2   3   5 3788.92  204.28 
  -2   3   5 3980.30  205.08 
  -2   3   5 3702.53  204.88 
   2   3  -5 3679.63  209.08 
   2   3  -5 3623.44  207.78 
   2   3  -5 3723.73  207.48 
   2   3  -5 3797.02  206.98 
  -2   3   5 3696.63  207.18 
   1  -3  -5  581.84   34.30 
   1  -3  -5  581.14   35.80 
  -1  -3   5  592.64   39.90 
  -1  -3   5  612.94   36.60 
   1  -3  -5  596.04   34.00 
  -1  -3   5  615.24   36.50 
  -1  -3   5  555.44   37.90 
   1   3  -5  601.04   36.00 
  -1   3   5  589.04   36.10 
  -1   3   5  609.84   34.90 
  -1   3   5  661.53   35.00 
   1   3  -5  653.23   37.20 
   1   3  -5  563.94   40.70 
   1   3  -5  614.34   37.40 
   0  -3  -5  688.83   39.00 
   0  -3  -5  697.43   38.20 
   0  -3   5  622.54   41.40 
   0  -3   5  678.03   43.70 
   0  -3   5  657.03   40.30 
   0  -3   5  699.23   41.00 
   0  -3  -5  661.63   40.40 
   0   3   5  661.73   38.90 
   0   3  -5  708.73   44.30 
   0   3  -5  671.53   42.50 
   0   3  -5  728.53   41.30 
   0   3   5  719.43   39.20 
   0   3   5  633.94   41.00 
   0   3  -5  666.53   40.00 
   0   3  -5  682.13   41.40 
  -1  -3  -5 2264.67  116.39 
   1  -3   5 2321.47  123.79 
  -1  -3  -5 2125.79  114.99 
   1  -3   5 2184.68  118.09 
   1  -3   5 1784.02  117.69 
  -1  -3  -5 2021.10  115.79 
  -1  -3  -5 2054.29  117.59 
   1   3   5 2204.78  113.59 
   1   3   5 2074.49  113.69 
  -1   3  -5 1981.00  120.19 
  -1   3  -5 2173.98  117.99 
  -1   3  -5 2074.89  116.69 
   1   3   5 2282.57  116.09 
   1   3   5 2124.29  115.59 
  -2  -3  -5 1220.08   70.29 
  -2  -3  -5 1204.98   72.99 
   2  -3   5 1287.47   73.49 
   2  -3   5 1267.97   71.89 
  -2  -3  -5 1206.38   71.59 
  -2   3  -5 1176.88   74.09 
  -2   3  -5 1166.98   75.39 
   2   3   5 1389.86   71.49 
   2   3   5 1312.67   69.39 
  -2   3  -5 1349.56   73.19 
   2   3   5 1326.47   70.19 
  -2   3  -5 1286.67   71.99 
   3  -3   5  106.79   10.70 
  -3  -3  -5   93.39   10.60 
   3  -3   5  110.09    9.80 
  -3  -3  -5  102.09    9.90 
  -3   3  -5  112.69   10.20 
  -3   3  -5  115.49   11.40 
   3   3   5  118.09    8.70 
  -3   3  -5   98.69   17.40 
   3   3   5  108.49    9.20 
   4  -3   5  128.09   12.90 
  -4  -3  -5  124.89   10.80 
  -4  -3  -5  120.49   12.90 
   4  -3   5  136.89   11.60 
  -4  -3  -5  133.19   12.10 
   4   3   5  152.58   10.60 
  -4   3  -5  130.79   11.70 
   4   3   5  133.39   10.30 
  -4   3  -5  136.69   13.00 
  -5  -3  -5  115.39   12.50 
  -5  -3  -5  102.39   10.20 
   5  -3   5  114.79   10.90 
   5  -3   5   94.49   11.00 
  -5  -3  -5   97.39   11.20 
   5   3   5  113.69    9.70 
  -5   3  -5  125.09   11.20 
   5   3   5  131.19   10.20 
  -5   3  -5  128.69   12.20 
  -6  -3  -5  249.08   21.70 
  -6  -3  -5  255.77   22.60 
   6  -3   5  243.68   22.10 
   6  -3   5  283.07   21.00 
  -6  -3  -5  273.37   20.50 
  -6   3  -5  311.37   21.00 
   6   3   5  275.27   19.40 
  -6   3  -5  306.37   22.00 
   7  -3   5   44.30    9.50 
  -7  -3  -5   40.70    8.80 
   7  -3   5   25.00   10.30 
  -7  -3  -5   47.80   10.00 
  -7  -3  -5   40.20    7.70 
   7   3   5   46.10    6.20 
  -7   3  -5   54.99    7.60 
  -7   3  -5   41.10    7.10 
  -8  -3  -5   65.69   10.50 
   8  -3   5   63.89   10.60 
  -8  -3  -5   71.79   14.80 
  -8   3  -5   88.19   11.20 
  -8   3  -5   76.99    9.90 
  -9  -4   5   62.19   22.60 
  -9  -4   5   62.99   11.80 
   9  -4  -5   67.49    8.70 
  -9  -4   5   60.69   10.60 
  -9   4   5   93.09   11.50 
  -9   4   5   86.29    7.90 
  -8  -4   5   24.90    8.90 
  -8  -4   5   12.70    5.50 
   8  -4  -5    6.80    3.40 
   8  -4  -5   18.10    4.70 
  -8  -4   5   20.20    5.50 
  -8   4   5   15.10    5.20 
  -8   4   5   14.30    4.10 
  -8   4   5   19.50    3.60 
   8   4  -5   11.50    4.60 
   7  -4  -5  460.35   31.20 
   7  -4  -5  507.05   31.10 
  -7  -4   5  470.75   33.90 
  -7  -4   5  423.16   34.80 
  -7  -4   5  460.15   39.20 
  -7  -4   5  471.15   34.70 
  -7   4   5  465.75   31.60 
  -7   4   5  561.94   29.50 
  -7   4   5  575.74   34.30 
   7   4  -5  522.05   34.10 
  -6  -4   5  126.49   16.00 
  -6  -4   5  110.49   12.10 
  -6  -4   5  122.29   13.40 
   6  -4  -5  125.49   10.20 
  -6  -4   5  127.09   11.20 
   6  -4  -5  121.69    9.80 
   6  -4  -5  108.19   10.10 
  -6   4   5  106.09   10.40 
  -6   4   5  117.29    8.70 
  -6   4   5  128.89   11.80 
   6   4  -5  118.99   11.80 
  -5  -4   5   23.50    6.50 
  -5  -4   5   17.20    4.60 
  -5  -4   5   22.20    7.40 
   5  -4  -5   23.10    4.00 
   5  -4  -5   29.80    3.90 
  -5  -4   5   21.00    4.40 
  -5   4   5   34.70    4.90 
  -5   4   5   33.20    5.50 
   5   4  -5   38.10    6.50 
   5   4  -5   36.60    7.30 
  -5   4   5   23.30    3.40 
   4  -4  -5 2922.01  148.49 
  -4  -4   5 2802.02  158.48 
   4  -4  -5 2827.02  148.79 
  -4  -4   5 2754.72  150.78 
  -4  -4   5 2658.83  154.58 
  -4  -4   5 2920.11  152.78 
   4   4  -5 2737.93  152.18 
  -4   4   5 2353.06  148.59 
   4   4  -5 2689.53  154.18 
  -4   4   5 3011.70  151.78 
  -4   4   5 2558.64  161.08 
  -4   4   5 2714.23  150.18 
  -3  -4   5   39.60    8.00 
  -3  -4   5   38.70    8.80 
  -3  -4   5   47.90    6.10 
  -3  -4   5   40.10    5.30 
   3  -4  -5   38.70    6.00 
   3  -4  -5   36.90    3.80 
   3  -4  -5   33.90    3.90 
  -3   4   5   44.70    5.40 
   3   4  -5   43.80    5.70 
  -3   4   5   43.10    5.00 
  -3   4   5   47.90    5.80 
   3   4  -5   33.40    7.10 
  -3   4   5   37.60    6.60 
   2  -4  -5  202.18   14.70 
  -2  -4   5  182.38   14.20 
   2  -4  -5  186.78   11.60 
   2  -4  -5  185.98   11.80 
  -2  -4   5  180.18   18.20 
  -2  -4   5  196.58   14.90 
  -2   4   5  182.38   15.70 
  -2   4   5  193.88   14.40 
   2   4  -5  193.28   14.70 
  -2   4   5  183.18   13.50 
  -2   4   5  168.98   13.80 
   2   4  -5  189.78   16.10 
   1  -4  -5 2316.67  130.29 
  -1  -4   5 2359.66  129.89 
  -1  -4   5 2354.66  135.39 
   1  -4  -5 2371.36  126.39 
  -1  -4   5 2331.97  129.79 
   1  -4  -5 2436.56  126.79 
  -1   4   5 2251.57  130.69 
   1   4  -5 2361.46  129.89 
  -1   4   5 2356.06  129.59 
  -1   4   5 2423.86  129.09 
   1   4  -5 2248.28  131.59 
   0  -4   5  732.73   44.70 
   0  -4  -5  774.62   41.30 
   0  -4  -5  761.42   42.00 
   0  -4   5  752.32   44.30 
   0  -4  -5  817.92   45.20 
   0  -4   5  749.13   49.10 
   0  -4  -5  680.83   45.00 
   0   4   5  696.23   44.30 
   0   4  -5  749.23   44.40 
   0   4  -5  707.33   45.80 
   0   4   5  701.63   43.90 
   0   4   5  756.72   44.30 
  -1  -4  -5  195.18   16.40 
   1  -4   5  193.58   15.00 
   1  -4   5  194.08   15.70 
  -1  -4  -5  188.18   15.30 
   1  -4   5  206.88   19.00 
  -1  -4  -5  199.08   13.00 
  -1   4  -5  205.38   18.30 
   1   4   5  205.18   15.00 
   1   4   5  214.58   15.10 
  -1   4  -5  214.58   16.90 
   2  -4   5   36.00    8.10 
  -2  -4  -5   20.90    5.10 
   2  -4   5   21.80    5.10 
   2  -4   5   29.00    5.10 
  -2  -4  -5   25.10    5.70 
  -2  -4  -5   26.30    3.40 
  -2   4  -5   26.70    5.80 
   2   4   5   24.70    4.10 
  -2   4  -5   22.70    6.30 
  -3  -4  -5 2333.17  134.49 
   3  -4   5 2497.35  131.69 
   3  -4   5 2321.17  133.19 
  -3  -4  -5 2146.89  130.69 
  -3  -4  -5 2374.46  133.49 
  -3   4  -5 2512.85  133.29 
  -3   4  -5 2398.56  135.59 
   3   4   5 2296.07  127.89 
   3   4   5 2476.55  130.69 
   4  -4   5  529.35   35.90 
  -4  -4  -5  473.65   36.60 
  -4  -4  -5  480.25   35.60 
   4  -4   5  547.25   34.00 
  -4  -4  -5  526.25   33.00 
  -4   4  -5  531.25   37.20 
  -4   4  -5  622.94   35.90 
   4   4   5  577.14   33.20 
   4   4   5  518.35   31.30 
  -5  -4  -5  217.88   17.10 
   5  -4   5  228.68   17.80 
  -5  -4  -5  208.88   19.30 
   5  -4   5  246.48   19.90 
  -5  -4  -5  210.28   20.30 
  -5   4  -5  255.37   18.80 
  -5   4  -5  228.48   20.70 
   5   4   5  240.48   16.00 
  -6  -4  -5  259.47   19.50 
   6  -4   5  274.27   22.00 
  -6  -4  -5  240.08   22.70 
  -6  -4  -5  232.58   21.60 
   6  -4   5  255.07   19.60 
  -6   4  -5  273.47   20.40 
   6   4   5  233.18   17.70 
  -6   4  -5  271.77   21.80 
   7  -4   5  102.09   10.90 
  -7  -4  -5   96.29   12.90 
  -7  -4  -5   97.69   13.70 
  -7   4  -5  107.49   11.70 
  -7   4  -5   95.49   12.30 
  -8  -4  -5   -1.30    4.40 
   8  -4   5    0.20    3.50 
  -8  -4  -5    3.70    4.40 
  -8   4  -5    3.70    4.20 
  -8   4  -5    4.40    4.40 
  -9  -5   5   43.30   12.70 
  -9  -5   5   47.90   11.60 
   9  -5  -5   53.09    8.10 
  -9  -5   5   59.49   10.70 
  -9   5   5   72.39    7.20 
  -9   5   5   59.09   10.60 
  -8  -5   5    7.90    4.70 
  -8  -5   5   17.60    5.20 
  -8  -5   5    7.10    7.20 
   8  -5  -5    3.80    2.40 
  -8   5   5    4.90    2.50 
  -8   5   5    6.00    4.40 
  -7  -5   5    8.80    4.10 
   7  -5  -5    2.00    1.80 
  -7  -5   5   10.90    5.00 
  -7  -5   5    1.80    2.80 
  -7  -5   5    5.10    3.70 
  -7   5   5    0.50    1.90 
  -7   5   5    4.60    3.20 
  -7   5   5    2.50    3.30 
   7   5  -5    9.90    3.30 
   7   5  -5    0.50    3.20 
   6  -5  -5   46.90    5.40 
  -6  -5   5   41.80   11.80 
  -6  -5   5   67.89   10.20 
  -6  -5   5   51.19    7.50 
  -6  -5   5   52.49   12.00 
   6   5  -5   47.30    8.20 
  -6   5   5   49.90    5.60 
   6   5  -5   56.19   10.70 
  -6   5   5   61.79    8.20 
  -6   5   5   46.60    7.10 
   5  -5  -5   16.00    3.10 
  -5  -5   5   12.90    4.80 
  -5  -5   5   10.10    4.10 
  -5  -5   5   17.90    4.00 
  -5  -5   5   12.40    6.20 
   5  -5  -5   19.90    3.50 
   5   5  -5   17.00    5.90 
   5   5  -5   10.60    3.90 
  -5   5   5   13.90    4.50 
  -4  -5   5  126.09   11.40 
  -4  -5   5  133.29   12.70 
   4  -5  -5  141.59    9.50 
  -4  -5   5  106.09   15.40 
   4  -5  -5  144.99    9.80 
  -4  -5   5  132.29   14.90 
  -4   5   5  149.29   13.20 
   4   5  -5  133.89   12.30 
  -4   5   5  131.49   11.20 
   4   5  -5  141.79   15.00 
  -4   5   5  134.99   12.10 
  -3  -5   5  350.96   23.60 
   3  -5  -5  361.66   20.70 
   3  -5  -5  370.66   20.40 
  -3  -5   5  337.87   24.30 
  -3  -5   5  367.86   30.40 
  -3   5   5  337.07   24.20 
   3   5  -5  352.76   27.10 
   3   5  -5  343.17   23.90 
  -3   5   5  343.57   24.70 
  -3   5   5  319.07   25.80 
   2  -5  -5 1921.71  103.99 
  -2  -5   5 1903.41  115.59 
  -2  -5   5 1938.41  108.39 
  -2  -5   5 1929.21  107.79 
   2  -5  -5 1944.11  103.79 
  -2   5   5 1927.81  108.09 
   2   5  -5 1924.91  111.59 
  -2   5   5 1805.32  108.29 
  -2   5   5 2011.90  109.39 
  -2   5   5 1835.02  111.09 
   2   5  -5 2040.60  108.09 
  -1  -5   5  258.97   19.20 
  -1  -5   5  271.27   19.40 
   1  -5  -5  281.57   17.20 
   1  -5  -5  259.67   20.50 
   1  -5  -5  281.07   16.00 
  -1  -5   5  282.37   25.00 
   1   5  -5  281.57   21.80 
  -1   5   5  246.58   20.00 
   1   5  -5  255.87   18.70 
  -1   5   5  250.17   20.00 
  -1   5   5  266.87   19.30 
  -1   5   5  258.57   21.10 
   0  -5  -5  172.78   14.70 
   0  -5   5  162.98   17.10 
   0  -5  -5  146.99    9.40 
   0  -5  -5  144.99   13.60 
   0  -5   5  136.89   12.30 
   0  -5   5  143.89   12.30 
   0   5   5  140.29   13.40 
   0   5  -5  137.39   14.00 
   0   5   5  135.39   12.70 
  -1  -5  -5 2564.24  131.29 
  -1  -5  -5 2290.37  137.29 
  -1  -5  -5 2478.95  136.89 
   1  -5   5 2554.04  134.79 
   1  -5   5 2601.34  142.69 
   1  -5   5 2375.86  135.19 
  -1   5  -5 2340.87  140.09 
   1   5   5 2445.66  135.79 
   1   5   5 2162.98  135.29 
  -1   5  -5 2460.35  137.49 
   2  -5   5  790.92   45.90 
   2  -5   5  783.32   47.20 
  -2  -5  -5  683.63   55.79 
  -2  -5  -5  741.73   43.30 
  -2  -5  -5  729.13   48.90 
   2  -5   5  854.71   53.79 
   2   5   5  722.63   48.80 
  -2   5  -5  716.63   50.39 
  -2   5  -5  788.52   48.50 
  -3  -5  -5   41.50    8.40 
  -3  -5  -5   45.00    9.30 
   3  -5   5   32.00    6.60 
  -3  -5  -5   31.80    4.50 
   3  -5   5   31.60    5.80 
   3   5   5   39.50    6.10 
  -3   5  -5   31.90    6.80 
  -3   5  -5   38.30    8.90 
  -4  -5  -5  138.69   15.30 
  -4  -5  -5  143.59   11.90 
   4  -5   5  135.69   14.20 
   4  -5   5  154.78   13.10 
  -4  -5  -5  152.58   16.10 
  -4   5  -5  147.49   16.30 
  -4   5  -5  165.28   14.70 
  -5  -5  -5   38.50    8.80 
   5  -5   5   39.60    6.70 
  -5  -5  -5   38.50    6.10 
  -5  -5  -5   45.70   10.00 
   5   5   5   40.20    4.80 
  -5   5  -5   32.10    8.30 
  -5   5  -5   45.60    7.10 
   6  -5   5   97.69   10.50 
   6  -5   5   89.59   17.80 
  -6  -5  -5  100.69   14.70 
  -6  -5  -5   84.69   10.20 
  -6  -5  -5  105.39   13.80 
  -6   5  -5  117.09   13.40 
  -6   5  -5  111.39   12.10 
   7  -5   5   75.39    9.40 
  -7  -5  -5   47.60   11.50 
  -7  -5  -5   52.79   11.20 
  -7   5  -5   69.79    9.90 
  -7   5  -5   67.39   10.90 
  -8  -6   5   74.29   17.30 
   8  -6  -5   67.99    8.20 
  -8  -6   5   62.19   13.20 
  -8  -6   5   93.59   11.80 
   8   6  -5   85.09   13.60 
  -8   6   5   84.99    8.40 
  -8   6   5   98.89   12.10 
  -7  -6   5   73.59   21.90 
  -7  -6   5   95.19   12.30 
  -7  -6   5   82.69   13.70 
   7  -6  -5   93.79    9.90 
  -7   6   5  120.89   13.20 
  -7   6   5  106.49    9.30 
   7   6  -5   86.69   14.00 
  -6  -6   5   83.69    9.10 
  -6  -6   5   49.10    9.20 
  -6  -6   5   68.59   13.00 
   6  -6  -5   73.39    6.90 
  -6  -6   5   58.29   14.10 
   6   6  -5   76.59   12.10 
  -6   6   5   76.89    8.00 
  -6   6   5   86.99   10.60 
  -5  -6   5  263.17   24.00 
  -5  -6   5  219.98   25.80 
   5  -6  -5  269.37   16.30 
  -5  -6   5  237.38   20.20 
  -5  -6   5  252.57   19.00 
   5   6  -5  232.78   19.00 
   5   6  -5  231.78   23.20 
  -5   6   5  233.68   20.40 
  -5   6   5  270.37   18.70 
  -4  -6   5  259.37   27.20 
  -4  -6   5  282.57   20.00 
   4  -6  -5  269.57   16.80 
   4  -6  -5  267.87   16.60 
  -4  -6   5  266.57   21.20 
  -4  -6   5  285.47   25.50 
   4   6  -5  274.57   20.10 
  -4   6   5  285.17   22.20 
  -4   6   5  259.27   19.90 
   4   6  -5  271.97   24.50 
  -3  -6   5 1225.88   66.49 
  -3  -6   5 1109.69   64.39 
   3  -6  -5 1142.29   60.29 
  -3  -6   5  999.00   72.89 
   3  -6  -5 1130.49   61.19 
  -3   6   5 1102.99   67.29 
   3   6  -5 1126.49   64.29 
   3   6  -5 1062.09   69.59 
  -3   6   5 1020.70   65.29 
   2  -6  -5   66.29    4.50 
  -2  -6   5   80.89    9.10 
   2  -6  -5   56.99    4.50 
  -2  -6   5   53.59   12.40 
  -2   6   5   61.39    8.30 
  -2   6   5   61.09    8.70 
   2   6  -5   53.19   10.70 
   2   6  -5   70.19    7.50 
  -1  -6   5  101.39   14.80 
   1  -6  -5  114.19    7.10 
   1  -6  -5  115.59    7.40 
  -1  -6   5   87.09   17.00 
   1  -6  -5  116.39   12.80 
   1   6  -5  116.19   15.80 
  -1   6   5  101.79   11.90 
  -1   6   5  123.09   12.60 
   0  -6  -5  369.76   27.50 
   0  -6   5  395.26   25.60 
   0  -6  -5  360.76   20.10 
   0  -6  -5  352.86   27.30 
   0  -6   5  365.86   31.30 
   0  -6   5  330.47   24.00 
   0   6  -5  344.07   27.10 
   0   6   5  301.07   25.80 
   0   6  -5  318.17   29.00 
   0   6   5  316.17   25.60 
  -1  -6  -5   -1.80    2.70 
   1  -6   5    4.20    2.30 
  -1  -6  -5    8.50    4.60 
  -1  -6  -5    3.30    1.50 
   1  -6   5    1.30    4.00 
   1  -6   5    6.30    2.40 
   1   6   5    7.70    3.40 
  -1   6  -5   21.70    6.00 
  -1   6  -5    5.60    4.00 
   2  -6   5  954.90   54.19 
  -2  -6  -5  908.91   58.09 
  -2  -6  -5  837.42   59.29 
   2  -6   5 1041.60   64.29 
  -2  -6  -5  887.21   50.99 
  -2   6  -5  853.31   56.99 
  -2   6  -5  837.62   59.89 
  -3  -6  -5  180.18   19.70 
  -3  -6  -5  205.78   14.40 
   3  -6   5  222.58   16.40 
  -3  -6  -5  201.08   19.70 
  -3   6  -5  204.18   18.60 
  -3   6  -5  193.88   20.90 
  -4  -6  -5  364.96   31.20 
  -4  -6  -5  390.46   24.90 
   4  -6   5  345.27   27.70 
  -4  -6  -5  376.86   30.60 
   4  -6   5  367.06   26.00 
  -4   6  -5  365.86   31.00 
  -4   6  -5  423.46   29.80 
  -5  -6  -5  231.88   24.30 
  -5  -6  -5  263.77   19.50 
  -5  -6  -5  244.08   24.20 
   5  -6   5  302.47   21.10 
  -5   6  -5  312.87   23.60 
  -5   6  -5  241.28   24.40 
  -6  -6  -5   17.90    7.50 
   6  -6   5   17.20    5.60 
  -6  -6  -5   31.10    5.60 
  -6  -6  -5   14.00    6.90 
  -6   6  -5   30.00    6.60 
   6  -7  -5   99.79    8.80 
  -6  -7   5   91.79   15.00 
  -6  -7   5  105.59   17.60 
  -6  -7   5  106.59   12.50 
  -6   7   5  108.29   13.70 
  -6   7   5  112.09   10.90 
   6   7  -5  111.89   15.20 
  -5  -7   5  215.48   23.60 
  -5  -7   5  232.48   27.00 
  -5  -7   5  255.17   21.10 
   5  -7  -5  234.98   15.40 
  -5   7   5  250.67   19.30 
  -5   7   5  262.67   21.90 
   5   7  -5  216.88   23.70 
  -4  -7   5   38.50    7.20 
  -4  -7   5   47.70   12.50 
   4  -7  -5   48.40    4.30 
  -4  -7   5   59.39    7.90 
  -4   7   5   44.20    8.00 
  -4   7   5   43.50    9.30 
   4   7  -5   41.80   10.50 
  -3  -7   5  169.08   15.10 
   3  -7  -5  162.08    9.90 
  -3  -7   5  139.89   19.80 
   3   7  -5  182.78   19.00 
  -3   7   5  148.19   16.20 
   3   7  -5  169.18   12.60 
  -3   7   5  154.08   15.20 
  -2  -7   5  136.39   18.80 
  -2  -7   5  141.09   12.70 
  -2  -7   5  151.48   13.60 
  -2   7   5  132.99   14.40 
  -2   7   5  128.19   15.00 
   2   7  -5  127.19   15.90 
   1  -7  -5  366.26   28.80 
  -1  -7   5  353.46   25.10 
  -1  -7   5  323.07   24.40 
  -1  -7   5  363.86   33.30 
  -1   7   5  353.06   27.90 
  -1   7   5  362.26   28.00 
   1   7  -5  328.77   28.80 
   0  -7   5  209.28   16.00 
   0  -7  -5  190.48   11.20 
   0  -7   5  185.98   22.20 
   0  -7   5  208.38   15.90 
   0  -7  -5  191.98   19.70 
   0  -7  -5  193.28   19.50 
   0   7  -5  159.28   20.10 
   0   7  -5  167.18   18.10 
   0   7   5  153.98   17.20 
   0   7   5  154.68   17.60 
  -1  -7  -5   69.19   11.00 
   1  -7   5   65.09    8.00 
  -1  -7  -5   39.90   10.50 
   1  -7   5   52.49    8.60 
   1  -7   5   62.19   13.80 
  -1  -7  -5   66.39    5.30 
   1   7   5   50.59    9.10 
  -1   7  -5   49.50   10.10 
  -1   7  -5   60.29   13.20 
   1   7   5   48.90   10.10 
   2  -7   5  377.86   33.60 
   2  -7   5  313.97   24.00 
  -2  -7  -5  306.67   20.20 
   2  -7   5  348.47   23.60 
  -2  -7  -5  307.17   28.10 
  -2  -7  -5  315.17   27.50 
  -2   7  -5  308.87   26.50 
  -2   7  -5  314.97   30.10 
  -3  -7  -5  124.79   16.40 
   3  -7   5  135.69   13.70 
   3  -7   5  125.79   12.30 
  -3  -7  -5  140.19   16.90 
  -3   7  -5  154.98   15.90 
  -3   7  -5  146.09   18.20 
  -4  -7  -5   47.20   11.30 
  -4  -7  -5   62.29    7.30 
   4  -7   5   52.39    8.30 
  -4   7  -5   60.99   17.60 
  -4   7  -5   52.39   12.10 
  -5  -7  -5    7.60    5.30 
  -5  -7  -5   -3.90    2.30 
  -5  -7  -5    5.20    5.50 
   5  -7   5    8.00    3.80 
  -5   7  -5    2.60    3.60 
  -5   7  -5    2.40    4.60 
  -4  -8   5   38.40   13.20 
  -4  -8   5   45.20    8.60 
   4  -8  -5   35.70    3.60 
   4   8  -5   37.10   10.20 
  -4   8   5   39.90    9.50 
  -4   8   5   37.80    8.00 
  -3  -8   5  133.39   20.40 
  -3  -8   5  158.68   15.60 
  -3   8   5  143.19   15.90 
  -3   8   5  160.38   17.50 
   3   8  -5  144.89   19.20 
  -2  -8   5   64.09   11.90 
  -2   8   5   58.09   10.90 
  -2   8   5   70.79   11.20 
   2   8  -5   70.59   18.90 
  -1  -8   5  130.59   20.00 
  -1  -8   5  168.28   15.00 
  -1  -8   5  188.58   24.30 
   1   8  -5  142.39   17.70 
  -1   8   5  177.58   18.20 
   1   8  -5  130.79   20.00 
  -1   8   5  144.99   17.00 
   0  -8  -5   26.80    2.80 
   0  -8  -5   28.40    2.80 
   0  -8  -5   29.00    8.40 
   0  -8   5   33.00   12.20 
   0  -8   5   32.10    8.40 
   0  -8   5   31.50    6.80 
   0   8   5   16.90    7.40 
   0   8  -5   11.70    7.20 
   0   8  -5   17.90    8.40 
   0   8   5   29.40    8.40 
  -1  -8  -5   26.70    3.30 
   1  -8   5   17.60   10.50 
  -1  -8  -5   24.10    3.40 
  -1  -8  -5   19.00    8.00 
  -1  -8  -5   29.80    8.90 
   1  -8   5   22.30    8.00 
  -1   8  -5   14.80    6.40 
   1   8   5   28.00    8.10 
   1   8   5   24.00    8.00 
  -1   8  -5   32.00   15.90 
  -2  -8  -5  165.98   19.40 
  -2  -8  -5  145.69   10.90 
  -2  -8  -5  135.39   17.80 
  -2  -8  -5  141.99   11.80 
   2  -8   5  133.99   13.40 
   2   8   5  138.59   17.20 
  -2   8  -5  149.39   19.30 
  -2   8  -5  138.09   16.70 
   2   8   5  137.49   16.90 
  -3  -8  -5   35.50    9.80 
  -3  -8  -5   40.20    6.10 
  -3  -8  -5   27.90    9.00 
   3  -8   5   35.90    6.80 
  -3  -8  -5   39.90    5.30 
  -3   8  -5   44.00   11.40 
  -3   8  -5   43.10    9.60 
 -10   0   6   45.70    8.10 
  10   0  -6   66.39    8.70 
 -10   0   6   61.39   10.80 
  -9   0   6    2.20    4.60 
   9   0  -6   11.30    3.20 
  -9   0   6    7.60    3.10 
  -9   0   6   15.90    4.60 
   9   0  -6    7.30    3.70 
  -8   0   6   55.89    9.10 
   8   0  -6   63.69    5.60 
  -8   0   6   57.59    7.80 
  -8   0   6   54.59    6.60 
   8   0  -6   39.10    7.20 
  -7   0   6  391.66   26.70 
  -7   0   6  370.06   28.30 
   7   0  -6  371.36   25.90 
   7   0  -6  372.66   25.60 
   7   0  -6  387.26   22.50 
  -6   0   6  122.69   11.30 
  -6   0   6  101.69    8.70 
   6   0  -6  124.09    7.80 
   6   0  -6  112.69   10.60 
  -6   0   6  123.79   12.30 
   6   0  -6  121.29   10.80 
  -5   0   6 1021.20   56.79 
  -5   0   6  944.91   56.09 
   5   0  -6 1024.60   51.69 
  -5   0   6  888.61   52.79 
   5   0  -6  932.41   55.39 
   5   0  -6  963.40   55.69 
   5   0  -6  848.72   52.49 
   5   0  -6 1056.29   55.49 
  -5   0   6  919.31   56.99 
   4   0  -6 1509.75   86.89 
   4   0  -6 1392.66   83.29 
  -4   0   6 1506.75   87.79 
  -4   0   6 1477.15   87.19 
   4   0  -6 1528.85   86.89 
   4   0  -6 1704.43   82.99 
   4   0  -6 1720.93   86.39 
  -4   0   6 1548.74   85.79 
  -3   0   6   59.49    6.30 
   3   0  -6   57.49    4.00 
   3   0  -6   60.99    3.80 
   3   0  -6   61.49    6.30 
   3   0  -6   59.49    6.30 
  -3   0   6   57.79    5.60 
   3   0  -6   64.89    5.80 
  -3   0   6   53.19    6.30 
   2   0  -6  359.86   20.00 
   2   0  -6  378.66   21.40 
   2   0  -6  358.96   22.90 
   2   0  -6  393.86   23.70 
  -2   0   6  338.57   20.80 
  -2   0   6  373.76   22.30 
  -2   0   6  350.76   22.50 
   2   0  -6  342.77   20.90 
  -2   0   6  339.17   22.50 
   1   0  -6 6218.88  322.47 
  -1   0   6 6153.88  322.07 
   1   0  -6 6061.29  319.97 
  -1   0   6 5615.94  320.47 
  -1   0   6 5738.13  320.97 
  -1   0   6 6276.07  322.07 
   1   0  -6 5923.41  322.87 
   0   0   6 3609.34  205.68 
   0   0  -6 3443.96  204.68 
   0   0   6 3950.30  207.58 
   0   0  -6 4098.69  205.38 
   0   0  -6 3829.22  208.18 
   0   0  -6 3951.50  207.28 
   0   0  -6 3897.71  204.88 
   0   0   6 3856.11  206.88 
   1   0   6  151.28   12.20 
  -1   0  -6  159.88   11.80 
  -1   0  -6  141.49   10.20 
   1   0   6  153.58   11.30 
   1   0   6  154.18   11.00 
  -1   0  -6  150.08    9.40 
  -1   0  -6  169.08   10.80 
  -1   0  -6  159.38   12.60 
  -2   0  -6  324.97   17.90 
   2   0   6  324.57   21.60 
  -2   0  -6  294.47   20.10 
  -2   0  -6  283.67   20.80 
   2   0   6  314.77   19.80 
   2   0   6  276.97   19.40 
  -2   0  -6  295.97   19.40 
   3   0   6  226.58   16.10 
  -3   0  -6  221.58   16.50 
  -3   0  -6  230.58   14.50 
  -3   0  -6  203.48   16.20 
   3   0   6  248.48   17.90 
  -3   0  -6  229.58   15.70 
  -4   0  -6  169.08   11.50 
  -4   0  -6  144.79   12.40 
  -4   0  -6  152.98   12.20 
   4   0   6  151.08   15.70 
   4   0   6  137.99   12.00 
   4   0   6  139.89   11.80 
   5   0   6  134.69   12.60 
  -5   0  -6  153.38   13.50 
   5   0   6  116.89   11.90 
  -5   0  -6  172.98   12.60 
  -5   0  -6  175.08   13.30 
   6   0   6  969.50   59.09 
  -6   0  -6 1001.30   59.29 
  -6   0  -6 1008.50   58.79 
  -7   0  -6  491.55   32.30 
   7   0   6  452.55   31.70 
  -7   0  -6  449.56   31.50 
  -8   0  -6   17.10    6.00 
  -8   0  -6   21.10    6.40 
   8   0   6   20.30    5.60 
  -9   0  -6  142.69   15.90 
  -9   0  -6  146.99   16.40 
 -10  -1   6  105.69   12.30 
  10  -1  -6  102.59   11.50 
 -10  -1   6   80.09   10.20 
 -10  -1   6   85.89   18.30 
 -10   1   6   90.99   12.90 
 -10   1   6   81.79    9.20 
  10   1  -6   78.59   12.10 
  -9  -1   6  214.08   19.10 
  -9  -1   6  221.18   22.40 
  -9  -1   6  212.28   17.80 
   9  -1  -6  210.98   17.60 
  -9   1   6  209.98   20.40 
  -9   1   6  219.58   18.30 
   9   1  -6  223.38   18.50 
  -8  -1   6   30.20    6.40 
   8  -1  -6   43.90    7.30 
  -8  -1   6   48.10    7.80 
  -8  -1   6   40.10    9.20 
   8  -1  -6   46.80    4.80 
   8  -1  -6   36.60    6.30 
  -8   1   6   40.30    8.60 
  -8   1   6   44.80    5.30 
   8   1  -6   52.39    5.30 
  -8   1   6   46.20    7.50 
   8   1  -6   50.99    8.40 
   7  -1  -6  106.59   10.40 
  -7  -1   6   88.39    9.40 
   7  -1  -6   96.29    7.60 
   7  -1  -6   99.59   10.20 
  -7  -1   6   99.59   10.70 
  -7  -1   6  108.39   12.90 
   7   1  -6  129.39    8.70 
   7   1  -6  125.09   11.50 
  -7   1   6  106.09   11.90 
  -7   1   6  118.29   10.90 
  -7   1   6  100.99    8.20 
   7   1  -6  129.09   11.20 
   6  -1  -6  733.53   41.70 
  -6  -1   6  806.82   49.70 
   6  -1  -6  817.62   45.60 
  -6  -1   6  674.33   46.20 
  -6  -1   6  646.24   44.30 
   6  -1  -6  784.72   46.10 
  -6   1   6  738.03   42.20 
   6   1  -6  776.22   46.50 
  -6   1   6  805.42   46.10 
  -6   1   6  774.72   47.00 
   6   1  -6  823.82   46.30 
  -5  -1   6  328.37   21.50 
  -5  -1   6  328.47   21.30 
  -5  -1   6  348.47   23.20 
   5  -1  -6  331.17   21.70 
  -5  -1   6  336.37   24.60 
   5  -1  -6  333.37   21.80 
   5  -1  -6  348.97   22.30 
   5   1  -6  334.87   22.20 
   5   1  -6  342.37   19.80 
  -5   1   6  300.67   21.50 
   5   1  -6  291.17   20.60 
   5   1  -6  324.97   22.40 
  -5   1   6  314.57   22.40 
   4  -1  -6  321.37   21.50 
  -4  -1   6  260.47   29.60 
  -4  -1   6  346.27   21.50 
   4  -1  -6  349.27   21.50 
  -4  -1   6  358.46   22.90 
   4  -1  -6  321.57   21.70 
  -4   1   6  341.37   21.60 
   4   1  -6  347.07   22.30 
   4   1  -6  336.37   22.20 
   4   1  -6  327.17   20.20 
  -4   1   6  332.97   20.60 
   4   1  -6  313.17   20.50 
  -4   1   6  327.27   21.90 
   4   1  -6  364.16   22.90 
  -3  -1   6 1149.98   63.79 
   3  -1  -6 1091.29   62.69 
  -3  -1   6 1101.59   64.79 
   3  -1  -6 1148.39   61.79 
   3  -1  -6 1041.10   62.69 
  -3  -1   6 1110.89   62.59 
   3   1  -6 1159.08   63.29 
  -3   1   6 1119.89   61.49 
   3   1  -6 1118.59   63.89 
  -3   1   6 1118.29   62.29 
   3   1  -6 1064.69   61.39 
  -3   1   6 1117.59   62.29 
   3   1  -6 1125.49   63.49 
   3   1  -6 1039.20   61.59 
   2  -1  -6  587.14   35.00 
   2  -1  -6  571.84   33.20 
  -2  -1   6  586.14   35.50 
  -2  -1   6  550.24   34.20 
  -2  -1   6  598.94   35.10 
   2  -1  -6  572.34   32.00 
  -2  -1   6  563.54   36.20 
   2  -1  -6  599.84   34.90 
   2   1  -6  626.24   35.30 
  -2   1   6  603.94   33.80 
   2   1  -6  604.24   35.70 
  -2   1   6  569.24   32.00 
   2   1  -6  576.04   34.50 
   2   1  -6  609.14   36.20 
  -2   1   6  590.04   34.20 
  -2   1   6  618.34   34.40 
   2   1  -6  580.84   33.70 
   1  -1  -6  249.18   13.70 
  -1  -1   6  222.38   15.60 
   1  -1  -6  215.08   12.80 
   1  -1  -6  257.97   16.10 
  -1  -1   6  241.08   15.90 
   1  -1  -6  237.68   15.30 
  -1  -1   6  208.68   14.90 
  -1  -1   6  225.18   16.10 
  -1   1   6  225.18   14.50 
  -1   1   6  210.48   14.40 
  -1   1   6  210.08   13.10 
   1   1  -6  225.08   16.30 
   1   1  -6  207.78   15.20 
   1   1  -6  229.28   15.90 
  -1   1   6  215.58   13.50 
   1   1  -6  223.48   14.30 
   0  -1   6  677.83   41.10 
   0  -1   6  601.14   40.20 
   0  -1  -6  740.83   39.40 
   0  -1  -6  700.83   40.50 
   0  -1   6  673.53   41.50 
   0  -1  -6  694.13   41.40 
   0  -1   6  671.53   40.90 
   0   1  -6  713.93   41.30 
   0   1  -6  723.43   42.30 
   0   1   6  688.93   42.10 
   0   1  -6  676.83   40.80 
   0   1   6  696.33   39.80 
   0   1  -6  737.63   39.90 
   0   1   6  749.42   39.20 
   1  -1   6 2131.89  113.49 
  -1  -1  -6 2121.19  113.19 
   1  -1   6 1819.42  112.89 
  -1  -1  -6 2081.19  114.19 
  -1  -1  -6 2159.08  112.39 
   1  -1   6 1989.10  114.39 
  -1   1  -6 2011.80  113.59 
  -1   1  -6 1916.11  112.59 
   1   1   6 2077.99  112.29 
  -1   1  -6 2124.69  114.89 
   1   1   6 2187.08  111.99 
  -1   1  -6 2207.38  112.49 
   1   1   6 2076.09  113.49 
  -1   1  -6 1897.91  113.29 
  -2  -1  -6  981.40   58.19 
  -2  -1  -6 1032.30   60.69 
   2  -1   6  935.01   60.69 
  -2  -1  -6 1041.20   62.39 
  -2  -1  -6 1115.49   58.99 
   2  -1   6 1037.60   62.49 
   2  -1   6 1017.30   60.69 
   2   1   6 1112.69   61.89 
  -2   1  -6 1081.19   60.09 
  -2   1  -6 1180.68   60.39 
   2   1   6  974.10   58.39 
   2   1   6 1189.58   60.29 
   2   1   6 1102.19   60.19 
  -2   1  -6 1062.99   61.89 
  -2   1  -6 1138.69   61.69 
  -3  -1  -6  876.31   52.49 
   3  -1   6  973.50   56.79 
   3  -1   6  787.82   54.49 
  -3  -1  -6  960.20   54.69 
   3  -1   6 1017.40   54.99 
  -3  -1  -6 1068.49   54.99 
  -3   1  -6 1004.60   53.59 
  -3   1  -6  919.31   56.19 
   3   1   6  834.92   52.59 
   3   1   6  951.10   53.89 
  -3   1  -6  895.01   54.79 
  -3   1  -6 1007.90   54.09 
   4  -1   6  681.03   51.09 
   4  -1   6  885.51   51.19 
  -4  -1  -6  808.02   47.00 
   4  -1   6  757.62   48.00 
  -4  -1  -6  915.81   49.10 
  -4  -1  -6  838.02   48.50 
  -4   1  -6  795.92   48.80 
  -4   1  -6  913.71   48.20 
   4   1   6  747.53   46.90 
  -4   1  -6  724.03   49.50 
  -4   1  -6  848.52   51.19 
   4   1   6  831.62   47.80 
  -5  -1  -6 1147.89   68.59 
   5  -1   6 1106.29   68.19 
   5  -1   6 1251.67   75.29 
  -5  -1  -6 1251.27   69.39 
   5   1   6 1063.59   67.49 
  -5   1  -6 1256.97   68.19 
   5   1   6 1080.09   67.89 
  -5   1  -6 1277.57   67.49 
  -6  -1  -6   96.79   10.30 
  -6  -1  -6  109.99   11.40 
  -6  -1  -6   98.89   10.40 
   6  -1   6  104.09   10.30 
  -6   1  -6  107.59   10.30 
  -6   1  -6  100.59   10.30 
   6   1   6  103.19   10.00 
  -7  -1  -6    5.10    3.20 
   7  -1   6   -0.10    2.50 
  -7  -1  -6    2.10    3.70 
  -7   1  -6    3.50    3.70 
  -7   1  -6    6.70    3.60 
   7   1   6    1.50    2.40 
  -8  -1  -6    1.30    3.80 
  -8  -1  -6    2.90    3.80 
   8  -1   6    5.50    3.70 
   8   1   6   -0.20    3.20 
  -8   1  -6    3.30    3.50 
  -8   1  -6    2.60    4.00 
  -9  -1  -6   11.40    5.70 
  -9  -1  -6   16.80    6.40 
   9  -1   6   22.90    6.90 
  -9   1  -6   24.00    7.40 
  -9   1  -6   17.70    6.10 
 -10  -2   6  137.49   18.70 
 -10  -2   6  159.18   16.30 
  10  -2  -6  120.99   12.90 
 -10   2   6  137.59   11.90 
  10   2  -6  146.49   15.20 
  -9  -2   6   13.40    5.80 
  -9  -2   6   14.50    4.50 
   9  -2  -6   18.90    4.80 
   9  -2  -6   18.50    4.00 
  -9  -2   6   20.00    5.50 
   9   2  -6   31.50    6.70 
  -9   2   6   21.90    6.90 
  -9   2   6   15.60    3.70 
  -8  -2   6  591.14   38.70 
  -8  -2   6  550.34   42.20 
  -8  -2   6  520.75   37.10 
   8  -2  -6  506.25   33.20 
   8  -2  -6  576.64   36.50 
   8  -2  -6  591.54   36.40 
   8   2  -6  585.14   38.10 
  -8   2   6  556.74   33.20 
  -8   2   6  632.84   36.90 
  -8   2   6  584.44   38.50 
   7  -2  -6  607.84   35.70 
  -7  -2   6  555.84   42.10 
   7  -2  -6  606.64   35.50 
  -7  -2   6  538.55   36.40 
   7  -2  -6  533.65   32.30 
  -7   2   6  548.55   35.10 
  -7   2   6  536.15   32.00 
   7   2  -6  604.64   37.40 
  -7   2   6  548.55   36.60 
   6  -2  -6   28.90    5.10 
  -6  -2   6   29.90    6.50 
  -6  -2   6   24.80    7.00 
  -6  -2   6   31.30    5.50 
   6  -2  -6   30.00    2.90 
  -6  -2   6   31.20    6.30 
   6  -2  -6   37.80    5.70 
  -6   2   6   35.50    6.80 
   6   2  -6   37.80    6.10 
  -6   2   6   32.50    3.20 
   6   2  -6   24.90    5.50 
  -6   2   6   38.50    5.70 
  -5  -2   6  818.22   48.90 
   5  -2  -6  781.42   48.10 
   5  -2  -6  842.02   46.50 
  -5  -2   6  792.42   47.90 
  -5  -2   6  771.02   47.50 
  -5  -2   6  790.92   51.49 
   5   2  -6  750.72   47.30 
   5   2  -6  819.02   46.50 
  -5   2   6  806.92   46.10 
   5   2  -6  792.62   47.50 
   5   2  -6  756.62   48.10 
  -5   2   6  813.82   47.00 
   4  -2  -6 1874.11  101.69 
   4  -2  -6 1779.02  101.79 
  -4  -2   6 1833.22  103.89 
  -4  -2   6 1899.11  103.49 
  -4  -2   6 1753.82  106.29 
  -4  -2   6 1894.61  102.49 
   4  -2  -6 1707.53  102.59 
  -4   2   6 2027.20  102.09 
   4   2  -6 1791.32  102.19 
   4   2  -6 1724.63  102.49 
   4   2  -6 1924.71  104.09 
   4   2  -6 1927.11  104.59 
   4   2  -6 1843.82  103.09 
  -3  -2   6 1861.01  131.19 
   3  -2  -6 2045.90  115.69 
   3  -2  -6 1895.31  115.69 
   3  -2  -6 2133.09  115.59 
  -3  -2   6 2148.98  117.59 
  -3  -2   6 2195.28  116.69 
  -3   2   6 2145.19  114.19 
  -3   2   6 2408.66  115.29 
   3   2  -6 2119.99  116.99 
  -3   2   6 2081.39  114.59 
   3   2  -6 2172.98  121.69 
   3   2  -6 2060.99  116.69 
   3   2  -6 2202.58  118.09 
   3   2  -6 2052.79  116.49 
  -2  -2   6  687.43   45.40 
  -2  -2   6  729.23   43.30 
  -2  -2   6  726.73   43.70 
   2  -2  -6  720.83   42.10 
  -2  -2   6  672.43   43.10 
   2  -2  -6  716.93   42.20 
   2  -2  -6  614.44   41.30 
  -2   2   6  818.82   41.00 
   2   2  -6  726.23   43.00 
   2   2  -6  734.23   43.40 
  -2   2   6  764.02   40.60 
   2   2  -6  758.62   44.80 
  -2   2   6  723.03   40.80 
   2   2  -6  802.42   44.60 
  -2   2   6  785.72   39.70 
   2   2  -6  714.03   43.60 
  -1  -2   6 2238.88  131.29 
   1  -2  -6 2367.26  129.69 
   1  -2  -6 2358.16  129.29 
  -1  -2   6 2544.35  131.69 
  -1  -2   6 2381.66  131.39 
  -1  -2   6 2412.06  133.49 
   1  -2  -6 2458.65  130.39 
  -1   2   6 2353.06  128.59 
  -1   2   6 2269.67  128.49 
   1   2  -6 2546.85  132.49 
  -1   2   6 2554.54  128.09 
   1   2  -6 2334.87  131.99 
   1   2  -6 2386.86  131.29 
   1   2  -6 2333.67  130.69 
  -1   2   6 2291.87  128.29 
   1   2  -6 2335.17  132.39 
   0  -2   6 1375.56   76.19 
   0  -2  -6 1383.16   74.99 
   0  -2   6 1366.16   75.49 
   0  -2   6 1168.98   75.19 
   0  -2  -6 1305.57   73.89 
   0  -2  -6 1305.07   74.09 
   0  -2   6 1319.77   77.09 
   0   2   6 1349.07   72.89 
   0   2  -6 1346.87   74.89 
   0   2   6 1287.77   73.09 
   0   2  -6 1399.16   76.59 
   0   2  -6 1275.77   76.39 
   0   2   6 1446.26   72.99 
   0   2  -6 1326.57   75.39 
   1  -2   6  407.56   26.40 
   1  -2   6  390.86   25.30 
  -1  -2  -6  450.45   25.80 
   1  -2   6  427.96   27.50 
  -1  -2  -6  413.76   25.10 
   1  -2   6  349.96   25.50 
   1   2   6  425.46   23.80 
  -1   2  -6  355.76   25.80 
   1   2   6  403.26   24.40 
  -1   2  -6  394.06   26.30 
  -1   2  -6  380.76   25.40 
   1   2   6  392.96   23.40 
  -1   2  -6  352.26   26.30 
  -1   2  -6  394.76   25.00 
  -2  -2  -6   39.60    5.50 
  -2  -2  -6   36.90    4.80 
   2  -2   6   41.40    5.50 
   2  -2   6   42.20    6.90 
  -2  -2  -6   40.00    4.20 
   2  -2   6   32.00    5.50 
  -2   2  -6   49.30    6.80 
  -2   2  -6   45.90    5.70 
  -2   2  -6   51.89    5.70 
  -2   2  -6   41.20    5.70 
   2   2   6   48.60    4.80 
   2   2   6   51.89    5.20 
   2   2   6   48.40    3.60 
   3  -2   6  644.64   39.60 
  -3  -2  -6  601.04   38.10 
  -3  -2  -6  628.04   38.90 
  -3  -2  -6  685.53   40.50 
   3  -2   6  690.33   41.90 
  -3   2  -6  632.24   39.80 
  -3   2  -6  684.73   42.90 
   3   2   6  645.54   37.00 
   3   2   6  665.13   38.40 
  -3   2  -6  684.63   39.40 
  -3   2  -6  626.54   42.20 
  -4  -2  -6  198.28   15.90 
  -4  -2  -6  158.58   15.70 
  -4  -2  -6  184.38   14.20 
   4  -2   6  205.78   16.90 
   4  -2   6  178.58   14.60 
   4  -2   6  161.08   15.60 
  -4   2  -6  166.18   17.60 
   4   2   6  200.48   14.10 
  -4   2  -6  198.58   15.00 
   4   2   6  190.28   13.10 
  -4   2  -6  215.78   15.10 
  -5  -2  -6  316.97   24.90 
   5  -2   6  317.37   25.40 
  -5  -2  -6  338.47   25.00 
   5  -2   6  315.47   23.40 
  -5  -2  -6  347.27   23.80 
   5   2   6  338.77   22.70 
  -5   2  -6  377.86   23.80 
  -5   2  -6  346.57   24.00 
  -6  -2  -6  595.04   40.70 
  -6  -2  -6  561.64   39.10 
   6  -2   6  582.24   38.90 
  -6  -2  -6  597.34   38.90 
  -6   2  -6  673.23   39.10 
   6   2   6  616.44   38.20 
  -6   2  -6  638.04   38.70 
   7  -2   6  179.38   16.50 
  -7  -2  -6  185.28   18.00 
  -7  -2  -6  168.08   16.90 
  -7  -2  -6  202.18   17.10 
  -7   2  -6  214.88   16.90 
   7   2   6  186.88   15.60 
  -7   2  -6  197.28   16.40 
   8  -2   6  106.39   11.60 
  -8  -2  -6   64.59   10.20 
  -8  -2  -6   56.19   17.70 
  -8   2  -6   98.89   11.60 
 -10  -3   6   85.59   11.40 
 -10  -3   6   62.79   11.30 
  10  -3  -6   50.39   10.50 
 -10  -3   6   75.59   16.20 
 -10   3   6   67.39   11.20 
  -9  -3   6   62.39   13.80 
  -9  -3   6   71.49   11.20 
   9  -3  -6   78.99    9.10 
  -9  -3   6   72.79   18.30 
  -9   3   6   73.39    6.90 
  -9   3   6   65.29   10.10 
   9   3  -6   66.09   10.60 
  -8  -3   6   37.40    8.00 
   8  -3  -6   34.70    5.10 
   8  -3  -6   35.50    6.00 
  -8  -3   6   40.00    8.30 
  -8  -3   6   33.60    9.70 
  -8   3   6   30.50    5.20 
   8   3  -6   38.40    7.70 
  -8   3   6   37.20    4.30 
  -8   3   6   48.40    7.90 
   7  -3  -6    3.50    2.30 
  -7  -3   6   11.20    4.10 
   7  -3  -6    8.50    2.30 
  -7  -3   6    6.00    3.90 
  -7  -3   6   13.00    5.80 
  -7   3   6    6.10    2.70 
  -7   3   6   -2.10    2.60 
  -7   3   6    4.30    2.20 
  -7   3   6    5.00    1.50 
   7   3  -6   -1.90    3.40 
  -6  -3   6   10.10    3.50 
  -6  -3   6    0.80    3.00 
   6  -3  -6    7.50    2.60 
   6  -3  -6    7.20    2.30 
  -6  -3   6   12.70    4.10 
  -6  -3   6    0.30    3.80 
  -6   3   6    3.90    3.10 
   6   3  -6    4.20    2.60 
  -6   3   6    3.40    1.20 
   6   3  -6    5.40    3.10 
  -6   3   6    4.60    2.20 
  -6   3   6    6.00    2.00 
   5  -3  -6 2549.94  133.79 
  -5  -3   6 2495.05  141.79 
  -5  -3   6 2516.65  137.19 
  -5  -3   6 2457.05  134.99 
   5  -3  -6 2407.66  133.99 
  -5  -3   6 2386.06  137.29 
  -5   3   6 2700.33  134.99 
   5   3  -6 2437.36  135.69 
   5   3  -6 2152.98  135.99 
   5   3  -6 2308.87  136.59 
  -5   3   6 2321.67  131.99 
  -5   3   6 2675.43  130.59 
  -5   3   6 2324.77  131.39 
  -4  -3   6  924.31   56.59 
   4  -3  -6  883.41   53.09 
  -4  -3   6  924.21   54.39 
   4  -3  -6  915.01   52.89 
  -4  -3   6  873.21   59.29 
  -4  -3   6  972.40   56.19 
   4  -3  -6  797.82   54.89 
   4   3  -6  942.51   56.09 
   4   3  -6  943.81   56.09 
  -4   3   6  962.40   50.99 
  -4   3   6  941.31   50.99 
   4   3  -6  935.11   55.59 
  -4   3   6  964.00   50.79 
  -4   3   6 1069.79   54.09 
  -3  -3   6  542.25   37.20 
  -3  -3   6  581.94   39.80 
   3  -3  -6  585.64   33.50 
  -3  -3   6  559.94   35.10 
   3  -3  -6  499.85   34.90 
   3  -3  -6  540.15   33.60 
  -3   3   6  585.84   32.40 
   3   3  -6  567.44   36.40 
   3   3  -6  533.45   39.50 
   3   3  -6  610.94   47.50 
   3   3  -6  605.64   36.70 
  -3   3   6  607.54   36.90 
   3   3  -6  602.54   35.50 
  -3   3   6  608.94   32.10 
   2  -3  -6  381.26   22.40 
  -2  -3   6  347.37   25.30 
   2  -3  -6  339.17   22.20 
  -2  -3   6  336.87   27.10 
  -2  -3   6  361.96   24.00 
   2  -3  -6  341.27   22.10 
  -2   3   6  410.26   22.10 
  -2   3   6  358.86   24.00 
   2   3  -6  360.46   23.90 
  -2   3   6  391.26   21.40 
   2   3  -6  375.76   25.50 
   2   3  -6  334.47   26.60 
   2   3  -6  347.87   26.10 
  -2   3   6  357.06   22.30 
   2   3  -6  386.66   25.10 
   1  -3  -6 2867.81  147.99 
   1  -3  -6 2668.73  148.59 
  -1  -3   6 2815.62  149.99 
  -1  -3   6 2663.63  153.28 
  -1  -3   6 2547.65  150.48 
   1  -3  -6 2767.32  147.29 
  -1  -3   6 2515.75  150.48 
   1   3  -6 2631.34  151.98 
   1   3  -6 2669.13  149.19 
  -1   3   6 2931.41  146.99 
  -1   3   6 2592.34  147.99 
   1   3  -6 2706.73  151.48 
   1   3  -6 2723.83  150.28 
  -1   3   6 2834.82  146.59 
   1   3  -6 2848.22  150.68 
   0  -3   6 1743.63   97.49 
   0  -3   6 1762.62   97.19 
   0  -3  -6 1691.63   96.09 
   0  -3  -6 1727.63   94.29 
   0  -3   6 1741.53   99.99 
   0  -3   6 1563.14   97.19 
   0  -3  -6 1807.42   95.39 
   0   3   6 1689.03   93.19 
   0   3   6 1744.73   92.09 
   0   3  -6 1757.82  100.09 
   0   3   6 1681.73   93.69 
   0   3  -6 1765.12   97.09 
   0   3   6 1862.41   94.39 
   0   3  -6 1729.03   96.29 
   0   3   6 1672.43   91.99 
   0   3  -6 1578.64   98.59 
   1  -3   6  307.17   22.80 
   1  -3   6  275.97   19.50 
   1  -3   6  280.37   20.30 
  -1  -3  -6  204.28   24.30 
  -1  -3  -6  286.97   18.90 
  -1  -3  -6  271.67   19.00 
  -1  -3  -6  280.27   17.30 
   1   3   6  248.38   16.80 
  -1   3  -6  284.77   19.90 
  -1   3  -6  261.67   21.80 
  -1   3  -6  271.07   21.80 
   1   3   6  298.97   16.60 
  -1   3  -6  260.27   21.10 
  -1   3  -6  293.77   19.60 
   1   3   6  299.67   16.60 
   1   3   6  285.57   18.40 
  -2  -3  -6  556.74   35.80 
   2  -3   6  609.24   37.80 
  -2  -3  -6  588.34   36.10 
   2  -3   6  581.14   38.90 
  -2  -3  -6  568.74   38.30 
  -2   3  -6  551.74   40.40 
   2   3   6  635.24   35.10 
   2   3   6  636.04   37.10 
  -2   3  -6  619.14   39.90 
  -2   3  -6  657.33   38.40 
   2   3   6  709.93   34.80 
   3  -3   6 1224.78   71.19 
   3  -3   6 1281.67   73.49 
  -3  -3  -6 1183.58   70.59 
  -3  -3  -6 1229.98   72.89 
  -3   3  -6 1216.18   71.29 
   3   3   6 1209.98   68.89 
  -3   3  -6 1171.38   72.79 
   3   3   6 1368.66   68.29 
   4  -3   6  204.48   19.20 
  -4  -3  -6  236.08   19.80 
  -4  -3  -6  222.18   18.00 
  -4  -3  -6  226.18   17.30 
   4  -3   6  236.48   18.20 
  -4   3  -6  250.67   19.50 
   4   3   6  266.07   16.90 
  -4   3  -6  258.97   18.50 
   4   3   6  264.77   16.20 
  -5  -3  -6   54.09    9.60 
  -5  -3  -6   37.10    6.60 
   5  -3   6   53.69    7.20 
  -5  -3  -6   30.70    5.90 
   5  -3   6   44.90    8.10 
  -5   3  -6   55.69    7.70 
   5   3   6   47.80    5.90 
  -5   3  -6   46.70    6.60 
   5   3   6   53.89    6.00 
   6  -3   6   22.50    5.40 
   6  -3   6   24.20    6.60 
  -6  -3  -6   26.00    7.00 
  -6  -3  -6   23.30    6.00 
  -6  -3  -6   25.30    5.90 
  -6   3  -6   34.30    6.50 
  -6   3  -6   26.50    6.30 
   6   3   6   16.80    4.00 
  -7  -3  -6   10.60    5.50 
   7  -3   6    9.70    4.00 
  -7   3  -6    6.80    4.00 
  -7   3  -6    9.40    4.40 
  -8  -3  -6    7.90    4.80 
  -8  -3  -6   11.10    5.70 
   8  -3   6   13.10    5.10 
  -8   3  -6   11.90    5.40 
  -8   3  -6    6.80    4.70 
  -9  -4   6   12.70    7.50 
  -9  -4   6    3.80    4.50 
  -9  -4   6   20.50    5.30 
  -9   4   6    8.70    5.40 
  -9   4   6    9.60    2.80 
  -8  -4   6   16.70    5.30 
   8  -4  -6    9.40    3.40 
  -8  -4   6   12.30    5.50 
  -8  -4   6   10.40    6.20 
   8  -4  -6   12.50    3.90 
  -8   4   6    6.40    4.40 
  -8   4   6   19.20    3.20 
   8   4  -6   20.80    5.50 
  -7  -4   6   23.10    5.20 
   7  -4  -6   19.30    4.20 
  -7  -4   6    9.40    5.20 
  -7  -4   6   19.70    6.10 
  -7  -4   6   21.20    6.10 
  -7   4   6   22.70    3.10 
   7   4  -6   24.30    6.00 
  -7   4   6   16.60    4.00 
   7   4  -6   26.10    6.80 
  -7   4   6   18.30    5.40 
  -6  -4   6  232.98   18.10 
  -6  -4   6  245.78   24.30 
  -6  -4   6  227.88   19.90 
   6  -4  -6  230.48   16.60 
  -6  -4   6  222.78   20.60 
   6  -4  -6  255.37   17.20 
  -6   4   6  261.97   14.90 
  -6   4   6  233.68   16.50 
  -6   4   6  266.37   19.00 
   6   4  -6  223.48   19.10 
   6   4  -6  244.38   20.90 
   5  -4  -6  464.35   27.30 
  -5  -4   6  460.45   35.70 
  -5  -4   6  400.66   31.50 
   5  -4  -6  457.25   27.50 
  -5  -4   6  447.06   31.00 
  -5  -4   6  426.96   28.70 
  -5   4   6  432.56   27.00 
  -5   4   6  467.65   29.20 
   5   4  -6  464.15   30.90 
  -5   4   6  447.46   25.70 
   5   4  -6  427.16   31.50 
  -4  -4   6  957.30   63.09 
  -4  -4   6  924.81   59.29 
  -4  -4   6  953.90   55.99 
   4  -4  -6  966.30   53.79 
  -4  -4   6  950.10   57.59 
   4  -4  -6  956.30   54.09 
   4   4  -6  964.90   57.69 
  -4   4   6 1082.29   56.09 
  -4   4   6  963.30   53.99 
  -4   4   6  821.02   52.99 
   4   4  -6  940.11   58.69 
  -4   4   6  974.30   59.89 
  -3  -4   6  837.92   55.89 
   3  -4  -6  854.41   47.30 
  -3  -4   6  873.91   50.09 
   3  -4  -6  865.71   47.60 
  -3  -4   6  918.01   51.49 
  -3   4   6  805.72   51.59 
   3   4  -6  840.92   52.09 
  -3   4   6  866.21   48.00 
   3   4  -6  918.71   51.49 
  -3   4   6  725.83   59.69 
  -3   4   6  727.03   47.70 
  -2  -4   6 1826.12  106.39 
   2  -4  -6 1803.22   97.29 
  -2  -4   6 1806.02  100.49 
  -2  -4   6 1851.51  100.99 
   2  -4  -6 1798.92   97.39 
   2  -4  -6 1747.43   99.39 
  -2   4   6 1737.03  101.29 
  -2   4   6 1693.23   98.59 
  -2   4   6 1911.71   98.39 
   2   4  -6 1868.61  101.19 
  -2   4   6 1555.24   98.69 
   2   4  -6 1804.52  102.19 
   1  -4  -6  359.76   24.60 
  -1  -4   6  365.06   29.00 
  -1  -4   6  374.06   24.80 
  -1  -4   6  337.27   24.40 
   1  -4  -6  371.66   22.30 
   1  -4  -6  360.06   21.70 
  -1   4   6  364.66   24.60 
  -1   4   6  385.86   23.10 
   1   4  -6  380.36   26.20 
   1   4  -6  379.66   25.10 
  -1   4   6  332.37   22.80 
   0  -4  -6  265.77   23.40 
   0  -4   6  326.77   20.80 
   0  -4   6  295.37   20.90 
   0  -4   6  289.47   24.20 
   0  -4  -6  285.67   17.60 
   0  -4  -6  286.57   18.50 
   0   4   6  242.18   18.40 
   0   4   6  272.87   19.20 
   0   4  -6  302.87   20.80 
   0   4   6  309.67   19.20 
   0   4  -6  268.87   21.20 
   1  -4   6 1672.43   94.29 
   1  -4   6 1694.93   88.99 
   1  -4   6 1531.15   89.39 
  -1  -4  -6 1478.05   89.49 
  -1  -4  -6 1514.35   85.79 
  -1  -4  -6 1547.65   87.49 
   1   4   6 1524.65   86.49 
   1   4   6 1619.74   87.29 
  -1   4  -6 1568.74   89.89 
  -1   4  -6 1444.26   91.69 
   2  -4   6  426.66   28.20 
  -2  -4  -6  444.66   26.40 
  -2  -4  -6  426.66   30.00 
  -2  -4  -6  423.06   27.80 
   2  -4   6  431.56   29.50 
   2   4   6  445.26   26.30 
  -2   4  -6  411.76   31.10 
  -2   4  -6  454.45   29.70 
   2   4   6  398.86   23.50 
   3  -4   6  277.97   20.60 
  -3  -4  -6  279.37   22.70 
  -3  -4  -6  282.47   19.20 
  -3  -4  -6  279.97   21.10 
   3  -4   6  291.37   22.40 
  -3   4  -6  287.67   23.40 
   3   4   6  304.17   18.90 
  -3   4  -6  300.27   22.00 
   3   4   6  276.17   17.30 
   4  -4   6  277.47   20.30 
   4  -4   6  275.27   21.80 
  -4  -4  -6  264.37   21.30 
  -4  -4  -6  216.28   19.00 
  -4  -4  -6  250.87   23.40 
   4   4   6  310.47   19.00 
   4   4   6  267.67   17.50 
  -4   4  -6  303.77   23.10 
  -4   4  -6  285.47   21.10 
  -5  -4  -6 1070.59   69.19 
   5  -4   6 1185.98   70.79 
  -5  -4  -6 1020.10   70.59 
  -5  -4  -6 1160.18   66.99 
   5  -4   6 1034.90   68.49 
  -5   4  -6 1250.47   68.89 
   5   4   6 1132.89   64.89 
  -5   4  -6 1118.09   69.89 
   5   4   6 1301.67   65.99 
  -6  -4  -6   48.60    8.30 
   6  -4   6   51.39    8.50 
  -6  -4  -6   47.10    9.70 
  -6  -4  -6   59.99   11.60 
   6  -4   6   46.90   10.00 
  -6   4  -6   64.79    9.20 
  -6   4  -6   54.99    8.90 
  -7  -4  -6    8.90    5.50 
  -7  -4  -6   19.10    8.90 
   7  -4   6   15.90    4.70 
  -7   4  -6   22.40    9.40 
  -7   4  -6   15.20    5.70 
  -8  -5   6   14.70    6.00 
  -8  -5   6   15.00    8.80 
  -8  -5   6    9.70    5.00 
  -8   5   6    3.40    4.00 
   8   5  -6    7.80    4.60 
  -8   5   6   11.40    2.90 
   7  -5  -6  104.29    9.40 
  -7  -5   6   93.49   13.10 
  -7  -5   6   95.49   12.00 
  -7  -5   6  107.19   11.60 
  -7  -5   6   91.29   14.90 
   7   5  -6   87.39   13.20 
  -7   5   6  102.29   11.30 
   7   5  -6   96.89   11.90 
  -7   5   6  102.49    9.40 
  -6  -5   6   82.49   13.50 
  -6  -5   6   64.59   11.00 
   6  -5  -6   87.59    8.20 
  -6  -5   6   78.99   11.70 
   6  -5  -6   74.99    8.10 
  -6  -5   6   98.89    9.90 
  -6   5   6  103.29    7.80 
  -6   5   6   87.59    9.00 
   6   5  -6  117.99   11.90 
   6   5  -6  106.89   13.30 
  -6   5   6  106.89   10.90 
  -5  -5   6  308.07   29.30 
   5  -5  -6  305.57   19.80 
  -5  -5   6  308.57   26.20 
  -5  -5   6  300.57   23.80 
   5  -5  -6  333.87   20.30 
  -5  -5   6  330.37   22.40 
   5   5  -6  292.97   25.30 
  -5   5   6  322.27   20.10 
  -5   5   6  335.57   23.20 
  -5   5   6  295.37   21.10 
   5   5  -6  290.17   23.10 
  -4  -5   6  355.16   23.60 
  -4  -5   6  321.07   24.40 
  -4  -5   6  347.07   31.70 
   4  -5  -6  343.07   21.10 
   4  -5  -6  316.67   21.80 
  -4   5   6  332.27   22.70 
   4   5  -6  338.17   26.70 
   4   5  -6  350.86   24.70 
  -4   5   6  329.57   22.00 
  -4   5   6  362.36   24.20 
  -3  -5   6   69.29    9.00 
   3  -5  -6   75.39    5.90 
  -3  -5   6   69.99    8.30 
  -3  -5   6   70.29   11.70 
   3  -5  -6   68.89    6.00 
  -3   5   6   71.29    7.40 
  -3   5   6   62.69    7.30 
   3   5  -6   60.59    9.30 
   3   5  -6   76.39    8.50 
  -3   5   6   76.09    8.30 
  -2  -5   6   25.30    7.90 
  -2  -5   6   17.50    4.60 
  -2  -5   6   28.70    5.60 
   2  -5  -6   24.00    3.50 
   2  -5  -6   19.80    3.20 
  -2   5   6   24.10    5.60 
   2   5  -6   20.00    6.10 
   2   5  -6   31.50    5.80 
  -2   5   6   25.80    6.20 
  -2   5   6   29.90    4.60 
  -2   5   6   21.60    4.90 
   1  -5  -6  171.28   15.30 
   1  -5  -6  179.18   12.00 
  -1  -5   6  182.08   19.30 
  -1  -5   6  204.08   15.30 
   1  -5  -6  183.98   11.60 
  -1  -5   6  175.48   14.70 
  -1   5   6  152.18   13.90 
  -1   5   6  176.58   15.20 
   1   5  -6  173.48   16.40 
  -1   5   6  188.58   14.10 
  -1   5   6  162.68   15.20 
   1   5  -6  182.08   14.80 
   0  -5   6 1185.78   69.19 
   0  -5   6 1240.88   75.69 
   0  -5   6 1201.68   68.79 
   0  -5  -6 1129.29   70.09 
   0  -5  -6 1217.28   64.89 
   0  -5  -6 1231.88   65.79 
   0   5   6 1003.10   67.49 
   0   5   6 1157.98   68.79 
   0   5  -6 1213.08   71.29 
  -1  -5  -6 1092.79   69.49 
  -1  -5  -6 1202.78   68.29 
   1  -5   6 1144.49   68.29 
  -1  -5  -6 1191.38   64.19 
   1  -5   6 1149.29   74.09 
   1  -5   6 1189.48   67.59 
   1   5   6 1130.69   66.89 
  -1   5  -6 1151.78   69.69 
  -1   5  -6 1103.79   72.29 
   2  -5   6  119.09   12.90 
  -2  -5  -6  126.59   14.00 
  -2  -5  -6  146.59   13.40 
   2  -5   6  140.69   17.10 
   2  -5   6  136.99   12.30 
  -2  -5  -6  132.29   10.20 
   2   5   6  138.09   11.80 
  -2   5  -6  131.89   14.40 
  -2   5  -6  128.89   15.40 
  -3  -5  -6 1009.80   69.99 
  -3  -5  -6 1063.99   63.49 
   3  -5   6 1059.49   67.29 
   3   5   6 1199.68   64.79 
  -3   5  -6 1222.98   68.29 
  -4  -5  -6   90.79    9.10 
  -4  -5  -6   81.29   10.90 
  -4  -5  -6   78.99   11.90 
   4  -5   6  108.49   12.20 
   4  -5   6  100.49   10.20 
  -4   5  -6   76.99   11.50 
  -4   5  -6   99.09   11.20 
   4   5   6  107.89    9.50 
  -5  -5  -6   32.80    9.00 
  -5  -5  -6   53.29    8.60 
   5  -5   6   36.30    7.10 
  -5  -5  -6   40.80    6.70 
   5  -5   6   39.30    9.30 
  -5   5  -6   43.30    8.20 
  -5   5  -6   47.10    9.70 
  -6  -5  -6  137.79   16.60 
   6  -5   6  140.59   13.80 
  -6  -5  -6  121.89   15.60 
  -6   5  -6  157.38   16.50 
  -6   5  -6  147.09   14.40 
   7  -5   6   34.20    7.30 
  -7  -5  -6   18.60    7.40 
  -7  -5  -6   26.90    8.70 
  -7   5  -6   36.70    7.80 
  -7   5  -6   25.00    9.00 
  -7  -6   6   37.90    8.00 
   7  -6  -6   16.40    4.10 
  -7  -6   6   25.20    9.40 
  -7  -6   6   27.30    8.50 
  -7   6   6   15.90    3.70 
   7   6  -6    9.80    6.50 
  -7   6   6   16.60    6.00 
  -6  -6   6   31.30    8.60 
  -6  -6   6   36.10    7.80 
  -6  -6   6   25.60    9.70 
   6  -6  -6   32.50    4.30 
  -6   6   6   32.20    7.10 
   6   6  -6   28.50    8.30 
  -6   6   6   32.40    4.70 
  -5  -6   6  230.98   17.30 
  -5  -6   6  198.88   23.90 
   5  -6  -6  204.08   14.20 
  -5  -6   6  185.88   20.80 
  -5  -6   6  203.78   18.40 
   5  -6  -6  201.68   14.20 
   5   6  -6  210.58   21.10 
   5   6  -6  193.98   17.30 
  -5   6   6  229.48   18.70 
  -5   6   6  221.38   17.00 
  -5   6   6  222.18   15.90 
  -4  -6   6  366.56   26.80 
   4  -6  -6  368.76   21.80 
  -4  -6   6  309.77   26.90 
   4  -6  -6  358.36   21.70 
  -4  -6   6  339.87   32.70 
  -4   6   6  372.96   25.40 
  -4   6   6  372.86   24.80 
  -4   6   6  395.36   27.10 
   4   6  -6  330.87   29.20 
  -3  -6   6  387.26   34.90 
   3  -6  -6  407.36   23.20 
  -3  -6   6  384.66   26.90 
  -3  -6   6  376.46   28.00 
   3  -6  -6  412.56   23.20 
  -3   6   6  381.06   27.10 
   3   6  -6  379.56   30.70 
  -3   6   6  414.96   28.50 
   3   6  -6  373.36   26.60 
  -2  -6   6  377.56   25.70 
  -2  -6   6  364.66   26.20 
   2  -6  -6  364.46   22.10 
   2  -6  -6  366.66   21.40 
  -2  -6   6  378.96   33.20 
   2   6  -6  377.86   25.40 
  -2   6   6  328.47   25.90 
  -2   6   6  356.56   26.40 
   2   6  -6  386.56   29.50 
   1  -6  -6  864.61   48.10 
  -1  -6   6  862.91   52.89 
  -1  -6   6  884.71   53.09 
  -1  -6   6  960.30   62.29 
   1  -6  -6  798.32   51.19 
   1  -6  -6  901.11   55.39 
  -1   6   6  847.92   53.69 
   1   6  -6  867.61   56.39 
  -1   6   6  847.82   54.49 
   0  -6   6  533.05   32.70 
   0  -6  -6  521.55   28.20 
   0  -6  -6  467.35   34.60 
   0  -6   6  481.15   32.50 
   0  -6   6  520.75   39.90 
   0   6  -6  501.65   35.50 
   0   6   6  444.46   32.60 
   0   6  -6  440.76   37.00 
   0   6   6  444.96   33.90 
   0   6   6  486.95   33.70 
  -1  -6  -6  299.77   18.10 
   1  -6   6  306.97   22.40 
  -1  -6  -6  314.77   23.70 
   1  -6   6  277.37   27.20 
   1  -6   6  288.27   21.30 
  -1  -6  -6  264.07   23.50 
  -1   6  -6  280.67   26.40 
   1   6   6  254.27   21.70 
  -1   6  -6  296.37   23.90 
   1   6   6  282.67   21.90 
   2  -6   6   16.70    4.30 
   2  -6   6   21.80    8.00 
  -2  -6  -6   23.00    6.60 
   2  -6   6   17.30    5.00 
  -2  -6  -6   15.00    3.20 
  -2  -6  -6   18.10    5.80 
  -2   6  -6    7.10    5.10 
  -2   6  -6   11.10    4.70 
   2   6   6   17.30    5.60 
   3  -6   6   60.29    7.80 
  -3  -6  -6   60.59   11.70 
  -3  -6  -6   56.79    9.30 
   3  -6   6   48.10    9.20 
  -3  -6  -6   57.09    6.40 
  -3   6  -6   56.39    9.00 
  -3   6  -6   48.20   10.90 
   4  -6   6  127.49   12.40 
  -4  -6  -6  141.29   15.70 
   4  -6   6  114.39   14.20 
  -4  -6  -6  133.09   16.30 
  -4  -6  -6  138.29   11.70 
  -4   6  -6  129.49   16.70 
  -4   6  -6  144.29   14.80 
  -5  -6  -6   12.00    6.70 
   5  -6   6   33.70    6.90 
  -5  -6  -6   30.50    8.30 
  -5   6  -6   26.40    8.20 
  -6  -6  -6  184.48   25.10 
   6  -6   6  215.18   18.40 
  -6  -6  -6  182.88   22.20 
  -6   6  -6  246.68   20.50 
  -6   6  -6  221.98   22.40 
   6  -7  -6  257.47   18.60 
  -6  -7   6  263.07   30.50 
   6   7  -6  277.17   38.40 
  -6   7   6  293.77   20.60 
  -6   7   6  326.17   25.10 
  -5  -7   6   46.80    9.00 
   5  -7  -6   49.50    5.10 
  -5  -7   6   36.80   17.40 
  -5   7   6   45.60    6.90 
   5   7  -6   33.80   10.00 
  -5   7   6   47.50    8.40 
  -4  -7   6   10.10    4.60 
  -4  -7   6   17.30    7.40 
   4  -7  -6   13.40    2.40 
  -4   7   6    9.20    3.50 
  -4   7   6   17.80    5.60 
   4   7  -6    1.60    4.40 
  -3  -7   6  144.09   13.50 
   3  -7  -6  141.39    9.50 
  -3  -7   6  137.99   19.50 
  -3  -7   6  129.79   13.80 
   3  -7  -6  144.69    9.10 
   3   7  -6  154.98   17.60 
  -3   7   6  149.09   14.60 
  -2  -7   6    4.60    3.20 
  -2  -7   6    0.80    4.60 
   2  -7  -6    4.40    1.40 
  -2  -7   6    4.30    3.00 
   2   7  -6    6.90    5.00 
  -2   7   6    3.30    2.70 
  -2   7   6    4.90    3.30 
   1  -7  -6  112.09    7.30 
  -1  -7   6  104.09   16.30 
   1  -7  -6   88.09   12.50 
  -1  -7   6   91.59   10.80 
  -1   7   6  114.89   13.20 
   1   7  -6  117.29   14.30 
  -1   7   6  108.39   12.80 
   0  -7  -6    8.30    4.80 
   0  -7   6   18.00    4.70 
   0  -7   6    7.10    6.00 
   0  -7  -6   10.80    2.20 
   0   7  -6   12.80    5.10 
   0   7   6   18.50    5.50 
   0   7  -6    9.50    5.20 
   0   7   6   11.50    5.00 
   1  -7   6  402.36   36.60 
  -1  -7  -6  459.15   32.80 
  -1  -7  -6  428.56   24.80 
   1  -7   6  428.16   29.10 
  -1  -7  -6  400.46   32.50 
   1   7   6  416.46   31.10 
  -1   7  -6  426.66   32.50 
   1   7   6  338.07   31.10 
  -1   7  -6  400.96   35.40 
  -2  -7  -6  181.88   12.20 
   2  -7   6  171.58   14.90 
  -2  -7  -6  147.09   17.00 
  -2  -7  -6  135.59   17.00 
   2   7   6  164.48   16.50 
  -2   7  -6  169.38   19.60 
  -2   7  -6  159.08   17.40 
  -3  -7  -6   19.40    7.30 
   3  -7   6   25.50    5.50 
  -3  -7  -6   12.60    4.10 
  -3  -7  -6   12.70    6.10 
  -3   7  -6   17.60    7.00 
  -3   7  -6   15.30    7.40 
  -4  -7  -6   99.49   20.10 
   4  -7   6  134.89   13.10 
  -4  -7  -6  162.58   17.60 
  -4   7  -6  134.89   17.70 
  -4   7  -6  123.99   15.50 
  -4  -8   6  177.48   23.80 
  -4  -8   6  200.88   18.40 
  -4   8   6  187.58   17.50 
  -4   8   6  206.28   20.10 
   4   8  -6  182.18   21.40 
  -3  -8   6   64.89   11.10 
  -3  -8   6   76.79   17.10 
  -3   8   6   90.09   12.20 
  -3   8   6   66.69    9.90 
   3   8  -6   52.89   12.60 
  -2  -8   6   39.90    7.30 
  -2  -8   6   15.70    9.00 
  -2   8   6   30.20    7.50 
  -2   8   6   30.50    7.80 
   2   8  -6   23.30    8.20 
  -1  -8   6  187.88   25.90 
  -1  -8   6  252.07   19.10 
  -1   8   6  213.28   20.30 
  -1   8   6  208.18   20.60 
   1   8  -6  172.18   22.90 
   1   8  -6  203.58   21.40 
   0  -8  -6  160.78   19.50 
   0  -8   6  192.08   16.60 
   0  -8   6  188.08   24.30 
   0  -8  -6  180.98   11.40 
   0  -8  -6  173.98   11.00 
   0   8   6  195.08   19.00 
   0   8   6  162.88   19.00 
   0   8  -6  174.58   22.20 
   0   8  -6  166.78   19.10 
   1  -8   6   66.29   16.00 
  -1  -8  -6   75.19   12.60 
   1  -8   6   67.69    8.50 
  -1  -8  -6   53.79   11.80 
  -1  -8  -6   76.99    6.80 
  -1   8  -6   68.69   12.90 
   1   8   6   47.80   10.40 
   1   8   6   57.69   12.00 
  -1   8  -6   49.20   12.50 
   2  -8   6  123.79   12.40 
  -2  -8  -6  127.49   16.40 
  -2  -8  -6  112.29    9.60 
  -2  -8  -6  107.69    9.30 
  -2  -8  -6  118.79   16.20 
   2   8   6  124.49   16.30 
  -2   8  -6  141.89   16.00 
   2   8   6  106.99   14.10 
  -2   8  -6  123.39   17.30 
 -10   0   7    2.80    3.10 
 -10   0   7    1.60    3.50 
  10   0  -7   -1.10    3.50 
  -9   0   7   86.59    9.00 
  -9   0   7   86.79   12.30 
  -9   0   7   88.09   11.30 
   9   0  -7   98.19   19.30 
   9   0  -7  107.19    8.40 
  -8   0   7   34.30    7.10 
   8   0  -7   40.10    4.20 
  -8   0   7   37.60    9.00 
   8   0  -7   49.60    7.90 
  -8   0   7   34.60    5.10 
   8   0  -7   36.50    6.60 
  -7   0   7   76.29    6.90 
   7   0  -7   75.39    8.40 
  -7   0   7   78.59    9.30 
   7   0  -7   71.89    9.00 
   7   0  -7   80.99    5.80 
  -7   0   7   74.29   10.40 
  -6   0   7  769.42   45.70 
   6   0  -7  684.53   40.90 
   6   0  -7  734.73   45.20 
   6   0  -7  757.82   40.20 
  -6   0   7  712.03   46.70 
   6   0  -7  770.22   45.00 
  -6   0   7  731.23   41.30 
  -5   0   7   45.40    7.00 
   5   0  -7   58.29    6.20 
   5   0  -7   41.80    6.70 
  -5   0   7   45.40    7.30 
   5   0  -7   43.00    5.90 
  -4   0   7  150.28   13.40 
  -4   0   7  162.58   13.20 
   4   0  -7  167.58   13.10 
   4   0  -7  185.78   12.40 
   4   0  -7  164.28   13.40 
  -4   0   7  144.29   12.90 
   3   0  -7   87.59    5.20 
  -3   0   7   86.69    7.50 
   3   0  -7   92.69    8.90 
  -3   0   7   79.69    7.90 
   3   0  -7   90.39   11.30 
   3   0  -7   78.89    5.70 
  -3   0   7   84.99    8.40 
  -2   0   7 2300.07  128.49 
  -2   0   7 2336.57  128.79 
   2   0  -7 2308.77  129.39 
   2   0  -7 2508.25  126.79 
  -2   0   7 2175.58  126.59 
   2   0  -7 2437.36  125.69 
  -2   0   7 2328.67  128.29 
  -1   0   7 1036.30   62.29 
  -1   0   7 1164.88   63.89 
  -1   0   7 1158.48   64.09 
   1   0  -7 1166.68   65.39 
   1   0  -7 1134.19   61.39 
  -1   0   7 1060.49   62.59 
   1   0  -7 1079.99   66.69 
   1   0  -7 1198.88   61.59 
   0   0  -7  156.38   12.20 
   0   0   7  145.59   12.20 
   0   0   7  139.39   10.80 
   0   0   7  156.98   12.40 
   0   0  -7  161.58   13.10 
   0   0  -7  170.98   10.70 
   0   0  -7  151.88    9.70 
  -1   0  -7 6651.13  344.17 
  -1   0  -7 6715.93  349.37 
   1   0   7 6110.39  346.47 
  -1   0  -7 6224.48  345.17 
   1   0   7 6249.67  348.37 
  -1   0  -7 6592.94  347.97 
   1   0   7 6685.53  347.27 
  -2   0  -7  841.12   46.20 
   2   0   7  805.82   48.80 
  -2   0  -7  845.22   44.20 
  -2   0  -7  705.43   45.60 
   2   0   7  789.72   46.80 
  -2   0  -7  802.02   47.60 
   2   0   7  809.52   46.90 
  -3   0  -7  335.97   20.90 
  -3   0  -7  337.17   19.10 
   3   0   7  254.67   19.90 
  -3   0  -7  326.87   22.00 
  -3   0  -7  293.37   20.90 
   3   0   7  324.77   21.20 
  -4   0  -7  837.82   49.90 
  -4   0  -7  877.51   46.80 
  -4   0  -7  854.01   49.60 
   4   0   7  691.23   47.80 
   4   0   7  681.43   47.60 
  -4   0  -7  930.51   48.90 
  -5   0  -7  296.77   22.90 
  -5   0  -7  354.56   25.20 
  -5   0  -7  346.67   30.40 
  -5   0  -7  340.57   21.70 
   5   0   7  275.87   22.40 
   5   0   7  314.37   22.60 
  -6   0  -7   57.69    7.80 
   6   0   7   59.09    7.70 
  -6   0  -7   55.79    7.80 
  -7   0  -7   10.20    4.70 
  -7   0  -7   15.60    4.80 
   7   0   7    3.80    4.10 
  -8   0  -7   53.49    9.00 
   8   0   7   52.39    8.70 
  -8   0  -7   51.29    9.50 
  10  -1  -7   53.19    8.80 
 -10  -1   7   41.30   10.80 
 -10  -1   7   53.19    7.60 
  10   1  -7   31.40    8.80 
 -10   1   7   85.99   20.50 
  -9  -1   7   54.29    9.60 
   9  -1  -7   35.90    5.00 
  -9  -1   7   56.09   11.60 
  -9  -1   7   38.00    6.90 
   9  -1  -7   35.10    7.30 
   9  -1  -7   49.30    8.50 
   9   1  -7   38.30    8.30 
  -9   1   7   41.90    5.50 
  -9   1   7   30.50    8.70 
   9   1  -7   47.40    5.60 
  -9   1   7   39.30    6.90 
  -8  -1   7   73.29    9.40 
   8  -1  -7   68.59    5.60 
  -8  -1   7   68.69    9.10 
  -8  -1   7   62.09   10.60 
   8  -1  -7   66.29    8.80 
  -8   1   7   64.19    6.00 
  -8   1   7   71.79    8.70 
  -8   1   7   60.39    9.70 
   8   1  -7   54.79    9.10 
   7  -1  -7  140.19   12.70 
  -7  -1   7  140.89   15.60 
   7  -1  -7  130.39   12.10 
  -7  -1   7  153.48   14.50 
  -7  -1   7  131.79   11.70 
  -7   1   7  149.99   12.90 
   7   1  -7  168.58   10.20 
   7   1  -7  133.49   12.70 
  -7   1   7  124.09   13.70 
   7   1  -7  134.39   13.10 
  -6  -1   7   51.19    8.30 
  -6  -1   7   52.39    6.10 
   6  -1  -7   58.49    9.90 
  -6  -1   7   54.79    8.90 
   6  -1  -7   56.69    7.30 
   6   1  -7   66.89    7.50 
   6   1  -7   59.19    6.30 
   6   1  -7   76.49    5.60 
  -6   1   7   63.19    8.50 
   6   1  -7   60.09    7.70 
  -6   1   7   58.59    7.30 
   5  -1  -7    7.60    2.80 
  -5  -1   7    7.20    3.20 
  -5  -1   7    6.50    3.00 
   5  -1  -7    2.90    2.30 
   5  -1  -7    2.70    2.00 
   5   1  -7    3.10    2.10 
  -5   1   7    0.60    1.80 
   5   1  -7    4.80    1.60 
   5   1  -7    6.30    1.90 
   5   1  -7    6.30    3.20 
  -5   1   7    7.90    3.50 
   4  -1  -7 2122.49  116.29 
   4  -1  -7 2032.70  115.99 
  -4  -1   7 2096.99  117.19 
  -4  -1   7 1956.40  118.29 
   4  -1  -7 2138.69  115.19 
  -4  -1   7 2092.99  115.59 
   4   1  -7 1927.71  113.79 
  -4   1   7 2092.09  115.59 
   4   1  -7 2281.97  116.39 
   4   1  -7 2109.09  113.89 
   4   1  -7 2233.68  117.79 
  -4   1   7 2063.39  116.09 
   4   1  -7 2081.09  116.69 
   3  -1  -7  692.93   41.40 
  -3  -1   7  660.33   42.80 
  -3  -1   7  706.23   42.10 
   3  -1  -7  703.43   39.60 
   3  -1  -7  692.33   41.20 
   3   1  -7  694.43   41.80 
   3   1  -7  720.53   42.70 
   3   1  -7  648.44   39.10 
  -3   1   7  710.83   40.60 
  -3   1   7  698.03   40.50 
   3   1  -7  710.53   41.10 
   3   1  -7  660.43   39.80 
  -2  -1   7  678.03   41.70 
  -2  -1   7  731.13   44.00 
   2  -1  -7  724.03   42.60 
   2  -1  -7  747.83   43.20 
  -2  -1   7  749.42   43.30 
  -2  -1   7  745.83   42.90 
  -2   1   7  706.73   41.00 
  -2   1   7  677.93   39.50 
   2   1  -7  684.13   42.00 
   2   1  -7  752.82   43.60 
   2   1  -7  733.53   42.40 
  -2   1   7  744.33   41.90 
   2   1  -7  738.63   44.10 
  -2   1   7  713.03   41.30 
   2   1  -7  711.13   40.80 
   1  -1  -7 3247.07  166.48 
   1  -1  -7 3206.88  169.78 
  -1  -1   7 2809.12  168.08 
   1  -1  -7 3041.10  168.68 
  -1  -1   7 3226.38  169.68 
  -1  -1   7 3007.50  169.38 
  -1  -1   7 3200.98  169.48 
   1   1  -7 3172.68  169.68 
   1   1  -7 3114.69  168.58 
   1   1  -7 3113.19  170.58 
  -1   1   7 3008.30  167.68 
  -1   1   7 2943.41  166.28 
   1   1  -7 3129.99  167.18 
  -1   1   7 3162.68  168.08 
   0  -1   7 2165.58  119.69 
   0  -1   7 1881.91  118.79 
   0  -1  -7 2271.47  117.79 
   0  -1  -7 2171.58  119.39 
   0  -1   7 2253.37  120.79 
   0  -1   7 2228.18  119.89 
   0  -1  -7 2283.77  120.79 
   0   1   7 2192.78  118.39 
   0   1  -7 2080.29  119.09 
   0   1   7 2179.08  119.19 
   0   1  -7 2187.08  120.19 
   0   1  -7 2280.67  118.19 
   0   1  -7 2265.47  121.49 
   0   1   7 2163.88  117.49 
   0   1  -7 1918.31  118.59 
   1  -1   7  148.69   12.20 
  -1  -1  -7  132.19   10.90 
  -1  -1  -7  138.49   11.90 
   1  -1   7  119.49   10.70 
  -1  -1  -7  142.79   10.30 
   1  -1   7  156.58   11.60 
  -1   1  -7  129.69   10.10 
  -1   1  -7  148.59   12.60 
  -1   1  -7  141.19   11.50 
   1   1   7  124.79   10.00 
   1   1   7  123.09   11.40 
   1   1   7  132.59    9.90 
  -1   1  -7  120.29   10.60 
  -2  -1  -7  744.13   42.90 
   2  -1   7  780.52   49.20 
   2  -1   7  826.12   46.70 
  -2  -1  -7  762.82   46.40 
  -2  -1  -7  846.72   46.10 
  -2  -1  -7  747.83   43.20 
  -2   1  -7  785.62   47.10 
   2   1   7  803.62   45.60 
  -2   1  -7  829.52   45.60 
  -2   1  -7  770.72   45.00 
  -2   1  -7  737.13   46.80 
   2   1   7  795.52   45.70 
  -3  -1  -7 1515.45   78.49 
  -3  -1  -7 1446.06   79.99 
   3  -1   7 1202.28   78.89 
  -3  -1  -7 1345.87   76.89 
   3  -1   7 1405.96   81.99 
  -3  -1  -7 1528.25   79.79 
   3   1   7 1421.96   78.89 
  -3   1  -7 1521.15   78.99 
  -3   1  -7 1352.56   80.39 
  -3   1  -7 1336.97   80.79 
   3   1   7 1231.68   77.19 
  -3   1  -7 1481.45   77.99 
   4  -1   7  523.65   37.10 
  -4  -1  -7  637.04   38.20 
   4  -1   7  505.85   37.60 
  -4  -1  -7  577.44   35.70 
  -4  -1  -7  651.13   38.10 
  -4   1  -7  607.34   38.30 
   4   1   7  632.74   37.20 
  -4   1  -7  673.23   37.00 
  -4   1  -7  585.14   39.40 
   4   1   7  551.94   36.00 
  -4   1  -7  686.93   37.50 
   5  -1   7  182.28   19.00 
  -5  -1  -7  206.78   16.40 
  -5  -1  -7  223.18   18.70 
  -5  -1  -7  214.48   17.40 
   5   1   7  214.58   16.70 
  -5   1  -7  252.47   16.50 
  -5   1  -7  228.18   17.00 
   6  -1   7    9.20    4.30 
  -6  -1  -7    8.20    4.20 
  -6  -1  -7   16.90    5.10 
  -6  -1  -7   17.70    5.00 
  -6   1  -7   17.60    4.70 
  -6   1  -7   20.70    5.00 
   6   1   7   13.80    4.30 
   7  -1   7   82.89   10.30 
  -7  -1  -7   74.99   10.00 
  -7  -1  -7   81.19   10.50 
  -7   1  -7  100.39   10.70 
  -7   1  -7   86.49   10.20 
   7   1   7   69.19    9.40 
  -8  -1  -7   26.00    6.70 
   8  -1   7   30.90    6.30 
  -8  -1  -7   23.30    7.10 
  -8   1  -7   29.60    7.30 
  -8   1  -7   27.10    6.70 
 -10  -2   7   30.40    9.50 
 -10  -2   7   31.70    8.60 
 -10  -2   7   33.20    7.20 
  10  -2  -7   35.60    7.00 
  10   2  -7   53.89    9.30 
 -10   2   7   37.60   10.40 
  -9  -2   7   27.00    6.90 
  -9  -2   7   30.60    7.70 
  -9  -2   7   26.30    8.40 
   9  -2  -7   28.70    6.20 
  -9   2   7   26.50    3.80 
   9   2  -7   30.60    7.20 
  -9   2   7   17.80    6.30 
  -8  -2   7  331.77   29.70 
   8  -2  -7  334.77   23.80 
  -8  -2   7  327.17   24.70 
   8  -2  -7  313.77   19.20 
   8  -2  -7  354.96   24.20 
  -8  -2   7  365.56   26.70 
  -8   2   7  330.87   19.70 
  -8   2   7  289.47   25.20 
  -8   2   7  346.77   24.50 
   8   2  -7  373.56   26.30 
   7  -2  -7  787.92   52.89 
   7  -2  -7  775.02   44.40 
  -7  -2   7  738.63   50.59 
  -7  -2   7  651.33   44.40 
  -7  -2   7  604.14   54.89 
   7   2  -7  737.63   44.70 
  -7   2   7  757.42   45.90 
   7   2  -7  683.33   45.80 
  -7   2   7  699.83   44.50 
  -6  -2   7  315.27   24.50 
  -6  -2   7  328.07   25.90 
   6  -2  -7  382.26   24.60 
   6  -2  -7  356.26   24.30 
  -6  -2   7  393.16   29.70 
  -6   2   7  358.16   25.10 
   6   2  -7  369.46   24.90 
   6   2  -7  362.06   26.20 
   6   2  -7  401.86   23.50 
  -5  -2   7  255.97   20.70 
  -5  -2   7  322.97   20.20 
  -5  -2   7  250.67   19.70 
   5  -2  -7  290.57   20.50 
   5  -2  -7  316.77   19.90 
  -5  -2   7  295.17   23.90 
   5   2  -7  258.17   19.30 
   5   2  -7  275.97   20.20 
   5   2  -7  304.97   19.20 
   5   2  -7  244.68   20.50 
  -5   2   7  291.07   20.00 
  -5   2   7  253.67   21.20 
   4  -2  -7  316.17   22.80 
  -4  -2   7  345.97   26.90 
  -4  -2   7  350.76   25.60 
  -4  -2   7  364.66   24.90 
   4  -2  -7  361.86   23.10 
   4  -2  -7  329.27   23.10 
   4   2  -7  340.67   23.10 
  -4   2   7  394.16   23.20 
   4   2  -7  357.46   25.00 
   4   2  -7  356.76   23.30 
  -4   2   7  380.16   22.30 
   4   2  -7  351.26   24.00 
   3  -2  -7  679.63   40.60 
   3  -2  -7  603.14   39.70 
  -3  -2   7  670.03   44.20 
  -3  -2   7  719.93   41.40 
   3  -2  -7  692.63   40.70 
  -3  -2   7  773.02   42.80 
   3   2  -7  667.63   40.60 
   3   2  -7  734.83   43.10 
   3   2  -7  653.73   41.00 
   3   2  -7  676.33   41.70 
   3   2  -7  679.63   42.40 
  -3   2   7  670.83   39.10 
  -3   2   7  709.93   39.60 
  -2  -2   7 2408.56  129.69 
   2  -2  -7 2235.48  125.69 
  -2  -2   7 2251.17  131.39 
  -2  -2   7 2177.18  128.69 
  -2  -2   7 2373.56  129.19 
   2  -2  -7 2449.75  128.59 
   2  -2  -7 2028.70  126.99 
   2  -2  -7 2282.27  127.89 
  -2   2   7 2430.36  126.09 
  -2   2   7 2424.36  126.49 
   2   2  -7 2238.38  129.19 
   2   2  -7 2398.66  130.29 
   2   2  -7 2315.07  128.19 
   2   2  -7 2412.46  129.49 
  -2   2   7 2461.05  124.89 
   2   2  -7 2456.25  130.59 
   1  -2  -7 3453.15  183.88 
  -1  -2   7 3533.95  184.78 
   1  -2  -7 3322.37  182.98 
  -1  -2   7 3323.57  186.28 
  -1  -2   7 3070.89  184.08 
  -1  -2   7 3473.75  184.78 
   1  -2  -7 3267.97  181.98 
  -1   2   7 3532.35  180.78 
   1   2  -7 3331.37  183.28 
   1   2  -7 3464.85  185.78 
   1   2  -7 3251.77  184.38 
   1   2  -7 3325.17  185.28 
  -1   2   7 3514.75  184.18 
   0  -2  -7 2105.09  116.39 
   0  -2   7 2124.69  119.19 
   0  -2   7 1859.21  117.29 
   0  -2   7 2131.39  118.49 
   0  -2  -7 2108.39  116.09 
   0  -2  -7 2190.58  117.69 
   0  -2   7 2156.68  117.79 
   0   2  -7 1970.50  118.19 
   0   2  -7 2093.49  117.79 
   0   2  -7 2160.88  119.09 
   0   2   7 2263.27  114.79 
   0   2   7 2176.48  115.09 
   0   2  -7 2162.58  116.79 
   1  -2   7  695.73   39.60 
   1  -2   7  514.95   36.90 
   1  -2   7  613.24   37.20 
  -1  -2  -7  656.93   37.70 
   1  -2   7  625.44   38.50 
  -1  -2  -7  589.44   36.30 
   1   2   7  600.44   35.00 
  -1   2  -7  622.64   38.70 
  -1   2  -7  543.15   37.20 
  -1   2  -7  594.84   37.30 
  -1   2  -7  627.64   36.50 
   1   2   7  634.74   35.60 
  -1   2  -7  548.15   37.90 
  -2  -2  -7 2459.05  135.99 
   2  -2   7 2501.35  138.69 
  -2  -2  -7 2441.36  136.49 
   2  -2   7 2609.14  136.89 
  -2   2  -7 2615.14  136.09 
  -2   2  -7 2400.56  136.99 
  -2   2  -7 2254.17  138.19 
   2   2   7 2570.54  134.99 
  -2   2  -7 2368.66  136.69 
   2   2   7 2487.05  134.79 
   3  -2   7  450.75   30.00 
  -3  -2  -7  416.36   27.60 
  -3  -2  -7  435.16   30.20 
   3  -2   7  496.85   32.80 
  -3  -2  -7  464.95   29.80 
  -3   2  -7  480.15   30.10 
   3   2   7  487.05   28.80 
  -3   2  -7  510.35   29.90 
  -3   2  -7  450.05   32.30 
   4  -2   7   80.39   10.20 
  -4  -2  -7   71.99    7.90 
  -4  -2  -7   89.49    9.80 
  -4  -2  -7   79.49    8.90 
   4  -2   7   72.69    9.10 
   4   2   7   96.69    8.60 
  -4   2  -7  100.19    9.30 
   4   2   7   88.39    7.70 
  -4   2  -7  107.69    9.40 
  -5  -2  -7   32.60    5.90 
   5  -2   7   33.80    6.10 
  -5  -2  -7   29.10    5.80 
  -5  -2  -7   26.70    6.60 
   5   2   7   31.90    4.80 
  -5   2  -7   28.50    5.70 
  -5   2  -7   35.20    6.40 
   5   2   7   29.40    5.30 
  -6  -2  -7   -0.90    3.10 
  -6  -2  -7   -2.10    2.50 
   6  -2   7    0.00    2.20 
  -6  -2  -7    0.10    2.10 
  -6   2  -7   -0.10    2.60 
   6   2   7   -1.30    2.30 
  -6   2  -7   -0.20    2.50 
   7  -2   7  109.19   11.50 
  -7  -2  -7   86.79   11.60 
  -7  -2  -7   96.29   11.50 
  -7   2  -7  112.69   11.70 
  -7   2  -7   99.99   11.30 
  -8  -2  -7   95.79   12.40 
   8  -2   7  103.69   12.60 
  -8  -2  -7  104.39   13.40 
  -8   2  -7  105.69   12.50 
  -8   2  -7  113.59   12.60 
   9  -3  -7   61.49    8.60 
  -9  -3   7   77.59   10.50 
  -9  -3   7   83.49   14.10 
  -9  -3   7   58.19   11.50 
  -9   3   7   67.59   10.70 
   9   3  -7   57.79   10.00 
   8  -3  -7   41.50    7.10 
  -8  -3   7   27.60    7.00 
  -8  -3   7   45.20   10.90 
  -8  -3   7   27.50    7.10 
   8  -3  -7   49.20    7.70 
  -8   3   7   37.10    8.00 
  -8   3   7   35.70    5.80 
   8   3  -7   34.90    7.50 
  -8   3   7   34.70    3.50 
  -7  -3   7  135.19   13.90 
  -7  -3   7  133.69   13.80 
   7  -3  -7  147.99   12.10 
  -7  -3   7  130.59   16.80 
   7   3  -7  136.19   14.10 
   7   3  -7  127.49   13.30 
  -7   3   7  127.89   10.70 
  -7   3   7  136.09   13.30 
   6  -3  -7 1226.38   68.79 
  -6  -3   7 1091.99   70.89 
  -6  -3   7 1138.99   75.99 
  -6  -3   7 1124.39   71.49 
  -6  -3   7 1268.57   69.79 
   6  -3  -7 1239.68   68.69 
   6   3  -7 1181.58   70.99 
   6   3  -7 1239.88   71.89 
  -6   3   7 1274.07   69.79 
  -6   3   7 1150.58   66.59 
  -5  -3   7  283.87   20.90 
   5  -3  -7  284.97   19.40 
   5  -3  -7  298.07   19.40 
  -5  -3   7  280.67   25.10 
  -5  -3   7  287.17   21.90 
  -5  -3   7  263.77   21.30 
  -5   3   7  323.57   20.20 
  -5   3   7  271.57   17.30 
   5   3  -7  281.37   21.30 
   5   3  -7  238.08   20.80 
   5   3  -7  287.57   20.60 
   4  -3  -7 1118.69   73.29 
   4  -3  -7 1364.46   72.29 
  -4  -3   7 1386.06   75.49 
  -4  -3   7 1325.67   73.49 
   4  -3  -7 1268.67   72.19 
  -4  -3   7 1288.37   78.89 
   4   3  -7 1157.38   74.59 
  -4   3   7 1272.37   69.59 
  -4   3   7 1365.06   77.09 
   4   3  -7 1278.67   74.39 
   4   3  -7 1254.57   74.09 
  -3  -3   7 1809.22   99.09 
   3  -3  -7 1680.13   96.09 
  -3  -3   7 1713.93  102.59 
   3  -3  -7 1748.03   96.19 
   3  -3  -7 1471.65   96.49 
  -3  -3   7 1778.62   97.89 
   3   3  -7 1699.73   98.29 
   3   3  -7 1635.74   98.49 
  -3   3   7 1936.81   95.49 
  -3   3   7 1740.83   94.39 
  -3   3   7 1802.22   98.59 
   3   3  -7 1676.43   98.99 
  -3   3   7 1863.21   93.09 
   2  -3  -7 2902.61  170.18 
  -2  -3   7 3206.78  173.08 
  -2  -3   7 3092.79  173.38 
  -2  -3   7 2963.20  176.58 
   2  -3  -7 2976.80  170.68 
   2  -3  -7 3262.37  171.38 
  -2   3   7 3084.69  171.68 
  -2   3   7 3363.16  168.78 
   2   3  -7 3025.60  174.08 
  -2   3   7 3452.45  169.48 
   2   3  -7 3064.89  173.08 
   2   3  -7 3321.37  175.98 
   2   3  -7 3140.59  175.38 
   2   3  -7 3215.38  174.38 
  -1  -3   7  477.05   31.20 
  -1  -3   7  463.95   33.90 
   1  -3  -7  446.56   29.60 
   1  -3  -7  493.55   30.00 
  -1  -3   7  421.46   31.40 
  -1  -3   7  450.35   31.00 
   1  -3  -7  462.35   29.00 
   1   3  -7  474.55   32.60 
  -1   3   7  470.65   28.40 
  -1   3   7  538.85   27.10 
   1   3  -7  505.95   31.50 
   1   3  -7  471.05   31.60 
  -1   3   7  507.65   26.80 
   1   3  -7  469.55   32.90 
  -1   3   7  534.05   28.10 
   1   3  -7  510.75   32.40 
   0  -3  -7  112.09   10.00 
   0  -3   7  114.09   11.00 
   0  -3  -7   97.29    8.90 
   0  -3   7  102.39   10.10 
   0  -3   7   95.89   11.60 
   0  -3  -7  116.89    9.90 
   0   3   7  123.59    7.60 
   0   3  -7  103.79   11.50 
   0   3  -7  119.59   10.70 
   0   3   7  119.99    8.60 
   0   3  -7  118.29   11.30 
  -1  -3  -7  191.88   14.60 
   1  -3   7  170.48   14.60 
  -1  -3  -7  176.98   14.70 
   1  -3   7  192.68   17.20 
   1  -3   7  181.58   15.60 
  -1  -3  -7  173.28   13.20 
  -1   3  -7  192.38   14.90 
  -1   3  -7  171.28   16.20 
   1   3   7  204.58   13.20 
   1   3   7  195.38   12.10 
  -1   3  -7  196.68   16.10 
  -1   3  -7  171.08   15.90 
   2  -3   7  296.37   20.30 
   2  -3   7  269.67   21.50 
  -2  -3  -7  255.17   20.30 
  -2  -3  -7  290.77   19.10 
  -2   3  -7  229.58   24.90 
  -2   3  -7  294.97   20.30 
   2   3   7  295.67   15.90 
   2   3   7  289.57   17.60 
  -2   3  -7  241.18   20.80 
   3  -3   7   54.69    8.60 
  -3  -3  -7   41.00    5.20 
   3  -3   7   42.50    6.70 
  -3  -3  -7   42.30    6.70 
  -3  -3  -7   32.60    5.30 
  -3   3  -7   44.40    6.40 
   3   3   7   41.90    4.00 
  -3   3  -7   39.60    6.70 
   3   3   7   38.90    4.80 
   4  -3   7  254.97   19.00 
   4  -3   7  235.68   20.60 
  -4  -3  -7  245.08   18.20 
  -4  -3  -7  223.98   20.00 
  -4  -3  -7  244.38   18.00 
  -4   3  -7  252.67   19.60 
   4   3   7  246.58   16.00 
  -4   3  -7  250.47   18.70 
   5  -3   7   78.59    9.80 
  -5  -3  -7   62.09    9.80 
   5  -3   7   63.79    8.60 
  -5  -3  -7   63.39    7.90 
  -5  -3  -7   66.29    8.20 
  -5   3  -7   51.79    7.70 
  -5   3  -7   55.69    7.80 
   5   3   7   53.69    6.70 
  -6  -3  -7   54.39    8.80 
  -6  -3  -7   47.50    9.70 
  -6  -3  -7   42.50    7.10 
   6  -3   7   37.20    7.50 
  -6   3  -7   50.09    7.80 
   6   3   7   49.20    6.40 
  -6   3  -7   39.50    7.20 
   7  -3   7  198.98   18.00 
  -7  -3  -7  171.68   21.90 
  -7  -3  -7  189.18   18.40 
  -7   3  -7  230.28   18.60 
   9  -4  -7    4.30    3.20 
  -9  -4   7   -4.40    4.30 
  -9  -4   7    6.00    4.60 
  -9  -4   7    8.90    5.40 
  -9   4   7   -0.90    5.20 
   9   4  -7    0.00    3.90 
   8  -4  -7  462.65   30.20 
   8  -4  -7  459.35   29.90 
  -8  -4   7  372.66   32.70 
  -8  -4   7  422.96   38.50 
  -8  -4   7  435.96   33.10 
  -8   4   7  445.86   27.50 
   8   4  -7  477.65   33.60 
  -8   4   7  476.45   32.50 
   8   4  -7  463.15   35.10 
   7  -4  -7  262.07   20.70 
  -7  -4   7  322.17   29.90 
   7  -4  -7  314.07   21.60 
  -7  -4   7  328.07   25.30 
  -7  -4   7  284.17   24.80 
  -7   4   7  292.07   18.20 
   7   4  -7  294.17   24.30 
   7   4  -7  286.47   24.50 
  -7   4   7  327.27   17.50 
  -7   4   7  320.97   23.10 
  -6  -4   7  101.99    9.90 
  -6  -4   7   78.49   12.80 
  -6  -4   7   68.89   10.90 
   6  -4  -7   93.29    8.60 
   6  -4  -7   90.39    8.60 
  -6  -4   7   81.69   10.70 
  -6   4   7   80.69    6.10 
  -6   4   7   95.99    9.90 
  -6   4   7   92.99    5.70 
   6   4  -7   92.59   11.10 
   6   4  -7   90.09   11.30 
  -5  -4   7  102.39   17.60 
   5  -4  -7  115.99    9.70 
  -5  -4   7   92.09   11.20 
   5  -4  -7   99.69    9.20 
  -5  -4   7  113.89   10.80 
  -5   4   7  133.79   10.80 
  -5   4   7  112.89    7.50 
   5   4  -7   87.89   11.20 
  -5   4   7  117.19    7.10 
   5   4  -7  114.99   12.40 
   4  -4  -7   44.30    5.40 
  -4  -4   7   44.40    6.20 
   4  -4  -7   51.69    5.80 
  -4  -4   7   36.10    9.30 
   4  -4  -7   50.49    7.30 
  -4  -4   7   43.80    8.00 
  -4   4   7   66.69    6.60 
  -4   4   7   48.40    7.70 
  -4   4   7   56.69    5.10 
   4   4  -7   49.20    8.20 
   4   4  -7   54.69    7.90 
  -4   4   7   53.09    4.40 
  -3  -4   7   74.99    8.50 
  -3  -4   7   47.80   10.20 
  -3  -4   7   67.79    7.80 
   3  -4  -7   58.19    5.70 
   3  -4  -7   53.09    5.50 
  -3   4   7   58.79    4.90 
  -3   4   7   48.10    5.50 
  -3   4   7   37.10    6.70 
  -3   4   7   41.10    4.90 
   3   4  -7   53.79    8.40 
   3   4  -7   52.09    7.60 
  -2  -4   7  372.76   25.20 
  -2  -4   7  361.46   29.60 
  -2  -4   7  367.16   25.50 
   2  -4  -7  385.16   23.10 
   2  -4  -7  358.46   23.70 
   2  -4  -7  351.96   22.50 
  -2   4   7  360.66   25.00 
  -2   4   7  336.77   22.20 
  -2   4   7  399.36   22.30 
   2   4  -7  391.96   26.20 
   2   4  -7  373.86   26.40 
  -2   4   7  317.17   23.20 
   1  -4  -7 2216.78  121.19 
  -1  -4   7 2175.88  124.39 
  -1  -4   7 2306.87  124.79 
   1  -4  -7 2182.28  121.89 
   1  -4  -7 2154.88  123.59 
  -1  -4   7 2193.58  129.49 
   1   4  -7 2332.17  125.39 
   1   4  -7 2292.47  125.69 
  -1   4   7 2440.26  121.49 
  -1   4   7 1993.60  120.49 
  -1   4   7 2150.78  122.49 
   0  -4   7  997.30   64.79 
   0  -4  -7  971.40   57.39 
   0  -4   7 1033.10   61.19 
   0  -4  -7  942.91   60.09 
   0  -4  -7 1040.90   58.69 
   0  -4   7 1046.30   60.49 
   0   4  -7 1022.10   60.89 
   0   4   7 1106.09   58.09 
   0   4   7  967.70   57.29 
   0   4  -7 1057.69   61.49 
   1  -4   7   37.60    8.60 
   1  -4   7   37.30    6.40 
  -1  -4  -7   36.70    4.80 
  -1  -4  -7   30.90    6.90 
   1  -4   7   36.20    6.90 
   1   4   7   30.40    4.00 
  -1   4  -7   40.10    7.40 
   1   4   7   41.30    4.20 
  -1   4  -7   39.70    8.50 
  -2  -4  -7  264.07   18.80 
  -2  -4  -7  266.97   18.70 
   2  -4   7  307.17   21.10 
   2  -4   7  286.77   22.10 
  -2  -4  -7  259.47   21.70 
  -2   4  -7  306.17   21.80 
   2   4   7  316.37   17.60 
   2   4   7  269.07   16.20 
  -2   4  -7  262.07   23.00 
   3  -4   7 1148.79   70.69 
   3  -4   7 1172.08   72.89 
  -3  -4  -7 1161.68   69.59 
  -3  -4  -7 1130.29   72.89 
  -3  -4  -7 1168.68   69.09 
  -3   4  -7 1270.77   71.89 
   3   4   7 1379.46   67.29 
  -3   4  -7 1220.38   74.19 
  -4  -4  -7   20.90    6.70 
   4  -4   7   22.60    5.40 
   4  -4   7   19.30    5.10 
  -4  -4  -7   22.70    5.50 
   4   4   7   33.00    4.00 
  -4   4  -7   33.80    6.80 
  -4   4  -7   32.50    7.50 
   4   4   7   23.40    3.70 
  -5  -4  -7  219.58   18.40 
   5  -4   7  237.48   22.00 
   5  -4   7  222.78   18.80 
  -5  -4  -7  217.18   19.60 
  -5  -4  -7  212.38   21.10 
  -5   4  -7  259.47   20.00 
  -5   4  -7  270.97   21.40 
   5   4   7  215.58   16.40 
   5   4   7  279.07   17.30 
  -6  -4  -7  165.78   16.70 
   6  -4   7  172.48   16.60 
  -6  -4  -7  174.08   18.90 
  -6   4  -7  206.08   18.40 
  -6   4  -7  202.38   17.40 
  -7  -4  -7   44.30   11.20 
   7  -4   7   54.99    9.30 
  -7  -4  -7   43.50    9.50 
  -7   4  -7   47.80    8.90 
  -7   4  -7   53.39    9.20 
  -8  -5   7   47.20   10.50 
   8  -5  -7   33.60    6.30 
  -8  -5   7   40.20    9.10 
  -8  -5   7   42.00   12.50 
   8   5  -7   42.90   10.30 
  -8   5   7   44.70    9.20 
  -7  -5   7   66.39   10.80 
  -7  -5   7   54.29   13.80 
   7  -5  -7   72.29    8.00 
  -7  -5   7   49.00   11.00 
   7  -5  -7   68.29    7.60 
   7   5  -7   59.29   11.80 
  -7   5   7   71.19    5.50 
  -7   5   7   79.69    9.50 
  -6  -5   7  258.27   26.90 
   6  -5  -7  267.37   18.50 
  -6  -5   7  257.57   22.10 
   6  -5  -7  265.97   18.60 
  -6  -5   7  236.88   23.10 
   6   5  -7  286.37   24.20 
  -6   5   7  257.67   17.50 
  -6   5   7  258.27   21.10 
  -6   5   7  285.67   16.30 
   6   5  -7  275.27   22.10 
   5  -5  -7  257.57   17.00 
   5  -5  -7  247.88   16.90 
  -5  -5   7  250.47   19.00 
  -5  -5   7  249.78   20.90 
  -5  -5   7  251.27   25.80 
  -5   5   7  239.68   15.60 
  -5   5   7  240.38   16.40 
  -5   5   7  258.47   19.00 
   5   5  -7  233.58   21.30 
   5   5  -7  227.68   19.90 
  -4  -5   7   97.59    9.90 
   4  -5  -7   94.79    8.00 
  -4  -5   7   75.99   12.80 
  -4  -5   7   86.79   10.60 
   4  -5  -7   86.09    7.80 
   4   5  -7  104.29   12.20 
  -4   5   7   94.59    9.40 
  -4   5   7   94.29    8.10 
  -4   5   7   94.19    8.10 
   4   5  -7  108.29   11.00 
  -3  -5   7  368.06   26.70 
   3  -5  -7  379.56   23.10 
  -3  -5   7  409.46   26.30 
   3  -5  -7  391.66   23.10 
  -3  -5   7  371.36   36.90 
   3   5  -7  364.56   26.40 
   3   5  -7  333.07   27.50 
  -3   5   7  376.46   23.60 
  -3   5   7  363.06   24.30 
  -3   5   7  389.76   24.90 
  -3   5   7  331.17   27.20 
  -2  -5   7  424.96   28.70 
   2  -5  -7  399.96   30.70 
  -2  -5   7  385.66   33.90 
  -2  -5   7  386.36   28.80 
   2  -5  -7  434.46   25.50 
   2  -5  -7  455.55   26.00 
   2   5  -7  444.16   29.40 
   2   5  -7  422.56   30.90 
   1  -5  -7  125.79    9.10 
   1  -5  -7  133.89   12.40 
  -1  -5   7  135.49   12.10 
  -1  -5   7  130.09   12.30 
   1  -5  -7  125.69    9.60 
  -1  -5   7  120.59   15.40 
  -1   5   7  104.89    9.90 
   1   5  -7  115.99   11.50 
   1   5  -7   98.79   12.10 
  -1   5   7  114.59   11.60 
  -1   5   7  129.09   10.40 
  -1   5   7   97.49   10.70 
   0  -5  -7  107.29   12.00 
   0  -5   7  117.89   11.40 
   0  -5  -7  133.09    9.40 
   0  -5   7  113.59   11.60 
   0  -5   7  103.49   13.90 
   0   5  -7  138.79   13.50 
   0   5   7  101.19    9.70 
   0   5  -7  111.49   14.00 
   0   5   7  119.39   10.60 
   1  -5   7   81.99    9.90 
  -1  -5  -7   90.69    9.10 
  -1  -5  -7   81.79   10.60 
   1  -5   7   92.59   12.90 
  -1  -5  -7   91.69    7.80 
   1  -5   7   82.99    9.50 
   1   5   7   73.59    8.10 
  -1   5  -7   84.59   10.80 
  -1   5  -7   95.89   12.70 
   1   5   7   79.99    8.00 
   2  -5   7  596.34   40.30 
  -2  -5  -7  552.84   40.90 
   2  -5   7  595.34   39.90 
  -2  -5  -7  587.34   36.30 
  -2  -5  -7  615.64   38.40 
   2   5   7  654.63   36.60 
   2   5   7  580.04   37.60 
  -2   5  -7  593.84   43.30 
  -2   5  -7  682.43   41.50 
   3  -5   7   86.19   10.60 
  -3  -5  -7   98.99    9.40 
   3  -5   7  107.29   13.10 
  -3  -5  -7  104.69   13.00 
  -3  -5  -7  102.89   10.90 
  -3   5  -7  107.09   11.90 
   3   5   7  106.79    9.00 
  -3   5  -7  100.89   13.30 
  -4  -5  -7  219.78   19.20 
  -4  -5  -7  209.18   21.00 
   4  -5   7  257.17   19.40 
   4  -5   7  248.78   21.10 
  -4  -5  -7  216.18   18.40 
  -4   5  -7  222.58   21.50 
  -4   5  -7  236.08   19.90 
   4   5   7  249.18   16.50 
  -5  -5  -7  131.39   14.80 
  -5  -5  -7  129.39   15.10 
   5  -5   7  137.99   14.10 
  -5  -5  -7  145.29   16.80 
  -5   5  -7  171.68   17.40 
  -5   5  -7  174.38   15.90 
  -6  -5  -7   29.00    8.40 
   6  -5   7   35.20    7.50 
  -6  -5  -7   38.90    8.80 
  -6   5  -7   46.30    8.80 
  -6   5  -7   36.70    8.80 
   7  -6  -7  176.98   14.40 
  -7  -6   7  187.38   21.10 
  -7  -6   7  194.48   19.50 
  -7  -6   7  152.28   23.00 
   7   6  -7  181.18   20.30 
  -7   6   7  228.78   18.80 
   6  -6  -7    1.70    1.80 
  -6  -6   7    2.70    6.00 
  -6  -6   7    5.10    3.80 
   6  -6  -7    2.00    2.00 
   6   6  -7    3.20    3.40 
  -6   6   7   -0.80    2.90 
   5  -6  -7  150.08   11.00 
  -5  -6   7  140.49   13.70 
   5  -6  -7  146.59   11.30 
  -5  -6   7  111.09   17.60 
  -5  -6   7  135.09   14.50 
   5   6  -7  110.89   15.40 
  -5   6   7  147.09   11.40 
  -5   6   7  174.18   14.70 
  -4  -6   7   25.70    6.20 
  -4  -6   7   27.10    7.10 
   4  -6  -7   31.30    4.60 
   4  -6  -7   34.00    4.70 
  -4  -6   7   31.10   10.10 
  -4   6   7   31.90    6.60 
   4   6  -7   33.20    6.90 
  -4   6   7   35.90    5.30 
  -4   6   7   33.30    5.10 
   4   6  -7   34.70    8.10 
  -3  -6   7  387.66   34.80 
   3  -6  -7  384.56   22.90 
   3  -6  -7  369.16   23.10 
  -3  -6   7  369.86   26.50 
  -3  -6   7  406.76   28.30 
   3   6  -7  370.96   26.90 
  -3   6   7  371.26   25.30 
   3   6  -7  369.16   29.70 
  -3   6   7  356.36   25.80 
  -3   6   7  400.26   26.80 
  -2  -6   7  689.33   44.00 
   2  -6  -7  719.93   39.00 
   2  -6  -7  689.13   39.30 
  -2  -6   7  651.43   51.39 
  -2  -6   7  655.83   43.00 
   2   6  -7  651.33   46.40 
  -2   6   7  647.84   43.10 
  -2   6   7  710.83   43.00 
   1  -6  -7   77.79    6.50 
  -1  -6   7   78.49    9.30 
   1  -6  -7   69.69    6.70 
   1  -6  -7   72.99   10.00 
  -1  -6   7   75.09   13.50 
  -1  -6   7   74.29    9.50 
  -1   6   7   81.09   10.00 
  -1   6   7   68.69    9.60 
  -1   6   7   78.39    9.10 
   1   6  -7   81.79   11.20 
   1   6  -7   78.29    9.20 
   0  -6   7  561.54   43.60 
   0  -6  -7  527.35   37.80 
   0  -6   7  521.45   35.50 
   0  -6  -7  568.24   31.70 
   0  -6   7  567.74   36.60 
   0   6  -7  551.14   38.40 
   0   6  -7  495.65   40.80 
   0   6   7  527.35   35.40 
   0   6   7  511.75   34.80 
  -1  -6  -7   95.09    9.20 
  -1  -6  -7   84.79   11.50 
   1  -6   7   76.79   10.00 
   1  -6   7   84.79    9.90 
   1  -6   7   85.89   14.20 
  -1  -6  -7   92.59   10.50 
   1   6   7   86.59    9.50 
  -1   6  -7   90.09   11.50 
  -1   6  -7   77.89   13.00 
   1   6   7   91.39   10.00 
  -2  -6  -7  139.39   11.40 
  -2  -6  -7  153.18   16.50 
   2  -6   7  133.49   13.50 
  -2  -6  -7  148.19   14.40 
   2  -6   7  140.69   14.70 
  -2   6  -7  159.08   18.20 
   2   6   7  137.49   13.50 
  -2   6  -7  154.48   15.60 
   2   6   7  155.68   12.80 
   3  -6   7  190.38   19.40 
  -3  -6  -7  216.78   15.60 
  -3  -6  -7  208.68   20.80 
   3  -6   7  198.18   17.20 
  -3  -6  -7  220.78   18.80 
  -3   6  -7  211.88   19.20 
  -3   6  -7  193.38   21.00 
   4  -6   7   73.99    9.20 
  -4  -6  -7   64.49   13.00 
  -4  -6  -7   70.39   10.50 
  -4  -6  -7   72.89    8.00 
  -4   6  -7   61.29   13.10 
  -4   6  -7   67.79   10.30 
   5  -6   7    7.00    4.20 
  -5  -6  -7    7.20    5.70 
  -5  -6  -7    2.40    5.20 
  -5   6  -7    7.10    6.20 
  -5   6  -7    3.80    3.60 
  -5  -7   7  110.79   13.40 
   5  -7  -7  100.49    9.90 
  -5  -7   7  116.49   18.50 
   5   7  -7  128.89   16.60 
  -5   7   7  130.39   11.30 
  -5   7   7  128.89   13.60 
  -4  -7   7  279.67   30.60 
   4  -7  -7  273.37   17.50 
   4  -7  -7  272.27   17.00 
  -4  -7   7  272.47   23.00 
  -4   7   7  257.87   20.40 
   4   7  -7  253.67   25.00 
  -4   7   7  288.57   22.50 
  -3  -7   7   13.60    6.40 
   3  -7  -7   19.00    3.00 
   3  -7  -7   29.30    3.40 
  -3  -7   7   17.70    5.70 
  -3   7   7   32.20    6.80 
  -3   7   7   22.40    5.20 
   3   7  -7   22.00    6.80 
  -2  -7   7   25.10   10.60 
   2  -7  -7   34.50    3.70 
  -2  -7   7   45.30   12.10 
   2  -7  -7   33.30    3.80 
  -2  -7   7   42.20    8.00 
  -2   7   7   39.70    7.90 
  -2   7   7   25.20    6.90 
   2   7  -7   30.00    8.40 
  -1  -7   7  281.37   28.70 
  -1  -7   7  233.98   19.90 
  -1  -7   7  247.88   20.50 
   1  -7  -7  255.07   15.40 
   1  -7  -7  228.18   21.30 
   1   7  -7  240.78   22.90 
  -1   7   7  205.98   20.60 
  -1   7   7  261.47   20.60 
   0  -7   7  169.58   16.30 
   0  -7   7  184.88   19.40 
   0  -7  -7  188.98   19.10 
   0  -7  -7  184.28   12.50 
   0  -7   7  201.78   23.70 
   0   7  -7  201.68   19.50 
   0   7   7  147.39   17.30 
   0   7  -7  170.98   21.20 
   0   7   7  197.28   17.30 
  -1  -7  -7    4.40    4.30 
   1  -7   7    9.10    3.60 
  -1  -7  -7   -2.00    1.80 
   1  -7   7    5.90    5.20 
   1   7   7   -1.80    3.00 
  -1   7  -7    3.30    4.70 
  -1   7  -7    5.10    3.90 
   2  -7   7   39.90    7.00 
  -2  -7  -7   34.50    8.10 
  -2  -7  -7   28.40    7.90 
  -2  -7  -7   37.20    5.50 
   2   7   7   27.70    6.80 
  -2   7  -7   40.20   10.10 
  -3  -7  -7   89.99    9.20 
  -3  -7  -7   84.29   15.40 
   3  -7   7   79.89   16.10 
  -3  -7  -7  105.49   13.60 
  -3   7  -7  101.19   13.40 
   3   7   7   94.59   11.60 
  -2  -8   7  172.18   24.30 
  -2  -8   7  192.68   17.70 
  -2   8   7  184.78   18.30 
   2   8  -7  181.98   20.10 
  -2   8   7  187.48   18.10 
   1  -8  -7  199.78   12.30 
  -1  -8   7  219.28   26.10 
  -1  -8   7  194.38   18.10 
  -1   8   7  213.98   19.20 
   1   8  -7  182.88   23.70 
   1   8  -7  182.08   20.70 
  -1   8   7  210.48   20.50 
   0  -8  -7    2.50    5.20 
   0  -8   7    4.80    3.80 
   0  -8   7   15.30    9.20 
   0  -8  -7   11.50    2.50 
   0   8  -7    4.20    4.60 
   0   8   7   -3.20    4.20 
   0   8  -7    0.30    5.00 
  10   0  -8   -4.00    3.40 
 -10   0   8   -2.00    4.10 
   9   0  -8   12.00    4.80 
  -9   0   8   20.70    3.90 
  -9   0   8   15.50    6.30 
  -9   0   8   23.30    5.70 
   9   0  -8   17.80    3.60 
   8   0  -8  209.38   17.00 
  -8   0   8  173.78   18.50 
   8   0  -8  197.78   12.80 
  -8   0   8  204.78   17.70 
   8   0  -8  210.58   17.70 
  -8   0   8  187.58   13.00 
   7   0  -8  522.65   35.20 
   7   0  -8  537.25   34.60 
  -7   0   8  501.45   36.80 
  -7   0   8  547.45   35.40 
  -6   0   8   64.89    8.10 
   6   0  -8   60.89    7.90 
  -6   0   8   54.79    8.50 
   6   0  -8   53.19    7.30 
  -5   0   8  837.42   54.09 
   5   0  -8  904.61   53.59 
   5   0  -8 1009.30   52.19 
  -5   0   8  694.63   58.79 
   5   0  -8  903.91   53.19 
   4   0  -8 1415.76   84.99 
  -4   0   8 1385.36   85.49 
   4   0  -8 1502.75   85.89 
   4   0  -8 1661.83   83.59 
  -4   0   8 1499.15   85.19 
   3   0  -8    2.50    2.60 
   3   0  -8    5.30    1.30 
   3   0  -8    9.60    2.50 
  -3   0   8    6.00    2.60 
   3   0  -8    7.20    1.50 
   3   0  -8    7.90    3.10 
  -3   0   8    3.70    2.30 
  -2   0   8  258.47   25.30 
   2   0  -8  327.17   22.40 
  -2   0   8  297.17   20.50 
   2   0  -8  326.17   18.10 
   2   0  -8  303.07   21.50 
  -2   0   8  306.97   21.00 
  -2   0   8  287.47   19.20 
   2   0  -8  356.66   19.10 
   1   0  -8  374.36   20.90 
   1   0  -8  357.36   24.20 
   1   0  -8  387.56   21.40 
   1   0  -8  369.06   25.20 
  -1   0   8  360.46   23.70 
  -1   0   8  411.86   29.20 
  -1   0   8  328.67   21.90 
  -1   0   8  327.77   22.10 
   0   0  -8 1225.18   68.99 
   0   0  -8 1122.89   65.39 
   0   0  -8 1203.68   64.69 
   0   0  -8 1310.77   66.39 
   0   0   8 1054.99   66.79 
   0   0  -8 1266.87   70.49 
   0   0   8 1182.88   68.09 
   0   0   8 1213.58   70.09 
   1   0   8  875.11   53.29 
   1   0   8  890.91   53.69 
  -1   0  -8  922.71   54.79 
  -1   0  -8  939.91   56.19 
  -1   0  -8  926.11   51.19 
  -1   0  -8 1001.40   52.79 
   2   0   8  583.74   36.60 
  -2   0  -8  553.24   37.30 
  -2   0  -8  617.84   33.60 
  -2   0  -8  634.34   36.10 
  -3   0  -8 1726.03  101.49 
   3   0   8 1607.04   99.99 
  -3   0  -8 1999.10  100.29 
  -3   0  -8 1709.23   99.69 
  -3   0  -8 1880.81   97.49 
  -4   0  -8    2.00    2.80 
  -4   0  -8    8.50    2.80 
   4   0   8    5.70    2.30 
   4   0   8    3.10    2.10 
  -4   0  -8    2.40    2.90 
  -4   0  -8   10.00    4.10 
  -5   0  -8   14.30    4.90 
   5   0   8   27.50    5.60 
  -5   0  -8   22.50    5.90 
  -5   0  -8   26.40    5.10 
   5   0   8   26.70    5.30 
  -6   0  -8  846.92   53.09 
  -6   0  -8  955.30   55.49 
   6   0   8  876.01   54.69 
  -7   0  -8    6.20    4.20 
  -7   0  -8   17.90    5.50 
  10  -1  -8   58.09    9.70 
 -10  -1   8   68.29   13.90 
  10   1  -8   63.49   10.30 
 -10   1   8   51.59   13.70 
  -9  -1   8  165.58   16.00 
  -9  -1   8  139.99   17.80 
   9  -1  -8  155.58   14.90 
   9   1  -8  151.18   15.30 
  -9   1   8  141.89   16.60 
  -8  -1   8  229.78   22.70 
  -8  -1   8  236.88   21.10 
   8  -1  -8  259.97   19.90 
   8  -1  -8  227.78   19.50 
  -8  -1   8  242.58   17.90 
   8   1  -8  240.98   20.70 
  -8   1   8  252.37   19.80 
   8   1  -8  215.28   17.00 
  -8   1   8  255.67   22.00 
   8   1  -8  283.17   15.80 
   7  -1  -8   54.49    7.60 
  -7  -1   8   78.39    9.40 
  -7  -1   8   70.19    7.00 
  -7  -1   8   40.70    9.80 
   7  -1  -8   50.89    8.30 
   7   1  -8   58.49    9.90 
   7   1  -8   74.19    8.40 
   7   1  -8   53.09    6.30 
  -7   1   8   65.09    8.30 
  -7   1   8   64.89    9.30 
   7   1  -8   78.39    5.60 
  -6  -1   8   93.29   10.00 
   6  -1  -8   78.09    8.70 
   6  -1  -8   78.69    9.00 
  -6  -1   8   70.69   10.40 
   6   1  -8   96.09    6.40 
   6   1  -8   89.89    9.80 
  -6   1   8   86.59    9.10 
   6   1  -8   72.29    8.60 
  -6   1   8   77.09    9.70 
   6   1  -8   73.49    6.90 
  -5  -1   8   65.19    8.20 
   5  -1  -8   69.89    7.50 
   5  -1  -8   69.99    8.30 
   5  -1  -8   65.69    8.00 
  -5  -1   8   74.39    9.70 
   5   1  -8   83.49    8.70 
  -5   1   8   69.59    8.30 
  -5   1   8   70.99    7.80 
   5   1  -8   67.79    8.60 
   5   1  -8   72.49    6.20 
   5   1  -8   82.39    6.10 
   4  -1  -8  161.48   13.10 
   4  -1  -8  155.98   13.30 
  -4  -1   8  158.28   13.60 
   4  -1  -8  166.18   12.00 
  -4  -1   8  147.29   14.50 
   4   1  -8  150.68   10.60 
   4   1  -8  157.68   11.00 
  -4   1   8  163.68   13.00 
   4   1  -8  175.48   13.10 
  -4   1   8  142.29   12.30 
   4   1  -8  157.88   14.00 
   4   1  -8  151.98   13.30 
  -3  -1   8  880.11   53.59 
   3  -1  -8  869.91   51.79 
   3  -1  -8  903.31   52.49 
  -3  -1   8  927.01   52.69 
   3  -1  -8  865.81   49.40 
  -3  -1   8  926.11   51.69 
  -3   1   8  870.81   50.89 
   3   1  -8  887.81   53.39 
   3   1  -8  806.02   49.90 
   3   1  -8  879.21   52.39 
   3   1  -8  862.21   49.00 
   3   1  -8  908.21   51.19 
  -3   1   8  841.92   50.69 
  -2  -1   8 2145.59  117.99 
   2  -1  -8 2285.97  117.99 
  -2  -1   8 2161.68  116.99 
  -2  -1   8 1993.50  115.59 
   2  -1  -8 2052.09  113.59 
  -2  -1   8 2096.99  117.19 
   2  -1  -8 2156.38  113.19 
   2  -1  -8 2150.38  116.89 
   2   1  -8 2145.29  117.69 
  -2   1   8 1989.60  113.39 
  -2   1   8 2004.50  115.49 
   2   1  -8 2157.28  114.29 
  -2   1   8 1998.10  114.39 
   2   1  -8 1977.70  115.89 
   2   1  -8 2110.69  118.49 
   2   1  -8 2236.18  116.09 
  -1  -1   8   53.79    6.50 
   1  -1  -8   63.69    5.60 
   1  -1  -8   72.29    7.40 
  -1  -1   8   57.09    7.10 
  -1  -1   8   67.39    7.30 
  -1  -1   8   61.69    7.30 
   1  -1  -8   69.69    7.80 
  -1   1   8   69.19    5.80 
  -1   1   8   80.29    7.00 
   1   1  -8   72.99    8.30 
   1   1  -8   76.59    8.10 
   1   1  -8   71.19    6.20 
   1   1  -8   81.69    7.20 
   0  -1   8  484.25   29.30 
   0  -1   8  359.06   32.50 
   0  -1   8  442.36   29.80 
   0  -1  -8  445.76   28.90 
   0  -1  -8  484.15   27.30 
   0  -1   8  484.25   29.00 
   0  -1  -8  469.65   30.20 
   0   1  -8  474.55   27.40 
   0   1  -8  445.06   30.50 
   0   1  -8  410.56   27.70 
   0   1  -8  472.55   29.80 
   0   1   8  464.45   27.90 
   0   1  -8  436.76   28.00 
   0   1   8  452.65   27.10 
  -1  -1  -8 1687.03   88.19 
   1  -1   8 1378.66   88.79 
  -1  -1  -8 1669.43   91.19 
   1  -1   8 1652.23   91.19 
  -1  -1  -8 1606.94   89.59 
   1  -1   8 1524.15   89.29 
  -1   1  -8 1493.55   88.59 
   1   1   8 1546.45   88.19 
  -1   1  -8 1624.74   90.19 
  -1   1  -8 1479.65   87.49 
  -1   1  -8 1732.63   88.09 
   1   1   8 1574.94   87.79 
  -1   1  -8 1648.73   91.69 
  -2  -1  -8  257.77   17.80 
   2  -1   8  250.17   19.20 
   2  -1   8  187.28   16.40 
  -2  -1  -8  256.77   17.00 
  -2   1  -8  219.98   19.40 
  -2   1  -8  254.17   16.60 
   2   1   8  235.58   16.50 
  -2   1  -8  206.18   16.80 
  -2   1  -8  227.28   15.40 
   3  -1   8  242.98   19.50 
  -3  -1  -8  288.17   20.60 
  -3  -1  -8  293.97   20.00 
  -3  -1  -8  267.07   17.10 
  -3   1  -8  310.57   18.40 
   3   1   8  276.47   19.30 
  -3   1  -8  280.07   20.90 
  -3   1  -8  253.77   20.40 
  -3   1  -8  287.17   19.30 
  -4  -1  -8  287.27   21.30 
  -4  -1  -8  257.47   18.40 
   4  -1   8  292.67   21.10 
  -4  -1  -8  298.67   21.20 
  -4  -1  -8  295.77   20.00 
  -4   1  -8  317.67   20.70 
  -4   1  -8  317.27   19.20 
  -4   1  -8  261.57   21.80 
   4   1   8  289.07   20.20 
   4   1   8  247.98   18.90 
  -5  -1  -8   11.30    4.40 
  -5  -1  -8   10.00    3.00 
   5  -1   8    7.70    3.90 
  -5  -1  -8   14.90    4.60 
  -5  -1  -8   11.80    6.90 
  -5   1  -8   11.70    4.10 
   5   1   8   17.10    4.10 
  -5   1  -8   17.40    4.00 
   5   1   8   10.50    3.40 
  -6  -1  -8   51.99    8.50 
   6  -1   8   52.39    8.50 
  -6  -1  -8   53.39    7.30 
  -6   1  -8   62.79    8.30 
  -6   1  -8   54.49    7.30 
   6   1   8   60.69    7.60 
   7  -1   8   65.49    8.60 
  -7  -1  -8   46.20    7.60 
  -7  -1  -8   57.19   10.90 
  -7   1  -8   64.09   14.60 
  -7   1  -8   41.00   11.90 
 -10  -2   8   19.90    7.80 
 -10  -2   8    6.50    4.70 
  10   2  -8   30.60    7.60 
 -10   2   8   13.80    6.70 
  10   2  -8    5.60    4.90 
  -9  -2   8   41.10    7.70 
  -9  -2   8   25.30   10.20 
   9  -2  -8   55.29    8.90 
  -9  -2   8   75.29   11.40 
   9   2  -8   39.70    9.00 
  -9   2   8   47.30   10.20 
   9   2  -8   55.99    7.80 
  -8  -2   8  249.88   19.30 
  -8  -2   8  250.07   21.20 
   8  -2  -8  258.67   19.20 
   8  -2  -8  210.58   18.30 
  -8  -2   8  192.98   22.20 
  -8   2   8  214.18   20.20 
   8   2  -8  282.77   16.50 
  -8   2   8  240.18   18.40 
   8   2  -8  242.68   20.80 
   8   2  -8  216.78   18.10 
  -7  -2   8   16.60    6.80 
  -7  -2   8   14.60    8.20 
   7  -2  -8   40.00    7.10 
   7  -2  -8   24.20    5.50 
  -7  -2   8   24.40    5.70 
  -7   2   8   25.30    6.50 
   7   2  -8   29.30    4.20 
  -7   2   8   16.00    4.20 
   7   2  -8   16.50    4.80 
   6  -2  -8  471.15   29.20 
  -6  -2   8  442.36   30.90 
  -6  -2   8  425.46   33.30 
   6  -2  -8  463.25   29.30 
   6   2  -8  460.05   27.10 
   6   2  -8  409.76   28.00 
  -6   2   8  403.16   29.20 
  -6   2   8  434.26   27.90 
   6   2  -8  417.86   30.80 
   5  -2  -8 1294.77   77.79 
  -5  -2   8 1287.97   82.29 
  -5  -2   8 1166.18   78.79 
   5  -2  -8 1448.06   78.19 
   5  -2  -8 1419.76   77.89 
  -5   2   8 1337.37   76.29 
   5   2  -8 1425.56   76.59 
   5   2  -8 1376.86   76.99 
   5   2  -8 1281.77   79.59 
  -5   2   8 1372.86   77.69 
   5   2  -8 1498.95   79.49 
  -4  -2   8 1176.78   63.29 
  -4  -2   8 1090.89   67.19 
   4  -2  -8 1045.90   62.19 
  -4  -2   8  972.20   63.89 
   4  -2  -8 1158.68   63.29 
   4   2  -8 1005.60   64.69 
   4   2  -8 1112.89   62.39 
  -4   2   8 1051.69   61.89 
  -4   2   8 1073.99   61.09 
   4   2  -8 1100.99   62.09 
   4   2  -8 1112.79   63.99 
  -3  -2   8  418.76   29.20 
   3  -2  -8  343.67   25.10 
   3  -2  -8  370.16   24.00 
   3  -2  -8  433.06   26.20 
  -3  -2   8  378.06   26.40 
  -3  -2   8  441.26   26.40 
  -3   2   8  341.97   23.60 
   3   2  -8  405.26   24.90 
   3   2  -8  375.06   25.50 
   3   2  -8  436.36   27.20 
   3   2  -8  388.86   26.40 
  -3   2   8  384.26   23.70 
   3   2  -8  356.76   26.80 
  -2  -2   8  697.13   46.10 
   2  -2  -8  669.53   43.20 
  -2  -2   8  753.32   49.10 
   2  -2  -8  759.62   45.80 
   2  -2  -8  725.43   43.20 
  -2  -2   8  804.52   47.50 
   2  -2  -8  762.22   46.40 
  -2   2   8  783.92   44.10 
   2   2  -8  847.92   47.70 
   2   2  -8  830.02   45.70 
   2   2  -8  763.02   47.00 
  -2   2   8  831.12   44.20 
   2   2  -8  814.22   55.39 
  -2   2   8  798.82   42.60 
  -2   2   8  791.02   43.40 
   2   2  -8  804.72   48.60 
  -1  -2   8  886.71   57.89 
   1  -2  -8 1081.59   58.79 
  -1  -2   8 1010.70   58.69 
  -1  -2   8  973.40   59.89 
  -1  -2   8 1024.10   59.09 
   1  -2  -8  961.00   55.89 
   1   2  -8  988.70   57.69 
  -1   2   8 1013.90   58.39 
   1   2  -8  971.50   58.69 
   1   2  -8 1026.60   60.19 
  -1   2   8 1031.20   54.89 
   1   2  -8  965.20   58.89 
   0  -2  -8  509.85   31.10 
   0  -2  -8  518.65   33.00 
   0  -2   8  435.66   32.20 
   0  -2   8  523.15   32.90 
   0  -2   8  504.65   33.50 
   0  -2   8  514.95   34.00 
   0   2  -8  467.65   32.70 
   0   2   8  514.65   30.30 
   0   2  -8  505.45   34.20 
   0   2  -8  518.85   33.10 
   0   2  -8  511.75   33.40 
   0   2   8  560.34   30.10 
   0   2  -8  564.74   31.90 
   1  -2   8  482.65   40.90 
  -1  -2  -8  557.14   34.20 
  -1  -2  -8  494.55   32.50 
  -1  -2  -8  551.14   32.70 
   1  -2   8  527.55   33.50 
  -1   2  -8  508.75   33.40 
  -1   2  -8  537.65   34.00 
  -1   2  -8  560.44   32.60 
  -1   2  -8  432.36   33.80 
  -1   2  -8  503.25   34.10 
   1   2   8  561.94   31.40 
   1   2   8  530.05   31.30 
  -2  -2  -8 3002.20  164.28 
   2  -2   8 3023.10  166.88 
  -2  -2  -8 2931.61  164.28 
   2  -2   8 2916.01  164.68 
  -2   2  -8 3115.49  163.78 
  -2   2  -8 2962.00  164.28 
   2   2   8 2956.70  162.48 
   3  -2   8  464.05   32.50 
  -3  -2  -8  448.26   29.90 
  -3  -2  -8  471.05   30.80 
  -3  -2  -8  459.55   26.30 
   3  -2   8  481.75   30.70 
  -3   2  -8  495.35   29.90 
   3   2   8  484.15   29.00 
   3   2   8  404.96   26.00 
  -3   2  -8  489.75   29.90 
  -3   2  -8  420.86   31.90 
  -4  -2  -8  433.46   28.20 
  -4  -2  -8  432.16   31.10 
  -4  -2  -8  442.46   30.50 
   4  -2   8  471.45   31.10 
  -4   2  -8  503.35   30.00 
  -4   2  -8  501.55   30.40 
   4   2   8  473.85   29.50 
   4   2   8  421.76   27.60 
  -5  -2  -8  275.97   21.10 
  -5  -2  -8  283.57   22.70 
  -5  -2  -8  295.97   23.80 
   5  -2   8  311.97   22.80 
   5   2   8  318.67   21.90 
  -5   2  -8  334.97   22.70 
   5   2   8  288.57   20.70 
  -5   2  -8  353.56   22.40 
  -6  -2  -8  206.38   24.30 
   6  -2   8  200.78   17.10 
  -6  -2  -8  163.68   17.10 
  -6  -2  -8  175.28   15.60 
   6   2   8  185.18   15.40 
  -6   2  -8  202.08   15.90 
  -6   2  -8  207.78   17.10 
   7  -2   8   26.90    6.70 
  -7  -2  -8   16.10    5.30 
  -7  -2  -8   17.80    6.40 
  -7   2  -8   19.00    6.00 
  -7   2  -8   21.30    5.80 
  -9  -3   8   30.30   15.70 
  -9  -3   8   23.00    6.20 
   9  -3  -8   34.00    6.60 
  -9  -3   8   35.30    8.80 
   9   3  -8   21.60    6.30 
   9   3  -8   30.90    7.30 
  -9   3   8   24.30    7.80 
  -8  -3   8  148.09   15.00 
  -8  -3   8  133.39   15.60 
   8  -3  -8  136.29   13.70 
  -8  -3   8  173.08   20.30 
   8  -3  -8  148.89   13.60 
   8   3  -8  137.99   14.10 
  -8   3   8  141.79   14.90 
   8   3  -8  145.79   15.10 
   7  -3  -8   75.29    8.70 
  -7  -3   8   69.49   10.80 
  -7  -3   8   61.29    9.50 
  -7  -3   8   84.79   13.00 
   7   3  -8   96.09   12.30 
   7   3  -8   67.69    9.20 
  -7   3   8   66.09    9.50 
  -6  -3   8  151.68   18.70 
   6  -3  -8  164.48   13.60 
  -6  -3   8  170.48   15.80 
   6  -3  -8  176.28   14.00 
   6   3  -8  164.98   14.70 
  -6   3   8  159.18   14.40 
   6   3  -8  177.28   16.20 
   5  -3  -8  492.25   30.60 
  -5  -3   8  502.65   31.40 
  -5  -3   8  504.85   33.50 
  -5  -3   8  484.95   36.70 
   5   3  -8  416.86   32.40 
  -5   3   8  475.35   30.30 
   5   3  -8  478.95   31.80 
   5   3  -8  462.55   31.10 
  -4  -3   8 1569.64   83.99 
  -4  -3   8 1260.27   85.99 
   4  -3  -8 1460.25   80.79 
   4  -3  -8 1402.76   81.39 
  -4  -3   8 1516.55   81.99 
   4   3  -8 1432.86   82.09 
  -4   3   8 1471.75   79.89 
   4   3  -8 1405.56   82.19 
   4   3  -8 1286.87   83.09 
   3  -3  -8 1706.83   93.69 
  -3  -3   8 1804.92   96.59 
   3  -3  -8 1736.43   93.99 
   3  -3  -8 1430.26   92.99 
  -3  -3   8 1658.63   99.79 
  -3  -3   8 1762.72   95.39 
   3   3  -8 1748.63   95.29 
   3   3  -8 1648.44   95.89 
  -3   3   8 1812.62   89.39 
  -3   3   8 1566.74   91.69 
  -3   3   8 1726.03   94.79 
   3   3  -8 1490.05   95.99 
  -2  -3   8  730.53   42.20 
   2  -3  -8  683.93   40.60 
  -2  -3   8  708.33   42.40 
   2  -3  -8  635.24   38.70 
  -2  -3   8  686.63   42.60 
  -2  -3   8  659.63   45.10 
   2  -3  -8  655.73   39.90 
   2   3  -8  591.44   42.10 
   2   3  -8  657.33   42.80 
  -2   3   8  733.23   37.20 
  -2   3   8  670.63   39.40 
   2   3  -8  681.83   41.50 
  -2   3   8  618.34   37.50 
  -1  -3   8   49.00    8.00 
  -1  -3   8   52.09    6.80 
   1  -3  -8   41.80    6.50 
  -1  -3   8   45.90    7.50 
   1  -3  -8   39.00    5.00 
   1  -3  -8   39.40    5.20 
  -1   3   8   30.80    3.70 
   1   3  -8   38.90    7.60 
  -1   3   8   27.80    3.20 
   1   3  -8   37.30    5.70 
   1   3  -8   31.60    6.70 
   0  -3  -8 1408.16   83.99 
   0  -3   8 1521.75   85.59 
   0  -3  -8 1575.04   84.99 
   0  -3   8 1507.95   88.49 
   0  -3  -8 1475.05   83.49 
   0  -3   8 1491.05   86.39 
   0   3  -8 1378.16   86.29 
   0   3  -8 1418.36   87.09 
   0   3   8 1546.55   81.09 
   0   3  -8 1563.24   85.09 
   0   3  -8 1361.16   86.59 
   0   3   8 1571.64   82.09 
   1  -3   8  413.76   29.00 
   1  -3   8  437.96   30.80 
  -1  -3  -8  447.66   28.00 
  -1  -3  -8  387.06   26.10 
  -1  -3  -8  409.06   27.50 
   1  -3   8  432.86   28.00 
  -1   3  -8  385.76   28.80 
  -1   3  -8  369.86   28.40 
   1   3   8  447.76   25.50 
  -1   3  -8  404.76   27.20 
   1   3   8  413.36   24.40 
  -1   3  -8  355.16   28.90 
   2  -3   8  283.67   22.20 
   2  -3   8  269.47   20.60 
  -2  -3  -8  253.87   20.70 
   2   3   8  280.47   18.10 
  -2   3  -8  293.47   20.60 
  -2   3  -8  290.07   21.90 
   3  -3   8    5.40    3.10 
  -3  -3  -8    4.30    2.80 
  -3  -3  -8   12.80    4.30 
   3  -3   8    0.30    3.50 
   3   3   8    6.10    1.50 
  -3   3  -8    8.80    3.50 
   3   3   8   10.00    2.60 
  -4  -3  -8  171.98   13.30 
  -4  -3  -8  172.38   16.30 
  -4  -3  -8  164.68   14.60 
   4  -3   8  173.38   15.30 
   4  -3   8  185.48   17.90 
   4   3   8  171.38   13.30 
   4   3   8  156.28   11.80 
  -4   3  -8  192.48   15.30 
  -4   3  -8  182.38   15.80 
  -5  -3  -8   94.59   11.20 
   5  -3   8  125.99   12.40 
  -5  -3  -8   88.29   10.10 
  -5  -3  -8  107.69   13.10 
  -5   3  -8  114.79   11.40 
   5   3   8   92.09    8.90 
   5   3   8  100.89   10.00 
  -5   3  -8  119.49   11.80 
  -6  -3  -8  302.17   26.10 
   6  -3   8  264.27   29.80 
  -6  -3  -8  290.97   23.30 
  -6   3  -8  347.17   24.40 
  -6   3  -8  335.47   24.30 
   7  -3   8   47.00    8.80 
  -7  -3  -8   33.30    7.90 
  -7  -3  -8   42.80    9.90 
  -7   3  -8   52.99    8.40 
  -7   3  -8   49.90    8.10 
  -9  -4   8  289.97   31.50 
  -9  -4   8  334.47   27.40 
  -9  -4   8  303.17   26.70 
   9  -4  -8  316.17   23.90 
  -9   4   8  330.87   27.00 
   9   4  -8  298.17   25.80 
  -8  -4   8  133.69   16.10 
  -8  -4   8  152.48   22.60 
   8  -4  -8  104.89   11.60 
  -8  -4   8  109.79   18.10 
  -8   4   8  131.99   14.30 
   8   4  -8  139.49   14.80 
  -7  -4   8    3.40    6.70 
   7  -4  -8    5.70    3.60 
  -7  -4   8    6.00    4.00 
  -7  -4   8   17.40    5.70 
   7  -4  -8   14.80    4.00 
  -7   4   8    8.80    4.50 
   7   4  -8   17.30    5.50 
   7   4  -8    8.50    5.20 
   6  -4  -8  446.06   29.40 
   6  -4  -8  437.26   29.40 
  -6  -4   8  468.95   33.40 
   6   4  -8  417.46   32.10 
   6   4  -8  457.75   33.20 
  -6   4   8  502.55   30.90 
  -5  -4   8  162.38   20.00 
   5  -4  -8  168.58   14.10 
   5  -4  -8  185.28   14.30 
  -5  -4   8  184.68   15.30 
  -5  -4   8  203.78   17.80 
  -5   4   8  197.18   14.90 
   5   4  -8  186.08   17.10 
   5   4  -8  213.08   17.70 
   4  -4  -8  280.57   19.30 
  -4  -4   8  289.97   26.10 
   4  -4  -8  286.27   19.40 
  -4  -4   8  284.07   20.70 
   4  -4  -8  229.68   20.20 
  -4  -4   8  277.27   22.20 
  -4   4   8  303.87   15.70 
   4   4  -8  278.07   21.90 
   4   4  -8  300.57   22.80 
  -4   4   8  255.07   21.60 
  -4   4   8  300.77   19.20 
  -3  -4   8   31.80    8.30 
   3  -4  -8   33.70    4.40 
   3  -4  -8   34.10    8.00 
  -3  -4   8   31.40    5.70 
  -3  -4   8   26.50    6.60 
  -3   4   8   25.90    5.70 
   3   4  -8   37.40    7.40 
  -3   4   8   26.60    3.50 
   3   4  -8   33.50    6.80 
  -3   4   8   30.40    3.10 
  -3   4   8   26.70    4.00 
   2  -4  -8  465.95   28.70 
  -2  -4   8  478.95   31.40 
   2  -4  -8  430.86   28.40 
  -2  -4   8  430.86   34.50 
   2  -4  -8  445.26   28.10 
  -2  -4   8  478.25   30.90 
  -2   4   8  485.65   26.60 
   2   4  -8  449.95   31.60 
  -2   4   8  427.56   26.50 
   2   4  -8  488.75   31.60 
  -2   4   8  432.26   29.00 
  -1  -4   8  235.88   18.30 
  -1  -4   8  207.08   17.90 
  -1  -4   8  193.08   20.30 
   1  -4  -8  233.38   16.70 
   1  -4  -8  216.98   15.60 
   1  -4  -8  215.28   17.00 
   1   4  -8  241.28   18.90 
  -1   4   8  224.18   16.00 
   1   4  -8  250.37   19.20 
  -1   4   8  232.68   13.80 
  -1   4   8  236.78   15.00 
   0  -4  -8  797.92   52.99 
   0  -4   8  924.61   54.99 
   0  -4   8  842.72   57.69 
   0  -4  -8  899.21   52.49 
   0  -4   8  834.02   53.49 
   0  -4  -8  923.91   51.29 
   0   4  -8  931.71   54.99 
   0   4  -8  900.21   54.29 
   0   4   8  903.81   48.40 
   0   4   8  956.70   50.69 
   0   4  -8  782.12   55.89 
   1  -4   8 1215.38   71.49 
  -1  -4  -8 1250.27   69.19 
  -1  -4  -8 1163.98   71.79 
   1  -4   8 1235.88   76.29 
   1  -4   8 1226.98   72.79 
  -1   4  -8 1261.77   72.09 
  -1   4  -8 1137.69   73.99 
   2  -4   8  890.81   55.69 
  -2  -4  -8  849.22   54.29 
  -2  -4  -8  832.02   56.29 
   2  -4   8  947.01   57.79 
   2   4   8 1019.90   49.80 
  -2   4  -8  976.60   56.39 
  -2   4  -8  857.61   57.89 
  -3  -4  -8   70.79   10.50 
  -3  -4  -8   70.39    6.90 
  -3  -4  -8   78.89    8.20 
   3  -4   8   73.59    9.10 
   3  -4   8   66.79   11.30 
   3   4   8   81.79    6.00 
   3   4   8   78.29    6.40 
  -3   4  -8   80.59   10.70 
  -3   4  -8   76.89    9.40 
   4  -4   8  148.59   17.00 
  -4  -4  -8  156.08   13.30 
   4  -4   8  168.28   16.80 
  -4  -4  -8  146.79   16.00 
   4   4   8  181.18   11.90 
  -4   4  -8  181.78   15.70 
  -5  -4  -8  682.43   59.69 
   5  -4   8  822.12   68.79 
  -5  -4  -8  783.72   55.49 
  -5  -4  -8  801.72   51.49 
   5  -4   8  879.81   53.29 
  -5   4  -8  916.01   53.19 
  -5   4  -8  927.81   54.79 
   6  -4   8   34.50    7.40 
  -6  -4  -8   36.10    7.90 
  -6   4  -8   52.19    8.20 
  -6   4  -8   48.20    8.20 
  -8  -5   8  122.39   19.00 
   8  -5  -8  106.19   11.30 
  -8  -5   8   91.19   14.20 
  -8  -5   8  123.39   14.90 
   8   5  -8  108.89   14.60 
  -8   5   8  146.79   15.10 
  -7  -5   8   72.79   11.40 
   7  -5  -8   61.99    8.00 
  -7  -5   8   61.69   14.50 
  -7   5   8   73.99   10.00 
   7   5  -8   61.99   11.60 
  -6  -5   8   33.00   10.50 
  -6  -5   8   42.30    7.60 
   6  -5  -8   38.80    6.40 
  -6  -5   8   27.60    7.20 
   6  -5  -8   29.90    5.60 
   6   5  -8   34.00    7.80 
   6   5  -8   38.80    9.00 
  -6   5   8   50.29   12.30 
  -5  -5   8   36.50    8.20 
   5  -5  -8   43.10    5.70 
   5  -5  -8   49.80    5.50 
  -5  -5   8   29.40   10.00 
  -5   5   8   43.80    3.70 
  -5   5   8   42.20    6.60 
  -4  -5   8  440.36   30.10 
   4  -5  -8  424.16   27.60 
  -4  -5   8  403.66   36.40 
  -4  -5   8  417.56   31.30 
   4  -5  -8  451.25   28.00 
   4   5  -8  449.66   32.80 
  -4   5   8  455.85   26.10 
   4   5  -8  447.56   31.90 
  -4   5   8  437.46   26.50 
  -4   5   8  484.95   28.90 
  -3  -5   8   51.59   11.80 
   3  -5  -8   59.39    6.30 
  -3  -5   8   63.69    8.60 
   3  -5  -8   52.89    5.90 
  -3  -5   8   53.09    8.10 
   3   5  -8   59.79    8.90 
   3   5  -8   67.19    8.80 
  -3   5   8   52.69    5.30 
  -3   5   8   50.19    6.00 
  -3   5   8   55.29    6.40 
  -3   5   8   47.30    7.90 
   2  -5  -8    4.50    2.10 
  -2  -5   8    2.90    3.20 
  -2  -5   8    3.70    2.40 
   2  -5  -8    3.60    2.50 
   2  -5  -8    4.10    2.20 
  -2   5   8    2.90    3.10 
   2   5  -8    0.20    2.40 
   2   5  -8    6.10    3.30 
  -2   5   8    7.00    2.50 
  -1  -5   8  300.87   28.80 
  -1  -5   8  336.67   24.80 
  -1  -5   8  351.56   25.20 
   1  -5  -8  328.37   24.50 
   1  -5  -8  324.27   22.20 
   1  -5  -8  335.67   21.60 
   1   5  -8  335.07   29.40 
   1   5  -8  341.87   25.10 
  -1   5   8  372.56   21.60 
  -1   5   8  343.77   22.00 
  -1   5   8  338.07   23.00 
   0  -5  -8  659.13   37.90 
   0  -5   8  618.34   40.60 
   0  -5  -8  604.44   40.50 
   0  -5   8  599.94   45.30 
   0  -5  -8  602.34   36.60 
   0  -5   8  624.74   40.10 
   0   5   8  609.84   35.90 
   0   5  -8  575.74   43.60 
   0   5  -8  644.44   41.60 
   0   5  -8  621.84   40.60 
   0   5   8  603.04   36.50 
  -1  -5  -8  180.28   17.40 
  -1  -5  -8  178.48   13.90 
   1  -5   8  182.48   17.20 
   1  -5   8  159.98   18.00 
   1   5   8  192.18   13.20 
  -1   5  -8  210.38   17.80 
  -1   5  -8  182.08   20.10 
   1   5   8  199.28   13.00 
   2  -5   8  132.69   15.40 
  -2  -5  -8  158.98   16.10 
   2  -5   8  169.98   14.80 
  -2  -5  -8  150.28   12.50 
   2   5   8  180.28   11.30 
  -2   5  -8  159.28   15.60 
  -2   5  -8  143.59   16.90 
   2   5   8  159.08   12.00 
   3  -5   8    8.20    3.60 
  -3  -5  -8    2.40    3.80 
  -3  -5  -8    2.50    2.80 
  -3   5  -8   16.90    5.60 
   3   5   8    9.60    2.50 
  -3   5  -8    9.30    5.30 
  -4  -5  -8  113.29   11.50 
  -4  -5  -8  111.89   14.20 
   4  -5   8  106.49   12.20 
  -4  -5  -8  105.69   10.70 
  -4   5  -8  130.99   13.30 
  -4   5  -8  113.19   13.70 
  -5  -5  -8    8.10    4.30 
  -5  -5  -8   12.40    6.90 
   5  -5   8   17.70    5.60 
  -5   5  -8    7.10    4.50 
  -5   5  -8    2.80    4.70 
  -7  -6   8   75.19   12.90 
   7  -6  -8   72.49    8.50 
  -7   6   8   79.19   10.60 
   7   6  -8   55.99   12.10 
  -6  -6   8   51.89   17.10 
   6  -6  -8   73.89    8.20 
  -6  -6   8   78.79   12.80 
   6  -6  -8   87.69    8.20 
   6   6  -8   78.19   12.70 
  -6   6   8  101.99   11.20 
   5  -6  -8  238.98   16.10 
  -5  -6   8  203.38   25.40 
   5  -6  -8  238.78   16.40 
  -5  -6   8  213.58   20.30 
  -5   6   8  229.38   15.10 
   5   6  -8  196.28   21.50 
  -4  -6   8   34.70    8.10 
  -4  -6   8   30.60    9.90 
   4  -6  -8   38.30    4.80 
   4  -6  -8   32.90    5.00 
  -4  -6   8   15.10    5.90 
   4   6  -8   32.30    8.10 
  -4   6   8   34.80    6.00 
  -3  -6   8  185.18   16.70 
   3  -6  -8  177.48   12.80 
  -3  -6   8  150.28   20.30 
   3  -6  -8  172.28   12.40 
  -3  -6   8  155.78   15.50 
  -3   6   8  190.08   14.70 
  -3   6   8  157.78   13.80 
  -3   6   8  161.48   13.00 
   3   6  -8  180.08   15.90 
   3   6  -8  163.88   17.50 
  -2  -6   8  143.49   14.10 
  -2  -6   8  142.69   19.00 
   2  -6  -8  142.79   10.80 
   2  -6  -8  140.69   11.10 
  -2  -6   8  132.69   14.00 
   2   6  -8  139.99   13.90 
  -2   6   8  126.39   13.90 
   2   6  -8  149.49   16.20 
  -2   6   8  149.49   13.80 
  -2   6   8  161.58   12.70 
   1  -6  -8  129.19   13.40 
  -1  -6   8  130.29   13.20 
   1  -6  -8  115.79    9.40 
   1  -6  -8  116.79    9.70 
  -1  -6   8  117.59   12.50 
  -1  -6   8  103.49   16.10 
  -1   6   8   96.59   12.10 
  -1   6   8  121.39   12.10 
   1   6  -8  114.59   13.80 
   1   6  -8  129.79   12.70 
  -1   6   8  128.59   10.90 
   0  -6  -8  151.58   11.40 
   0  -6   8  134.29   14.30 
   0  -6   8  145.99   18.90 
   0  -6  -8  139.19   15.10 
   0  -6   8  161.78   14.50 
   0   6   8  156.78   13.30 
   0   6  -8  153.68   15.90 
   0   6   8  156.78   12.50 
   0   6  -8  125.39   17.20 
   1  -6   8   24.50    6.20 
   1  -6   8    8.60    6.30 
   1  -6   8   14.90    4.80 
  -1   6  -8   11.00    5.20 
   1   6   8   10.10    3.30 
  -1   6  -8   -0.20    4.70 
  -2  -6  -8  460.05   27.70 
   2  -6   8  424.16   30.10 
  -2  -6  -8  408.36   32.80 
  -2   6  -8  432.76   32.20 
  -2   6  -8  425.26   35.30 
   2   6   8  397.26   27.90 
  -3  -6  -8  133.09   12.20 
  -3  -6  -8  138.29   19.00 
   3  -6   8  165.98   14.80 
  -3  -6  -8  133.79   16.50 
  -3   6  -8  160.28   15.80 
  -3   6  -8  124.69   16.80 
   4  -6   8   19.50    5.80 
  -4  -6  -8   21.80    5.80 
  -4  -6  -8   14.90    6.70 
  -4   6  -8   12.90    6.30 
  -4   6  -8   22.60    7.20 
  -5  -7   8   21.30    8.80 
   5  -7  -8   16.80    3.60 
   5  -7  -8   11.60    3.40 
  -5   7   8   15.90    5.30 
   5   7  -8   20.70   11.20 
  -4  -7   8   -2.50    4.10 
   4  -7  -8    4.60    2.20 
  -4  -7   8    1.60    4.30 
  -4   7   8    0.50    2.90 
   4   7  -8    9.20    5.40 
  -4   7   8    2.20    3.30 
   3  -7  -8  134.49   10.50 
   3  -7  -8  131.99    9.90 
  -3  -7   8  154.48   21.60 
  -3  -7   8  141.09   15.10 
  -3   7   8  134.59   13.30 
  -3   7   8  156.28   13.90 
   3   7  -8  121.29   16.30 
  -2  -7   8  211.38   19.00 
  -2  -7   8  225.98   25.90 
   2  -7  -8  212.78   14.40 
   2  -7  -8  206.88   14.60 
  -2   7   8  236.48   18.20 
  -2   7   8  202.78   18.90 
   2   7  -8  243.68   22.70 
   1  -7  -8  113.19   14.20 
   1  -7  -8  111.29    8.90 
  -1  -7   8   93.69   19.20 
  -1  -7   8  115.09   12.80 
   1   7  -8  111.79   14.50 
  -1   7   8  116.29   11.80 
  -1   7   8  105.69   15.50 
   1   7  -8  106.59   16.10 
   0  -7  -8   88.39    7.80 
   0  -7   8   67.89   15.10 
   0  -7  -8   78.39   11.90 
   0  -7   8   89.59   11.30 
   0   7   8   90.39   12.20 
   0   7  -8   78.79   14.20 
   0   7   8   85.39    9.90 
   0   7  -8   96.19   13.10 
  -1  -7  -8  359.26   23.60 
   1  -7   8  438.96   37.90 
   1  -7   8  429.26   28.80 
  -1  -7  -8  300.17   29.10 
   1   7   8  348.67   26.00 
  -1   7  -8  349.77   33.20 
  -1   7  -8  388.06   34.10 
  -2  -7  -8   -1.70    4.00 
  -2  -7  -8    7.70    3.40 
   2   7   8    9.50    3.40 
  -2   7  -8    9.60    4.70 
   9   0  -9   23.10    6.60 
  -9   0   9   21.50    8.20 
  -8   0   9    8.00    3.90 
  -8   0   9    9.50    4.80 
   8   0  -9    7.30    3.70 
   8   0  -9    6.50    4.00 
  -7   0   9    6.30    4.10 
  -7   0   9    7.80    4.10 
   7   0  -9   11.00    3.90 
   7   0  -9    8.40    4.00 
   6   0  -9  328.47   26.40 
  -6   0   9  364.56   27.90 
   6   0  -9  380.36   26.60 
  -6   0   9  426.06   30.00 
   5   0  -9 2137.49  123.39 
  -5   0   9 2123.39  123.69 
   5   0  -9 2274.77  122.89 
   4   0  -9   94.79   11.60 
  -4   0   9   96.19    9.50 
   4   0  -9   86.49    9.90 
  -4   0   9   78.69    9.70 
   4   0  -9   97.59    9.90 
   3   0  -9  928.21   58.59 
   3   0  -9  874.71   53.69 
   3   0  -9  966.90   57.99 
   3   0  -9 1071.99   54.89 
   3   0  -9 1026.40   52.89 
  -3   0   9  959.10   57.29 
   2   0  -9  264.67   20.70 
  -2   0   9  223.88   17.90 
  -2   0   9  253.17   17.50 
   2   0  -9  263.57   19.90 
   2   0  -9  300.27   16.40 
  -2   0   9  273.37   20.00 
   2   0  -9  308.77   16.80 
  -1   0   9    8.20    3.30 
   1   0  -9    8.20    2.60 
  -1   0   9    6.70    1.80 
   1   0  -9    5.40    1.50 
   1   0  -9    8.90    1.70 
   1   0  -9    8.00    3.40 
   1   0  -9    5.40    1.90 
  -1   0   9    5.20    2.00 
   0   0  -9  202.28   16.70 
   0   0   9  177.18   14.30 
   0   0  -9  157.38   14.40 
   0   0  -9  200.78   13.40 
   1   0   9    1.40    1.60 
  -1   0  -9    4.00    2.40 
  -1   0  -9    1.30    2.00 
   1   0   9   -0.30    1.50 
  -1   0  -9    2.00    2.30 
  -2   0  -9    0.60    2.20 
   2   0   9   -1.30    1.60 
  -2   0  -9    4.50    1.40 
  -2   0  -9    0.30    2.00 
  -3   0  -9   17.00    3.10 
  -3   0  -9   18.00    5.20 
   3   0   9   25.70    4.90 
  -3   0  -9   25.50    5.00 
  -3   0  -9   22.40    4.30 
   4   0   9  201.48   16.10 
  -4   0  -9  208.48   17.00 
  -4   0  -9  195.28   13.70 
  -4   0  -9  171.48   15.20 
  -4   0  -9  214.38   16.20 
  -5   0  -9 1042.00   61.39 
  -5   0  -9  989.10   64.09 
  -5   0  -9 1181.08   64.69 
   5   0   9 1069.99   63.99 
  -6   0  -9   34.10    6.20 
  -6   0  -9   56.09    8.40 
   6   0   9   44.60    8.30 
  -7   0  -9    0.30    3.10 
  -7   0  -9   -1.20    3.50 
   9  -1  -9   91.09   11.60 
  -9  -1   9   83.99   14.20 
  -9   1   9   95.19   12.90 
   9   1  -9  104.29   12.50 
   9   1  -9   73.29    7.80 
  -8  -1   9   21.50    6.40 
   8  -1  -9   17.30    4.90 
  -8  -1   9   16.90    6.60 
   8  -1  -9   27.40    5.60 
  -8   1   9   11.00    4.40 
   8   1  -9   24.00    6.10 
   8   1  -9   21.00    3.60 
   8   1  -9   19.60    3.00 
  -8   1   9   20.20    6.60 
  -7  -1   9  217.78   19.00 
   7  -1  -9  221.98   17.60 
   7  -1  -9  206.08   18.00 
  -7  -1   9  182.88   22.30 
   7   1  -9  206.08   13.90 
  -7   1   9  217.58   17.40 
  -7   1   9  202.68   18.80 
   7   1  -9  198.58   18.70 
   7   1  -9  243.38   13.10 
   6  -1  -9  314.27   23.70 
  -6  -1   9  334.87   24.40 
  -6  -1   9  279.47   25.50 
   6  -1  -9  330.97   23.50 
   6   1  -9  306.17   24.30 
   6   1  -9  367.46   18.70 
  -6   1   9  304.37   24.00 
   6   1  -9  307.87   19.10 
  -6   1   9  311.27   22.80 
   6   1  -9  317.67   23.60 
  -5  -1   9  115.89   13.40 
   5  -1  -9  116.99   10.80 
  -5  -1   9  116.49   12.40 
   5  -1  -9  137.79   12.60 
   5   1  -9  122.49   13.60 
   5   1  -9  130.09    8.80 
   5   1  -9  144.29   13.40 
  -5   1   9  150.98   12.00 
   5   1  -9  126.79    8.70 
  -5   1   9  136.99   12.70 
  -4  -1   9   67.99    9.50 
  -4  -1   9   70.09    8.80 
   4  -1  -9   81.99    7.60 
   4  -1  -9   90.09    9.70 
   4  -1  -9   94.19    9.50 
   4   1  -9   86.59    6.40 
   4   1  -9   84.99    9.70 
  -4   1   9   88.29    8.60 
  -4   1   9   77.79    8.50 
   4   1  -9  105.59    9.30 
   4   1  -9   89.89   10.20 
   4   1  -9   80.59    7.00 
   3  -1  -9   49.30    6.50 
  -3  -1   9   41.80    7.30 
  -3  -1   9   39.40    6.50 
   3  -1  -9   42.90    4.60 
   3  -1  -9   45.70    7.30 
  -3   1   9   31.80    4.90 
   3   1  -9   47.10    5.30 
   3   1  -9   46.20    7.70 
   3   1  -9   41.80    5.90 
   3   1  -9   50.59    4.40 
  -3   1   9   49.99    5.80 
   3   1  -9   43.00    7.20 
   2  -1  -9   42.60    3.60 
  -2  -1   9   37.20    6.50 
  -2  -1   9   41.00    5.40 
   2  -1  -9   38.50    3.80 
   2  -1  -9   56.09    7.00 
   2  -1  -9   40.70    6.40 
  -2  -1   9   31.90    5.60 
   2   1  -9   42.70    5.30 
  -2   1   9   42.60    4.20 
   2   1  -9   39.60    4.30 
   2   1  -9   40.50    6.80 
  -2   1   9   43.70    5.30 
   2   1  -9   43.90    8.00 
  -2   1   9   39.00    4.20 
   2   1  -9   36.40    5.40 
   1  -1  -9  235.78   17.20 
  -1  -1   9  201.98   16.50 
  -1  -1   9  197.08   16.20 
   1  -1  -9  244.58   14.60 
  -1  -1   9  205.68   16.00 
   1  -1  -9  231.48   17.90 
   1   1  -9  226.68   17.50 
   1   1  -9  221.58   15.50 
   1   1  -9  242.08   14.90 
  -1   1   9  227.38   15.80 
  -1   1   9  210.58   14.60 
   1   1  -9  213.78   18.10 
   0  -1   9  962.70   60.49 
   0  -1   9 1010.50   60.19 
   0  -1   9  955.80   60.89 
   0  -1  -9 1108.09   61.59 
   0  -1  -9 1107.09   63.09 
   0  -1  -9 1139.59   59.19 
   0   1  -9  922.11   59.09 
   0   1  -9 1049.49   59.69 
   0   1   9 1047.50   59.79 
   0   1   9  993.50   58.99 
   0   1  -9 1139.29   59.29 
   0   1  -9 1076.49   62.29 
   0   1  -9 1094.39   63.79 
   1  -1   9  110.19   10.30 
  -1  -1  -9  109.59   11.60 
  -1  -1  -9  134.69    9.90 
  -1  -1  -9  117.79   10.80 
  -1   1  -9   66.09   14.30 
  -1   1  -9   86.59   10.90 
  -1   1  -9  104.09    9.60 
  -1   1  -9  120.19    9.50 
  -1   1  -9   95.79    8.40 
   1   1   9  113.79    9.50 
   2  -1   9  791.42   55.89 
  -2  -1  -9  879.41   56.89 
  -2  -1  -9  959.00   55.89 
  -2   1  -9 1076.89   55.89 
  -2   1  -9  983.90   58.09 
   2   1   9 1013.20   56.19 
  -2   1  -9  910.81   56.09 
  -2   1  -9 1017.80   54.09 
   3  -1   9 1024.20   60.79 
  -3  -1  -9 1047.90   60.39 
  -3  -1  -9 1023.90   61.39 
  -3   1  -9 1051.89   59.59 
   3   1   9  979.30   59.49 
  -3   1  -9 1095.99   57.79 
  -3   1  -9  918.51   60.19 
  -4  -1  -9  209.58   14.90 
   4  -1   9  231.88   18.30 
  -4  -1  -9  233.18   18.20 
  -4  -1  -9  233.28   18.50 
  -4  -1  -9  191.88   15.40 
  -4   1  -9  241.58   15.70 
   4   1   9  215.18   16.90 
  -4   1  -9  220.38   18.60 
  -4   1  -9  242.18   17.70 
  -5  -1  -9   38.90    6.60 
  -5  -1  -9   34.90    5.20 
   5  -1   9   34.60    6.70 
  -5  -1  -9   43.50    8.10 
  -5  -1  -9   29.70    7.50 
  -5   1  -9   28.70    5.20 
   5   1   9   51.59    6.70 
  -5   1  -9   24.20    5.70 
   5   1   9   27.70    5.40 
  -6  -1  -9   23.20    5.30 
  -6  -1  -9   16.50    5.70 
   6  -1   9   36.00    7.50 
  -6   1  -9   34.30    7.30 
  -6   1  -9   26.60    5.60 
   7  -1   9    6.40    4.10 
  -7  -1  -9    1.60    4.20 
  -7  -1  -9   -1.10    3.20 
  -7   1  -9    7.10    5.50 
  -7   1  -9    6.90    4.20 
  -9  -2   9   66.59    8.80 
   9  -2  -9   67.19   10.60 
  -9  -2   9   63.39   13.90 
  -9  -2   9   51.59   10.30 
  -9   2   9   68.19   11.00 
   9   2  -9   77.49   12.60 
   9   2  -9   56.29    8.00 
   8  -2  -9  141.49   14.30 
  -8  -2   9  131.59   17.40 
  -8  -2   9  147.09   15.90 
  -8   2   9  147.69   15.50 
   8   2  -9  139.49   12.70 
   8   2  -9  163.48   16.20 
   7  -2  -9    5.10    3.20 
  -7  -2   9   10.50    7.00 
  -7  -2   9   16.00    6.70 
   7   2  -9    4.20    3.40 
  -7   2   9   16.80    4.10 
   7   2  -9   19.70    3.40 
  -7   2   9   11.50    5.00 
   7   2  -9   12.80    3.40 
  -6  -2   9  191.98   19.70 
  -6  -2   9  222.08   18.70 
   6  -2  -9  210.78   16.90 
   6  -2  -9  213.58   16.70 
   6   2  -9  189.38   14.70 
  -6   2   9  203.88   15.10 
  -6   2   9  185.08   16.60 
   6   2  -9  206.18   14.10 
   6   2  -9  179.88   17.40 
  -5  -2   9  382.66   31.20 
  -5  -2   9  422.56   29.30 
   5  -2  -9  447.36   28.30 
   5  -2  -9  435.36   27.80 
   5  -2  -9  399.36   27.10 
  -5   2   9  409.66   25.90 
   5   2  -9  403.56   25.70 
   5   2  -9  400.26   25.80 
   5   2  -9  409.76   29.70 
  -5   2   9  375.86   27.00 
   4  -2  -9  308.47   21.40 
   4  -2  -9  279.47   19.70 
  -4  -2   9  250.77   21.20 
  -4  -2   9  278.17   23.90 
   4   2  -9  295.87   20.00 
  -4   2   9  275.07   19.80 
   4   2  -9  293.57   26.80 
   4   2  -9  339.67   22.50 
   4   2  -9  298.57   19.60 
  -4   2   9  301.57   19.30 
  -3  -2   9  502.35   36.30 
   3  -2  -9  647.94   37.20 
  -3  -2   9  601.94   39.60 
   3  -2  -9  530.65   33.60 
  -3   2   9  571.54   33.90 
  -3   2   9  499.35   33.60 
   3   2  -9  661.83   37.90 
   3   2  -9  531.35   37.70 
   3   2  -9  605.34   34.70 
   3   2  -9  550.44   35.70 
   3   2  -9  634.94   37.40 
  -2  -2   9 1697.53  107.89 
  -2  -2   9 1821.42  107.59 
  -2  -2   9 2048.79  108.69 
  -2  -2   9 1929.41  110.39 
   2  -2  -9 1849.21  104.19 
   2  -2  -9 2061.29  108.69 
  -2   2   9 1986.90  105.29 
   2   2  -9 1906.61  108.39 
   2   2  -9 1924.81  108.89 
  -2   2   9 1942.11  103.49 
   2   2  -9 2077.99  108.89 
  -2   2   9 1908.61  104.59 
   2   2  -9 1749.22  109.49 
   1  -2  -9 1778.02   93.49 
   1  -2  -9 1636.74   89.89 
  -1  -2   9 1746.13   93.69 
  -1  -2   9 1492.35   92.09 
  -1  -2   9 1581.94   93.79 
  -1  -2   9 1397.36   91.99 
   1   2  -9 1691.73   93.09 
   1   2  -9 1426.16   93.69 
  -1   2   9 1668.43   88.89 
   1   2  -9 1722.03   90.89 
  -1   2   9 1667.23   89.69 
   1   2  -9 1658.13   93.39 
   0  -2   9  247.98   20.70 
   0  -2   9  295.77   22.20 
   0  -2  -9  291.77   21.70 
   0  -2  -9  290.17   20.60 
   0  -2  -9  287.17   19.60 
   0  -2   9  286.47   21.90 
   0   2  -9  267.57   20.80 
   0   2   9  301.77   19.40 
   0   2   9  312.87   18.70 
   0   2  -9  310.37   20.00 
   0   2  -9  264.67   22.20 
   0   2  -9  301.37   21.60 
   0   2  -9  301.47   21.80 
  -1  -2  -9  969.70   56.09 
  -1  -2  -9 1007.10   58.29 
  -1  -2  -9 1003.30   56.89 
   1  -2   9  911.21   56.99 
   1  -2   9  891.91   61.89 
  -1   2  -9 1044.60   55.89 
   1   2   9  946.11   54.59 
   1   2   9  999.10   54.99 
  -1   2  -9  842.22   58.09 
  -1   2  -9  947.41   56.49 
  -1   2  -9  896.81   57.29 
  -2  -2  -9  307.27   21.90 
  -2  -2  -9  297.77   21.60 
   2  -2   9  333.07   22.70 
  -2   2  -9  314.27   21.10 
  -2   2  -9  284.07   22.50 
   2   2   9  272.97   19.80 
  -3  -2  -9  134.99   12.60 
   3  -2   9  123.89   12.00 
  -3  -2  -9  127.69   12.50 
  -3   2  -9  132.89   16.20 
   3   2   9  133.59   11.10 
  -3   2  -9  130.39   11.40 
  -3   2  -9  117.79   12.80 
   4  -2   9  382.56   29.10 
  -4  -2  -9  414.36   25.50 
  -4  -2  -9  415.46   29.60 
  -4  -2  -9  410.26   30.00 
  -4   2  -9  481.05   29.60 
  -4   2  -9  490.65   28.50 
   4   2   9  394.16   27.80 
  -5  -2  -9  294.67   21.60 
   5  -2   9  347.57   24.80 
  -5  -2  -9  332.17   24.90 
  -5  -2  -9  299.07   24.90 
  -5  -2  -9  331.57   22.30 
  -5   2  -9  338.67   22.70 
   5   2   9  313.27   22.80 
  -5   2  -9  341.37   24.00 
   6  -2   9   79.99   10.20 
  -6  -2  -9   82.99   10.90 
  -6  -2  -9   62.69    9.30 
  -6   2  -9   84.69    9.30 
  -6   2  -9   81.69   10.90 
  -9  -3   9   18.60    5.70 
  -9  -3   9    4.10    4.80 
   9  -3  -9    9.40    4.50 
  -9  -3   9   11.40    7.50 
  -9   3   9    7.10    5.90 
   9   3  -9    8.90    5.30 
   9   3  -9   25.50    6.90 
   8  -3  -9   23.50    5.20 
  -8  -3   9   20.90    7.30 
  -8  -3   9   10.70    5.90 
   8   3  -9   19.30    5.10 
   8   3  -9   13.60    6.50 
  -8   3   9   26.30    7.20 
   7  -3  -9  113.39   11.20 
  -7  -3   9  126.29   13.00 
  -7  -3   9   90.79   14.80 
  -7   3   9   89.59   13.20 
  -7   3   9   94.59    8.60 
   7   3  -9  109.49   12.90 
   7   3  -9   98.39   10.80 
  -6  -3   9   83.89   11.10 
   6  -3  -9   91.79    9.20 
   6  -3  -9   87.29    9.40 
  -6  -3   9   76.29   12.30 
  -6   3   9   77.99    9.40 
   6   3  -9   72.19    9.00 
  -6   3   9   72.19    6.90 
  -5  -3   9   44.30   10.20 
   5  -3  -9   67.19    7.80 
   5  -3  -9   57.19    7.20 
  -5  -3   9   54.59    9.10 
   5   3  -9   67.89   10.70 
   5   3  -9   65.99    8.00 
  -5   3   9   53.29    5.20 
  -5   3   9   49.00    7.00 
   5   3  -9   49.99    7.50 
   4  -3  -9  714.83   42.70 
  -4  -3   9  637.24   47.70 
   4  -3  -9  739.63   43.30 
  -4  -3   9  717.83   45.30 
   4  -3  -9  600.14   41.90 
   4   3  -9  670.73   43.40 
  -4   3   9  710.23   41.50 
  -4   3   9  714.33   39.30 
   4   3  -9  727.03   46.00 
  -4   3   9  744.13   44.30 
   4   3  -9  704.43   43.20 
   3  -3  -9  556.84   33.20 
   3  -3  -9  419.26   30.40 
  -3  -3   9  539.55   34.70 
  -3  -3   9  483.65   36.80 
  -3  -3   9  512.85   33.40 
  -3   3   9  519.35   30.20 
  -3   3   9  517.35   28.90 
   3   3  -9  515.15   32.80 
  -3   3   9  545.95   32.20 
   3   3  -9  466.85   34.40 
  -2  -3   9  273.77   19.90 
  -2  -3   9  230.28   18.70 
   2  -3  -9  251.07   18.30 
  -2  -3   9  235.48   21.30 
   2  -3  -9  243.28   16.00 
  -2   3   9  233.28   15.10 
  -2   3   9  253.37   14.60 
   2   3  -9  177.78   18.90 
   2   3  -9  246.68   18.30 
  -2   3   9  252.17   14.60 
  -1  -3   9  974.20   63.89 
   1  -3  -9 1084.99   61.09 
   1  -3  -9 1062.09   59.79 
  -1  -3   9 1048.50   61.69 
  -1  -3   9 1083.69   62.19 
   1  -3  -9  991.60   59.09 
  -1   3   9 1000.70   56.69 
  -1   3   9 1082.69   57.09 
   1   3  -9  845.72   61.59 
   1   3  -9 1072.29   60.69 
   0  -3   9  314.47   22.70 
   0  -3   9  315.47   24.70 
   0  -3   9  300.37   23.30 
   0  -3  -9  305.57   21.00 
   0  -3  -9  282.77   21.00 
   0  -3  -9  311.37   22.30 
   0   3  -9  283.87   23.10 
   0   3  -9  305.87   21.60 
   0   3   9  310.37   19.20 
   0   3   9  301.07   18.60 
   0   3  -9  294.77   23.30 
  -1  -3  -9  364.46   24.70 
   1  -3   9  320.37   25.40 
  -1  -3  -9  384.76   25.70 
  -1  -3  -9  409.06   30.00 
   1  -3   9  394.96   27.60 
  -1   3  -9  346.07   26.50 
  -1   3  -9  366.46   27.50 
  -1   3  -9  391.16   25.40 
   1   3   9  340.87   22.30 
   2  -3   9  243.58   20.30 
  -2  -3  -9  257.97   20.80 
   2  -3   9  254.67   22.00 
   2   3   9  299.47   18.30 
  -2   3  -9  282.77   21.20 
  -2   3  -9  284.67   21.70 
  -3  -3  -9  136.29   13.10 
   3  -3   9  148.59   13.90 
  -3  -3  -9  141.69   14.10 
  -3   3  -9  158.78   14.20 
   3   3   9  138.89   11.40 
  -3   3  -9  141.59   13.10 
  -4  -3  -9  379.16   29.40 
   4  -3   9  417.36   28.80 
  -4  -3  -9  383.46   28.60 
   4   3   9  393.76   25.80 
  -4   3  -9  433.76   28.50 
   4   3   9  349.47   22.50 
  -4   3  -9  441.26   28.40 
  -5  -3  -9   13.50    5.20 
  -5  -3  -9    9.40    3.60 
   5  -3   9    3.70    3.90 
  -5   3  -9   15.50    5.00 
  -5   3  -9    3.30    3.40 
   6  -3   9    9.50    4.60 
  -6   3  -9   12.70    4.70 
  -6   3  -9   15.80    5.20 
  -8  -4   9   31.90   16.00 
  -8  -4   9   58.49   14.80 
   8  -4  -9   50.19    8.20 
  -8   4   9   61.79   10.00 
   8   4  -9   44.40   11.00 
  -7  -4   9   67.89   12.30 
  -7  -4   9   83.79   13.20 
   7  -4  -9   91.19    9.80 
   7  -4  -9   68.09    8.90 
   7   4  -9   74.49   12.30 
   7   4  -9   93.09   11.20 
  -7   4   9   83.99   10.50 
  -6  -4   9  124.49   18.50 
   6  -4  -9  178.18   14.20 
  -6  -4   9  177.78   17.40 
   6  -4  -9  181.78   14.80 
   6   4  -9  167.88   17.20 
  -6   4   9  168.68   14.50 
   6   4  -9  186.18   16.70 
  -5  -4   9   26.30    8.50 
  -5  -4   9   27.50    6.80 
   5  -4  -9   24.30    5.00 
   5  -4  -9   33.30    6.30 
  -5   4   9   30.90    5.90 
   5   4  -9   30.80    6.90 
   5   4  -9   30.40    7.40 
   4  -4  -9  663.03   41.40 
  -4  -4   9  675.53   44.60 
  -4  -4   9  716.73   43.10 
   4  -4  -9  669.43   41.10 
  -4  -4   9  560.14   52.89 
  -4   4   9  713.33   40.40 
   4   4  -9  718.33   45.40 
  -4   4   9  649.14   43.40 
   4   4  -9  692.63   43.90 
   3  -4  -9  294.37   20.80 
  -3  -4   9  278.47   22.70 
  -3  -4   9  277.97   21.60 
   3  -4  -9  299.07   20.50 
  -3  -4   9  288.67   26.60 
  -3   4   9  282.47   21.00 
  -3   4   9  329.17   19.10 
   3   4  -9  310.57   22.90 
  -3   4   9  276.97   17.80 
   3   4  -9  286.67   23.40 
  -2  -4   9  402.06   30.20 
  -2  -4   9  432.56   34.70 
   2  -4  -9  420.96   28.80 
   2  -4  -9  429.66   27.90 
   2  -4  -9  447.26   28.30 
  -2   4   9  448.16   27.90 
   2   4  -9  389.06   31.20 
  -2   4   9  477.45   25.80 
  -2   4   9  487.65   25.90 
  -2   4   9  425.66   27.30 
   2   4  -9  463.55   31.00 
  -1  -4   9 1356.56   88.29 
   1  -4  -9 1503.05   82.99 
   1  -4  -9 1407.46   82.59 
   1  -4  -9 1391.36   81.39 
  -1  -4   9 1417.96   84.59 
   1   4  -9 1481.45   84.39 
  -1   4   9 1506.65   83.19 
   1   4  -9 1466.25   85.79 
   0  -4   9  141.09   13.60 
   0  -4   9  132.49   13.00 
   0  -4   9  126.89   15.70 
   0  -4  -9  121.59   11.30 
   0  -4  -9  129.29   12.80 
   0  -4  -9  145.39   12.80 
   0   4  -9  155.08   13.80 
   0   4  -9  151.08   14.30 
   0   4  -9  139.99   15.00 
  -1  -4  -9  107.19   11.80 
  -1  -4  -9  116.49   10.40 
   1  -4   9  116.79   11.90 
   1  -4   9  109.59   14.20 
  -1   4  -9  112.69   11.90 
  -1   4  -9  110.39   13.30 
  -2  -4  -9  215.88   16.70 
  -2  -4  -9  201.08   18.40 
   2  -4   9  210.38   19.20 
   2  -4   9  215.28   18.30 
  -2   4  -9  217.38   19.80 
  -2   4  -9  223.78   18.10 
  -3  -4  -9  372.56   30.60 
  -3  -4  -9  396.46   28.30 
   3  -4   9  429.46   30.10 
   3  -4   9  466.15   32.60 
  -3   4  -9  412.86   31.20 
  -3   4  -9  459.25   30.20 
   4  -4   9  257.17   21.30 
  -4  -4  -9  246.68   20.30 
  -4  -4  -9  236.18   22.50 
  -4   4  -9  264.87   22.40 
  -4   4  -9  304.87   22.00 
  -5  -4  -9  177.28   19.50 
   5  -4   9  231.58   19.00 
  -5  -4  -9  175.28   19.70 
  -5   4  -9  218.08   19.10 
  -5   4  -9  197.38   18.20 
  -7  -5   9  125.79   14.50 
  -7  -5   9  107.79   17.60 
   7  -5  -9  111.29   11.40 
  -7   5   9  117.69   12.70 
   7   5  -9  110.89   14.10 
   6  -5  -9  282.27   20.00 
  -6  -5   9  271.07   28.30 
  -6  -5   9  274.07   24.00 
   6  -5  -9  283.47   20.50 
   6   5  -9  256.97   23.30 
  -5  -5   9    7.10    5.70 
  -5  -5   9   15.40    5.40 
   5  -5  -9    3.70    2.90 
  -5  -5   9    3.70    3.90 
   5  -5  -9    9.00    3.20 
  -5   5   9    4.80    3.30 
   5   5  -9   12.00    4.00 
   5   5  -9    7.60    4.50 
   4  -5  -9   14.00    3.70 
  -4  -5   9   17.60    5.50 
  -4  -5   9   14.10    5.10 
   4  -5  -9   11.70    3.90 
  -4  -5   9    5.50    5.40 
  -4   5   9   11.40    3.50 
   4   5  -9   11.40    6.00 
   4   5  -9   27.70    6.60 
  -4   5   9   12.40    2.10 
   3  -5  -9  215.28   15.80 
  -3  -5   9  207.88   17.90 
   3  -5  -9  203.08   16.00 
  -3  -5   9  201.78   22.80 
  -3  -5   9  193.98   19.30 
  -3   5   9  233.38   13.80 
  -3   5   9  257.57   18.90 
  -3   5   9  197.98   14.90 
   3   5  -9  197.78   19.70 
  -2  -5   9  359.76   32.80 
  -2  -5   9  400.66   28.60 
  -2  -5   9  349.37   28.00 
   2  -5  -9  379.46   26.40 
   2  -5  -9  370.36   25.70 
   2  -5  -9  410.86   25.40 
   2   5  -9  393.66   29.40 
   2   5  -9  384.96   29.00 
  -2   5   9  449.66   24.10 
  -2   5   9  380.46   26.00 
   1  -5  -9  149.79   11.80 
   1  -5  -9  150.98   12.70 
   1  -5  -9  125.19   13.00 
  -1  -5   9  154.68   15.50 
  -1  -5   9  154.08   18.30 
  -1  -5   9  129.99   14.10 
  -1   5   9  142.79   12.60 
   1   5  -9  137.59   14.10 
  -1   5   9  159.68    9.80 
  -1   5   9  140.09   10.80 
   1   5  -9  133.59   13.90 
   0  -5  -9   31.50    5.90 
   0  -5  -9   28.20    5.50 
   0  -5   9   40.30    8.00 
   0  -5   9   22.30    7.30 
   0  -5  -9   38.30    7.90 
   0  -5   9   38.10    9.60 
   0   5  -9   47.50   10.30 
   0   5  -9   54.69    7.90 
   0   5   9   42.00    3.60 
  -1  -5  -9  453.75   29.30 
  -1  -5  -9  443.06   32.80 
   1  -5   9  450.75   36.80 
   1  -5   9  454.75   33.20 
   1  -5   9  473.85   32.10 
  -1   5  -9  474.45   32.90 
  -1   5  -9  429.16   34.80 
   2  -5   9  380.66   29.30 
  -2  -5  -9  335.67   28.80 
  -2  -5  -9  395.36   25.90 
   2  -5   9  394.86   28.10 
  -2   5  -9  362.06   30.40 
  -2   5  -9  400.56   28.90 
   3  -5   9  102.09   11.60 
  -3  -5  -9   79.39   12.30 
  -3  -5  -9   94.69    9.90 
  -3   5  -9  106.99   13.40 
  -3   5  -9  102.79   12.00 
  -4  -5  -9  223.78   23.90 
   4  -5   9  319.97   23.50 
  -4   5  -9  295.97   23.50 
  -4   5  -9  284.17   25.10 
  -5  -5  -9   10.80    6.50 
  -5   5  -9   27.50    7.90 
  -5   5  -9   23.30    6.80 
   6  -6  -9   92.59    9.40 
  -6  -6   9   69.69   12.80 
  -6  -6   9   66.49   15.20 
   6  -6  -9   78.69    8.90 
  -6   6   9   97.29   10.70 
   6   6  -9   70.79   13.40 
   5  -6  -9  167.98   12.90 
   5  -6  -9  162.48   13.50 
  -5  -6   9  153.98   16.60 
  -5  -6   9  139.09   21.00 
  -5   6   9  173.08   14.50 
   5   6  -9  137.89   17.10 
  -4  -6   9  156.78   21.50 
   4  -6  -9  160.58   13.30 
  -4  -6   9  161.58   16.20 
   4  -6  -9  178.38   13.00 
  -4   6   9  150.08   11.90 
  -4   6   9  185.88   14.10 
   4   6  -9  146.79   17.20 
   3  -6  -9  129.69   11.30 
  -3  -6   9  136.59   14.80 
  -3  -6   9  101.19   17.50 
   3  -6  -9  145.39   11.20 
  -3   6   9  129.69   11.80 
  -3   6   9  155.58   11.90 
   3   6  -9  124.69   15.40 
   2  -6  -9  308.67   21.30 
  -2  -6   9  300.57   24.80 
   2  -6  -9  302.87   20.60 
  -2  -6   9  285.67   29.80 
   2   6  -9  307.87   26.10 
  -2   6   9  349.87   21.10 
  -2   6   9  308.37   23.10 
  -1  -6   9  105.39   11.40 
   1  -6  -9   96.79    9.00 
   1  -6  -9   93.09   11.40 
  -1  -6   9   74.89   15.70 
   1  -6  -9   97.19    8.70 
   1   6  -9   84.89   13.90 
   1   6  -9   92.99   12.80 
  -1   6   9   87.69   11.00 
  -1   6   9   97.49    8.20 
   0  -6   9  274.27   28.30 
   0  -6  -9  289.17   24.20 
   0  -6   9  281.07   23.20 
   0  -6  -9  292.97   19.90 
   0   6   9  311.07   18.80 
   0   6  -9  261.47   26.70 
   0   6  -9  304.87   25.10 
   1  -6   9   12.50    4.60 
  -1  -6  -9    8.50    3.60 
   1  -6   9   16.50    7.50 
  -1  -6  -9   12.60    5.50 
  -1   6  -9    4.90    5.30 
   1   6   9   13.60    3.10 
  -1   6  -9   19.10    5.70 
  -2  -6  -9  168.68   15.00 
  -2  -6  -9  170.68   18.70 
   2  -6   9  222.88   18.30 
  -2   6  -9  216.68   20.00 
  -2   6  -9  179.28   20.70 
  -3  -6  -9    6.80    5.60 
   3  -6   9   -2.00    3.50 
  -3   6  -9    5.30    3.80 
  -3   6  -9    5.70    5.50 
  -3  -7   9    7.50    5.10 
   3  -7  -9    4.40    2.90 
   3  -7  -9    1.00    2.60 
  -3  -7   9    6.50    7.10 
  -3   7   9    6.30    3.40 
  -3   7   9   -2.30    3.40 
   3   7  -9    6.40    6.60 
   2  -7  -9  148.09   11.00 
  -2  -7   9  114.59   13.80 
   2  -7  -9  129.09   10.70 
  -2  -7   9  109.69   24.40 
   2   7  -9  142.39   28.50 
  -2   7   9  148.09   12.30 
  -2   7   9  115.99   13.50 
   1  -7  -9   67.69    7.70 
  -1  -7   9   98.99   11.80 
  -1   7   9   71.69   13.60 
  -1   7   9   87.09    9.00 
   1   7  -9   61.69   15.00 
   1   7  -9   84.89   26.70 
   0  -7  -9  486.25   37.60 
   0  -7   9  511.45   40.50 
   0  -7  -9  543.95   31.90 
   0   7   9  472.75   36.70 
   0   7  -9  530.55   38.80 
   1  -7   9   15.30    4.80 
  -1  -7  -9   10.40    6.40 
  -1  -7  -9    8.50    3.90 
   1  -7   9   12.40    6.80 
  -1   7  -9   14.10    7.80 
  -1   7  -9    8.90    5.30 
  -9   0  10   57.59   12.60 
   9   0 -10   45.80    9.20 
  -8   0  10  222.38   22.60 
   8   0 -10  280.27   22.30 
   7   0 -10  175.68   15.80 
   7   0 -10  159.68   15.80 
  -7   0  10  125.49   16.10 
   6   0 -10  110.19   12.00 
  -6   0  10  117.29   13.30 
   6   0 -10  118.99   12.80 
  -6   0  10  112.29   15.40 
  -5   0  10  200.38   18.20 
   5   0 -10  231.28   19.10 
   5   0 -10  235.58   18.20 
  -5   0  10  200.98   17.00 
   4   0 -10   14.40    4.50 
   4   0 -10   19.40    5.10 
  -4   0  10   30.40    5.80 
   4   0 -10   19.10    3.80 
  -3   0  10  543.45   35.60 
   3   0 -10  477.35   36.40 
   3   0 -10  523.85   36.20 
   3   0 -10  593.14   31.20 
   3   0 -10  615.44   32.90 
  -2   0  10   37.90    5.20 
   2   0 -10   57.89    4.80 
   2   0 -10   54.99    4.60 
  -2   0  10   44.10    5.50 
  -2   0  10   52.99   10.50 
   2   0 -10   60.09    7.30 
   2   0 -10   62.99    9.60 
   1   0 -10 1561.54   95.79 
  -1   0  10 1624.24   93.49 
   1   0 -10 1799.92   88.79 
  -1   0  10 1496.95   91.89 
   1   0 -10 1629.14   94.79 
   1   0 -10 1758.02   90.69 
   0   0 -10  315.57   19.40 
   0   0  10  311.67   21.30 
   0   0  10  268.17   20.10 
   0   0 -10  285.67   22.00 
   0   0 -10  315.47   23.70 
   1   0  10  488.15   31.00 
  -1   0 -10  460.45   32.00 
  -1   0 -10  455.65   33.40 
  -1   0 -10  493.35   29.60 
   2   0  10  624.94   39.00 
  -2   0 -10  638.94   38.00 
  -2   0 -10  588.14   40.00 
  -3   0 -10    3.70    4.70 
  -3   0 -10    7.90    2.10 
   3   0  10   11.60    3.40 
  -3   0 -10   15.40    4.70 
  -3   0 -10    7.20    2.50 
   4   0  10   21.30    5.20 
  -4   0 -10   23.70    5.00 
  -4   0 -10   30.30    6.40 
  -4   0 -10   24.80    4.00 
  -5   0 -10   52.29    8.70 
   5   0  10   63.09    9.50 
  -5   0 -10   61.39    9.30 
  -6   0 -10   43.60    7.00 
  -6   0 -10   57.39    8.80 
   9  -1 -10   20.30    7.00 
  -9  -1  10   16.10    6.70 
   9   1 -10   36.30    8.40 
  -9   1  10   20.20    7.20 
  -8  -1  10   68.69   11.10 
   8  -1 -10   70.79   11.00 
  -8  -1  10   47.50   11.00 
   8   1 -10   72.99   14.00 
  -8   1  10   61.59   10.10 
  -7  -1  10  145.99   14.30 
   7  -1 -10  113.19   12.60 
  -7  -1  10  105.19   14.10 
   7  -1 -10  124.79   13.00 
   7   1 -10  128.49   13.50 
  -7   1  10  111.39   13.20 
  -7   1  10  119.19   12.40 
   6  -1 -10  202.18   17.90 
   6  -1 -10  197.78   18.20 
  -6  -1  10  186.08   17.90 
  -6  -1  10  198.68   20.00 
   6   1 -10  217.88   19.50 
  -6   1  10  202.58   18.50 
   6   1 -10  226.78   18.40 
   6   1 -10  254.57   12.60 
  -6   1  10  229.48   17.60 
  -5  -1  10   93.29   11.60 
   5  -1 -10   78.99    8.30 
   5  -1 -10   81.49    9.70 
   5  -1 -10   90.69   10.70 
  -5  -1  10   87.39    9.90 
  -5   1  10   66.29    9.00 
  -5   1  10   92.19    9.10 
   5   1 -10   73.19    9.90 
   5   1 -10  100.39   10.50 
   5   1 -10   83.89    5.80 
   4  -1 -10  321.77   20.80 
  -4  -1  10  272.87   23.80 
   4  -1 -10  285.37   25.40 
   4  -1 -10  288.87   23.40 
  -4  -1  10  364.36   24.40 
  -4   1  10  318.07   22.50 
   4   1 -10  316.17   24.60 
  -4   1  10  326.87   22.20 
   4   1 -10  332.67   18.90 
   4   1 -10  301.47   19.90 
   4   1 -10  327.27   27.00 
   4   1 -10  370.76   22.20 
  -3  -1  10  999.90   59.79 
   3  -1 -10  935.81   55.39 
  -3  -1  10  925.81   60.09 
   3  -1 -10  973.60   60.19 
   3  -1 -10  985.50   59.49 
  -3   1  10 1065.89   58.29 
   3   1 -10  960.70   56.99 
  -3   1  10  954.80   57.09 
   3   1 -10 1092.49   55.29 
   3   1 -10 1007.00   61.39 
   3   1 -10 1032.70   60.29 
   2  -1 -10   96.89   10.90 
  -2  -1  10  113.79   10.30 
   2  -1 -10  127.79   12.40 
  -2  -1  10  110.29   11.20 
   2  -1 -10  122.69    8.40 
  -2  -1  10   95.69   10.50 
   2   1 -10  131.69    9.00 
   2   1 -10  128.99    9.90 
   2   1 -10  108.29   12.20 
   2   1 -10  112.09   10.50 
  -2   1  10  125.89   10.50 
  -2   1  10  102.89    8.60 
   2   1 -10  127.69   12.20 
   1  -1 -10   16.90    3.10 
  -1  -1  10   14.20    4.10 
  -1  -1  10   14.60    3.80 
  -1  -1  10    9.90    3.50 
   1  -1 -10   24.00    5.80 
   1   1 -10   13.80    4.90 
  -1   1  10   10.60    3.10 
   1   1 -10    8.00    4.20 
   1   1 -10   13.30    3.20 
   1   1 -10   19.60    3.60 
   1   1 -10   16.10    3.60 
  -1   1  10   10.60    2.80 
   0  -1  10  241.28   17.80 
   0  -1 -10  240.68   19.50 
   0  -1 -10  241.48   18.30 
   0  -1 -10  247.68   16.00 
   0   1  10  202.68   16.00 
   0   1 -10  215.88   15.50 
   0   1 -10  240.58   19.80 
   0   1 -10  247.78   15.80 
   0   1 -10  196.08   15.10 
   0   1  10  203.18   15.60 
   0   1 -10  240.68   18.60 
  -1  -1 -10  372.06   27.10 
   1  -1  10  388.86   26.80 
  -1  -1 -10  385.06   25.20 
  -1  -1 -10  352.36   28.00 
  -1   1 -10  333.67   28.00 
  -1   1 -10  419.16   25.20 
  -1   1 -10  384.46   27.70 
  -1   1 -10  424.06   25.20 
  -1   1 -10  388.26   23.60 
   1   1  10  402.76   25.60 
  -2  -1 -10  464.95   33.00 
  -2  -1 -10  516.25   31.80 
   2  -1  10  535.05   33.10 
  -2   1 -10  441.46   30.80 
  -2   1 -10  501.55   31.20 
   2   1  10  498.75   31.60 
  -2   1 -10  503.85   29.00 
  -3  -1 -10  452.55   32.80 
   3  -1  10  520.55   32.80 
  -3  -1 -10  446.46   32.40 
  -3   1 -10  519.45   31.50 
  -3   1 -10  441.16   31.20 
   3   1  10  474.75   31.20 
  -3   1 -10  511.85   28.80 
  -4  -1 -10   67.39    7.00 
  -4  -1 -10   68.39   10.60 
   4  -1  10   81.09   10.30 
  -4  -1 -10   94.69   10.50 
  -4   1 -10   97.29    9.30 
  -4   1 -10   95.09   10.60 
  -4   1 -10   97.59   10.20 
   4   1  10   86.89   11.20 
   5  -1  10  289.77   21.80 
  -5  -1 -10  253.37   21.40 
  -5  -1 -10  231.28   17.10 
  -5   1 -10  266.17   20.50 
  -5   1 -10  251.87   18.00 
  -6  -1 -10  146.39   15.70 
  -6  -1 -10  154.28   16.20 
   6  -1  10  162.28   16.10 
  -6   1 -10  176.48   16.00 
  -6   1 -10  169.08   14.10 
  -9  -2  10   40.20   13.40 
   9  -2 -10   59.39   11.90 
  -9   2  10   60.89   10.70 
  -8  -2  10  124.99   17.10 
   8  -2 -10  140.59   14.20 
  -8  -2  10  159.78   16.80 
   8   2 -10  142.19   11.30 
   8   2 -10  128.49   14.90 
  -8   2  10  120.89   14.30 
   7  -2 -10   58.79    9.70 
  -7  -2  10   59.09   10.50 
   7  -2 -10   71.89   10.60 
   7   2 -10   72.69    6.30 
  -7   2  10   53.99    8.90 
   7   2 -10   65.49   11.10 
   7   2 -10   64.59    6.80 
  -6  -2  10    3.40    3.90 
  -6  -2  10   -0.50    3.50 
   6  -2 -10    6.50    3.40 
   6  -2 -10    1.40    3.50 
   6   2 -10    6.00    2.50 
   6   2 -10    0.90    1.60 
   6   2 -10   -0.90    3.30 
  -6   2  10    2.10    3.00 
   5  -2 -10  262.27   20.10 
   5  -2 -10  283.27   21.90 
  -5  -2  10  260.27   24.20 
   5  -2 -10  288.97   21.50 
  -5  -2  10  287.97   22.90 
   5   2 -10  297.97   19.10 
  -5   2  10  296.87   19.80 
  -5   2  10  306.87   21.40 
   5   2 -10  295.07   19.40 
   5   2 -10  270.77   23.20 
   4  -2 -10  322.87   23.20 
   4  -2 -10  273.77   20.30 
  -4  -2  10  335.67   23.90 
  -4  -2  10  263.47   24.50 
   4  -2 -10  311.17   22.30 
  -4   2  10  312.67   21.20 
   4   2 -10  306.87   21.10 
  -4   2  10  327.77   20.60 
   4   2 -10  308.87   24.50 
   4   2 -10  325.87   20.30 
   3  -2 -10  280.67   20.20 
  -3  -2  10  256.87   21.50 
  -3  -2  10  257.57   20.10 
   3  -2 -10  226.68   16.00 
   3  -2 -10  246.08   19.10 
   3   2 -10  245.58   18.60 
   3   2 -10  257.47   21.20 
  -3   2  10  245.98   16.60 
  -3   2  10  268.77   17.20 
  -3   2  10  258.77   17.10 
   3   2 -10  242.28   21.40 
   2  -2 -10  563.04   33.00 
  -2  -2  10  545.85   38.20 
  -2  -2  10  513.45   36.80 
   2  -2 -10  588.54   37.60 
   2  -2 -10  525.15   35.90 
  -2  -2  10  528.65   36.10 
   2   2 -10  616.54   39.40 
   2   2 -10  640.94   37.20 
  -2   2  10  560.04   32.50 
   2   2 -10  611.84   34.70 
  -2   2  10  570.14   34.10 
   2   2 -10  578.24   37.00 
   1  -2 -10  621.24   39.20 
  -1  -2  10  519.95   37.60 
   1  -2 -10  584.54   35.40 
   1  -2 -10  543.75   37.20 
  -1   2  10  588.54   35.20 
   1   2 -10  647.04   41.10 
   1   2 -10  641.54   41.00 
  -1   2  10  574.04   34.50 
   1   2 -10  626.84   36.10 
   0  -2 -10 1012.10   62.69 
   0  -2  10 1049.00   61.99 
   0  -2  10 1085.69   62.69 
   0  -2 -10  987.20   59.49 
   0  -2 -10 1024.30   61.19 
   0   2 -10 1108.09   59.79 
   0   2 -10  958.90   60.79 
   0   2 -10 1026.90   61.49 
   0   2 -10 1044.60   64.39 
   0   2  10 1021.40   58.59 
  -1  -2 -10  592.84   37.50 
  -1  -2 -10  620.84   38.70 
  -1  -2 -10  579.44   40.70 
   1   2  10  570.04   36.10 
  -1   2 -10  604.14   37.60 
  -1   2 -10  568.04   40.70 
  -1   2 -10  663.03   37.40 
  -2  -2 -10  616.74   39.40 
   2  -2  10  611.34   40.00 
  -2  -2 -10  582.14   47.10 
   2   2  10  607.64   37.60 
  -2   2 -10  635.54   38.30 
  -2   2 -10  589.84   40.00 
  -2   2 -10  674.33   38.90 
  -3  -2 -10  163.68   15.30 
   3  -2  10  182.28   15.90 
  -3  -2 -10  164.28   18.20 
   3   2  10  158.88   13.50 
  -3   2 -10  193.18   14.90 
  -3   2 -10  177.28   13.60 
  -3   2 -10  157.48   15.70 
   4  -2  10   56.39    8.80 
  -4  -2 -10   38.70    8.00 
  -4  -2 -10   34.80    7.40 
  -4   2 -10   45.20    5.90 
  -4   2 -10   44.20    7.80 
   4   2  10   28.10    5.80 
   5  -2  10    6.10    4.40 
  -5  -2 -10    6.80    4.50 
  -5   2 -10    8.70    4.60 
  -5   2 -10    1.10    2.70 
  -6  -2 -10    1.30    3.80 
   6  -2  10   -3.90    4.20 
  -6   2 -10    4.30    4.40 
  -8  -3  10   15.60    7.20 
   8  -3 -10    1.50    4.30 
  -8  -3  10    8.40    5.00 
   8   3 -10    3.00    4.50 
  -8   3  10    1.40    4.10 
   8   3 -10    6.50    4.20 
  -7  -3  10   52.99   13.00 
  -7  -3  10   63.79   11.40 
   7  -3 -10   69.89    8.90 
   7   3 -10   55.09    7.60 
   7   3 -10   48.50    9.70 
  -7   3  10   62.89   15.20 
  -6  -3  10   51.29   11.40 
   6  -3 -10   65.39    8.70 
  -6  -3  10   60.09   10.60 
   6  -3 -10   67.89    8.70 
   6   3 -10   65.19   10.80 
  -6   3  10   47.70    8.00 
   6   3 -10   62.19    7.70 
  -5  -3  10  601.84   50.09 
   5  -3 -10  617.74   43.30 
   5  -3 -10  683.23   43.70 
   5  -3 -10  704.83   44.50 
  -5  -3  10  742.63   47.10 
  -5   3  10  698.93   42.20 
   5   3 -10  805.82   48.40 
  -5   3  10  729.83   43.40 
   5   3 -10  769.32   43.90 
  -4  -3  10   72.79    9.90 
   4  -3 -10   57.29    7.20 
  -4  -3  10   80.89   11.80 
   4  -3 -10   71.79    8.30 
   4  -3 -10   84.49    9.10 
   4   3 -10   75.39   11.90 
  -4   3  10   79.59    8.60 
  -4   3  10   76.39    7.70 
   4   3 -10   66.69    8.20 
  -4   3  10   72.69    6.00 
  -3  -3  10  117.79   14.60 
   3  -3 -10  118.79   11.30 
   3  -3 -10  142.79   12.60 
  -3  -3  10  101.99   12.10 
   3   3 -10  131.29   11.60 
   3   3 -10  122.69   14.00 
  -3   3  10  121.59   10.00 
  -3   3  10  128.09    9.40 
  -3   3  10  123.29    8.70 
  -2  -3  10  501.95   38.40 
   2  -3 -10  559.74   36.00 
  -2  -3  10  535.15   36.50 
   2  -3 -10  520.35   32.30 
   2  -3 -10  510.55   34.60 
  -2   3  10  570.34   31.30 
  -2   3  10  533.35   31.50 
   2   3 -10  631.24   39.30 
   2   3 -10  588.54   35.20 
   1  -3 -10   20.50    5.00 
   1  -3 -10   33.80    5.50 
  -1  -3  10   29.40    6.00 
   1  -3 -10   20.50    5.20 
  -1  -3  10   30.30    7.30 
  -1   3  10   26.50    3.50 
   1   3 -10   23.70    6.50 
   1   3 -10   36.90    6.50 
   0  -3 -10   68.59    8.30 
   0  -3  10   69.99   10.10 
   0  -3  10   64.09   10.00 
   0  -3 -10   65.79    8.70 
   0  -3 -10   69.49    8.40 
   0   3 -10   84.49    8.90 
   0   3 -10   80.59   10.50 
   0   3  10   87.69    7.30 
   0   3  10   79.39    6.70 
   0   3 -10   66.09    9.30 
  -1  -3 -10   27.60    6.00 
   1  -3  10   24.40    5.90 
  -1  -3 -10   25.60    5.90 
  -1   3 -10   32.40    6.10 
   1   3  10   17.80    3.30 
  -1   3 -10   20.80    5.90 
  -1   3 -10   26.40    6.40 
   2  -3  10   94.59   10.60 
  -2  -3 -10   71.39    9.90 
  -2  -3 -10   85.89   10.20 
  -2   3 -10   95.69   10.70 
  -2   3 -10  116.99   10.80 
   2   3  10   94.09    8.20 
  -3  -3 -10  488.95   33.00 
  -3  -3 -10  455.15   33.60 
   3  -3  10  474.55   33.30 
   3   3  10  464.75   30.20 
  -3   3 -10  523.55   32.80 
  -3   3 -10  491.05   32.80 
   4  -3  10  105.29   12.20 
  -4  -3 -10   95.39   12.30 
  -4   3 -10  107.19   11.60 
  -4   3 -10  108.59   11.10 
   5  -3  10   70.89   14.40 
  -5  -3 -10   52.09   10.60 
  -5   3 -10   62.19    9.80 
  -5   3 -10   76.69    9.20 
   7  -4 -10  132.79   13.70 
  -7  -4  10  146.09   19.40 
  -7  -4  10  160.28   17.80 
   7   4 -10   94.09   22.10 
  -7   4  10  141.59   14.50 
   7   4 -10  136.09   14.20 
   6  -4 -10   49.40    8.00 
   6  -4 -10   60.29    8.20 
  -6  -4  10   56.79   13.10 
  -6  -4  10   65.59   11.70 
   6   4 -10   61.79   11.40 
  -6   4  10   69.59    8.80 
   6   4 -10   47.50    9.00 
  -5  -4  10   98.69   12.60 
  -5  -4  10  109.19   15.80 
   5  -4 -10  111.29   11.20 
   5  -4 -10  126.69   11.90 
  -5   4  10  121.49   11.00 
   5   4 -10  118.69   12.40 
   5   4 -10  108.29   12.70 
   4  -4 -10   19.50    3.70 
  -4  -4  10    6.30    5.20 
   4  -4 -10   14.40    4.00 
  -4  -4  10    7.70    4.70 
  -4   4  10   10.20    4.70 
   4   4 -10    2.50    4.00 
   4   4 -10   13.00    4.40 
  -4   4  10   11.50    5.20 
  -3  -4  10  109.89   11.80 
   3  -4 -10   99.69   10.20 
  -3  -4  10   85.69   13.40 
   3  -4 -10  108.59   10.00 
   3   4 -10   97.99   11.90 
  -3   4  10   92.59    9.20 
  -3   4  10  101.19    8.20 
  -3   4  10  103.39    6.40 
   3   4 -10  101.99   11.20 
   2  -4 -10  774.32   46.00 
   2  -4 -10  767.82   47.20 
  -2  -4  10  752.52   49.80 
  -2  -4  10  681.13   52.79 
   2  -4 -10  806.02   48.50 
   2   4 -10  807.12   51.49 
  -2   4  10  856.11   44.00 
   2   4 -10  835.92   49.50 
  -2   4  10  739.63   45.70 
   1  -4 -10  439.46   29.90 
   1  -4 -10  416.16   30.80 
  -1  -4  10  476.65   32.00 
   1  -4 -10  445.16   28.80 
  -1  -4  10  427.56   31.10 
  -1  -4  10  407.46   33.70 
   1   4 -10  419.86   32.20 
   1   4 -10  450.35   30.60 
  -1   4  10  453.85   26.40 
   0  -4  10   96.29   11.00 
   0  -4 -10   94.99   10.40 
   0  -4  10   86.69   10.70 
   0  -4 -10   79.89    9.20 
   0  -4  10  103.39   13.40 
   0  -4 -10   93.39   10.00 
   0   4 -10  105.29   12.00 
   0   4 -10   95.59   12.40 
   0   4 -10   97.19   10.80 
  -1  -4 -10  475.05   37.10 
   1  -4  10  581.94   36.80 
  -1  -4 -10  501.95   35.90 
  -1   4 -10  588.14   36.20 
  -1   4 -10  508.65   37.80 
  -2  -4 -10    2.70    2.90 
   2  -4  10    5.50    3.20 
  -2  -4 -10    3.80    3.80 
  -2   4 -10   -0.90    2.60 
  -2   4 -10    1.40    3.20 
   3  -4  10    8.10    3.80 
  -3  -4 -10    2.00    3.70 
  -3   4 -10    1.50    6.70 
  -3   4 -10    1.10    3.70 
   4  -4  10   53.79    8.90 
  -4  -4 -10   44.40    9.70 
  -4   4 -10   46.20   13.50 
  -4   4 -10   41.20    8.50 
  -5  -4 -10   21.10    8.30 
   5  -4  10   42.10    8.60 
  -5   4 -10   46.80    8.80 
  -5   4 -10   49.20    9.20 
  -6  -5  10   26.20    9.30 
  -6  -5  10    9.00    5.40 
   6  -5 -10   13.40    4.40 
  -6   5  10   16.20    4.80 
   6   5 -10   14.00    5.50 
   5  -5 -10   69.19    8.90 
  -5  -5  10   65.89   11.00 
   5  -5 -10   84.19    8.60 
  -5  -5  10   63.49   15.10 
   5   5 -10   61.79    9.60 
  -5   5  10   63.69    8.10 
   4  -5 -10  387.76   26.00 
  -4  -5  10  339.27   28.50 
   4  -5 -10  384.86   25.30 
  -4  -5  10  331.67   32.80 
  -4   5  10  413.26   24.50 
   4   5 -10  367.46   28.40 
   4   5 -10  318.67   28.10 
  -3  -5  10  192.88   18.20 
  -3  -5  10  210.78   18.10 
  -3  -5  10  193.68   22.40 
   3  -5 -10  194.28   15.80 
   3  -5 -10  211.18   16.40 
  -3   5  10  224.88   14.40 
   3   5 -10  202.68   19.30 
   3   5 -10  218.88   19.10 
  -3   5  10  192.38   13.90 
   2  -5 -10   12.40    4.00 
   2  -5 -10   20.30    4.60 
  -2  -5  10   14.10    6.50 
  -2  -5  10   27.40    7.30 
   2  -5 -10   13.10    4.20 
  -2  -5  10   26.80    7.60 
   2   5 -10   18.10    5.30 
   2   5 -10   25.20    5.70 
  -2   5  10   17.10    2.80 
   1  -5 -10   73.29    9.00 
  -1  -5  10   52.39   11.90 
   1  -5 -10   82.89    8.50 
  -1  -5  10   81.59   11.50 
  -1  -5  10   60.29   10.30 
   1  -5 -10   79.19    9.60 
   1   5 -10   64.79   10.90 
   1   5 -10   69.79   10.10 
   1   5 -10   76.79   12.00 
   0  -5  10  183.48   21.00 
   0  -5  10  215.18   19.50 
   0  -5 -10  181.48   17.30 
   0  -5 -10  204.88   16.70 
   0  -5  10  190.18   17.70 
   0  -5 -10  201.78   15.90 
   0   5 -10  190.88   20.10 
   0   5 -10  214.68   18.80 
   1  -5  10  151.98   18.20 
  -1  -5 -10  117.59   13.60 
  -1  -5 -10  117.09   11.80 
   1  -5  10  150.28   14.60 
  -1   5 -10  144.99   14.70 
  -1   5 -10  117.69   15.70 
  -2  -5 -10   10.80    5.10 
   2  -5  10   18.90    5.20 
  -2  -5 -10   14.40    4.70 
  -2   5 -10    9.40    5.80 
  -2   5 -10   11.00    4.70 
   3  -5  10  172.88   16.30 
  -3  -5 -10  184.08   18.60 
  -3   5 -10  155.18   17.70 
  -3   5 -10  157.18   18.80 
   5  -6 -10   32.10    5.70 
   5  -6 -10   29.40    5.70 
  -5  -6  10   32.10    7.80 
  -5  -6  10   17.60    8.80 
  -5   6  10   24.10    5.20 
  -4  -6  10   43.70   12.30 
   4  -6 -10   39.70    6.70 
   4  -6 -10   57.29    6.90 
  -4  -6  10   51.89    9.80 
  -4   6  10   56.19    7.00 
   4   6 -10   47.10   10.00 
   3  -6 -10  182.98   14.60 
  -3  -6  10  177.28   18.50 
   3  -6 -10  158.88   15.80 
  -3  -6  10  187.88   23.40 
   3   6 -10  196.18   19.20 
  -3   6  10  205.78   14.00 
  -2  -6  10  408.16   29.00 
   2  -6 -10  342.77   23.70 
  -2  -6  10  368.66   34.20 
   2   6 -10  341.17   28.40 
  -2   6  10  334.07   25.10 
  -1  -6  10  183.08   17.30 
   1  -6 -10  126.69   14.90 
   1  -6 -10  158.28   13.10 
  -1  -6  10  170.68   20.90 
   1   6 -10  145.49   18.50 
  -1   6  10  141.99   14.40 
   1   6 -10  172.98   17.30 
   0  -6  10   88.19   15.00 
   0  -6 -10   87.79    9.50 
   0  -6  10  109.89   12.60 
   0  -6 -10   79.39   11.70 
   0   6 -10   85.99   13.40 
   0   6 -10   93.79   12.60 
  -1  -6 -10  151.18   13.70 
  -1  -6 -10  147.59   16.30 
   1  -6  10  195.38   22.20 
   1  -6  10  158.78   16.20 
  -1   6 -10  142.09   18.60 
  -2  -6 -10   84.39   12.60 
   2  -6  10   97.49   12.40 
  -2   6 -10   85.59   11.80 
  -2   6 -10   86.89   14.10 
  -8   0  11   24.50    7.90 
   8   0 -11   31.00    7.80 
  -7   0  11  140.79   16.90 
   7   0 -11  165.78   16.10 
  -6   0  11  200.38   19.70 
   6   0 -11  210.48   19.70 
   6   0 -11  218.88   21.30 
  -6   0  11  251.17   18.80 
   5   0 -11  286.67   21.70 
  -5   0  11  254.87   20.20 
  -5   0  11  253.07   21.30 
   5   0 -11  251.37   22.10 
  -4   0  11   34.80    6.50 
   4   0 -11   35.70    6.60 
   4   0 -11   38.50    4.80 
  -4   0  11   28.00    8.90 
   4   0 -11   32.10    6.80 
  -3   0  11  265.07   20.40 
   3   0 -11  266.37   22.10 
  -3   0  11  299.07   21.40 
   3   0 -11  313.37   18.30 
   3   0 -11  323.67   17.20 
   3   0 -11  274.37   23.10 
   3   0 -11  265.57   18.00 
   2   0 -11    7.00    1.50 
  -2   0  11    6.70    2.40 
   2   0 -11    2.80    2.90 
  -2   0  11    4.00    2.30 
   2   0 -11    5.90    1.90 
   2   0 -11    2.90    2.50 
  -2   0  11    7.20    4.60 
   1   0 -11  106.59   13.30 
   1   0 -11  136.89   13.10 
  -1   0  11  139.99   12.30 
   1   0 -11  152.08   11.40 
  -1   0  11  119.49   11.00 
   0   0 -11   77.59    7.80 
   0   0  11   88.69    9.20 
   0   0 -11   95.29   10.30 
   0   0 -11   77.09   12.10 
   1   0  11 1923.21  106.19 
  -1   0 -11 1780.42  109.39 
  -1   0 -11 1780.32  108.59 
  -1   0 -11 1985.60  104.59 
  -2   0 -11  310.37   21.20 
  -2   0 -11  272.27   23.30 
   2   0  11  299.77   22.00 
   3   0  11  316.17   23.00 
  -3   0 -11  303.67   22.40 
  -4   0 -11  322.47   20.00 
  -4   0 -11  337.67   24.50 
   4   0  11  328.47   24.60 
  -5   0 -11   45.70    9.00 
  -8  -1  11   40.20   10.60 
   8  -1 -11   26.40    7.90 
  -8   1  11   34.00    8.70 
   8   1 -11   34.40    8.90 
  -7  -1  11    8.40    4.50 
  -7  -1  11   12.00    5.90 
   7  -1 -11   10.30    5.10 
  -7   1  11   13.90    5.30 
   7   1 -11    2.90    6.30 
  -6  -1  11    0.60    3.70 
  -6  -1  11    4.10    3.20 
   6  -1 -11   -2.20    2.40 
   6  -1 -11    8.00    4.50 
  -6   1  11    4.30    3.90 
   6   1 -11   -0.20    3.30 
  -6   1  11   -4.90    2.80 
   5  -1 -11   14.00    5.00 
   5  -1 -11    8.40    4.20 
  -5  -1  11    5.90    4.00 
   5  -1 -11   13.70    3.40 
  -5  -1  11   10.30    4.80 
  -5   1  11   14.30    4.70 
   5   1 -11   13.10    2.00 
   5   1 -11    6.10    4.70 
  -5   1  11   10.00    3.90 
   5   1 -11    7.50    4.20 
   4  -1 -11  489.05   34.60 
   4  -1 -11  514.85   33.60 
  -4  -1  11  473.55   33.30 
   4  -1 -11  450.95   29.60 
  -4  -1  11  452.25   34.00 
   4   1 -11  509.35   35.50 
   4   1 -11  552.64   28.00 
  -4   1  11  491.25   31.80 
  -4   1  11  499.05   32.10 
   4   1 -11  472.95   33.70 
   4   1 -11  485.45   29.30 
  -3  -1  11   59.49    7.80 
   3  -1 -11   62.89    8.00 
   3  -1 -11   60.89    9.80 
   3  -1 -11   54.89    5.20 
  -3   1  11   50.79    5.70 
   3   1 -11   49.90    9.40 
   3   1 -11   62.19    7.20 
   3   1 -11   49.10    6.30 
   3   1 -11   66.09    8.30 
  -3   1  11   60.99    7.10 
   3   1 -11   65.69    5.40 
  -2  -1  11  467.75   30.60 
   2  -1 -11  457.95   26.40 
   2  -1 -11  470.35   30.90 
  -2  -1  11  451.95   29.80 
   2  -1 -11  417.96   31.20 
  -2   1  11  425.06   28.70 
   2   1 -11  439.46   31.20 
   2   1 -11  438.96   34.90 
   2   1 -11  468.75   26.70 
  -2   1  11  410.96   26.70 
   2   1 -11  408.96   32.00 
   2   1 -11  453.45   27.20 
  -1  -1  11 1220.98   66.89 
   1  -1 -11 1126.69   68.69 
  -1  -1  11 1222.98   68.79 
   1  -1 -11 1145.69   70.39 
  -1  -1  11 1012.30   66.99 
   1  -1 -11 1235.48   65.29 
   1   1 -11 1254.77   65.09 
   1   1 -11 1050.19   65.39 
   1   1 -11 1217.18   64.79 
   1   1 -11 1180.48   69.59 
  -1   1  11 1072.19   65.39 
   1   1 -11 1135.09   70.99 
  -1   1  11 1124.19   66.59 
   0  -1 -11  125.69   10.10 
   0  -1 -11   99.69   12.30 
   0  -1  11  114.39   11.50 
   0  -1 -11  109.39   11.80 
   0   1 -11  130.59   12.80 
   0   1 -11  113.59    8.90 
   0   1 -11  108.49    8.70 
   0   1 -11   89.49   13.70 
   0   1  11  104.89   10.10 
   0   1 -11  130.99   10.10 
   0   1  11  100.99    9.80 
  -1  -1 -11   71.49   11.70 
  -1  -1 -11   78.29    9.80 
  -1  -1 -11   77.59    8.20 
   1  -1  11   89.09    9.40 
  -1   1 -11   68.49    6.90 
   1   1  11   73.89    8.00 
  -1   1 -11   76.99    7.90 
  -1   1 -11   68.29    5.90 
  -1   1 -11   58.29   10.50 
  -2  -1 -11  239.28   17.70 
   2  -1  11  211.08   17.80 
  -2  -1 -11  196.08   18.70 
  -2   1 -11  207.68   22.70 
  -2   1 -11  245.98   14.20 
  -2   1 -11  215.58   15.90 
   2   1  11  198.58   16.60 
  -3  -1 -11  171.58   15.40 
  -3  -1 -11  129.19   17.90 
   3  -1  11  174.68   15.80 
  -3   1 -11  162.58   14.00 
  -3   1 -11  195.08   12.40 
   3   1  11  184.58   15.10 
  -3   1 -11  194.58   15.30 
  -4  -1 -11  187.78   17.50 
  -4   1 -11  213.58   17.20 
  -4   1 -11  193.88   14.50 
   5  -1  11   87.39   18.60 
  -5  -1 -11   90.39   12.00 
  -5   1 -11   89.19    8.90 
   8  -2 -11  107.79   13.80 
  -8  -2  11   97.19   14.80 
   8   2 -11   96.59   18.40 
  -8   2  11   83.49   12.20 
  -7  -2  11  161.88   18.40 
  -7  -2  11  146.69   20.20 
   7  -2 -11  168.58   16.00 
   7   2 -11  149.49   16.60 
   7   2 -11  153.38   11.00 
  -7   2  11  141.09   15.20 
   6  -2 -11  221.68   18.20 
  -6  -2  11  178.28   20.30 
  -6  -2  11  194.28   18.70 
   6  -2 -11  174.08   17.40 
  -6   2  11  199.48   17.80 
   6   2 -11  225.78   20.20 
   6   2 -11  208.18   13.90 
   6   2 -11  222.08   14.20 
   5  -2 -11   84.89   10.20 
  -5  -2  11   84.89   12.60 
  -5  -2  11   98.39   11.40 
   5  -2 -11   92.19   11.30 
   5  -2 -11   79.49    9.00 
   5   2 -11   85.89   13.00 
   5   2 -11   81.29    7.50 
   5   2 -11   93.69    8.60 
  -5   2  11   85.29    9.60 
  -5   2  11   94.89    8.70 
   4  -2 -11  177.18   15.50 
  -4  -2  11  186.48   16.80 
  -4  -2  11  171.28   17.70 
   4  -2 -11  163.38   12.90 
   4  -2 -11  180.58   15.90 
  -4   2  11  171.98   13.70 
   4   2 -11  187.38   12.80 
   4   2 -11  158.78   16.90 
  -4   2  11  160.58   13.10 
   3  -2 -11    9.90    4.30 
   3  -2 -11   14.90    4.40 
  -3  -2  11    9.40    4.50 
  -3  -2  11   11.50    4.50 
  -3   2  11    9.30    3.30 
   3   2 -11   12.10    3.20 
  -3   2  11    8.30    2.20 
   3   2 -11    5.80    3.70 
  -3   2  11    8.80    2.40 
   3   2 -11    7.50    4.30 
  -2  -2  11  114.09   12.30 
   2  -2 -11  108.19   11.70 
   2  -2 -11  100.99    8.20 
  -2  -2  11  108.99   11.40 
   2  -2 -11  118.09   11.50 
   2   2 -11  106.89   10.80 
  -2   2  11  101.39    7.90 
  -2   2  11   94.19    8.90 
   2   2 -11   99.99    8.90 
   2   2 -11  113.59   13.10 
  -1  -2  11  164.08   14.20 
   1  -2 -11  144.69   11.50 
   1  -2 -11  128.99   13.20 
   1  -2 -11  130.89   14.00 
  -1  -2  11  156.08   14.40 
  -1   2  11  139.29   10.90 
   1   2 -11  150.58   11.80 
   1   2 -11  148.59   13.00 
  -1   2  11  133.49   11.20 
   1   2 -11  142.49   15.40 
   0  -2 -11  642.14   39.70 
   0  -2 -11  600.74   40.90 
   0  -2  11  596.74   43.10 
   0  -2 -11  617.64   37.50 
   0   2 -11  546.35   37.60 
   0   2 -11  622.04   42.20 
   0   2  11  591.04   36.60 
   0   2  11  570.74   36.30 
   0   2 -11  666.23   37.40 
  -1  -2 -11  337.07   27.30 
  -1  -2 -11  307.77   32.90 
  -1  -2 -11  351.26   25.00 
   1  -2  11  373.46   26.50 
  -1   2 -11  389.06   24.80 
  -1   2 -11  427.36   30.30 
  -1   2 -11  359.06   31.30 
  -1   2 -11  353.36   24.60 
  -2  -2 -11  619.14   40.70 
  -2  -2 -11  611.54   39.80 
   2  -2  11  624.34   40.60 
  -2   2 -11  564.24   39.50 
   2   2  11  585.94   37.70 
  -2   2 -11  661.93   39.00 
  -2   2 -11  646.54   37.80 
  -3  -2 -11  113.39   12.10 
  -3  -2 -11  102.99   13.00 
   3  -2  11  116.89   12.50 
  -3   2 -11  106.59    9.70 
  -3   2 -11  128.29   11.70 
  -3   2 -11   99.29   13.50 
  -4  -2 -11   91.09   11.30 
   4  -2  11   94.79   11.40 
  -4   2 -11  109.39    9.60 
  -4   2 -11  100.39   11.10 
  -5  -2 -11  136.49   21.20 
   5  -2  11  144.29   14.20 
  -5   2 -11  130.59   13.80 
  -5   2 -11  145.09   12.40 
  -7  -3  11   13.70    7.30 
  -7  -3  11   13.80    5.60 
   7   3 -11   32.60    7.80 
   7   3 -11   13.20    4.00 
   6  -3 -11   97.89   11.70 
  -6  -3  11  132.49   14.20 
  -6  -3  11  104.59   15.60 
   6   3 -11  104.39   13.50 
   6   3 -11   95.19    9.70 
  -6   3  11   92.49   10.80 
   5  -3 -11  165.78   15.70 
  -5  -3  11  225.68   19.50 
   5  -3 -11  204.48   16.90 
  -5  -3  11  179.48   20.50 
   5  -3 -11  230.98   18.60 
  -5   3  11  211.28   16.40 
   5   3 -11  200.98   15.80 
  -5   3  11  215.08   24.00 
   5   3 -11  224.28   20.40 
   4  -3 -11    0.30    1.90 
  -4  -3  11   -2.60    3.70 
  -4  -3  11   -0.20    3.50 
   4  -3 -11    0.60    2.80 
   4  -3 -11    3.70    3.10 
   4   3 -11    9.60    4.00 
  -4   3  11    3.90    2.30 
   4   3 -11    0.10    1.90 
  -4   3  11    1.10    2.20 
  -3  -3  11  656.83   43.20 
   3  -3 -11  624.14   41.00 
   3  -3 -11  647.54   42.10 
  -3  -3  11  588.64   44.90 
   3   3 -11  725.93   45.50 
   3   3 -11  655.33   40.10 
  -2  -3  11  294.07   25.50 
   2  -3 -11  297.67   22.40 
  -2  -3  11  326.97   24.50 
   2  -3 -11  321.87   23.80 
   2  -3 -11  297.07   19.60 
   2   3 -11  352.66   27.70 
   2   3 -11  327.47   22.10 
  -2   3  11  295.17   18.70 
  -2   3  11  298.67   19.10 
   1  -3 -11   33.60    7.10 
  -1  -3  11   26.20    6.40 
  -1  -3  11   39.20    8.50 
   1  -3 -11   25.80    5.70 
   1  -3 -11   34.10    5.40 
   1   3 -11   35.40    7.60 
  -1   3  11   34.50    4.30 
   1   3 -11   38.60    6.10 
   1   3 -11   32.10   11.80 
  -1   3  11   44.70    4.80 
   0  -3 -11  453.85   31.40 
   0  -3 -11  414.26   28.70 
   0  -3  11  407.96   30.50 
   0  -3  11  461.75   32.60 
   0   3 -11  444.16   28.90 
   0   3 -11  427.56   33.80 
   0   3 -11  396.96   30.30 
  -1  -3 -11   62.49   11.00 
  -1  -3 -11   81.19    9.90 
  -1  -3 -11   85.29   10.40 
   1  -3  11  108.09   12.00 
  -1   3 -11   94.19   10.60 
  -1   3 -11   90.69    9.70 
   1   3  11   80.99    7.90 
   2  -3  11  129.29   14.20 
  -2  -3 -11  144.79   14.00 
  -2  -3 -11  139.49   16.60 
  -2   3 -11  150.38   13.50 
  -2   3 -11  142.99   13.60 
   3  -3  11    6.10    3.40 
  -3  -3 -11    6.70    4.40 
  -3   3 -11   12.10    4.40 
  -3   3 -11   15.00    4.50 
  -4  -3 -11   29.60    7.90 
   4  -3  11   41.90    7.90 
  -4   3 -11   36.90    6.30 
   7  -4 -11  116.39   13.30 
  -7  -4  11  124.09   20.80 
   7   4 -11  122.09   13.30 
  -7   4  11  140.99   14.10 
  -6  -4  11   77.69   13.70 
   6  -4 -11   77.79   10.00 
  -6  -4  11   71.89   12.20 
  -6   4  11   75.99    9.50 
   6   4 -11   93.19   12.20 
   6   4 -11   62.59    9.20 
   5  -4 -11   55.19    8.50 
   5  -4 -11   48.40    8.30 
  -5  -4  11   58.09   10.60 
  -5  -4  11   46.00   11.80 
  -5   4  11   52.39    6.90 
   5   4 -11   55.49    8.10 
   5   4 -11   47.90    9.80 
  -4  -4  11   28.50    9.20 
   4  -4 -11   38.60    6.60 
   4  -4 -11   29.10    6.30 
  -4  -4  11   34.30    8.00 
  -4   4  11   34.10    4.90 
   4   4 -11   28.90    7.70 
   4   4 -11   31.10    6.40 
   3  -4 -11   34.90    6.60 
  -3  -4  11   44.00    8.40 
  -3  -4  11   23.70    8.50 
   3  -4 -11   44.10    7.80 
   3   4 -11   44.90    8.70 
   3   4 -11   37.90    7.50 
   2  -4 -11   55.69    9.10 
  -2  -4  11   56.89   11.60 
   2  -4 -11   37.50    5.60 
   2  -4 -11   49.20    7.80 
  -2  -4  11   45.90    8.50 
   2   4 -11   59.29   10.70 
  -2   4  11   46.40    6.70 
   2   4 -11   51.19    8.90 
  -2   4  11   48.90    5.80 
  -1  -4  11   90.19   11.40 
   1  -4 -11   90.89    9.80 
   1  -4 -11  106.09   10.70 
   1  -4 -11   90.89   10.70 
  -1  -4  11   90.29   13.10 
   1   4 -11  108.09   11.40 
   1   4 -11   90.89   12.70 
   1   4 -11  106.49   13.10 
  -1   4  11  107.19    8.40 
   0  -4  11  243.28   21.20 
   0  -4 -11  273.57   20.00 
   0  -4 -11  235.78   19.50 
   0  -4 -11  260.17   20.70 
   0  -4  11  259.07   23.70 
   0   4 -11  231.58   21.90 
   0   4 -11  267.17   23.00 
   0   4 -11  246.98   20.10 
  -1  -4 -11  131.59   13.00 
  -1  -4 -11  134.69   13.90 
   1  -4  11  132.69   14.10 
  -1   4 -11  136.79   14.90 
  -1   4 -11  144.59   13.90 
   2  -4  11  123.79   13.30 
  -2  -4 -11   77.19   10.70 
  -2   4 -11   88.49   11.50 
  -2   4 -11   84.49   10.60 
   3  -4  11  177.28   17.40 
  -3  -4 -11  166.98   17.90 
  -3   4 -11  181.58   17.50 
  -3   4 -11  183.18   16.80 
   5  -5 -11  129.19   12.90 
  -5  -5  11  133.19   16.20 
  -5  -5  11  120.59   18.10 
  -5   5  11  131.19   11.90 
   5   5 -11  112.59   13.60 
  -4  -5  11   64.49   15.00 
   4  -5 -11   98.39   10.10 
  -4  -5  11   80.29   12.90 
   4  -5 -11   68.39    9.00 
   4   5 -11   71.79   10.20 
  -3  -5  11    4.20    4.40 
  -3  -5  11   17.80    7.50 
   3  -5 -11   18.10    6.90 
   3  -5 -11   16.20    4.70 
   3   5 -11    5.90    4.40 
   2  -5 -11  160.78   14.50 
   2  -5 -11  149.99   12.90 
  -2  -5  11  135.59   15.20 
  -2  -5  11  178.28   20.30 
   2  -5 -11  152.08   13.50 
   2   5 -11  151.18   15.40 
  -2   5  11  154.38   14.70 
   1  -5 -11   56.99    8.00 
   1  -5 -11   42.10    7.90 
  -1  -5  11   56.79   13.00 
  -1  -5  11   53.79    9.30 
   1  -5 -11   47.00    7.90 
   1   5 -11   59.19    9.10 
   1   5 -11   40.60   10.70 
   0  -5 -11   77.39    9.80 
   0  -5  11   95.19   11.80 
   0  -5 -11   89.79   11.50 
   0  -5  11   98.39   14.50 
   0   5 -11  102.49   11.60 
   0   5 -11   72.99   11.90 
  -1  -5 -11   29.40    7.50 
   1  -5  11   20.80    5.70 
  -1   5 -11   23.10    7.60 
  -1   5 -11   33.70    7.40 
  -2  -5 -11   15.40    6.10 
   2  -5  11   15.90    5.20 
  -2   5 -11    7.20    4.90 
  -2   5 -11    9.30    6.40 
  -3  -6  11   29.40    8.30 
   3  -6 -11   44.40    7.30 
  -3  -6  11   38.70   11.80 
   3  -6 -11   47.80    8.00 
   3   6 -11   26.30    7.90 
   2  -6 -11   90.79   10.40 
  -2  -6  11  117.59   17.80 
   2  -6 -11   98.39   10.50 
  -2  -6  11   93.49   12.50 
   2   6 -11   88.29   12.70 
  -1  -6  11    1.10    4.60 
  -1  -6  11    8.70    6.10 
   1  -6 -11   11.20    4.90 
   1  -6 -11    5.70    3.40 
   1   6 -11    5.40    5.30 
  -1   6  11   11.10    4.00 
   1   6 -11    2.90    4.70 
   0  -6  11  216.28   20.00 
   0  -6  11  212.98   24.60 
   0  -6 -11  175.98   22.00 
   0   6 -11  223.38   20.10 
   0   6 -11  180.88   21.90 
  -8   0  12    1.20    4.40 
   8   0 -12   -0.30    4.20 
  -7   0  12   32.70    8.60 
   7   0 -12   39.30    8.50 
  -6   0  12   27.10    7.70 
   6   0 -12   17.10    6.40 
   5   0 -12  932.11   60.69 
  -5   0  12  963.30   58.19 
  -5   0  12  938.71   59.19 
   4   0 -12  285.97   23.00 
   4   0 -12  260.27   23.50 
  -4   0  12  335.97   23.10 
   3   0 -12  272.07   15.40 
   3   0 -12  266.07   16.00 
   3   0 -12  222.08   16.00 
   3   0 -12  253.87   20.70 
  -3   0  12  236.18   19.20 
  -3   0  12  248.08   18.10 
   3   0 -12  243.08   25.30 
   2   0 -12   49.60    9.30 
   2   0 -12   44.90    3.50 
  -2   0  12   35.30    5.20 
  -2   0  12   39.60    7.20 
   2   0 -12   53.39    9.00 
   2   0 -12   46.90    4.90 
  -2   0  12   46.60    4.40 
  -1   0  12   21.80    4.60 
   1   0 -12   24.00    6.10 
   1   0 -12   19.60    4.00 
   1   0 -12   18.30    6.10 
  -1   0  12   12.20    4.20 
   0   0  12   73.29    8.70 
   0   0 -12   78.79   10.60 
   0   0 -12   54.69   10.20 
   0   0 -12   64.39    7.20 
  -1   0 -12   73.69    8.10 
  -1   0 -12   83.19   20.30 
   1   0  12   75.19    8.60 
  -1   0 -12   60.39    9.90 
  -2   0 -12    1.80    2.70 
   2   0  12    6.20    2.90 
  -3   0 -12  321.97   23.70 
  -4   0 -12   35.80    7.90 
  -7  -1  12   65.49   11.80 
   7  -1 -12   78.29   13.30 
   7   1 -12   73.89   12.10 
  -7   1  12   63.79   13.90 
  -6  -1  12  291.57   23.40 
   6  -1 -12  257.37   23.60 
  -6  -1  12  264.07   24.80 
   6   1 -12  313.67   25.40 
  -6   1  12  272.87   22.80 
   5  -1 -12   34.00    7.60 
  -5  -1  12   20.60    6.30 
  -5  -1  12   28.10    7.70 
   5  -1 -12   25.50    4.90 
   5  -1 -12   16.90    6.10 
   5   1 -12   26.30    7.30 
  -5   1  12   14.30    4.90 
   4  -1 -12   20.20    3.60 
  -4  -1  12   19.30    5.20 
   4  -1 -12    8.90    4.30 
  -4  -1  12   14.70    5.10 
   4  -1 -12   15.00    5.60 
   4   1 -12   22.70    2.70 
   4   1 -12    7.70    5.90 
   4   1 -12   14.80    3.20 
  -4   1  12   18.30    4.30 
  -4   1  12   14.60    4.20 
   3  -1 -12  123.99   14.30 
  -3  -1  12  116.69   12.70 
   3  -1 -12  155.78   14.90 
  -3   1  12  126.79   12.10 
   3   1 -12  156.98   16.00 
   3   1 -12  157.18   12.10 
  -3   1  12  136.89   10.60 
   3   1 -12  161.78   10.10 
   3   1 -12  117.89   11.30 
  -2  -1  12  320.97   23.70 
   2  -1 -12  309.57   25.50 
  -2  -1  12  382.66   24.70 
   2  -1 -12  351.36   21.60 
   2  -1 -12  334.37   26.90 
  -2  -1  12  345.97   25.60 
  -2   1  12  319.37   22.00 
   2   1 -12  361.26   28.20 
  -2   1  12  345.87   23.90 
   2   1 -12  377.66   21.80 
   2   1 -12  382.66   21.90 
   2   1 -12  318.47   24.20 
   1  -1 -12   56.49    6.50 
   1  -1 -12   56.09   10.40 
   1  -1 -12   59.79    9.30 
  -1  -1  12   51.49    8.60 
   1   1 -12   60.39    5.60 
   1   1 -12   52.39    5.80 
   1   1 -12   75.49   12.00 
  -1   1  12   56.79    7.10 
   1   1 -12   66.69    6.50 
  -1   1  12   61.49    6.70 
   0  -1 -12  155.78   12.30 
   0  -1 -12  129.29   15.00 
   0  -1 -12  134.59   14.70 
   0  -1  12  164.48   14.30 
   0   1 -12  148.79   16.40 
   0   1 -12  147.49    9.80 
   0   1 -12  148.09   11.90 
   0   1 -12  140.79    9.90 
   0   1  12  138.69   12.40 
   1  -1  12  250.07   20.20 
  -1  -1 -12  245.88   21.10 
  -1  -1 -12  245.28   18.50 
  -1  -1 -12  238.98   22.40 
  -1   1 -12  250.97   14.80 
  -1   1 -12  264.27   18.50 
  -1   1 -12  237.98   22.80 
   1   1  12  259.77   18.90 
  -2  -1 -12   95.99   10.90 
   2  -1  12   97.69   11.50 
  -2   1 -12  113.09    7.50 
  -2   1 -12  119.99   11.40 
  -3  -1 -12   24.50    6.10 
   3  -1  12   27.60    6.40 
  -3   1 -12   18.30    3.10 
  -3   1 -12   18.60    5.20 
  -4  -1 -12   53.89    8.70 
  -4   1 -12   63.09    9.00 
   7  -2 -12   11.60    7.30 
  -7  -2  12   16.20    6.90 
  -7   2  12   17.70    5.80 
   7   2 -12    9.60   11.10 
   6  -2 -12   26.70    7.50 
  -6  -2  12   39.40    8.40 
  -6  -2  12   35.50    9.00 
  -6   2  12   37.80    7.80 
   6   2 -12   38.20    4.10 
   6   2 -12   40.80    8.20 
   5  -2 -12  252.77   23.80 
  -5  -2  12  298.07   27.00 
  -5  -2  12  346.77   26.10 
   5  -2 -12  333.77   34.20 
  -5   2  12  306.37   22.70 
   5   2 -12  340.07   27.40 
   5   2 -12  322.07   19.40 
   4  -2 -12  507.25   33.00 
   4  -2 -12  572.24   37.80 
   4  -2 -12  589.14   39.10 
  -4  -2  12  583.74   38.80 
  -4  -2  12  552.74   40.10 
   4   2 -12  569.34   35.20 
  -4   2  12  539.05   33.90 
   4   2 -12  614.84   41.40 
   3  -2 -12  167.78   16.80 
  -3  -2  12  207.08   17.70 
  -3  -2  12  171.08   17.30 
   3  -2 -12  168.78   16.00 
   3   2 -12  177.18   15.80 
  -3   2  12  168.58   13.70 
   3   2 -12  196.48   13.40 
   3   2 -12  217.68   19.00 
  -2  -2  12  219.28   18.60 
   2  -2 -12  205.08   14.40 
   2  -2 -12  173.38   18.20 
  -2  -2  12  227.38   19.00 
   2  -2 -12  193.88   17.50 
  -2   2  12  193.58   14.10 
  -2   2  12  211.98   15.70 
   2   2 -12  236.98   21.50 
   2   2 -12  243.18   17.30 
   2   2 -12  240.88   15.70 
   1  -2 -12   35.80    7.70 
  -1  -2  12   17.80    8.70 
   1  -2 -12   31.90    6.80 
  -1  -2  12   34.00    7.00 
   1  -2 -12   36.00    6.40 
   1   2 -12   32.60    7.50 
  -1   2  12   24.00    4.70 
   1   2 -12   37.80    5.40 
   1   2 -12   38.10    6.10 
   1   2 -12   24.50    6.30 
   0  -2 -12   84.69   14.10 
   0  -2 -12   92.89    9.40 
   0  -2 -12   70.09   11.90 
   0  -2  12   84.89   11.00 
   0   2 -12   97.09    9.40 
   0   2 -12   95.89   12.70 
   0   2  12   96.89    9.00 
   0   2 -12   93.99    9.20 
  -1  -2 -12  283.47   25.00 
  -1  -2 -12  280.27   21.90 
  -1  -2 -12  307.37   24.30 
   1  -2  12  336.97   24.10 
  -1   2 -12  296.87   26.10 
  -1   2 -12  324.57   21.80 
  -1   2 -12  295.87   20.60 
   2  -2  12  121.69   13.10 
  -2  -2 -12  126.29   12.80 
  -2   2 -12  124.59   11.90 
   3  -2  12  157.48   15.60 
  -3  -2 -12  140.89   15.10 
  -3   2 -12  173.28   14.70 
  -3   2 -12  153.98   11.90 
  -4  -2 -12  170.98   17.90 
   4  -2  12  179.18   18.30 
  -4   2 -12  203.88   17.30 
  -4   2 -12  197.08   14.40 
  -7  -3  12    4.60    5.40 
   7  -3 -12    6.70    4.10 
  -7   3  12    8.10    4.80 
   7   3 -12   -2.70    5.70 
   6  -3 -12   31.00    7.30 
  -6  -3  12   22.10    6.40 
  -6  -3  12   12.50    7.60 
  -6   3  12   28.40    6.20 
   6   3 -12   28.20    4.90 
   5  -3 -12  268.87   22.10 
  -5  -3  12  243.38   25.00 
  -5  -3  12  247.98   22.80 
   5   3 -12  273.67   18.90 
   5   3 -12  274.97   24.50 
  -4  -3  12  131.39   13.90 
   4  -3 -12  145.99   14.50 
  -4  -3  12  114.19   15.40 
   4   3 -12  122.19   11.10 
   4   3 -12  140.59   15.50 
  -4   3  12  117.89    9.60 
  -3  -3  12  112.29   14.40 
   3  -3 -12  119.59   13.20 
  -3  -3  12  111.49   12.80 
   3  -3 -12   73.79   13.90 
   3   3 -12  122.69   10.90 
   3   3 -12  108.69   14.60 
  -2  -3  12   44.90    8.50 
   2  -3 -12   58.49    9.70 
  -2  -3  12   41.90    9.60 
   2  -3 -12   40.80    5.10 
   2   3 -12   53.19   10.30 
   2   3 -12   49.00    6.70 
  -1  -3  12  268.57   22.80 
   1  -3 -12  273.17   22.30 
  -1  -3  12  278.77   21.90 
   1   3 -12  267.87   19.40 
   1   3 -12  218.78   20.60 
   1   3 -12  256.67   23.20 
   0  -3 -12  167.58   15.60 
   0  -3  12  152.98   14.70 
   0  -3 -12  117.69   13.70 
   0  -3 -12  131.69   12.80 
   0   3 -12  137.09   15.60 
   0   3 -12  123.69   13.30 
   0   3 -12  149.79   12.80 
   1  -3  12  136.19   13.60 
  -1  -3 -12  110.69   12.20 
  -1   3 -12  113.09   12.10 
  -1   3 -12  137.09   12.50 
   2  -3  12  246.98   21.50 
  -2  -3 -12  245.38   21.10 
  -2   3 -12  280.17   20.80 
  -2   3 -12  256.37   20.00 
  -3  -3 -12   57.89    9.60 
   3  -3  12   54.09    9.90 
  -3   3 -12   72.89    8.80 
  -3   3 -12   74.49    9.60 
   6  -4 -12  118.89   13.40 
   6   4 -12  105.09   11.70 
  -5  -4  12   83.89   15.00 
   5  -4 -12   74.69   10.30 
  -5  -4  12   79.99   12.50 
   5   4 -12   77.79    9.30 
   5   4 -12   85.89   19.80 
   4  -4 -12  119.49   14.20 
  -4  -4  12  139.69   17.80 
  -4  -4  12  136.69   15.10 
   4   4 -12  124.39   16.10 
   4   4 -12  141.19   13.30 
  -3  -4  12  292.77   24.30 
  -3  -4  12  286.87   26.90 
   3  -4 -12  254.77   22.90 
   3   4 -12  264.37   43.10 
   3   4 -12  273.67   24.30 
   2  -4 -12   20.60    6.80 
  -2  -4  12   35.90    9.00 
  -2  -4  12   37.40    7.20 
   2  -4 -12   27.80    6.70 
   2  -4 -12   33.70    5.10 
   2   4 -12   37.30    8.20 
   2   4 -12   38.60    7.30 
  -2   4  12   29.50    4.70 
   1  -4 -12   40.70    7.90 
  -1  -4  12   29.20    7.30 
   1  -4 -12   30.40    6.20 
  -1  -4  12   45.00   12.20 
   1   4 -12   44.50    9.10 
   1   4 -12   46.10    8.30 
   1   4 -12   30.20    7.90 
   0  -4 -12  160.18   16.10 
   0  -4  12  188.68   17.70 
   0  -4 -12  216.18   24.20 
   0  -4  12  173.08   18.80 
   0   4 -12  190.98   16.60 
   0   4 -12  182.58   18.10 
   0   4 -12  217.18   20.30 
  -1  -4 -12    1.30    3.80 
   1  -4  12   -7.40    3.90 
  -1   4 -12   -2.70    3.70 
  -1   4 -12    4.60    3.50 
   2  -4  12   97.19   12.80 
  -2  -4 -12   70.99   11.20 
  -2   4 -12   86.29   11.40 
  -2   4 -12   99.29   11.70 
   4  -5 -12   43.80    7.80 
  -4  -5  12   51.39   12.40 
  -4  -5  12   49.90    9.80 
   4   5 -12   49.20    9.10 
  -3  -5  12   11.20    7.30 
   3  -5 -12    6.90    3.90 
  -3  -5  12   15.40    6.10 
   3   5 -12   20.60    5.70 
   2  -5 -12   -1.00    3.60 
  -2  -5  12   -4.20    3.50 
  -2  -5  12   13.50    6.60 
   2   5 -12    7.60    4.30 
  -1  -5  12   48.00    9.50 
  -1  -5  12   40.00   10.40 
   1  -5 -12   33.50    7.00 
   1  -5 -12   45.00    8.30 
   1   5 -12   36.60    7.80 
   1   5 -12   33.10    9.10 
   0  -5  12   53.49    9.70 
   0  -5 -12   59.49    9.60 
   0  -5  12   58.39   12.80 
   0   5 -12   46.10   10.40 
   0   5 -12   49.50    9.40 
   7   0 -13   30.60    8.60 
  -7   0  13   26.00    8.00 
  -6   0  13  175.58   18.20 
   6   0 -13  206.38   20.90 
   5   0 -13   17.20    6.60 
  -5   0  13   26.60    6.30 
   4   0 -13   13.70    5.80 
  -4   0  13    9.50    3.40 
   3   0 -13  385.56   20.90 
  -3   0  13  319.77   27.10 
   3   0 -13  300.27   25.00 
   3   0 -13  336.87   27.90 
   3   0 -13  359.46   28.30 
  -3   0  13  349.37   22.40 
   3   0 -13  356.36   23.90 
   2   0 -13  330.87   25.30 
   2   0 -13  333.07   20.20 
  -2   0  13  307.47   23.40 
   2   0 -13  276.57   25.70 
   1   0 -13  107.59    9.10 
   1   0 -13  107.19   13.50 
   1   0 -13   69.59   12.10 
   0   0 -13   34.60    5.60 
   0   0 -13   42.70    9.00 
  -1   0 -13   55.79   11.00 
  -1   0 -13   70.79    9.80 
  -2   0 -13    4.20    3.40 
  -3   0 -13    9.50    4.70 
   6  -1 -13  132.29   15.40 
  -6  -1  13  124.09   15.90 
  -6   1  13  117.59   13.80 
   6   1 -13  126.69   15.50 
  -5  -1  13   17.20    5.90 
   5  -1 -13   10.50    5.40 
   5   1 -13    8.30    3.70 
  -5   1  13    9.30    4.60 
   4  -1 -13   95.49   12.20 
  -4  -1  13  101.59   10.90 
  -4  -1  13   74.59   10.50 
  -4   1  13   80.79    8.30 
   4   1 -13   95.49    6.60 
   4   1 -13   96.49   15.30 
  -3  -1  13   68.39   13.40 
   3  -1 -13   51.99    9.40 
  -3  -1  13   47.00    8.50 
   3   1 -13   68.49    6.00 
   3   1 -13   69.89   15.40 
  -2  -1  13   25.60    6.10 
   2  -1 -13   36.30    4.50 
   2  -1 -13   16.60    6.20 
  -2  -1  13   26.00    5.10 
   2   1 -13   16.70    4.00 
   2   1 -13   23.80    4.20 
   2   1 -13   31.10    7.70 
   1  -1 -13   39.90    5.40 
  -1  -1  13   39.40    7.50 
   1  -1 -13   38.80    8.60 
   1   1 -13   35.20    3.90 
   1   1 -13   41.30    5.50 
   1   1 -13   21.10    6.90 
   0  -1 -13  176.88   17.40 
   0  -1 -13  158.58   13.50 
   0  -1  13  155.58   14.90 
   0   1 -13  166.38   13.20 
   0   1 -13  161.48   18.20 
   1  -1  13   44.90    7.40 
  -1  -1 -13   31.10    6.40 
  -1  -1 -13   28.30    8.40 
  -1   1 -13   38.20    5.80 
  -1   1 -13   25.40    8.90 
  -2  -1 -13   45.30    7.20 
  -2   1 -13   50.69    7.60 
  -3  -1 -13   96.39   12.60 
  -3   1 -13  126.29   12.20 
  -6  -2  13   10.40    6.00 
   6  -2 -13   15.50    5.40 
  -6   2  13   12.00    4.90 
   6   2 -13    9.80    5.80 
  -5  -2  13  171.48   19.70 
  -5  -2  13  172.68   18.30 
   5  -2 -13  191.18   18.10 
   5   2 -13  163.68   11.60 
   5   2 -13  159.48   18.80 
  -4  -2  13   55.29    8.80 
   4  -2 -13   44.20    9.30 
  -4  -2  13   40.10    9.20 
   4   2 -13   44.70    5.20 
   4   2 -13   49.80    9.60 
   3  -2 -13   40.50    8.90 
  -3  -2  13   44.10    8.70 
  -3  -2  13   22.80    7.60 
   3   2 -13   39.70   10.20 
   3   2 -13   41.30    5.40 
  -2  -2  13  739.53   47.00 
   2  -2 -13  692.93   48.60 
   2  -2 -13  717.73   41.90 
   2   2 -13  639.64   45.00 
   2   2 -13  723.43   50.39 
   2   2 -13  824.12   43.40 
   1  -2 -13  184.28   18.20 
   1  -2 -13  155.48   13.80 
  -1  -2  13  164.68   16.70 
   1   2 -13  197.78   14.30 
   1   2 -13  201.48   19.50 
   0  -2  13   84.39   10.60 
   0  -2 -13   76.39   11.90 
   0  -2 -13   80.49    9.00 
   0   2 -13   83.29   14.10 
   0   2 -13   75.09    8.10 
   0   2 -13   86.89    8.90 
   1  -2  13   72.99   11.30 
  -1  -2 -13   69.49    9.30 
  -1   2 -13   85.49    9.50 
  -1   2 -13   80.59    7.60 
  -2  -2 -13  180.18   17.10 
   2  -2  13  186.98   19.00 
  -2   2 -13  215.48   17.20 
  -5  -3  13   49.40   11.10 
   5  -3 -13   39.90    8.70 
  -5  -3  13   53.89    9.80 
   5   3 -13   45.80   11.10 
   5   3 -13   37.60    6.00 
   4  -3 -13   24.30    7.10 
  -4  -3  13   17.00    6.40 
  -4  -3  13    9.50    5.80 
   4   3 -13   15.20    4.10 
   4   3 -13    5.30    6.30 
  -3  -3  13  229.68   21.70 
  -3  -3  13  216.18   20.40 
   3  -3 -13  230.18   23.50 
   3   3 -13  237.48   17.40 
   3   3 -13  246.58   22.90 
  -2  -3  13   45.40    9.70 
  -2  -3  13   47.00    9.50 
   2  -3 -13   71.89   11.20 
   2   3 -13   35.80   10.10 
   2   3 -13   49.30    7.10 
   2   3 -13   43.40    8.80 
  -1  -3  13   75.99   10.20 
   1  -3 -13   53.29   10.30 
  -1  -3  13   70.49   10.60 
   1  -3 -13   62.69    8.10 
   1   3 -13   65.19    9.50 
   1   3 -13   40.80   10.20 
   1   3 -13   77.19    8.50 
   0  -3  13  100.69   13.10 
   0  -3 -13  119.29   12.30 
   0   3 -13  135.99   12.30 
   0   3 -13  155.88   16.80 
   0   3 -13  107.99   12.30 
   1  -3  13   84.29   11.60 
  -1  -3 -13   86.19   18.20 
  -1   3 -13   92.09   10.50 
  -1   3 -13  100.19   10.90 
  -3  -4  13   49.40    9.60 
   3  -4 -13   74.89   11.50 
  -3  -4  13   59.89   12.30 
   3   4 -13   54.09    8.40 
  -2  -4  13  189.08   20.60 
   2  -4 -13  154.28   17.50 
  -2  -4  13  220.68   20.30 
   2   4 -13  215.98   17.10 
   2   4 -13  179.78   19.10 
   1  -4 -13  614.84   42.60 
  -1  -4  13  679.13   47.40 
   1  -4 -13  689.33   45.10 
  -1  -4  13  562.34   54.79 
   1   4 -13  599.24   44.80 
   1   4 -13  722.93   42.80 
   0  -4  13   13.80    4.90 
   0  -4 -13   14.90    5.40 
   0  -4 -13   16.70    4.70 
   0   4 -13   13.00    4.90 
   0   4 -13    2.60    5.90 
   5   0 -14  305.87   27.70 
   4   0 -14   21.20    6.50 
   3   0 -14   -3.30    4.40 
   2   0 -14   13.10    3.60 
   2   0 -14    5.20    4.90 
   1   0 -14   87.29   14.40 
   1   0 -14  111.59    9.80 
   0   0 -14   81.29    8.70 
   0   0 -14   63.09   12.50 
  -1   0 -14  450.95   30.30 
   5  -1 -14    4.90    5.20 
  -5  -1  14    7.10    5.00 
   5   1 -14    3.90    5.80 
   4  -1 -14  107.19   16.10 
   4   1 -14   73.59   13.70 
   3  -1 -14  223.38   22.10 
   3   1 -14  215.58   21.70 
   3   1 -14  239.38   17.60 
   2  -1 -14   19.60    6.70 
   2   1 -14   12.70    3.50 
   2   1 -14   17.00    7.20 
   1  -1 -14   68.09   12.60 
   1  -1 -14   82.79    8.80 
   1   1 -14   81.09    8.30 
   1   1 -14   71.39   13.90 
   0  -1 -14  246.78   20.00 
   0  -1 -14  267.87   24.90 
   0   1 -14  293.27   26.20 
   0   1 -14  285.47   19.80 
  -1  -1 -14  159.58   15.10 
  -1   1 -14  186.18   15.20 
  -4  -2  14   64.99   10.00 
   4  -2 -14   54.09   10.80 
   4   2 -14   41.30   10.80 
   3  -2 -14   58.69   16.70 
  -3  -2  14   54.09    9.10 
   3   2 -14   63.29    6.50 
   3   2 -14   47.10   11.10 
   2  -2 -14  193.68   31.00 
   2   2 -14  145.69   23.70 
   2   2 -14  140.09   13.40 
   2   2 -14  158.28   12.40 
   1  -2 -14   40.30    7.00 
   1   2 -14   43.00   17.40 
   1   2 -14   61.39    8.80 
   0  -2 -14  155.18   14.60 
   0  -2 -14  157.78   18.40 
   0   2 -14  184.68   14.60 
   0   2 -14  186.28   22.90 
   0   0   0    0.00    0.00 
  
_computing_structure_solution     'SHELXT 2014/5 (Sheldrick, 2014)' 
;
_shelx_hkl_checksum              52117
loop_
_space_group_symop_operation_xyz
'x, y, z'
'-x, y+1/2, -z'
loop_
_atom_site_label
_atom_site_type_symbol
_atom_site_fract_x
_atom_site_fract_y
_atom_site_fract_z
_atom_site_U_iso_or_equiv
_atom_site_adp_type
_atom_site_occupancy
_atom_site_site_symmetry_order
_atom_site_calc_flag
_atom_site_refinement_flags_posn
_atom_site_refinement_flags_adp
_atom_site_refinement_flags_occupancy
_atom_site_disorder_assembly
_atom_site_disorder_group
Cl1 Cl 0.66700(11) 0.19220(10) 0.12632(7) 0.0652(2) Uani 1 1 d . . . . .
O1 O 0.6301(2) 0.2876(3) 0.39841(18) 0.0553(5) Uani 1 1 d . . . . .
N1 N 0.8929(2) 0.4548(3) 0.37596(16) 0.0333(4) Uani 1 1 d . . . . .
H1A H 0.8872 0.4632 0.4604 0.040 Uiso 1 1 calc R U . . .
H1B H 0.8956 0.3229 0.3560 0.040 Uiso 1 1 calc R U . . .
C1 C 0.7328(3) 0.4107(4) 0.0889(2) 0.0416(6) Uani 1 1 d . . . . .
C2 C 0.7583(4) 0.4318(6) -0.0273(2) 0.0589(8) Uani 1 1 d . . . . .
H2 H 0.7405 0.3316 -0.0806 0.071 Uiso 1 1 calc R U . . .
C3 C 0.8097(4) 0.5998(6) -0.0640(3) 0.0668(11) Uani 1 1 d . . . . .
H3 H 0.8269 0.6138 -0.1420 0.080 Uiso 1 1 calc R U . . .
C4 C 0.8354(4) 0.7464(5) 0.0144(3) 0.0605(9) Uani 1 1 d . . . . .
H4 H 0.8700 0.8606 -0.0105 0.073 Uiso 1 1 calc R U . . .
C5 C 0.8105(3) 0.7265(4) 0.1309(2) 0.0442(6) Uani 1 1 d . . . . .
H5 H 0.8287 0.8279 0.1832 0.053 Uiso 1 1 calc R U . . .
C6 C 0.7585(2) 0.5571(4) 0.17119(18) 0.0332(4) Uani 1 1 d . . . . .
C7 C 0.7421(2) 0.5384(3) 0.30300(18) 0.0315(4) Uani 1 1 d . . . . .
C8 C 0.7090(3) 0.7266(3) 0.3613(2) 0.0365(5) Uani 1 1 d . . . . .
H8A H 0.7157 0.7079 0.4469 0.044 Uiso 1 1 calc R U . . .
H8B H 0.7903 0.8164 0.3511 0.044 Uiso 1 1 calc R U . . .
C9 C 0.5456(3) 0.8060(4) 0.3067(2) 0.0442(6) Uani 1 1 d . . . . .
H9A H 0.5408 0.8319 0.2221 0.053 Uiso 1 1 calc R U . . .
H9B H 0.5300 0.9230 0.3462 0.053 Uiso 1 1 calc R U . . .
C10 C 0.4131(3) 0.6698(4) 0.3201(2) 0.0482(6) Uani 1 1 d . . . . .
H10A H 0.4092 0.6558 0.4046 0.058 Uiso 1 1 calc R U . . .
H10B H 0.3115 0.7195 0.2792 0.058 Uiso 1 1 calc R U . . .
C11 C 0.4410(3) 0.4794(4) 0.2674(3) 0.0491(7) Uani 1 1 d . . . . .
H11A H 0.3613 0.3909 0.2826 0.059 Uiso 1 1 calc R U . . .
H11B H 0.4332 0.4897 0.1811 0.059 Uiso 1 1 calc R U . . .
C12 C 0.6049(3) 0.4126(4) 0.3258(2) 0.0387(5) Uani 1 1 d . . . . .
C13 C 1.0455(3) 0.5411(5) 0.3595(2) 0.0440(6) Uani 1 1 d . . . . .
H13A H 1.0643 0.5110 0.2809 0.066 Uiso 1 1 calc R U . . .
H13B H 1.1313 0.4935 0.4194 0.066 Uiso 1 1 calc R U . . .
H13C H 1.0393 0.6745 0.3676 0.066 Uiso 1 1 calc R U . . .
Cl2 Cl 0.94720(7) 0.56087(8) 0.64732(5) 0.04359(17) Uani 1 1 d . . . . .
loop_
_atom_site_aniso_label
_atom_site_aniso_U_11
_atom_site_aniso_U_22
_atom_site_aniso_U_33
_atom_site_aniso_U_23
_atom_site_aniso_U_13
_atom_site_aniso_U_12
Cl1 0.0893(6) 0.0419(4) 0.0619(4) -0.0153(3) 0.0085(4) -0.0082(4)
O1 0.0640(13) 0.0509(12) 0.0528(11) 0.0131(10) 0.0157(9) -0.0126(10)
N1 0.0364(10) 0.0325(10) 0.0302(9) 0.0016(8) 0.0047(8) -0.0011(8)
C1 0.0424(13) 0.0453(15) 0.0352(12) -0.0046(11) 0.0030(10) 0.0052(11)
C2 0.0624(18) 0.081(2) 0.0317(13) -0.0125(14) 0.0058(12) 0.0138(17)
C3 0.0648(19) 0.105(3) 0.0334(14) 0.0117(16) 0.0169(13) 0.0185(19)
C4 0.0617(18) 0.077(2) 0.0455(16) 0.0233(15) 0.0182(13) -0.0011(16)
C5 0.0473(14) 0.0480(15) 0.0377(12) 0.0040(11) 0.0094(10) -0.0056(12)
C6 0.0317(10) 0.0399(11) 0.0276(10) 0.0002(10) 0.0047(8) -0.0009(11)
C7 0.0334(10) 0.0330(11) 0.0274(10) -0.0001(10) 0.0043(8) -0.0022(10)
C8 0.0401(12) 0.0364(12) 0.0323(11) -0.0041(10) 0.0055(9) -0.0020(10)
C9 0.0446(13) 0.0433(14) 0.0448(13) -0.0012(12) 0.0091(10) 0.0044(12)
C10 0.0395(13) 0.0616(18) 0.0452(14) 0.0019(13) 0.0122(11) 0.0027(13)
C11 0.0374(13) 0.0612(17) 0.0489(15) -0.0026(13) 0.0091(11) -0.0118(12)
C12 0.0429(13) 0.0409(13) 0.0334(12) -0.0044(10) 0.0106(10) -0.0102(11)
C13 0.0347(11) 0.0468(15) 0.0502(14) 0.0042(13) 0.0071(10) -0.0023(11)
Cl2 0.0559(3) 0.0403(3) 0.0334(3) 0.0015(3) 0.0058(2) 0.0003(3)
loop_
_atom_type_symbol
_atom_type_description
_atom_type_scat_dispersion_real
_atom_type_scat_dispersion_imag
_atom_type_scat_source
C C 0.0033 0.0016 'International Tables Vol C Tables 4.2.6.8 and 6.1.1.4'
H H 0.0000 0.0000 'International Tables Vol C Tables 4.2.6.8 and 6.1.1.4'
Cl Cl 0.1484 0.1585 'International Tables Vol C Tables 4.2.6.8 and 6.1.1.4'
N N 0.0061 0.0033 'International Tables Vol C Tables 4.2.6.8 and 6.1.1.4'
O O 0.0106 0.0060 'International Tables Vol C Tables 4.2.6.8 and 6.1.1.4'
loop_
_geom_angle_atom_site_label_1
_geom_angle_atom_site_label_2
_geom_angle_atom_site_label_3
_geom_angle
_geom_angle_site_symmetry_1
_geom_angle_site_symmetry_3
_geom_angle_publ_flag
C13 N1 C7 116.34(19) . . ?
C13 N1 H1A 108.2 . . ?
C7 N1 H1A 108.2 . . ?
C13 N1 H1B 108.2 . . ?
C7 N1 H1B 108.2 . . ?
H1A N1 H1B 107.4 . . ?
C2 C1 C6 121.5(3) . . ?
C2 C1 Cl1 116.6(2) . . ?
C6 C1 Cl1 121.86(19) . . ?
C3 C2 C1 120.2(3) . . ?
C3 C2 H2 119.9 . . ?
C1 C2 H2 119.9 . . ?
C4 C3 C2 119.7(3) . . ?
C4 C3 H3 120.2 . . ?
C2 C3 H3 120.2 . . ?
C3 C4 C5 120.5(3) . . ?
C3 C4 H4 119.8 . . ?
C5 C4 H4 119.8 . . ?
C4 C5 C6 121.2(3) . . ?
C4 C5 H5 119.4 . . ?
C6 C5 H5 119.4 . . ?
C1 C6 C5 116.8(2) . . ?
C1 C6 C7 123.8(2) . . ?
C5 C6 C7 119.3(2) . . ?
N1 C7 C6 109.64(16) . . ?
N1 C7 C12 105.96(18) . . ?
C6 C7 C12 115.58(18) . . ?
N1 C7 C8 108.47(17) . . ?
C6 C7 C8 113.6(2) . . ?
C12 C7 C8 103.08(18) . . ?
C9 C8 C7 112.29(19) . . ?
C9 C8 H8A 109.1 . . ?
C7 C8 H8A 109.1 . . ?
C9 C8 H8B 109.1 . . ?
C7 C8 H8B 109.1 . . ?
H8A C8 H8B 107.9 . . ?
C8 C9 C10 111.3(2) . . ?
C8 C9 H9A 109.4 . . ?
C10 C9 H9A 109.4 . . ?
C8 C9 H9B 109.4 . . ?
C10 C9 H9B 109.4 . . ?
H9A C9 H9B 108.0 . . ?
C11 C10 C9 110.7(2) . . ?
C11 C10 H10A 109.5 . . ?
C9 C10 H10A 109.5 . . ?
C11 C10 H10B 109.5 . . ?
C9 C10 H10B 109.5 . . ?
H10A C10 H10B 108.1 . . ?
C12 C11 C10 108.3(2) . . ?
C12 C11 H11A 110.0 . . ?
C10 C11 H11A 110.0 . . ?
C12 C11 H11B 110.0 . . ?
C10 C11 H11B 110.0 . . ?
H11A C11 H11B 108.4 . . ?
O1 C12 C11 124.2(2) . . ?
O1 C12 C7 120.4(2) . . ?
C11 C12 C7 114.6(2) . . ?
N1 C13 H13A 109.5 . . ?
N1 C13 H13B 109.5 . . ?
H13A C13 H13B 109.5 . . ?
N1 C13 H13C 109.5 . . ?
H13A C13 H13C 109.5 . . ?
H13B C13 H13C 109.5 . . ?
loop_
_geom_bond_atom_site_label_1
_geom_bond_atom_site_label_2
_geom_bond_distance
_geom_bond_site_symmetry_2
_geom_bond_publ_flag
Cl1 C1 1.740(3) . ?
O1 C12 1.205(3) . ?
N1 C13 1.489(3) . ?
N1 C7 1.514(3) . ?
N1 H1A 0.9700 . ?
N1 H1B 0.9700 . ?
C1 C2 1.385(4) . ?
C1 C6 1.390(4) . ?
C2 C3 1.371(5) . ?
C2 H2 0.9300 . ?
C3 C4 1.363(5) . ?
C3 H3 0.9300 . ?
C4 C5 1.386(4) . ?
C4 H4 0.9300 . ?
C5 C6 1.397(4) . ?
C5 H5 0.9300 . ?
C6 C7 1.534(3) . ?
C7 C12 1.540(3) . ?
C7 C8 1.548(3) . ?
C8 C9 1.524(3) . ?
C8 H8A 0.9700 . ?
C8 H8B 0.9700 . ?
C9 C10 1.524(4) . ?
C9 H9A 0.9700 . ?
C9 H9B 0.9700 . ?
C10 C11 1.523(4) . ?
C10 H10A 0.9700 . ?
C10 H10B 0.9700 . ?
C11 C12 1.508(4) . ?
C11 H11A 0.9700 . ?
C11 H11B 0.9700 . ?
C13 H13A 0.9600 . ?
C13 H13B 0.9600 . ?
C13 H13C 0.9600 . ?
loop_
_geom_hbond_atom_site_label_D
_geom_hbond_atom_site_label_H
_geom_hbond_atom_site_label_A
_geom_hbond_distance_DH
_geom_hbond_distance_HA
_geom_hbond_distance_DA
_geom_hbond_angle_DHA
_geom_hbond_site_symmetry_A
C13 H13C Cl2 0.96 2.77 3.715(3) 168.5 2_756
C8 H8B Cl2 0.97 2.84 3.807(3) 171.9 2_756
C8 H8A Cl2 0.97 2.90 3.673(2) 136.9 .
N1 H1B Cl2 0.97 2.31 3.163(2) 146.2 2_746
N1 H1A Cl2 0.97 2.19 3.1141(19) 157.7 .
N1 H1A Cl2 0.97 2.19 3.1141(19) 157.7 .
N1 H1B Cl2 0.97 2.31 3.163(2) 146.2 2_746
C8 H8A Cl2 0.97 2.90 3.673(2) 136.9 .
C8 H8B Cl2 0.97 2.84 3.807(3) 171.9 2_756
C13 H13C Cl2 0.96 2.77 3.715(3) 168.5 2_756
loop_
_geom_torsion_atom_site_label_1
_geom_torsion_atom_site_label_2
_geom_torsion_atom_site_label_3
_geom_torsion_atom_site_label_4
_geom_torsion
_geom_torsion_site_symmetry_1
_geom_torsion_site_symmetry_2
_geom_torsion_site_symmetry_3
_geom_torsion_site_symmetry_4
_geom_torsion_publ_flag
C6 C1 C2 C3 -0.1(4) . . . . ?
Cl1 C1 C2 C3 179.8(2) . . . . ?
C1 C2 C3 C4 -0.1(5) . . . . ?
C2 C3 C4 C5 0.2(5) . . . . ?
C3 C4 C5 C6 -0.1(5) . . . . ?
C2 C1 C6 C5 0.3(4) . . . . ?
Cl1 C1 C6 C5 -179.65(18) . . . . ?
C2 C1 C6 C7 -176.1(2) . . . . ?
Cl1 C1 C6 C7 4.0(3) . . . . ?
C4 C5 C6 C1 -0.2(4) . . . . ?
C4 C5 C6 C7 176.4(2) . . . . ?
C13 N1 C7 C6 48.7(3) . . . . ?
C13 N1 C7 C12 174.1(2) . . . . ?
C13 N1 C7 C8 -75.8(2) . . . . ?
C1 C6 C7 N1 81.9(3) . . . . ?
C5 C6 C7 N1 -94.5(3) . . . . ?
C1 C6 C7 C12 -37.8(3) . . . . ?
C5 C6 C7 C12 145.9(2) . . . . ?
C1 C6 C7 C8 -156.6(2) . . . . ?
C5 C6 C7 C8 27.1(3) . . . . ?
N1 C7 C8 C9 -170.64(19) . . . . ?
C6 C7 C8 C9 67.2(3) . . . . ?
C12 C7 C8 C9 -58.6(2) . . . . ?
C7 C8 C9 C10 58.7(3) . . . . ?
C8 C9 C10 C11 -54.7(3) . . . . ?
C9 C10 C11 C12 54.8(3) . . . . ?
C10 C11 C12 O1 107.6(3) . . . . ?
C10 C11 C12 C7 -62.2(3) . . . . ?
N1 C7 C12 O1 5.9(3) . . . . ?
C6 C7 C12 O1 127.5(2) . . . . ?
C8 C7 C12 O1 -108.0(3) . . . . ?
N1 C7 C12 C11 176.04(19) . . . . ?
C6 C7 C12 C11 -62.3(3) . . . . ?
C8 C7 C12 C11 62.2(2) . . . . ?
