#------------------------------------------------------------------------------
#$Date: 2020-04-04 07:26:58 +0300 (Sat, 04 Apr 2020) $
#$Revision: 250104 $
#$URL: file:///home/coder/svn-repositories/cod/cif/4/03/80/4038077.cif $
#------------------------------------------------------------------------------
#
# This file is available in the Crystallography Open Database (COD),
# http://www.crystallography.net/
#
# All data on this site have been placed in the public domain by the
# contributors.
#
data_4038077
loop_
_publ_author_name
'Das, Tamal Kanti'
'Madica, Krishnaprasad'
'Krishnan, Jagadeesh'
'Marelli, Udaya Kiran'
'Biju, Akkattu T.'
_publ_section_title
;
 N-Heterocyclic Carbene Catalysis Exploiting Oxidative Imine Umpolung for
 the Generation of Imidoyl Azoliums.
;
_journal_issue                   7
_journal_name_full               'The Journal of organic chemistry'
_journal_page_first              5114
_journal_page_last               5121
_journal_paper_doi               10.1021/acs.joc.0c00360
_journal_volume                  85
_journal_year                    2020
_chemical_formula_sum            'C24 H14 F6 N2 O2'
_chemical_formula_weight         476.37
_space_group_crystal_system      triclinic
_space_group_IT_number           2
_space_group_name_Hall           '-P 1'
_space_group_name_H-M_alt        'P -1'
_atom_sites_solution_hydrogens   mixed
_audit_creation_method           SHELXL-2017/1
_cell_angle_alpha                92.866(4)
_cell_angle_beta                 91.401(4)
_cell_angle_gamma                99.979(4)
_cell_formula_units_Z            1
_cell_length_a                   5.7211(4)
_cell_length_b                   8.2943(6)
_cell_length_c                   11.0522(7)
_cell_measurement_reflns_used    250
_cell_measurement_temperature    296(2)
_cell_measurement_theta_max      27.6
_cell_measurement_theta_min      2.2
_cell_volume                     515.58(6)
_computing_cell_refinement       'SMART APEX II'
_computing_data_collection       'SMART APEX II (BRUKER,2010)'
_computing_data_reduction        'SAINT (BRUKER,2000)'
_computing_molecular_graphics    'Ortep-3v2 for windows (Farrugia,1997)'
_computing_publication_material  'PLATON (Spek, 2008)'
_computing_structure_refinement  'SHELXL-2017/1 (Sheldrick, 2017)'
_computing_structure_solution    'SHELXS-2017/1 (Sheldrick, 2017)'
_diffrn_ambient_temperature      296(2)
_diffrn_measured_fraction_theta_full 0.979
_diffrn_measured_fraction_theta_max 0.974
_diffrn_measurement_device_type  'CCD area detector'
_diffrn_measurement_method       'phi and omega scans'
_diffrn_radiation_type           MoK\a
_diffrn_radiation_wavelength     0.71073
_diffrn_reflns_av_R_equivalents  0.0247
_diffrn_reflns_av_unetI/netI     0.0269
_diffrn_reflns_Laue_measured_fraction_full 0.979
_diffrn_reflns_Laue_measured_fraction_max 0.974
_diffrn_reflns_limit_h_max       7
_diffrn_reflns_limit_h_min       -7
_diffrn_reflns_limit_k_max       10
_diffrn_reflns_limit_k_min       -10
_diffrn_reflns_limit_l_max       14
_diffrn_reflns_limit_l_min       -13
_diffrn_reflns_number            8046
_diffrn_reflns_point_group_measured_fraction_full 0.979
_diffrn_reflns_point_group_measured_fraction_max 0.974
_diffrn_reflns_theta_full        25.242
_diffrn_reflns_theta_max         27.497
_diffrn_reflns_theta_min         1.846
_diffrn_source                   'fine-focus sealed tube'
_exptl_absorpt_coefficient_mu    0.135
_exptl_absorpt_correction_T_max  0.9873
_exptl_absorpt_correction_T_min  0.8623
_exptl_absorpt_correction_type   multi-scan
_exptl_absorpt_process_details
;
'XPREP' - A PROGRAM DATA PREPARATION & RECIPROCAL 
SPACE EXPLORATION,
Bruker Analytical X-ray Systems, 1997
;
_exptl_crystal_colour            White
_exptl_crystal_density_diffrn    1.534
_exptl_crystal_description       Block
_exptl_crystal_F_000             242
_exptl_crystal_size_max          0.20
_exptl_crystal_size_mid          0.10
_exptl_crystal_size_min          0.10
_refine_diff_density_max         0.153
_refine_diff_density_min         -0.182
_refine_diff_density_rms         0.036
_refine_ls_extinction_method     none
_refine_ls_goodness_of_fit_ref   1.030
_refine_ls_hydrogen_treatment    mixed
_refine_ls_matrix_type           full
_refine_ls_number_parameters     158
_refine_ls_number_reflns         2307
_refine_ls_number_restraints     0
_refine_ls_restrained_S_all      1.030
_refine_ls_R_factor_all          0.0706
_refine_ls_R_factor_gt           0.0410
_refine_ls_shift/su_max          0.000
_refine_ls_shift/su_mean         0.000
_refine_ls_structure_factor_coef Fsqd
_refine_ls_weighting_details
'w=1/[\s^2^(Fo^2^)+(0.0539P)^2^+0.0719P] where P=(Fo^2^+2Fc^2^)/3'
_refine_ls_weighting_scheme      calc
_refine_ls_wR_factor_gt          0.1031
_refine_ls_wR_factor_ref         0.1193
_reflns_Friedel_coverage         0.000
_reflns_number_gt                1518
_reflns_number_total             2307
_reflns_threshold_expression     'I > 2\s(I)'
_cod_data_source_file            jo0c00360_si_002.cif
_cod_data_source_block           shelx
_cod_depositor_comments          'Adding full bibliography for 4038077.cif.'
_cod_database_code               4038077
_shelx_shelxl_version_number     2017/1
_shelx_space_group_comment
;
The symmetry employed for this shelxl refinement is uniquely defined
by the following loop, which should always be used as a source of
symmetry information in preference to the above space-group names.
They are only intended as comments.
;
_shelx_res_file
;
TITL RED1 in P-1
    shelx.res
    created by SHELXL-2017/1 at 20:54:31 on 11-Jul-2019
CELL  0.71073   5.7211   8.2943  11.0522   92.866   91.401   99.979
ZERR     1.00   0.0004   0.0006   0.0007    0.004    0.004    0.004
LATT   1
SFAC  C    H    F    N    O
UNIT  24 14 6 2 2
MERG   2
OMIT    -2.00  55.00
FMAP   2
PLAN   20
ACTA
BOND
L.S.  30
TEMP    23.00
WGHT    0.053900    0.071900
FVAR       0.32828
H7    2    0.464157    0.578239    0.735725    11.00000    0.06110
MOLE    1
C9    1    0.026367    0.854744    0.936758    11.00000    0.03498    0.04312 =
         0.03810    0.00152   -0.00241    0.00597
N1    4   -0.121488    0.579993    0.856573    11.00000    0.03843    0.04256 =
         0.05263    0.00031    0.00205    0.00332
C1    1   -0.075918    0.435167    0.796238    11.00000    0.04480    0.04023 =
         0.04457    0.00263   -0.00438    0.00698
O1    5    0.274610    0.702416    0.830373    11.00000    0.03428    0.05302 =
         0.06110   -0.01576    0.00116    0.00406
C11   1    0.208470    0.990733    0.941823    11.00000    0.03452    0.05066 =
         0.04571   -0.00099    0.00418    0.00558
AFIX  43
H11   2    0.348951    0.984693    0.902630    11.00000   -1.20000
AFIX   0
C8    1    0.049896    0.700494    0.870692    11.00000    0.03433    0.04619 =
         0.04316    0.00045   -0.00053    0.00851
C6    1    0.130409    0.432380    0.733813    11.00000    0.04321    0.03979 =
         0.04779    0.00074   -0.00491    0.00851
C10   1   -0.182086    0.866456    0.995775    11.00000    0.03723    0.04239 =
         0.04999   -0.00136    0.00138   -0.00102
AFIX  43
H10   2   -0.305027    0.776717    0.993019    11.00000   -1.20000
AFIX   0
C7    1    0.301149    0.591235    0.730212    11.00000    0.03748    0.04693 =
         0.05750   -0.01021    0.00430    0.00849
F3    3    0.296520    0.586558    0.516825    11.00000    0.10829    0.06753 =
         0.06164   -0.00613    0.02581    0.01021
C5    1    0.168599    0.288412    0.675210    11.00000    0.05718    0.04677 =
         0.05807   -0.00160   -0.00150    0.01525
AFIX  43
H5    2    0.307999    0.286078    0.634114    11.00000   -1.20000
AFIX   0
F1    3    0.057714    0.720945    0.605053    11.00000    0.09708    0.07172 =
         0.07032    0.01429    0.00244    0.03274
C3    1   -0.204822    0.150734    0.739509    11.00000    0.07215    0.04026 =
         0.06317    0.00549   -0.00549   -0.00226
AFIX  43
H3    2   -0.317964    0.055769    0.741060    11.00000   -1.20000
AFIX   0
C4    1   -0.000914    0.147996    0.677865    11.00000    0.08197    0.03933 =
         0.05933   -0.00118   -0.00728    0.01337
AFIX  43
H4    2    0.023702    0.051462    0.637663    11.00000   -1.20000
AFIX   0
C2    1   -0.244073    0.292804    0.799278    11.00000    0.05257    0.04796 =
         0.05822    0.00674    0.00030   -0.00057
AFIX  43
H2    2   -0.382539    0.293511    0.841514    11.00000   -1.20000
AFIX   0
F2    3    0.428426    0.816181    0.611080    11.00000    0.12904    0.06468 =
         0.10285    0.00475    0.02421   -0.03697
C12   1    0.271266    0.679106    0.615654    11.00000    0.06781    0.04280 =
         0.06258   -0.00440    0.01591   -0.00392
HKLF    4




REM  RED1 in P-1
REM R1 =  0.0410 for    1518 Fo > 4sig(Fo)  and  0.0706 for all    2307 data
REM    158 parameters refined using      0 restraints

END

WGHT      0.0526      0.0759

REM Highest difference peak  0.153,  deepest hole -0.182,  1-sigma level  0.036
Q1    1   0.2060  0.7962  0.6347  11.00000  0.05    0.15
Q2    1   0.5358  0.7747  0.6848  11.00000  0.05    0.15
Q3    1   0.1942  0.5024  0.7240  11.00000  0.05    0.14
Q4    1  -0.0343  0.8499  0.9820  11.00000  0.05    0.13
Q5    1   0.0531  0.7685  0.9356  11.00000  0.05    0.12
Q6    1   0.4117  0.5452  0.5612  11.00000  0.05    0.12
Q7    1  -0.1881  0.5449  0.9540  11.00000  0.05    0.12
Q8    1   0.0489  0.4250  0.7814  11.00000  0.05    0.12
Q9    1   0.4370  0.5737  0.5800  11.00000  0.05    0.12
Q10   1   0.1639  0.3690  0.7284  11.00000  0.05    0.11
Q11   1  -0.2993  0.6257  1.0223  11.00000  0.05    0.11
Q12   1   0.0093  0.4449  0.7269  11.00000  0.05    0.11
Q13   1   0.4140  0.8491  0.5988  11.00000  0.05    0.11
Q14   1   0.1663  0.6998  0.8533  11.00000  0.05    0.11
Q15   1   0.1107  0.3754  0.6759  11.00000  0.05    0.11
Q16   1   0.1279  0.9056  0.9555  11.00000  0.05    0.11
Q17   1  -0.0440  0.6582  0.8011  11.00000  0.05    0.10
Q18   1  -0.1542  0.9214  1.0567  11.00000  0.05    0.10
Q19   1  -0.0183 -0.0714  0.7245  11.00000  0.05    0.10
Q20   1  -0.2197  0.7231  1.0754  11.00000  0.05    0.10
;
_shelx_res_checksum              76627
_shelx_hkl_file
;
  -1   0   0  312.21    7.66
  -1   0   0  328.61    7.69
   1   0   0  321.12    7.71
   1   0   0  334.40    7.67
   1   0   0  335.68    7.66
  -2   0   0   47.85    1.22
   2   0   0   46.60    1.20
   2   0   0   46.49    1.16
   2   0   0   48.05    1.21
  -3   0   0    3.90    0.17
  -3   0   0    3.59    0.22
  -3   0   0    3.81    0.17
   3   0   0    3.73    0.16
   3   0   0    3.70    0.15
   3   0   0    3.57    0.16
  -4   0   0    9.10    0.33
  -4   0   0    9.00    0.41
  -4   0   0    9.64    0.33
   4   0   0    8.83    0.33
   4   0   0    8.89    0.32
  -5   0   0    0.44    0.11
  -5   0   0    0.20    0.15
   5   0   0    0.22    0.08
   5   0   0    0.40    0.09
  -6   0   0   -0.02    0.14
  -6   0   0    0.08    0.11
   6   0   0    0.03    0.08
   6   0   0    0.03    0.08
  -7   0   0    0.31    0.22
   7   0   0    0.18    0.13
   7   0   0    0.43    0.14
  -8   0   0   -0.06    0.20
  -8   1   0    0.45    0.26
   7  -1   0    0.74    0.15
   7  -1   0    0.61    0.12
  -7   1   0    1.23    0.30
   6  -1   0    0.15    0.09
   6  -1   0    0.22    0.09
  -6   1   0    0.09    0.15
   5  -1   0    0.04    0.07
   5  -1   0    0.06    0.06
  -5   1   0   -0.12    0.11
  -4   1   0    9.17    0.41
  -3   1   0    0.48    0.11
  -2   1   0   75.82    1.88
   1  -1   0  278.91    6.50
   1  -1   0  289.08    6.50
  -1   1   0  233.91    6.51
  -1   1   0  292.55    6.50
  -1   1   0  287.89    6.53
   0  -1   0   90.60    2.16
   0  -1   0   90.55    2.16
   0   1   0   92.42    2.16
   0   1   0   90.62    2.16
   0   1   0   87.87    2.26
  -1  -1   0  160.06    3.83
  -1  -1   0  165.38    3.82
  -1  -1   0  156.19    3.99
  -1  -1   0  158.93    3.83
  -1  -1   0  154.36    4.00
   1   1   0  159.29    3.83
   1   1   0  159.73    3.82
   1   1   0  156.48    4.00
   1   1   0  172.54    3.84
   1   1   0  165.07    4.00
  -2  -1   0    2.45    0.13
  -2  -1   0    2.67    0.17
  -2  -1   0    2.63    0.12
  -2  -1   0    2.53    0.12
  -2  -1   0    2.63    0.14
   2   1   0    2.38    0.13
   2   1   0    2.32    0.13
   2   1   0    2.67    0.13
  -3  -1   0    6.32    0.31
  -3  -1   0    6.51    0.25
  -3  -1   0    6.44    0.25
   3   1   0    6.16    0.25
   3   1   0    6.26    0.25
   3   1   0    6.18    0.24
  -4  -1   0   37.24    1.09
   4   1   0   36.39    1.03
   4   1   0   34.57    0.96
   4   1   0   36.23    1.02
  -5  -1   0   65.33    1.93
  -5  -1   0   68.91    1.81
   5   1   0   69.59    1.88
   5   1   0   72.00    1.88
  -6  -1   0    1.40    0.27
  -6  -1   0    1.80    0.22
   6   1   0    1.75    0.21
   6   1   0    1.86    0.22
  -7  -1   0    0.51    0.25
  -7  -1   0    0.50    0.16
   7   1   0    0.58    0.17
  -8   2   0   -0.13    0.20
   7  -2   0   -0.03    0.09
   7  -2   0   -0.07    0.09
  -7   2   0   -0.01    0.17
  -6   2   0   -0.18    0.12
  -5   2   0    1.77    0.25
  -4   2   0    0.41    0.13
  -3   2   0   57.25    1.52
  -2   2   0   32.54    0.82
   1  -2   0   26.68    0.70
   1  -2   0   27.26    0.72
   1  -2   0   27.17    0.70
   1  -2   0   27.90    0.73
  -1   2   0   27.12    0.71
  -1   2   0   28.56    0.72
  -1   2   0   27.17    0.70
  -1   2   0   26.67    0.70
   0  -2   0  118.60    2.79
   0  -2   0  118.92    2.80
   0  -2   0  106.45    2.92
   0   2   0  119.74    2.80
   0   2   0  111.78    2.91
   0   2   0  121.47    2.80
  -1  -2   0   47.68    1.27
  -1  -2   0   48.45    1.23
  -1  -2   0   49.80    1.27
  -1  -2   0   48.40    1.27
  -1  -2   0   47.57    1.22
   1   2   0   47.28    1.23
   1   2   0   48.83    1.28
   1   2   0   47.31    1.27
  -2  -2   0    4.64    0.20
  -2  -2   0    4.49    0.20
  -2  -2   0    4.08    0.20
  -2  -2   0    4.29    0.21
  -2  -2   0    4.29    0.24
   2   2   0    4.58    0.21
   2   2   0    4.59    0.21
   2   2   0    4.51    0.21
  -3  -2   0    7.58    0.31
  -3  -2   0    7.23    0.28
  -3  -2   0    7.52    0.31
  -3  -2   0    7.15    0.34
   3   2   0    7.54    0.31
   3   2   0    7.32    0.30
   3   2   0    7.18    0.31
  -4  -2   0   38.67    1.05
  -4  -2   0   35.10    1.04
  -4  -2   0   35.16    1.12
   4   2   0   36.84    1.02
   4   2   0   36.18    1.06
   4   2   0   37.78    1.09
  -5  -2   0    4.32    0.34
  -5  -2   0    3.67    0.27
   5   2   0    4.31    0.28
   5   2   0    4.17    0.29
  -6  -2   0    0.65    0.23
  -6  -2   0    0.30    0.14
   6   2   0    0.15    0.11
  -7  -2   0    0.40    0.16
  -7  -2   0    0.39    0.22
   7   2   0    0.54    0.18
   2  -3   0    1.18    0.09
   2  -3   0    1.39    0.10
   2  -3   0    1.36    0.10
  -2   3   0    1.42    0.12
   1  -3   0    0.56    0.08
   1  -3   0    0.56    0.07
   1  -3   0    0.50    0.07
  -1   3   0    0.55    0.08
  -1   3   0    0.54    0.09
  -1   3   0    0.60    0.07
  -1   3   0    0.60    0.08
   0  -3   0    3.63    0.18
   0  -3   0    3.20    0.17
   0   3   0    3.35    0.17
   0   3   0    3.50    0.18
   0   3   0    3.54    0.17
   0   3   0    3.50    0.18
  -1  -3   0    0.95    0.17
  -1  -3   0    0.75    0.11
  -1  -3   0    0.50    0.08
  -1  -3   0    0.60    0.10
   1   3   0    0.79    0.12
   1   3   0    0.73    0.10
  -2  -3   0  129.69    3.23
  -2  -3   0  120.19    3.11
  -2  -3   0  127.28    3.24
  -2  -3   0  130.78    3.15
   2   3   0  125.47    3.24
   2   3   0  124.59    3.12
   2   3   0  124.73    3.25
  -3  -3   0    0.74    0.16
  -3  -3   0    0.68    0.11
  -3  -3   0    0.75    0.13
  -3  -3   0    0.62    0.14
   3   3   0    0.77    0.13
   3   3   0    0.75    0.12
   3   3   0    0.38    0.09
  -4  -3   0    5.51    0.36
  -4  -3   0    4.97    0.30
   4   3   0    5.64    0.31
   4   3   0    5.59    0.30
   4   3   0    5.42    0.29
  -5  -3   0    1.39    0.25
   5   3   0    1.56    0.21
   5   3   0    1.73    0.22
  -6  -3   0    0.26    0.14
  -6  -3   0    0.25    0.19
   6   3   0    0.27    0.14
  -7  -3   0    0.00    0.20
  -7  -3   0    0.09    0.15
   4  -4   0    1.27    0.12
  -4   4   0    1.53    0.13
   3  -4   0    0.52    0.08
   3  -4   0    0.54    0.08
   3  -4   0    0.60    0.08
  -3   4   0    0.44    0.09
  -3   4   0    0.48    0.08
   2  -4   0   19.65    0.60
   2  -4   0   19.93    0.60
   2  -4   0   19.89    0.57
  -2   4   0   20.59    0.59
  -2   4   0   19.15    0.58
   1  -4   0    9.43    0.35
   1  -4   0    9.50    0.34
  -1   4   0    9.50    0.34
  -1   4   0    9.74    0.37
  -1   4   0    9.35    0.35
  -1   4   0    9.38    0.34
   0  -4   0    8.09    0.32
   0   4   0    8.62    0.35
   0   4   0    8.42    0.33
   0   4   0    8.01    0.32
  -1  -4   0    1.41    0.24
  -1  -4   0    1.20    0.14
  -1  -4   0    1.69    0.17
  -1  -4   0    1.26    0.15
   1   4   0    1.28    0.15
   1   4   0    1.43    0.15
  -2  -4   0   11.53    0.49
  -2  -4   0   11.31    0.44
  -2  -4   0   10.76    0.44
  -2  -4   0   12.33    0.44
   2   4   0   11.71    0.45
   2   4   0   11.60    0.45
  -3  -4   0    3.94    0.26
  -3  -4   0    4.06    0.25
  -3  -4   0    4.14    0.30
   3   4   0    3.86    0.26
   3   4   0    3.84    0.25
   3   4   0    4.09    0.27
  -4  -4   0    1.07    0.23
  -4  -4   0    1.04    0.18
   4   4   0    1.23    0.19
   4   4   0    1.21    0.19
  -5  -4   0    0.08    0.12
  -5  -4   0   -0.22    0.13
   5   4   0   -0.06    0.10
  -6  -4   0    1.52    0.25
  -6  -4   0    1.44    0.29
  -7  -4   0    1.11    0.24
  -7  -4   0    0.71    0.27
   5  -5   0    2.17    0.18
   5  -5   0    2.12    0.19
   4  -5   0    9.32    0.35
   4  -5   0    8.99    0.35
  -4   5   0    8.84    0.34
   3  -5   0    0.45    0.10
   3  -5   0    0.58    0.10
   3  -5   0    0.36    0.08
  -3   5   0    0.11    0.06
  -3   5   0    0.38    0.10
   2  -5   0    0.29    0.08
   2  -5   0    0.05    0.07
   2  -5   0    0.30    0.09
  -2   5   0    0.20    0.09
  -2   5   0    0.25    0.09
   1  -5   0    9.25    0.39
   1  -5   0    8.81    0.35
  -1   5   0    9.63    0.37
  -1   5   0    8.70    0.36
  -1   5   0    7.77    0.33
   0  -5   0    0.00    0.07
   0  -5   0    0.02    0.05
   0  -5   0   -0.02    0.05
   0   5   0   -0.04    0.07
   0   5   0    0.02    0.06
   0   5   0    0.01    0.07
  -1  -5   0   14.87    0.53
  -1  -5   0   13.62    0.51
  -1  -5   0   13.97    0.63
  -1  -5   0   14.04    0.52
   1   5   0   13.26    0.51
   1   5   0   13.76    0.51
  -2  -5   0    0.40    0.12
  -2  -5   0    0.20    0.13
  -2  -5   0    0.37    0.12
  -2  -5   0    0.34    0.11
   2   5   0    0.28    0.11
   2   5   0    0.35    0.11
  -3  -5   0    2.06    0.23
  -3  -5   0    1.88    0.26
   3   5   0    2.28    0.23
   3   5   0    2.78    0.29
  -4  -5   0    1.65    0.27
  -4  -5   0    1.65    0.23
   4   5   0    1.68    0.24
  -5  -5   0   -0.04    0.15
  -5  -5   0    0.13    0.13
  -6  -5   0    0.41    0.23
   6  -6   0    0.68    0.15
   6  -6   0    0.44    0.11
   5  -6   0   26.62    0.85
   5  -6   0   28.34    0.84
   4  -6   0   28.38    0.89
   4  -6   0   29.11    0.88
  -4   6   0   29.92    0.86
   3  -6   0    0.14    0.08
   3  -6   0    0.25    0.09
   3  -6   0    0.20    0.09
  -3   6   0    0.27    0.11
   2  -6   0    0.17    0.09
   2  -6   0    0.12    0.08
  -2   6   0    0.41    0.12
  -2   6   0    0.26    0.12
   1  -6   0   -0.03    0.08
   1  -6   0    0.04    0.07
  -1   6   0    0.10    0.07
  -1   6   0    0.05    0.08
   0  -6   0   -0.03    0.05
   0  -6   0   -0.01    0.05
   0  -6   0    0.05    0.08
   0   6   0   -0.05    0.05
   0   6   0    0.00    0.07
   0   6   0    0.06    0.07
   0   6   0    0.02    0.08
  -1  -6   0    2.89    0.25
  -1  -6   0    2.64    0.23
  -1  -6   0    2.75    0.23
  -1  -6   0    3.10    0.39
   1   6   0    2.90    0.23
   1   6   0    2.94    0.25
   1   6   0    3.16    0.24
  -2  -6   0   -0.02    0.08
  -2  -6   0   -0.11    0.13
   2   6   0    0.00    0.08
   2   6   0    0.20    0.11
  -3  -6   0    0.44    0.14
  -3  -6   0    0.38    0.18
   3   6   0   -0.03    0.11
  -4  -6   0    0.18    0.14
  -4  -6   0   -0.21    0.14
  -5  -6   0   -0.18    0.15
  -5  -6   0   -0.01    0.14
  -6  -6   0   -0.03    0.17
   6  -7   0    0.14    0.09
   6  -7   0   -0.13    0.11
   5  -7   0    0.36    0.11
   5  -7   0    0.34    0.14
  -5   7   0    0.46    0.14
   4  -7   0    1.03    0.17
   4  -7   0    1.32    0.17
  -4   7   0    1.54    0.20
   3  -7   0    0.00    0.10
  -3   7   0    0.02    0.10
   2  -7   0    2.12    0.24
   2  -7   0    2.24    0.22
  -2   7   0    1.87    0.22
   1  -7   0    9.74    0.47
   1  -7   0   10.79    0.45
  -1   7   0   10.71    0.47
  -1   7   0   10.43    0.44
   0  -7   0   85.70    2.38
   0  -7   0   87.95    2.30
   0   7   0   89.10    2.04
   0   7   0   83.64    2.39
   0   7   0   83.47    2.29
  -1  -7   0   31.72    1.22
  -1  -7   0   33.91    1.07
   1   7   0   32.65    1.06
  -2  -7   0    1.13    0.27
  -2  -7   0    1.03    0.20
   2   7   0    1.49    0.24
  -3  -7   0    0.08    0.12
  -3  -7   0    0.17    0.18
   3   7   0    0.08    0.15
  -4  -7   0   -0.03    0.17
  -4  -7   0    0.08    0.14
  -5  -7   0    0.79    0.26
  -5  -7   0    0.37    0.20
   5  -8   0    0.01    0.10
  -5   8   0   -0.10    0.11
  -4   8   0    1.19    0.20
  -3   8   0    0.11    0.12
  -2   8   0    1.15    0.20
   1  -8   0    3.14    0.28
   1  -8   0    3.08    0.31
  -1   8   0    2.90    0.31
   0  -8   0    5.80    0.37
   0   8   0    5.96    0.28
   0   8   0    6.00    0.38
  -1  -8   0    2.89    0.32
  -1  -8   0    2.56    0.41
   1   8   0    2.20    0.28
   1   8   0    2.63    0.24
  -2  -8   0    0.46    0.17
  -2  -8   0    0.54    0.24
   2   8   0    0.55    0.19
  -3  -8   0    0.59    0.25
  -3  -8   0    0.43    0.18
  -4  -8   0    0.71    0.23
  -4  -8   0    0.92    0.28
  -5   9   0    0.23    0.13
  -4   9   0    0.09    0.14
  -3   9   0    2.57    0.29
  -2   9   0    1.80    0.25
  -1   9   0    0.80    0.20
   0  -9   0    0.52    0.17
   0   9   0    0.30    0.17
  -1  -9   0    0.61    0.21
  -1  -9   0    0.49    0.28
   1   9   0    0.36    0.18
  -2  -9   0    0.77    0.22
  -2  -9   0    1.17    0.33
   2   9   0    0.86    0.18
   2   9   0    0.46    0.20
  -3  -9   0    0.35    0.26
  -3  -9   0    0.08    0.16
  -4  -9   0    0.79    0.28
  -4  -9   0    0.84    0.26
  -5  10   0    0.52    0.17
  -4  10   0    0.14    0.13
  -3  10   0    0.60    0.17
  -2  10   0    0.77    0.20
  -1  10   0    0.40    0.17
   0 -10   0    0.11    0.30
   0  10   0    0.27    0.17
  -1 -10   0    0.24    0.29
  -1 -10   0    0.54    0.23
   1  10   0    0.58    0.21
  -2 -10   0    1.53    0.38
  -2 -10   0    1.31    0.29
   2  10   0    1.16    0.29
  -3 -10   0   -0.02    0.21
  -3 -10   0   -0.03    0.23
  -4  11   0    0.22    0.17
  -3  11   0    0.31    0.19
  -2  11   0   -0.18    0.14
  -1  11   0    0.31    0.20
   0 -11   0    0.78    0.39
   0  11   0    1.01    0.28
  -1 -11   0   -0.17    0.24
   1  11   0   -0.16    0.17
   1  11  -1    0.30    0.22
  -1 -11   1    0.09    0.33
   0  11  -1    0.11    0.19
   0 -11   1    0.06    0.33
  -1  11  -1    0.12    0.16
  -2  11  -1    0.14    0.18
  -3  11  -1    0.62    0.21
  -4  11  -1    0.03    0.16
  -3 -10   1    0.31    0.23
  -3 -10   1    0.18    0.26
   2  10  -1    0.88    0.28
  -2 -10   1    1.30    0.36
  -2 -10   1    1.31    0.29
   1  10  -1    1.57    0.29
  -1 -10   1    1.59    0.30
  -1 -10   1    1.59    0.44
   0  10  -1    0.28    0.16
  -1  10  -1    1.02    0.24
  -2  10  -1    0.39    0.19
  -3  10  -1    0.37    0.17
  -4  10  -1    0.09    0.15
  -5  10  -1   -0.02    0.15
  -4  -9   1    0.21    0.21
  -4  -9   1    0.01    0.21
  -3  -9   1    0.49    0.20
  -3  -9   1   -0.31    0.19
   2   9  -1    0.11    0.16
   2   9  -1    0.02    0.13
  -2  -9   1   -0.17    0.24
  -2  -9   1    0.08    0.14
   1   9  -1    0.22    0.15
  -1  -9   1    0.06    0.15
  -1  -9   1   -0.05    0.23
   0   9  -1    0.15    0.14
   0  -9   1    0.03    0.13
  -1   9  -1   -0.04    0.12
  -2   9  -1    0.01    0.11
  -3   9  -1    3.23    0.33
  -4   9  -1    2.22    0.28
  -5   9  -1    0.08    0.14
   5  -9   1   -0.06    0.12
  -6   9  -1    0.02    0.13
  -4  -8   1    0.12    0.17
  -4  -8   1    0.00    0.18
   3   8  -1   -0.03    0.13
  -3  -8   1   -0.04    0.18
  -3  -8   1   -0.03    0.14
   2   8  -1    0.14    0.12
   2   8  -1    0.03    0.13
  -2  -8   1    0.05    0.21
  -2  -8   1    0.34    0.15
   1   8  -1   -0.01    0.11
   1   8  -1   -0.07    0.09
  -1  -8   1   -0.01    0.12
  -1  -8   1    0.34    0.27
   0   8  -1    1.28    0.16
   0   8  -1    1.26    0.23
   0  -8   1    1.05    0.20
  -1   8  -1    1.50    0.24
   1  -8   1    1.83    0.23
  -2   8  -1    0.07    0.13
  -3   8  -1    1.15    0.20
  -4   8  -1    0.09    0.12
   4  -8   1    0.17    0.11
  -5   8  -1    0.05    0.12
   5  -8   1    0.10    0.11
  -5  -7   1    0.11    0.18
  -5  -7   1    0.37    0.23
   4   7  -1    0.14    0.15
  -4  -7   1    0.39    0.21
  -4  -7   1    0.21    0.15
   3   7  -1    0.65    0.16
   3   7  -1    0.49    0.18
  -3  -7   1    0.92    0.26
  -3  -7   1    0.41    0.17
   2   7  -1    1.43    0.22
   2   7  -1    1.46    0.20
  -2  -7   1    1.41    0.30
  -2  -7   1    1.28    0.21
   1   7  -1   -0.09    0.11
   1   7  -1   -0.02    0.08
  -1  -7   1    0.17    0.21
  -1  -7   1   -0.07    0.11
   0   7  -1    1.50    0.15
   0   7  -1    0.69    0.19
   0  -7   1    1.22    0.21
   0  -7   1    1.01    0.20
  -1   7  -1   -0.06    0.10
  -1   7  -1   -0.05    0.10
   1  -7   1    0.12    0.11
   1  -7   1    0.04    0.11
  -2   7  -1    1.23    0.19
   2  -7   1    0.99    0.16
   2  -7   1    1.67    0.20
  -3   7  -1    0.22    0.12
   3  -7   1    0.25    0.10
   3  -7   1    0.28    0.12
  -4   7  -1    0.78    0.15
   4  -7   1    1.25    0.19
   4  -7   1    0.84    0.15
  -5   7  -1    0.06    0.13
   5  -7   1    0.34    0.15
   5  -7   1    0.23    0.11
   6  -7   1    0.29    0.14
   6  -7   1    0.04    0.11
  -6  -6   1    0.00    0.17
  -5  -6   1    0.33    0.17
  -5  -6   1    0.02    0.19
  -4  -6   1   -0.28    0.14
  -4  -6   1    0.19    0.14
   3   6  -1    5.53    0.35
  -3  -6   1    4.80    0.44
  -3  -6   1    4.86    0.34
   2   6  -1    0.18    0.10
   2   6  -1    0.34    0.12
  -2  -6   1    0.27    0.12
  -2  -6   1    0.09    0.18
   1   6  -1    0.13    0.12
   1   6  -1    0.19    0.10
   1   6  -1    0.14    0.09
   1   6  -1   -0.02    0.09
  -1  -6   1    0.05    0.09
  -1  -6   1    0.03    0.09
  -1  -6   1    0.21    0.10
   0   6  -1    7.98    0.39
   0   6  -1    7.81    0.36
   0   6  -1    8.05    0.30
   0   6  -1    8.03    0.39
   0  -6   1    8.07    0.38
   0  -6   1    8.34    0.38
  -1   6  -1    0.94    0.16
  -1   6  -1    0.96    0.13
   1  -6   1    1.12    0.16
   1  -6   1    1.05    0.16
  -2   6  -1    6.36    0.32
  -2   6  -1    6.97    0.33
   2  -6   1    6.66    0.31
   2  -6   1    6.17    0.31
   2  -6   1    6.66    0.33
  -3   6  -1    0.32    0.11
   3  -6   1    0.13    0.09
   3  -6   1    0.25    0.09
   3  -6   1    0.03    0.07
  -4   6  -1    1.57    0.18
   4  -6   1    1.61    0.19
   4  -6   1    1.81    0.20
  -5   6  -1    4.52    0.27
   5  -6   1    4.52    0.28
   5  -6   1    4.88    0.30
   6  -6   1    0.56    0.13
   6  -6   1    0.74    0.15
   7  -6   1    0.29    0.13
  -6  -5   1    0.26    0.20
  -5  -5   1    0.37    0.16
  -5  -5   1    0.31    0.19
   4   5  -1   -0.10    0.10
  -4  -5   1    0.16    0.12
  -4  -5   1   -0.01    0.12
   3   5  -1    0.62    0.15
   3   5  -1    0.81    0.15
  -3  -5   1    1.06    0.20
  -3  -5   1    0.77    0.16
   2   5  -1    3.52    0.25
   2   5  -1    3.69    0.25
  -2  -5   1    3.84    0.36
  -2  -5   1    3.44    0.24
  -2  -5   1    3.43    0.25
  -2  -5   1    3.73    0.25
   1   5  -1   21.97    0.71
   1   5  -1   21.16    0.72
   1   5  -1   21.29    0.71
  -1  -5   1   20.87    0.71
  -1  -5   1   21.07    0.70
  -1  -5   1   22.03    0.71
   0   5  -1    2.24    0.15
   0   5  -1    2.22    0.21
   0   5  -1    2.41    0.19
   0   5  -1    2.77    0.21
   0  -5   1    2.51    0.20
  -1   5  -1    2.32    0.19
  -1   5  -1    2.22    0.19
  -1   5  -1    2.05    0.16
   1  -5   1    2.53    0.22
   1  -5   1    2.57    0.18
  -2   5  -1    4.53    0.25
  -2   5  -1    5.00    0.21
  -2   5  -1    4.49    0.25
   2  -5   1    4.84    0.25
   2  -5   1    4.16    0.24
   2  -5   1    4.07    0.22
  -3   5  -1    1.53    0.16
  -3   5  -1    1.55    0.16
   3  -5   1    1.48    0.16
   3  -5   1    1.19    0.14
   3  -5   1    1.34    0.14
  -4   5  -1    0.41    0.11
   4  -5   1    0.30    0.10
   4  -5   1    0.20    0.09
  -5   5  -1    0.31    0.13
   5  -5   1    0.32    0.12
   5  -5   1    0.58    0.13
   6  -5   1   -0.05    0.08
   6  -5   1    0.14    0.10
   7  -5   1    0.12    0.12
  -7  -4   1    0.02    0.20
  -7  -4   1   -0.08    0.15
   6   4  -1    2.94    0.32
  -6  -4   1    2.27    0.34
   5   4  -1    0.44    0.15
  -5  -4   1    0.24    0.14
  -5  -4   1    0.41    0.20
   4   4  -1    2.01    0.22
  -4  -4   1    1.90    0.22
  -4  -4   1    1.78    0.26
   3   4  -1    2.61    0.21
   3   4  -1    2.48    0.21
  -3  -4   1    2.98    0.23
  -3  -4   1    2.70    0.21
  -3  -4   1    3.42    0.32
   2   4  -1   33.56    1.01
   2   4  -1   33.57    0.98
  -2  -4   1   34.03    1.04
  -2  -4   1   33.79    0.98
  -2  -4   1   33.34    1.00
  -2  -4   1   35.17    1.00
   1   4  -1   24.08    0.74
   1   4  -1   24.83    0.76
  -1  -4   1   24.59    0.74
  -1  -4   1   24.16    0.76
  -1  -4   1   25.27    0.76
   0   4  -1    3.46    0.20
   0   4  -1    3.63    0.24
   0   4  -1    3.62    0.20
   0   4  -1    3.29    0.15
   0  -4   1    3.48    0.20
  -1   4  -1    1.51    0.13
  -1   4  -1    1.75    0.16
  -1   4  -1    1.38    0.15
  -1   4  -1    1.61    0.15
   1  -4   1    1.56    0.13
   1  -4   1    2.26    0.19
   1  -4   1    1.32    0.13
  -2   4  -1    6.65    0.27
  -2   4  -1    6.20    0.27
  -2   4  -1    6.09    0.23
   2  -4   1    6.58    0.27
   2  -4   1    6.38    0.25
   2  -4   1    6.38    0.26
  -3   4  -1   17.12    0.52
   3  -4   1   17.00    0.50
   3  -4   1   16.36    0.54
   3  -4   1   16.49    0.52
  -4   4  -1    2.45    0.17
  -4   4  -1    2.18    0.15
   4  -4   1    2.29    0.17
   4  -4   1    2.44    0.17
   5  -4   1    0.29    0.09
   5  -4   1    0.25    0.09
   6  -4   1    0.26    0.10
   6  -4   1    0.43    0.10
   7  -4   1    0.09    0.11
   7   3  -1   -0.03    0.14
  -7  -3   1   -0.01    0.20
  -7  -3   1    0.00    0.14
   6   3  -1    0.03    0.12
  -6  -3   1   -0.27    0.15
   5   3  -1    0.08    0.10
   5   3  -1    0.03    0.09
  -5  -3   1    0.07    0.11
  -5  -3   1   -0.06    0.12
   4   3  -1    1.09    0.18
   4   3  -1    1.34    0.17
   4   3  -1    1.37    0.18
  -4  -3   1    1.33    0.18
  -4  -3   1    1.33    0.23
   3   3  -1    7.39    0.33
   3   3  -1    7.50    0.34
   3   3  -1    7.52    0.33
  -3  -3   1    7.97    0.34
  -3  -3   1    7.00    0.36
  -3  -3   1    8.24    0.35
   2   3  -1   36.06    1.03
   2   3  -1   35.30    0.99
  -2  -3   1   37.28    1.04
  -2  -3   1   34.94    0.99
  -2  -3   1   34.16    1.00
  -2  -3   1   36.08    1.00
  -2  -3   1   36.94    1.01
   1   3  -1  316.57    7.55
   1   3  -1  313.00    7.89
  -1  -3   1  322.00    7.88
  -1  -3   1  301.18    7.58
  -1  -3   1  320.17    7.55
  -1  -3   1  325.16    7.89
   0   3  -1    4.23    0.20
   0   3  -1    4.56    0.17
   0   3  -1    4.77    0.22
   0   3  -1    4.80    0.20
   0   3  -1    4.54    0.20
   0  -3   1    4.74    0.21
  -1   3  -1    6.75    0.25
  -1   3  -1    7.53    0.26
  -1   3  -1    6.87    0.27
  -1   3  -1    7.37    0.27
   1  -3   1    6.92    0.25
   1  -3   1    7.25    0.27
   1  -3   1    7.04    0.26
  -2   3  -1    6.11    0.24
  -2   3  -1    6.30    0.23
   2  -3   1    5.68    0.22
   2  -3   1    5.49    0.23
   2  -3   1    5.68    0.22
  -3   3  -1   31.67    0.85
   3  -3   1   31.37    0.86
   3  -3   1   31.38    0.88
   3  -3   1   32.16    0.82
  -4   3  -1    0.85    0.11
  -4   3  -1    1.11    0.12
   4  -3   1    0.89    0.10
   4  -3   1    0.67    0.10
  -5   3  -1   -0.04    0.11
   5  -3   1    0.05    0.06
   5  -3   1    0.14    0.07
  -6   3  -1    0.00    0.15
   6  -3   1    0.16    0.10
   6  -3   1    0.19    0.08
   7  -3   1   -0.04    0.10
   7  -3   1    0.05    0.11
   7   2  -1    0.65    0.17
  -7  -2   1    0.87    0.19
  -7  -2   1    0.89    0.27
   6   2  -1    0.47    0.14
   6   2  -1    0.22    0.12
  -6  -2   1    0.45    0.20
  -6  -2   1    0.32    0.14
   5   2  -1    5.92    0.32
   5   2  -1    6.19    0.34
  -5  -2   1    6.13    0.39
   4   2  -1    2.44    0.19
   4   2  -1    2.46    0.21
   4   2  -1    2.24    0.19
  -4  -2   1    2.05    0.23
  -4  -2   1    2.58    0.22
  -4  -2   1    2.71    0.23
   3   2  -1    7.78    0.31
   3   2  -1    7.38    0.31
   3   2  -1    7.81    0.30
  -3  -2   1    6.92    0.30
  -3  -2   1    8.09    0.32
  -3  -2   1    7.75    0.35
   2   2  -1   39.79    1.08
   2   2  -1   39.07    1.04
   2   2  -1   38.79    1.07
  -2  -2   1   40.94    1.05
  -2  -2   1   38.66    1.07
  -2  -2   1   38.84    1.04
  -2  -2   1   38.02    1.05
  -2  -2   1   40.70    1.05
   1   2  -1   11.88    0.38
   1   2  -1   12.17    0.38
  -1  -2   1   12.37    0.38
  -1  -2   1   11.71    0.38
  -1  -2   1   12.84    0.43
  -1  -2   1   12.54    0.38
  -1  -2   1   12.30    0.38
   0   2  -1    0.67    0.07
   0   2  -1    0.99    0.09
   0   2  -1    0.89    0.07
   0   2  -1    0.89    0.09
   0   2  -1    1.01    0.10
   0  -2   1    0.91    0.09
   0  -2   1    1.03    0.10
   0  -2   1    0.78    0.07
  -1   2  -1   20.36    0.56
  -1   2  -1   20.26    0.54
  -1   2  -1   19.42    0.54
  -1   2  -1   19.90    0.55
   1  -2   1   20.16    0.47
   1  -2   1   19.54    0.54
   1  -2   1   19.66    0.56
   1  -2   1   20.30    0.55
   1  -2   1   19.87    0.56
  -2   2  -1    8.13    0.28
   2  -2   1    8.58    0.27
   2  -2   1    9.04    0.28
   2  -2   1    8.69    0.27
  -3   2  -1   72.94    1.77
  -3   2  -1   70.97    1.87
  -3   2  -1   70.65    1.78
   3  -2   1   71.31    1.84
   3  -2   1   74.47    1.76
   3  -2   1   70.69    1.85
  -4   2  -1   62.69    1.54
  -4   2  -1   61.54    1.55
  -4   2  -1   61.55    1.69
   4  -2   1   60.10    1.61
   4  -2   1   61.29    1.61
  -5   2  -1    0.11    0.13
   5  -2   1    0.01    0.06
   5  -2   1    0.00    0.06
  -6   2  -1    0.07    0.16
   6  -2   1    0.07    0.09
   6  -2   1    0.05    0.08
  -7   2  -1    0.85    0.25
   7  -2   1    0.42    0.13
   7  -2   1    0.36    0.13
  -8   2  -1   -0.14    0.20
   7   1  -1    0.46    0.14
  -7  -1   1    0.77    0.26
   6   1  -1   -0.10    0.08
   6   1  -1    0.10    0.09
  -6  -1   1    0.04    0.10
  -6  -1   1   -0.12    0.12
   5   1  -1    0.01    0.09
   5   1  -1   -0.07    0.08
  -5  -1   1    0.06    0.13
  -5  -1   1    0.01    0.09
   4   1  -1   14.08    0.47
   4   1  -1   13.77    0.43
   4   1  -1   13.91    0.46
  -4  -1   1   13.77    0.45
  -4  -1   1   14.57    0.47
  -4  -1   1   13.88    0.54
   3   1  -1    0.10    0.05
   3   1  -1    0.08    0.05
   3   1  -1    0.07    0.04
  -3  -1   1   -0.01    0.07
  -3  -1   1    0.12    0.06
  -3  -1   1   -0.02    0.03
   2   1  -1   15.72    0.45
   2   1  -1   15.33    0.45
   2   1  -1   15.07    0.44
  -2  -1   1   15.36    0.44
  -2  -1   1   15.87    0.48
  -2  -1   1   14.75    0.44
   1   1  -1   17.06    0.46
   1   1  -1   15.79    0.43
   1   1  -1   16.10    0.45
   1   1  -1   15.84    0.43
   1   1  -1   15.01    0.44
  -1  -1   1   15.16    0.43
  -1  -1   1   15.95    0.43
  -1  -1   1   16.01    0.44
  -1  -1   1   16.48    0.45
  -1  -1   1   15.09    0.43
   0   1  -1  154.93    3.66
   0   1  -1  151.90    3.66
   0   1  -1  152.70    3.42
   0   1  -1  152.07    3.83
   0  -1   1  155.28    3.66
   0  -1   1  156.73    3.66
   0  -1   1  153.17    3.41
   0  -1   1  157.66    3.83
  -1   1  -1    7.51    0.25
  -1   1  -1    6.89    0.21
  -1   1  -1    7.22    0.22
  -1   1  -1    7.58    0.22
   1  -1   1    6.98    0.21
   1  -1   1    7.32    0.22
   1  -1   1    7.34    0.23
   1  -1   1    7.09    0.22
  -2   1  -1    7.16    0.24
  -2   1  -1    7.25    0.29
   2  -1   1    7.15    0.22
   2  -1   1    6.93    0.23
   2  -1   1    7.20    0.23
  -3   1  -1   74.56    1.94
  -3   1  -1   75.00    1.86
  -3   1  -1   77.51    1.85
   3  -1   1   74.77    1.83
   3  -1   1   73.66    1.93
   3  -1   1   74.96    1.92
  -4   1  -1    2.47    0.15
  -4   1  -1    2.13    0.16
  -4   1  -1    2.86    0.23
   4  -1   1    2.05    0.13
   4  -1   1    1.94    0.15
   4  -1   1    2.27    0.17
  -5   1  -1    1.43    0.24
  -5   1  -1    1.18    0.15
   5  -1   1    0.95    0.14
   5  -1   1    0.77    0.11
  -6   1  -1    0.25    0.18
   6  -1   1    0.24    0.09
   6  -1   1    0.33    0.12
  -7   1  -1   -0.06    0.19
   7  -1   1   -0.06    0.11
   7  -1   1    0.15    0.11
  -8   1  -1    1.16    0.33
  -8   0   1    1.56    0.36
   7   0  -1    1.51    0.20
   7   0  -1    1.72    0.20
  -7   0   1    1.84    0.33
   6   0  -1    0.39    0.10
   6   0  -1    0.37    0.10
  -6   0   1    0.61    0.21
   5   0  -1    0.17    0.07
   5   0  -1    0.30    0.09
  -5   0   1    0.11    0.13
   4   0  -1    2.67    0.14
   4   0  -1    2.49    0.15
  -4   0   1    2.52    0.15
  -4   0   1    2.79    0.26
  -3   0   1    8.02    0.26
  -3   0   1    8.27    0.33
  -2   0   1    1.21    0.12
   1   0  -1    1.73    0.08
  -1   0   1    1.51    0.08
   0   0  -1    0.12    0.03
   0   0  -1    0.20    0.03
   0   0  -1    0.13    0.02
   0   0  -1    0.18    0.03
   0   0   1    0.15    0.03
   0   0   1    0.13    0.03
   0   0   1    0.15    0.03
   0   0   1    0.16    0.03
   0   0   1    0.05    0.02
  -1   0  -1  288.18    6.83
  -1   0  -1  294.68    6.83
  -1   0  -1  289.41    7.14
  -1   0  -1  291.66    7.14
  -1   0  -1  295.50    6.81
   1   0   1  278.33    6.80
   1   0   1  293.40    6.85
   1   0   1  293.75    7.18
   1   0   1  276.02    7.14
   1   0   1  292.05    6.83
  -2   0  -1   20.27    0.54
  -2   0  -1   19.43    0.59
  -2   0  -1   20.21    0.53
  -2   0  -1   19.80    0.55
  -2   0  -1   19.84    0.54
   2   0   1   19.65    0.56
   2   0   1   19.99    0.54
   2   0   1   20.60    0.57
  -3   0  -1    6.99    0.27
  -3   0  -1    7.32    0.33
  -3   0  -1    7.58    0.28
   3   0   1    7.76    0.26
   3   0   1    7.37    0.27
   3   0   1    7.92    0.29
  -4   0  -1    5.19    0.25
  -4   0  -1    5.00    0.31
   4   0   1    5.12    0.25
   4   0   1    4.51    0.21
   4   0   1    5.38    0.24
  -5   0  -1    3.15    0.34
  -5   0  -1    3.24    0.22
   5   0   1    3.29    0.21
   5   0   1    2.61    0.21
  -6   0  -1    0.36    0.20
  -6   0  -1    0.39    0.13
   6   0   1    0.27    0.12
   6   0   1    0.40    0.12
  -7   0  -1    0.00    0.19
  -7   0  -1    0.29    0.14
   7   0   1    0.02    0.11
  -8   0  -1    0.84    0.31
  -8   1   1   -0.11    0.19
   7  -1  -1    0.17    0.10
   7  -1  -1    0.38    0.11
  -7   1   1    0.58    0.23
  -6   1   1   -0.02    0.15
  -5   1   1    2.81    0.30
  -4   1   1   -0.07    0.08
  -3   1   1   32.37    0.91
  -2   1   1  139.45    3.35
   1  -1  -1  154.04    3.61
   1  -1  -1  151.47    3.38
   0  -1  -1    7.49    0.22
   0  -1  -1    7.70    0.22
   0  -1  -1    7.11    0.22
   0  -1  -1    7.22    0.22
   0   1   1    7.22    0.22
   0   1   1    7.22    0.22
   0   1   1    7.15    0.22
   0   1   1    7.62    0.22
  -1  -1  -1   26.92    0.71
  -1  -1  -1   26.51    0.73
  -1  -1  -1   27.38    0.72
  -1  -1  -1   27.30    0.71
  -1  -1  -1   26.47    0.74
   1   1   1   27.07    0.71
   1   1   1   27.65    0.74
   1   1   1   28.09    0.74
   1   1   1   27.32    0.71
  -2  -1  -1   23.75    0.67
  -2  -1  -1   24.43    0.66
  -2  -1  -1   25.07    0.67
  -2  -1  -1   23.04    0.68
  -2  -1  -1   24.24    0.70
   2   1   1   23.77    0.68
   2   1   1   23.40    0.66
   2   1   1   24.74    0.69
  -3  -1  -1    2.18    0.16
  -3  -1  -1    1.96    0.15
  -3  -1  -1    1.93    0.12
  -3  -1  -1    1.55    0.18
   3   1   1    1.80    0.14
   3   1   1    1.79    0.13
   3   1   1    2.05    0.15
  -4  -1  -1    0.88    0.17
  -4  -1  -1    1.18    0.15
  -4  -1  -1    1.12    0.15
   4   1   1    0.98    0.13
   4   1   1    1.06    0.13
   4   1   1    0.86    0.12
  -5  -1  -1   13.76    0.62
  -5  -1  -1   13.87    0.53
   5   1   1   14.97    0.54
   5   1   1   14.20    0.54
  -6  -1  -1    4.23    0.43
  -6  -1  -1    4.29    0.30
   6   1   1    4.60    0.31
   6   1   1    4.76    0.31
  -7  -1  -1    0.99    0.20
  -7  -1  -1    0.28    0.20
   7   1   1    0.62    0.17
  -8   2   1   -0.22    0.20
   7  -2  -1   -0.07    0.10
  -7   2   1    0.27    0.20
  -6   2   1    0.32    0.17
  -5   2   1    0.53    0.16
  -4   2   1    0.59    0.14
  -3   2   1   12.71    0.45
   2  -2  -1    3.18    0.12
   1  -2  -1   38.88    1.04
   1  -2  -1   40.55    1.00
   1  -2  -1   40.41    1.04
   1  -2  -1   41.43    1.00
  -1   2   1   40.54    1.01
   0  -2  -1  133.23    3.20
   0  -2  -1  134.67    3.35
   0  -2  -1  129.15    3.34
   0  -2  -1  136.99    3.21
   0   2   1  135.01    3.20
   0   2   1  132.60    3.21
   0   2   1  132.16    3.35
  -1  -2  -1    2.39    0.17
  -1  -2  -1    2.17    0.13
  -1  -2  -1    2.19    0.14
  -1  -2  -1    2.35    0.14
  -1  -2  -1    2.19    0.13
   1   2   1    2.34    0.14
   1   2   1    2.36    0.14
   1   2   1    2.25    0.14
  -2  -2  -1   10.61    0.38
  -2  -2  -1   11.24    0.37
  -2  -2  -1   10.65    0.37
  -2  -2  -1   11.00    0.38
  -2  -2  -1   10.55    0.41
   2   2   1   10.70    0.38
   2   2   1   10.62    0.37
   2   2   1   10.56    0.38
  -3  -2  -1   10.17    0.38
  -3  -2  -1    8.98    0.41
  -3  -2  -1    9.84    0.36
  -3  -2  -1    9.60    0.38
   3   2   1    9.64    0.38
   3   2   1    9.69    0.38
   3   2   1    9.50    0.36
  -4  -2  -1    1.81    0.24
  -4  -2  -1    2.63    0.25
   4   2   1    1.75    0.18
   4   2   1    1.84    0.19
   4   2   1    1.91    0.19
  -5  -2  -1    0.39    0.16
  -5  -2  -1    0.40    0.13
   5   2   1    0.43    0.14
   5   2   1    0.39    0.14
  -6  -2  -1    0.23    0.18
  -6  -2  -1   -0.01    0.12
   6   2   1    0.01    0.11
  -7  -2  -1   -0.32    0.14
  -7  -2  -1   -0.21    0.12
   7   2   1    0.13    0.16
   6  -3  -1    4.30    0.26
   3  -3  -1    0.10    0.04
   2  -3  -1    0.05    0.04
   2  -3  -1    0.04    0.03
   2  -3  -1   -0.03    0.03
  -2   3   1    0.07    0.05
  -2   3   1   -0.03    0.04
   1  -3  -1   -0.01    0.04
   1  -3  -1   -0.06    0.04
  -1   3   1    0.06    0.04
  -1   3   1    0.01    0.05
  -1   3   1   -0.05    0.06
  -1   3   1   -0.04    0.04
   0  -3  -1   13.72    0.43
   0  -3  -1   13.28    0.42
   0  -3  -1   13.36    0.42
   0   3   1   12.50    0.42
   0   3   1   12.90    0.41
   0   3   1   12.53    0.42
  -1  -3  -1    0.17    0.11
  -1  -3  -1    0.16    0.07
  -1  -3  -1    0.11    0.06
  -1  -3  -1    0.17    0.07
   1   3   1    0.26    0.07
   1   3   1    0.09    0.06
   1   3   1    0.16    0.06
  -2  -3  -1   35.01    1.01
  -2  -3  -1   35.66    1.04
  -2  -3  -1   37.54    1.05
  -2  -3  -1   37.50    1.03
   2   3   1   36.27    1.05
   2   3   1   36.45    1.02
   2   3   1   36.63    1.05
  -3  -3  -1    0.08    0.11
  -3  -3  -1    0.21    0.09
  -3  -3  -1    0.16    0.09
   3   3   1    0.22    0.09
   3   3   1    0.11    0.08
   3   3   1    0.09    0.08
  -4  -3  -1    1.94    0.22
  -4  -3  -1    1.86    0.25
   4   3   1    1.76    0.20
   4   3   1    2.21    0.24
   4   3   1    1.46    0.18
  -5  -3  -1    0.77    0.20
  -5  -3  -1    0.93    0.17
   5   3   1    0.66    0.15
  -6  -3  -1    0.47    0.18
  -6  -3  -1    0.69    0.24
   6   3   1    0.61    0.19
  -7  -3  -1    0.62    0.25
  -7  -3  -1    0.04    0.14
   5  -4  -1    0.11    0.07
   4  -4  -1    1.36    0.11
   3  -4  -1    0.11    0.06
   3  -4  -1    0.03    0.04
  -3   4   1    0.04    0.06
  -3   4   1    0.04    0.06
   2  -4  -1   40.24    1.10
   2  -4  -1   41.25    1.06
   2  -4  -1   39.96    1.10
  -2   4   1   40.13    1.07
  -2   4   1   41.80    1.06
   1  -4  -1  277.39    6.56
   1  -4  -1  268.93    6.85
  -1   4   1  269.61    6.83
  -1   4   1  284.77    6.85
  -1   4   1  280.13    6.56
  -1   4   1  265.17    6.56
   0  -4  -1    3.64    0.20
   0  -4  -1    3.34    0.21
   0  -4  -1    3.70    0.20
   0   4   1    3.56    0.20
   0   4   1    3.33    0.19
  -1  -4  -1    1.65    0.17
  -1  -4  -1    2.59    0.28
  -1  -4  -1    2.41    0.18
  -1  -4  -1    2.59    0.19
   1   4   1    2.65    0.19
   1   4   1    2.22    0.18
  -2  -4  -1    3.09    0.22
  -2  -4  -1    2.57    0.19
  -2  -4  -1    3.02    0.22
  -2  -4  -1    2.91    0.24
   2   4   1    2.49    0.20
   2   4   1    2.58    0.21
   2   4   1    2.93    0.21
  -3  -4  -1   -0.04    0.07
  -3  -4  -1    0.14    0.09
  -3  -4  -1   -0.21    0.09
   3   4   1    0.03    0.08
   3   4   1   -0.01    0.08
   3   4   1   -0.03    0.07
  -4  -4  -1    1.39    0.23
  -4  -4  -1    1.83    0.24
   4   4   1    1.07    0.19
   4   4   1    1.53    0.21
  -5  -4  -1   -0.02    0.11
   5   4   1   -0.05    0.10
  -6  -4  -1    0.01    0.18
  -6  -4  -1    0.13    0.13
  -7  -4  -1   -0.20    0.17
  -7  -4  -1   -0.03    0.16
   4  -5  -1    0.99    0.13
   4  -5  -1    1.05    0.13
   3  -5  -1    0.09    0.06
   3  -5  -1    0.08    0.06
   3  -5  -1    0.14    0.08
  -3   5   1   -0.01    0.07
  -3   5   1    0.09    0.08
   2  -5  -1   14.72    0.48
   2  -5  -1   14.94    0.51
  -2   5   1   15.01    0.50
  -2   5   1   15.02    0.49
   1  -5  -1    4.49    0.24
   1  -5  -1    4.81    0.28
  -1   5   1    4.97    0.25
  -1   5   1    4.82    0.26
  -1   5   1    5.23    0.26
  -1   5   1    4.18    0.22
   0  -5  -1    2.40    0.19
   0  -5  -1    2.40    0.19
   0  -5  -1    2.40    0.21
   0   5   1    2.53    0.20
   0   5   1    2.48    0.19
   0   5   1    2.44    0.18
  -1  -5  -1    4.84    0.28
  -1  -5  -1    5.08    0.28
  -1  -5  -1    4.95    0.29
  -1  -5  -1    4.93    0.36
   1   5   1    4.69    0.27
   1   5   1    4.29    0.27
  -2  -5  -1    4.07    0.26
  -2  -5  -1    3.34    0.33
  -2  -5  -1    3.57    0.26
  -2  -5  -1    4.37    0.28
   2   5   1    4.10    0.27
   2   5   1    3.92    0.27
  -3  -5  -1    3.95    0.29
  -3  -5  -1    4.26    0.32
   3   5   1    3.92    0.29
   3   5   1    4.38    0.30
  -4  -5  -1    8.16    0.49
  -4  -5  -1    9.27    0.47
   4   5   1    9.61    0.49
  -5  -5  -1    0.48    0.21
  -6  -5  -1    0.40    0.22
  -6  -5  -1    0.11    0.16
   5  -6  -1    0.23    0.10
   5  -6  -1    0.06    0.08
   4  -6  -1    5.29    0.27
   4  -6  -1    4.74    0.26
  -4   6   1    4.91    0.26
   3  -6  -1    3.15    0.22
  -3   6   1    3.01    0.22
   2  -6  -1    2.06    0.20
   2  -6  -1    1.97    0.20
  -2   6   1    1.93    0.20
  -2   6   1    2.47    0.22
   1  -6  -1    1.45    0.17
   1  -6  -1    1.65    0.18
   1  -6  -1    1.47    0.18
  -1   6   1    1.65    0.17
  -1   6   1    1.82    0.20
   0  -6  -1   -0.02    0.06
   0  -6  -1    0.04    0.08
   0  -6  -1    0.05    0.08
   0   6   1    0.13    0.10
   0   6   1    0.03    0.09
   0   6   1    0.09    0.08
  -1  -6  -1    0.19    0.11
  -1  -6  -1    0.45    0.22
  -1  -6  -1    0.34    0.13
  -1  -6  -1    0.12    0.10
   1   6   1    0.10    0.10
   1   6   1    0.54    0.13
  -2  -6  -1    0.00    0.13
  -2  -6  -1    0.20    0.11
   2   6   1   -0.03    0.10
   2   6   1    0.03    0.09
  -3  -6  -1    4.18    0.35
  -3  -6  -1    4.30    0.33
   3   6   1    3.82    0.32
  -4  -6  -1    0.20    0.14
  -4  -6  -1   -0.01    0.15
  -5  -6  -1   -0.02    0.18
  -6  -6  -1    0.14    0.19
  -6  -6  -1    0.33    0.19
   6  -7  -1    0.01    0.08
   6  -7  -1    0.08    0.11
   5  -7  -1    0.18    0.12
   5  -7  -1   -0.02    0.08
   4  -7  -1    1.13    0.17
  -4   7   1    1.21    0.17
   3  -7  -1    0.80    0.15
  -3   7   1    0.91    0.16
   2  -7  -1    1.13    0.18
   2  -7  -1    1.27    0.19
  -2   7   1    1.12    0.17
   1  -7  -1    0.14    0.13
   1  -7  -1    0.15    0.09
   1  -7  -1    0.13    0.10
  -1   7   1    0.17    0.11
  -1   7   1   -0.01    0.10
   0  -7  -1    2.28    0.26
   0  -7  -1    2.06    0.25
   0   7   1    1.94    0.25
  -1  -7  -1    8.39    0.57
  -1  -7  -1    8.06    0.43
   1   7   1    7.71    0.43
  -2  -7  -1    0.20    0.12
  -2  -7  -1    0.12    0.17
   2   7   1    0.10    0.12
  -3  -7  -1    1.08    0.22
  -3  -7  -1    0.97    0.24
   3   7   1    0.85    0.22
  -4  -7  -1    0.57    0.19
  -4  -7  -1    0.43    0.22
  -5  -7  -1   -0.06    0.17
   6  -8  -1    0.20    0.14
   5  -8  -1    1.26    0.19
  -5   8   1    0.88    0.16
   4  -8  -1    0.15    0.15
  -4   8   1    0.33    0.13
  -3   8   1    2.37    0.27
   2  -8  -1    2.16    0.26
  -2   8   1    2.04    0.25
   1  -8  -1    0.40    0.14
   1  -8  -1    0.27    0.11
  -1   8   1    0.63    0.16
   0  -8  -1    1.09    0.20
   0   8   1    1.16    0.22
   0   8   1    1.70    0.17
  -1  -8  -1    0.58    0.25
  -1  -8  -1    0.99    0.20
   1   8   1    1.53    0.25
  -2  -8  -1    0.24    0.15
  -2  -8  -1    0.41    0.21
   2   8   1    0.18    0.15
  -3  -8  -1    1.13    0.29
  -3  -8  -1    0.77    0.22
  -4  -8  -1    0.70    0.27
  -4  -8  -1    0.40    0.19
  -5   9   1    0.07    0.13
  -4   9   1    0.49    0.16
  -3   9   1    1.27    0.21
  -2   9   1    0.16    0.13
  -1   9   1   -0.03    0.12
   0  -9  -1    3.57    0.36
   0   9   1    3.36    0.36
  -1  -9  -1    0.02    0.13
  -1  -9  -1    0.17    0.23
   1   9   1    0.11    0.15
  -2  -9  -1    0.31    0.25
  -2  -9  -1    0.11    0.15
   2   9   1    0.04    0.18
  -3  -9  -1    0.34    0.22
  -3  -9  -1    0.37    0.21
  -4  -9  -1    0.08    0.21
  -4  -9  -1   -0.01    0.20
  -5  10   1    0.33    0.17
  -4  10   1    0.41    0.17
  -3  10   1    0.10    0.14
  -2  10   1    0.44    0.17
  -1  10   1    0.07    0.15
   0 -10  -1    0.60    0.34
   0  10   1   -0.05    0.15
  -1 -10  -1    0.33    0.20
  -1 -10  -1    0.49    0.29
   1  10   1    0.45    0.21
  -2 -10  -1    0.07    0.21
  -2 -10  -1    0.40    0.20
   2  10   1   -0.01    0.18
  -3 -10  -1    0.24    0.23
  -3 -10  -1    0.25    0.24
  -4  11   1    0.41    0.18
  -3  11   1    0.01    0.15
  -2  11   1    2.20    0.33
  -1  11   1    1.48    0.29
   0 -11  -1    0.44    0.36
   0  11   1    0.75    0.24
  -1 -11  -1    0.14    0.27
   1  11   1    0.16    0.22
   1  11  -2    0.32    0.21
  -1 -11   2   -0.12    0.32
   0  11  -2    0.29    0.19
  -1  11  -2    0.08    0.18
  -2  11  -2    0.39    0.20
  -3  11  -2    0.04    0.17
  -4  11  -2   -0.05    0.17
  -3 -10   2    0.32    0.27
  -3 -10   2    0.15    0.22
  -2 -10   2    0.22    0.27
  -2 -10   2    0.09    0.18
   1  10  -2    0.49    0.21
  -1 -10   2    0.53    0.35
  -1 -10   2    0.14    0.19
   0  10  -2    0.26    0.17
  -1  10  -2   -0.07    0.14
  -2  10  -2    0.62    0.20
  -3  10  -2    0.12    0.14
  -4  10  -2   -0.03    0.13
  -5  10  -2    0.24    0.16
  -4  -9   2    6.13    0.50
  -4  -9   2    5.54    0.59
  -3  -9   2   -0.51    0.17
  -3  -9   2    0.19    0.19
   2   9  -2    0.96    0.23
   2   9  -2    1.55    0.23
  -2  -9   2    1.61    0.39
  -2  -9   2    0.92    0.23
   1   9  -2    1.36    0.25
  -1  -9   2    0.90    0.34
  -1  -9   2    1.74    0.28
   0   9  -2    0.86    0.22
   0  -9   2    0.87    0.21
  -1   9  -2    0.03    0.13
  -2   9  -2   -0.10    0.12
  -3   9  -2    0.45    0.18
  -4   9  -2   -0.35    0.11
   4  -9   2    0.10    0.12
  -5   9  -2    0.01    0.14
   5  -9   2   -0.04    0.13
  -6   9  -2    0.31    0.16
  -4  -8   2   -0.09    0.21
  -4  -8   2    0.38    0.18
   3   8  -2    0.08    0.15
  -3  -8   2    0.08    0.21
  -3  -8   2   -0.09    0.12
   2   8  -2    0.15    0.12
   2   8  -2    0.14    0.13
  -2  -8   2   -0.14    0.21
  -2  -8   2   -0.11    0.12
   1   8  -2    0.09    0.13
   1   8  -2    0.20    0.11
  -1  -8   2   -0.15    0.10
  -1  -8   2    0.15    0.24
   0   8  -2   11.20    0.54
   0   8  -2   10.85    0.41
   0  -8   2   10.68    0.52
  -1   8  -2   14.97    0.63
   1  -8   2   14.53    0.60
  -2   8  -2    0.10    0.11
  -3   8  -2    3.06    0.31
   3  -8   2    3.06    0.27
  -4   8  -2    0.18    0.14
   4  -8   2    0.24    0.11
  -5   8  -2    0.07    0.13
   5  -8   2    0.02    0.10
  -6   8  -2   -0.03    0.12
  -5  -7   2   -0.07    0.15
  -5  -7   2   -0.12    0.18
   4   7  -2    0.03    0.13
  -4  -7   2   -0.19    0.12
  -4  -7   2   -0.21    0.16
   3   7  -2    1.15    0.21
  -3  -7   2    1.25    0.28
  -3  -7   2    1.27    0.23
   2   7  -2    1.50    0.20
   2   7  -2    1.96    0.27
  -2  -7   2    1.23    0.20
  -2  -7   2    1.57    0.32
   1   7  -2    0.96    0.15
   1   7  -2    0.98    0.20
  -1  -7   2    1.10    0.19
   0   7  -2    3.47    0.33
   0   7  -2    4.38    0.23
   0  -7   2    4.19    0.31
  -1   7  -2    0.22    0.13
  -1   7  -2    0.11    0.11
   1  -7   2    0.04    0.11
   1  -7   2    0.20    0.13
  -2   7  -2    0.32    0.13
   2  -7   2    0.60    0.14
   2  -7   2    0.53    0.15
   2  -7   2    0.43    0.12
  -3   7  -2    0.05    0.10
   3  -7   2   -0.04    0.10
   3  -7   2    0.05    0.08
  -4   7  -2    1.07    0.18
   4  -7   2    1.12    0.18
   4  -7   2    1.10    0.18
  -5   7  -2    4.51    0.30
   5  -7   2    4.32    0.32
   5  -7   2    4.08    0.30
  -6   7  -2    0.81    0.17
   6  -7   2    0.96    0.18
  -6  -6   2   -0.08    0.16
  -6  -6   2   -0.03    0.16
  -5  -6   2    0.26    0.16
  -5  -6   2    0.01    0.18
   4   6  -2    2.96    0.31
  -4  -6   2    3.08    0.33
  -4  -6   2    3.23    0.37
   3   6  -2    3.84    0.29
   3   6  -2    3.99    0.30
  -3  -6   2    3.22    0.36
  -3  -6   2    3.97    0.31
   2   6  -2    5.41    0.30
   2   6  -2    5.18    0.33
   2   6  -2    5.72    0.34
  -2  -6   2    5.36    0.33
  -2  -6   2    5.70    0.43
   1   6  -2    2.20    0.20
   1   6  -2    2.74    0.28
   1   6  -2    2.74    0.29
   1   6  -2    2.67    0.26
  -1  -6   2    2.24    0.25
  -1  -6   2    2.49    0.25
  -1  -6   2    2.44    0.24
   0   6  -2    0.47    0.09
   0   6  -2    0.48    0.13
   0   6  -2    0.59    0.14
   0   6  -2    0.46    0.12
   0  -6   2    0.34    0.12
   0  -6   2    0.35    0.11
  -1   6  -2    0.75    0.12
  -1   6  -2    1.06    0.10
  -1   6  -2    0.72    0.15
  -1   6  -2    0.68    0.14
   1  -6   2    1.18    0.17
   1  -6   2    1.12    0.16
  -2   6  -2    8.85    0.39
   2  -6   2    9.31    0.40
   2  -6   2    9.22    0.41
   2  -6   2    8.99    0.38
  -3   6  -2    2.61    0.22
   3  -6   2    2.65    0.22
   3  -6   2    2.62    0.20
   3  -6   2    2.72    0.22
  -4   6  -2   -0.03    0.10
   4  -6   2    0.07    0.11
   4  -6   2    0.05    0.08
  -5   6  -2    0.85    0.17
   5  -6   2    1.11    0.19
   5  -6   2    1.05    0.17
   6  -6   2    0.48    0.13
   6  -6   2    0.21    0.13
  -6  -5   2    0.98    0.26
  -6  -5   2    0.90    0.23
   5   5  -2    0.12    0.14
  -5  -5   2   -0.14    0.15
  -5  -5   2    0.30    0.14
   4   5  -2    0.15    0.12
   4   5  -2    0.26    0.14
  -4  -5   2    0.35    0.13
  -4  -5   2    0.28    0.16
   3   5  -2   -0.05    0.09
   3   5  -2   -0.08    0.07
   3   5  -2    0.11    0.09
  -3  -5   2   -0.02    0.09
  -3  -5   2   -0.09    0.12
   2   5  -2    9.34    0.42
   2   5  -2    9.68    0.43
   2   5  -2    9.74    0.39
  -2  -5   2    8.94    0.41
  -2  -5   2   10.08    0.42
  -2  -5   2    9.79    0.49
  -2  -5   2    9.79    0.43
   1   5  -2    2.26    0.21
   1   5  -2    2.20    0.19
   1   5  -2    1.68    0.16
   1   5  -2    2.09    0.22
  -1  -5   2    1.77    0.19
  -1  -5   2    1.36    0.16
  -1  -5   2    1.91    0.20
   0   5  -2    1.20    0.17
   0   5  -2    1.60    0.17
   0   5  -2    1.30    0.16
   0   5  -2    1.58    0.14
   0  -5   2    1.59    0.18
   0  -5   2    1.20    0.16
  -1   5  -2   51.32    1.25
  -1   5  -2   53.02    1.44
  -1   5  -2   56.05    1.50
  -1   5  -2   53.34    1.46
   1  -5   2   55.52    1.49
   1  -5   2   51.88    1.48
   1  -5   2   52.84    1.43
  -2   5  -2   42.17    1.19
  -2   5  -2   42.90    1.18
  -2   5  -2   44.97    1.20
   2  -5   2   43.54    1.23
   2  -5   2   43.04    1.24
   2  -5   2   42.29    1.17
  -3   5  -2    4.95    0.27
  -3   5  -2    5.25    0.27
   3  -5   2    4.93    0.26
   3  -5   2    5.16    0.25
   3  -5   2    5.31    0.28
  -4   5  -2    0.36    0.12
   4  -5   2    0.23    0.10
   4  -5   2    0.47    0.11
  -5   5  -2    1.30    0.17
   5  -5   2    0.93    0.15
   5  -5   2    1.00    0.16
   6  -5   2    0.10    0.10
   6  -5   2    0.15    0.12
   7  -5   2   -0.04    0.12
  -7  -4   2   -0.15    0.15
  -7  -4   2   -0.12    0.18
   6   4  -2   -0.08    0.13
  -6  -4   2    0.14    0.14
  -6  -4   2   -0.04    0.18
   5   4  -2    0.13    0.11
  -5  -4   2   -0.11    0.09
  -5  -4   2   -0.09    0.14
   4   4  -2   -0.07    0.08
  -4  -4   2   -0.04    0.09
  -4  -4   2   -0.27    0.10
   3   4  -2    1.76    0.20
   3   4  -2    2.13    0.21
  -3  -4   2    1.74    0.19
  -3  -4   2    1.85    0.24
   2   4  -2    7.73    0.35
   2   4  -2    7.54    0.34
   2   4  -2    7.67    0.33
  -2  -4   2    7.31    0.33
  -2  -4   2    7.54    0.38
  -2  -4   2    7.60    0.35
  -2  -4   2    8.12    0.34
   1   4  -2   39.70    1.04
   1   4  -2   41.52    1.17
   1   4  -2   39.77    1.13
  -1  -4   2   43.17    1.17
  -1  -4   2   41.54    1.14
  -1  -4   2   40.78    1.17
   0   4  -2    1.94    0.19
   0   4  -2    1.60    0.16
   0   4  -2    1.67    0.15
   0   4  -2    1.55    0.11
   0  -4   2    1.32    0.14
   0  -4   2    1.51    0.15
  -1   4  -2    0.08    0.07
  -1   4  -2    0.16    0.07
  -1   4  -2    0.17    0.08
  -1   4  -2    0.09    0.08
  -1   4  -2    0.05    0.04
   1  -4   2    0.29    0.08
   1  -4   2    0.01    0.06
   1  -4   2    0.08    0.08
   1  -4   2    0.11    0.04
  -2   4  -2    6.30    0.25
  -2   4  -2    6.61    0.28
  -2   4  -2    6.39    0.28
  -2   4  -2    6.05    0.27
   2  -4   2    6.10    0.28
   2  -4   2    6.06    0.27
   2  -4   2    5.78    0.25
  -3   4  -2    3.92    0.22
   3  -4   2    3.69    0.16
   3  -4   2    4.09    0.22
   3  -4   2    3.83    0.19
   3  -4   2    3.91    0.22
  -4   4  -2   -0.02    0.08
  -4   4  -2    0.08    0.07
   4  -4   2   -0.04    0.07
   4  -4   2    0.05    0.07
   4  -4   2   -0.08    0.05
  -5   4  -2    0.36    0.11
   5  -4   2    0.22    0.09
   5  -4   2    0.21    0.09
   6  -4   2    2.45    0.24
   6  -4   2    2.17    0.23
   7  -4   2    1.29    0.20
   7  -4   2    1.43    0.21
  -7  -3   2    0.61    0.18
  -7  -3   2    0.88    0.28
   6   3  -2    0.47    0.15
  -6  -3   2    0.69    0.24
   5   3  -2   -0.05    0.09
  -5  -3   2    0.06    0.11
  -5  -3   2   -0.04    0.12
   4   3  -2    0.02    0.08
  -4  -3   2   -0.21    0.09
  -4  -3   2   -0.03    0.08
   3   3  -2   16.01    0.54
   3   3  -2   16.70    0.56
  -3  -3   2   16.24    0.56
  -3  -3   2   15.34    0.54
  -3  -3   2   16.46    0.58
   2   3  -2   17.21    0.56
   2   3  -2   18.26    0.58
  -2  -3   2   17.13    0.59
  -2  -3   2   17.37    0.56
  -2  -3   2   18.10    0.56
  -2  -3   2   17.87    0.56
  -2  -3   2   18.15    0.58
   1   3  -2   26.12    0.70
   1   3  -2   26.59    0.78
   1   3  -2   24.85    0.74
   1   3  -2   26.21    0.78
  -1  -3   2   27.08    0.76
  -1  -3   2   27.08    0.77
   0   3  -2    9.74    0.35
   0   3  -2    9.53    0.33
   0   3  -2    9.28    0.29
   0   3  -2    9.09    0.33
   0  -3   2    9.43    0.28
   0  -3   2    9.29    0.33
   0  -3   2    8.89    0.33
   0  -3   2    9.00    0.33
  -1   3  -2   11.14    0.38
  -1   3  -2   11.07    0.36
  -1   3  -2   10.82    0.30
  -1   3  -2   10.85    0.38
  -1   3  -2   11.45    0.37
   1  -3   2   11.30    0.37
   1  -3   2   10.74    0.30
   1  -3   2   10.95    0.37
   1  -3   2   11.84    0.39
  -2   3  -2   13.16    0.40
  -2   3  -2   12.31    0.41
  -2   3  -2   12.51    0.38
   2  -3   2   12.07    0.39
   2  -3   2   12.77    0.43
   2  -3   2   12.67    0.34
   2  -3   2   12.88    0.41
  -3   3  -2    0.08    0.08
  -3   3  -2    0.26    0.09
   3  -3   2    0.07    0.06
   3  -3   2    0.16    0.08
   3  -3   2    0.20    0.07
  -4   3  -2    2.86    0.19
  -4   3  -2    2.98    0.18
   4  -3   2    2.90    0.16
   4  -3   2    2.82    0.19
   4  -3   2    2.84    0.19
  -5   3  -2    0.46    0.17
  -5   3  -2    0.47    0.11
   5  -3   2    0.49    0.11
   5  -3   2    0.35    0.10
  -6   3  -2    0.08    0.16
   6  -3   2    0.16    0.11
   6  -3   2    0.12    0.09
  -7   3  -2   -0.21    0.15
   7  -3   2   -0.27    0.10
   7  -3   2    0.04    0.11
   7   2  -2    0.33    0.15
  -7  -2   2    0.25    0.15
  -7  -2   2    0.27    0.23
   6   2  -2    0.34    0.13
   6   2  -2    0.41    0.13
  -6  -2   2    0.33    0.21
   5   2  -2    9.17    0.41
   5   2  -2    8.89    0.40
  -5  -2   2    9.10    0.48
  -5  -2   2    8.96    0.39
   4   2  -2   63.47    1.76
   4   2  -2   65.77    1.75
   4   2  -2   64.25    1.67
  -4  -2   2   63.12    1.68
  -4  -2   2   67.06    1.69
   3   2  -2   11.46    0.38
   3   2  -2   10.80    0.39
   3   2  -2   11.38    0.40
  -3  -2   2   11.45    0.40
  -3  -2   2   10.64    0.42
  -3  -2   2   10.82    0.39
   2   2  -2   48.23    1.31
   2   2  -2   50.47    1.27
  -2  -2   2   51.16    1.28
  -2  -2   2   48.69    1.29
  -2  -2   2   49.13    1.29
  -2  -2   2   48.73    1.29
  -2  -2   2   47.04    1.27
   1   2  -2   31.12    0.77
   1   2  -2   30.73    0.85
   1   2  -2   30.61    0.84
   1   2  -2   30.71    0.81
  -1  -2   2   30.17    0.82
  -1  -2   2   30.22    0.82
  -1  -2   2   30.50    0.83
  -1  -2   2   30.08    0.86
   0   2  -2   11.53    0.38
   0   2  -2   11.57    0.36
   0   2  -2   11.27    0.36
   0   2  -2   11.46    0.32
   0   2  -2   11.09    0.36
   0  -2   2   12.07    0.36
   0  -2   2   11.42    0.32
   0  -2   2   11.31    0.37
   0  -2   2   12.02    0.37
   0  -2   2   11.13    0.36
  -1   2  -2  103.59    2.45
  -1   2  -2   98.27    2.46
  -1   2  -2  101.28    2.56
  -1   2  -2   98.68    2.55
   1  -2   2   98.38    2.45
   1  -2   2  104.30    2.56
   1  -2   2  101.93    2.57
   1  -2   2   99.45    2.26
  -2   2  -2    4.58    0.21
  -2   2  -2    4.31    0.23
  -2   2  -2    4.54    0.17
  -2   2  -2    4.22    0.19
  -2   2  -2    4.53    0.18
   2  -2   2    4.70    0.20
   2  -2   2    4.47    0.18
   2  -2   2    4.50    0.19
  -3   2  -2    3.58    0.19
  -3   2  -2    3.44    0.24
  -3   2  -2    3.43    0.18
   3  -2   2    3.54    0.19
   3  -2   2    3.60    0.19
   3  -2   2    3.79    0.17
  -4   2  -2    0.05    0.06
  -4   2  -2    0.08    0.08
  -4   2  -2    0.22    0.11
   4  -2   2    0.09    0.06
   4  -2   2    0.00    0.06
   4  -2   2    0.05    0.07
  -5   2  -2   -0.02    0.08
  -5   2  -2   -0.13    0.11
   5  -2   2    0.03    0.07
   5  -2   2    0.07    0.08
  -6   2  -2    0.49    0.20
   6  -2   2    1.04    0.17
   6  -2   2    0.43    0.12
  -7   2  -2    0.09    0.18
   7  -2   2   -0.06    0.11
   7  -2   2   -0.02    0.11
  -8   2  -2    0.50    0.25
   7   1  -2    0.36    0.14
   7   1  -2    0.33    0.14
  -7  -1   2    0.44    0.22
   6   1  -2    0.61    0.13
   6   1  -2    0.50    0.12
  -6  -1   2    0.56    0.21
   5   1  -2    0.11    0.08
   5   1  -2    0.11    0.09
  -5  -1   2    0.22    0.15
   4   1  -2    0.24    0.07
   4   1  -2    0.32    0.08
   4   1  -2    0.30    0.07
  -4  -1   2    0.42    0.09
  -4  -1   2    0.28    0.12
  -4  -1   2    0.41    0.10
   3   1  -2    1.05    0.10
   3   1  -2    0.86    0.10
   3   1  -2    0.97    0.10
  -3  -1   2    0.73    0.10
  -3  -1   2    0.77    0.12
  -3  -1   2    1.01    0.11
   2   1  -2   26.17    0.71
   2   1  -2   25.76    0.68
   2   1  -2   25.30    0.68
   2   1  -2   26.27    0.70
  -2  -1   2   25.51    0.69
  -2  -1   2   25.68    0.70
  -2  -1   2   24.89    0.68
   1   1  -2    0.82    0.07
   1   1  -2    0.60    0.07
   1   1  -2    0.74    0.07
   1   1  -2    0.64    0.07
   1   1  -2    0.81    0.09
  -1  -1   2    0.64    0.07
  -1  -1   2    0.70    0.08
  -1  -1   2    0.59    0.08
  -1  -1   2    1.02    0.10
  -1  -1   2    0.75    0.08
   0   1  -2   83.88    2.03
   0   1  -2   79.22    2.03
   0   1  -2   85.17    1.89
   0   1  -2   82.94    2.12
   0  -1   2   84.12    2.12
   0  -1   2   83.47    1.90
   0  -1   2   84.21    2.03
   0  -1   2   83.74    2.12
   0  -1   2   85.31    2.03
  -1   1  -2  581.35   13.86
  -1   1  -2  605.46   14.53
  -1   1  -2  580.48   13.81
  -1   1  -2  591.77   13.87
  -1   1  -2  578.81   14.49
   1  -1   2  591.09   14.58
   1  -1   2  589.18   14.53
   1  -1   2  575.36   13.85
   1  -1   2  598.41   13.98
  -2   1  -2    8.30    0.32
  -2   1  -2    8.28    0.26
  -2   1  -2    8.65    0.26
  -2   1  -2    8.09    0.28
  -2   1  -2    8.31    0.30
   2  -1   2    8.18    0.28
   2  -1   2    8.14    0.27
   2  -1   2    7.66    0.28
  -3   1  -2   30.23    0.89
  -3   1  -2   31.28    0.81
  -3   1  -2   28.30    0.82
   3  -1   2   29.19    0.85
   3  -1   2   29.12    0.80
   3  -1   2   29.71    0.83
  -4   1  -2    0.03    0.04
  -4   1  -2    0.20    0.09
  -4   1  -2    0.24    0.12
   4  -1   2    0.11    0.07
   4  -1   2    0.17    0.07
   4  -1   2    0.20    0.07
  -5   1  -2    0.23    0.09
  -5   1  -2   -0.10    0.11
   5  -1   2    0.20    0.09
   5  -1   2    0.20    0.09
  -6   1  -2    0.09    0.15
  -6   1  -2    0.44    0.13
   6  -1   2    0.26    0.13
   6  -1   2    0.22    0.11
  -7   1  -2    0.02    0.18
  -7   1  -2    0.14    0.13
   7  -1   2   -0.04    0.11
  -8   1  -2    0.10    0.21
  -8   0   2    0.53    0.26
   7   0  -2    1.82    0.20
   7   0  -2    1.96    0.27
   7   0  -2    1.64    0.20
  -7   0   2    1.90    0.33
   6   0  -2    0.27    0.10
   6   0  -2    0.34    0.09
   6   0  -2    0.21    0.12
  -6   0   2    0.10    0.15
   5   0  -2    0.61    0.09
  -5   0   2    0.75    0.18
  -4   0   2    0.08    0.10
  -3   0   2   30.20    0.85
   2   0  -2   12.33    0.36
  -2   0   2   12.10    0.37
   1   0  -2   25.59    0.64
   1   0  -2   25.52    0.64
   1   0  -2   26.08    0.67
   1   0  -2   25.89    0.63
   1   0  -2   25.30    0.65
   1   0  -2   25.83    0.67
  -1   0   2   24.68    0.65
  -1   0   2   25.33    0.63
   0   0  -2   55.42    1.42
   0   0  -2   56.48    1.36
   0   0  -2   54.89    1.42
   0   0  -2   56.61    1.32
   0   0  -2   54.89    1.35
   0   0  -2   55.82    1.27
   0   0   2   54.57    1.35
   0   0   2   54.95    1.42
   0   0   2   54.76    1.27
   0   0   2   56.98    1.36
   0   0   2   56.17    1.32
   0   0   2   54.09    1.42
  -1   0  -2  149.35    3.53
  -1   0  -2  150.78    3.52
  -1   0  -2  145.53    3.70
  -1   0  -2  147.87    3.68
  -1   0  -2  144.88    3.54
   1   0   2  148.38    3.53
   1   0   2  149.36    3.70
   1   0   2  142.07    3.69
   1   0   2  148.72    3.53
  -2   0  -2    0.73    0.10
  -2   0  -2    0.79    0.08
  -2   0  -2    0.77    0.09
  -2   0  -2    0.82    0.12
  -2   0  -2    0.90    0.09
   2   0   2    0.66    0.08
   2   0   2    0.87    0.10
   2   0   2    1.01    0.11
  -3   0  -2    8.84    0.38
  -3   0  -2    8.90    0.29
  -3   0  -2    8.95    0.34
  -3   0  -2    8.96    0.33
   3   0   2    9.23    0.32
   3   0   2    9.17    0.35
   3   0   2    9.03    0.33
  -4   0  -2    0.99    0.14
  -4   0  -2    1.37    0.16
  -4   0  -2    1.24    0.20
   4   0   2    0.92    0.14
   4   0   2    1.06    0.13
   4   0   2    0.88    0.12
  -5   0  -2    9.55    0.41
  -5   0  -2    9.99    0.51
   5   0   2    9.70    0.41
   5   0   2   10.06    0.43
  -6   0  -2    3.44    0.39
  -6   0  -2    4.23    0.29
   6   0   2    4.13    0.30
   6   0   2    3.75    0.28
  -7   0  -2   -0.18    0.15
  -7   0  -2    0.07    0.11
   7   0   2    0.11    0.13
  -8   1   2    0.18    0.23
   7  -1  -2    0.26    0.12
  -7   1   2   -0.09    0.18
   6  -1  -2    0.09    0.10
  -6   1   2   -0.20    0.14
  -5   1   2    0.18    0.13
  -4   1   2    5.45    0.29
   3  -1  -2   53.19    1.30
  -3   1   2   54.01    1.40
   2  -1  -2   19.73    0.51
  -2   1   2   19.28    0.55
   1  -1  -2   28.03    0.70
   1  -1  -2   28.93    0.68
   1  -1  -2   28.80    0.71
  -1   1   2   28.71    0.71
  -1   1   2   27.72    0.68
   0  -1  -2   70.04    1.67
   0  -1  -2   67.96    1.67
   0  -1  -2   69.92    1.66
   0  -1  -2   66.27    1.74
   0  -1  -2   67.52    1.74
   0   1   2   67.93    1.74
   0   1   2   65.97    1.74
   0   1   2   67.95    1.67
   0   1   2   71.94    1.67
  -1  -1  -2    0.00    0.04
  -1  -1  -2    0.22    0.07
  -1  -1  -2    0.17    0.06
  -1  -1  -2    0.16    0.06
  -1  -1  -2    0.05    0.06
   1   1   2    0.19    0.06
   1   1   2    0.19    0.05
   1   1   2    0.10    0.05
   1   1   2    0.13    0.06
  -2  -1  -2   29.94    0.86
  -2  -1  -2   31.19    0.86
  -2  -1  -2   29.76    0.83
  -2  -1  -2   31.75    0.84
  -2  -1  -2   30.62    0.84
   2   1   2   29.47    0.82
   2   1   2   30.40    0.86
   2   1   2   29.71    0.85
  -3  -1  -2    1.63    0.14
  -3  -1  -2    1.81    0.19
  -3  -1  -2    1.66    0.16
  -3  -1  -2    1.10    0.16
   3   1   2    1.25    0.14
   3   1   2    1.35    0.14
   3   1   2    1.45    0.14
  -4  -1  -2    0.13    0.09
  -4  -1  -2    0.06    0.10
  -4  -1  -2    0.06    0.08
   4   1   2    0.03    0.07
   4   1   2    0.08    0.07
   4   1   2    0.20    0.09
  -5  -1  -2    1.92    0.28
  -5  -1  -2    1.55    0.21
   5   1   2    1.64    0.20
   5   1   2    1.79    0.21
  -6  -1  -2    0.39    0.15
  -6  -1  -2    0.36    0.18
   6   1   2    0.11    0.12
  -7  -1  -2    0.29    0.20
  -7  -1  -2    0.21    0.13
   7   1   2    0.04    0.15
   7  -2  -2    0.02    0.13
  -7   2   2   -0.06    0.17
   6  -2  -2    0.91    0.15
  -6   2   2    0.67    0.20
   5  -2  -2    1.03    0.14
  -5   2   2    1.60    0.23
   4  -2  -2    0.25    0.07
  -4   2   2    0.24    0.11
   3  -2  -2   23.59    0.62
   2  -2  -2    9.62    0.28
   1  -2  -2   16.19    0.40
   1  -2  -2   16.14    0.45
   1  -2  -2   15.60    0.45
  -1   2   2   15.87    0.40
  -1   2   2   16.74    0.44
  -1   2   2   16.36    0.45
   0  -2  -2    2.17    0.13
   0  -2  -2    2.13    0.12
   0  -2  -2    2.28    0.13
   0   2   2    2.19    0.12
   0   2   2    2.32    0.13
   0   2   2    2.23    0.13
   0   2   2    2.42    0.14
  -1  -2  -2   52.43    1.39
  -1  -2  -2   52.55    1.34
  -1  -2  -2   52.87    1.39
  -1  -2  -2   52.03    1.37
  -1  -2  -2   52.05    1.35
   1   2   2   51.56    1.34
   1   2   2   51.44    1.39
  -2  -2  -2   95.83    2.38
  -2  -2  -2   89.17    2.32
  -2  -2  -2   89.47    2.39
  -2  -2  -2   95.67    2.31
   2   2   2   91.70    2.40
   2   2   2   91.20    2.40
   2   2   2   90.60    2.30
  -3  -2  -2    8.51    0.35
  -3  -2  -2    7.73    0.33
  -3  -2  -2    7.41    0.37
  -3  -2  -2    8.44    0.35
   3   2   2    8.07    0.35
   3   2   2    7.58    0.33
   3   2   2    7.96    0.34
  -4  -2  -2    0.03    0.08
  -4  -2  -2    0.05    0.09
   4   2   2    0.07    0.07
   4   2   2    0.04    0.07
   4   2   2   -0.04    0.07
  -5  -2  -2    2.13    0.29
  -5  -2  -2    2.33    0.26
   5   2   2    2.49    0.25
   5   2   2    2.28    0.24
  -6  -2  -2   -0.02    0.12
  -6  -2  -2    0.12    0.18
   6   2   2   -0.09    0.11
  -7  -2  -2    0.31    0.20
  -7  -2  -2   -0.01    0.13
   7   2   2    0.17    0.15
   6  -3  -2    0.02    0.09
   5  -3  -2    0.26    0.09
   4  -3  -2    0.22    0.06
   3  -3  -2    1.79    0.11
   2  -3  -2    0.56    0.07
   2  -3  -2    0.57    0.07
  -2   3   2    0.87    0.09
  -2   3   2    0.80    0.09
   1  -3  -2   20.12    0.56
   1  -3  -2   20.13    0.58
   1  -3  -2   19.22    0.58
  -1   3   2   20.68    0.57
  -1   3   2   19.99    0.56
  -1   3   2   20.18    0.56
  -1   3   2   19.53    0.57
   0  -3  -2   17.34    0.52
   0  -3  -2   17.40    0.53
   0  -3  -2   16.57    0.54
   0   3   2   17.36    0.53
   0   3   2   16.93    0.52
   0   3   2   17.34    0.53
  -1  -3  -2    2.72    0.18
  -1  -3  -2    2.86    0.25
  -1  -3  -2    2.60    0.18
  -1  -3  -2    2.88    0.18
   1   3   2    2.75    0.17
   1   3   2    2.87    0.18
   1   3   2    2.77    0.18
  -2  -3  -2   17.74    0.58
  -2  -3  -2   17.16    0.58
  -2  -3  -2   16.88    0.59
  -2  -3  -2   18.30    0.58
   2   3   2   16.33    0.56
   2   3   2   17.15    0.59
   2   3   2   16.82    0.59
  -3  -3  -2    0.23    0.09
  -3  -3  -2    0.23    0.11
  -3  -3  -2    0.27    0.12
   3   3   2    0.12    0.08
   3   3   2    0.13    0.08
   3   3   2    0.07    0.08
  -4  -3  -2   -0.03    0.10
  -4  -3  -2    0.04    0.09
   4   3   2   -0.14    0.07
   4   3   2   -0.07    0.07
   4   3   2   -0.02    0.08
  -5  -3  -2    0.12    0.14
  -5  -3  -2    0.08    0.11
   5   3   2    0.07    0.11
  -6  -3  -2    0.43    0.17
  -6  -3  -2    0.56    0.22
   6   3   2    0.36    0.17
  -7  -3  -2    1.42    0.27
  -7  -3  -2    1.15    0.30
   5  -4  -2    0.03    0.06
   4  -4  -2   -0.01    0.05
  -3   4   2    0.12    0.06
   2  -4  -2    1.63    0.13
   2  -4  -2    1.66    0.12
  -2   4   2    1.63    0.13
  -2   4   2    1.61    0.14
   1  -4  -2   18.68    0.58
   1  -4  -2   18.78    0.56
   1  -4  -2   18.23    0.57
  -1   4   2   18.65    0.57
  -1   4   2   18.49    0.57
  -1   4   2   18.68    0.56
  -1   4   2   18.21    0.55
   0  -4  -2    4.78    0.24
   0  -4  -2    4.84    0.24
   0  -4  -2    5.32    0.25
   0   4   2    4.92    0.25
   0   4   2    4.91    0.24
  -1  -4  -2   11.70    0.44
  -1  -4  -2   12.29    0.46
  -1  -4  -2   11.97    0.51
  -1  -4  -2   11.17    0.44
   1   4   2   11.95    0.45
   1   4   2   11.92    0.45
   1   4   2   11.96    0.45
  -2  -4  -2    0.26    0.10
  -2  -4  -2    0.22    0.10
  -2  -4  -2    0.18    0.10
  -2  -4  -2    0.28    0.13
   2   4   2    0.35    0.10
   2   4   2    0.27    0.10
  -3  -4  -2    0.35    0.14
  -3  -4  -2    0.11    0.09
  -3  -4  -2    0.12    0.10
   3   4   2    0.14    0.09
   3   4   2    0.17    0.09
   3   4   2    0.18    0.10
  -4  -4  -2    0.31    0.15
   4   4   2    0.25    0.14
   4   4   2    0.25    0.13
  -5  -4  -2   -0.01    0.11
  -5  -4  -2    0.02    0.12
  -6  -4  -2    0.15    0.15
  -6  -4  -2    0.35    0.20
   3  -5  -2   17.36    0.56
   3  -5  -2   17.38    0.52
  -3   5   2   18.38    0.54
  -3   5   2   17.80    0.55
   2  -5  -2    7.87    0.32
   2  -5  -2    8.17    0.31
  -2   5   2    7.80    0.32
  -2   5   2    7.61    0.32
   1  -5  -2    0.67    0.12
   1  -5  -2    0.51    0.10
   1  -5  -2    0.62    0.12
  -1   5   2    0.78    0.11
  -1   5   2    0.47    0.11
  -1   5   2    0.81    0.14
   0  -5  -2    4.55    0.26
   0  -5  -2    4.55    0.25
   0  -5  -2    4.42    0.26
   0   5   2    4.82    0.26
   0   5   2    4.30    0.26
  -1  -5  -2    8.16    0.38
  -1  -5  -2    8.29    0.38
  -1  -5  -2    7.72    0.44
  -1  -5  -2    7.90    0.37
   1   5   2    7.55    0.37
   1   5   2    7.87    0.37
  -2  -5  -2    3.59    0.26
  -2  -5  -2    3.41    0.35
  -2  -5  -2    3.46    0.26
  -2  -5  -2    3.59    0.26
   2   5   2    3.82    0.28
   2   5   2    3.41    0.26
   2   5   2    3.34    0.26
  -3  -5  -2    0.68    0.16
  -3  -5  -2    0.78    0.19
   3   5   2    1.18    0.19
   3   5   2    0.71    0.15
  -4  -5  -2    0.17    0.14
  -5  -5  -2    0.12    0.17
  -5  -5  -2    0.15    0.15
  -6  -5  -2    0.15    0.20
  -6  -5  -2    0.05    0.16
   5  -6  -2    0.79    0.12
   4  -6  -2    0.39    0.11
  -4   6   2    0.46    0.11
   3  -6  -2    0.23    0.10
  -3   6   2    0.13    0.09
   2  -6  -2    3.67    0.24
   2  -6  -2    3.54    0.22
  -2   6   2    4.13    0.25
  -2   6   2    3.71    0.24
   1  -6  -2    4.09    0.26
   1  -6  -2    4.46    0.26
   1  -6  -2    3.73    0.24
  -1   6   2    4.51    0.25
  -1   6   2    4.30    0.27
   0  -6  -2   10.35    0.45
   0  -6  -2   10.57    0.46
   0  -6  -2   10.24    0.44
   0   6   2    9.48    0.42
   0   6   2    9.49    0.44
  -1  -6  -2   14.28    0.58
  -1  -6  -2   13.66    0.66
  -1  -6  -2   14.28    0.57
  -1  -6  -2   13.36    0.55
   1   6   2   13.09    0.56
   1   6   2   14.10    0.56
  -2  -6  -2   10.05    0.54
  -2  -6  -2   10.80    0.50
   2   6   2   10.95    0.50
  -3  -6  -2    0.59    0.16
  -3  -6  -2    0.46    0.19
   3   6   2    0.61    0.17
  -4  -6  -2    0.05    0.13
  -4  -6  -2    0.00    0.14
  -5  -6  -2    0.20    0.20
  -5  -6  -2    0.04    0.15
  -6  -6  -2    0.56    0.22
  -6  -6  -2    0.06    0.20
   6  -7  -2   -0.04    0.11
   5  -7  -2    0.07    0.10
   4  -7  -2    0.11    0.11
  -4   7   2    0.01    0.09
   3  -7  -2    0.76    0.15
  -3   7   2    1.11    0.17
   2  -7  -2    2.20    0.24
   2  -7  -2    1.95    0.23
   2  -7  -2    1.85    0.22
  -2   7   2    1.96    0.22
   1  -7  -2    1.08    0.17
   1  -7  -2    0.71    0.15
   1  -7  -2    1.11    0.18
  -1   7   2    1.24    0.19
   0  -7  -2    2.28    0.25
   0  -7  -2    1.99    0.25
   0   7   2    1.90    0.24
  -1  -7  -2    5.38    0.35
  -1  -7  -2    4.92    0.50
   1   7   2    4.37    0.33
  -2  -7  -2    0.03    0.15
  -2  -7  -2    0.45    0.15
   2   7   2    0.35    0.16
  -3  -7  -2    0.35    0.16
  -3  -7  -2    0.38    0.19
   3   7   2    0.44    0.17
  -4  -7  -2   -0.05    0.17
  -4  -7  -2    0.01    0.14
  -5  -7  -2    1.14    0.29
   6  -8  -2    0.17    0.16
   5  -8  -2    0.02    0.12
  -5   8   2   -0.09    0.10
   4  -8  -2   -0.08    0.12
  -4   8   2   -0.05    0.11
  -3   8   2    1.95    0.23
   2  -8  -2    0.62    0.14
  -2   8   2    0.96    0.19
   1  -8  -2    0.34    0.15
   1  -8  -2    0.30    0.13
  -1   8   2    0.20    0.13
   0  -8  -2    0.03    0.12
   0   8   2    0.17    0.13
  -1  -8  -2    0.43    0.23
  -1  -8  -2    0.38    0.15
   1   8   2    0.35    0.16
  -2  -8  -2   -0.09    0.14
  -2  -8  -2    0.06    0.18
   2   8   2   -0.17    0.12
  -3  -8  -2    0.37    0.18
  -3  -8  -2    0.07    0.20
  -4  -8  -2    0.19    0.18
  -4  -8  -2    0.55    0.25
  -5   9   2    0.16    0.15
  -4   9   2    0.11    0.13
   3  -9  -2    0.14    0.11
  -3   9   2    0.77    0.18
  -2   9   2    0.35    0.15
  -1   9   2   -0.15    0.11
   0  -9  -2    0.31    0.26
   0  -9  -2   -0.02    0.14
   0   9   2   -0.16    0.11
  -1  -9  -2    0.06    0.15
  -1  -9  -2   -0.08    0.20
   1   9   2    0.06    0.15
  -2  -9  -2    2.65    0.40
  -2  -9  -2    3.45    0.40
   2   9   2    2.68    0.36
  -3  -9  -2    0.41    0.23
  -3  -9  -2    0.20    0.21
  -5  10   2    0.02    0.15
  -4  10   2    0.12    0.14
  -3  10   2    0.04    0.13
  -2  10   2    0.04    0.15
  -1  10   2   -0.16    0.13
   0 -10  -2    0.11    0.30
   0  10   2    0.04    0.16
  -1 -10  -2   -0.04    0.22
   1  10   2   -0.09    0.16
  -2 -10  -2    0.18    0.19
  -2 -10  -2   -0.31    0.19
   2  10   2    0.00    0.18
  -3  11   2    0.32    0.18
  -2  11   2   -0.06    0.15
  -1  11   2   -0.06    0.18
   0 -11  -2    0.08    0.30
   0  11   2   -0.04    0.17
  -1 -11  -2    0.01    0.26
   1  11   2   -0.12    0.20
   1  11  -3    1.55    0.33
  -1 -11   3    1.25    0.42
   0  11  -3    0.42    0.23
  -1  11  -3   -0.04    0.17
  -2  11  -3   -0.24    0.16
  -3  11  -3    0.04    0.18
  -4  11  -3   -0.16    0.18
  -3 -10   3    0.29    0.23
  -2 -10   3    0.17    0.26
  -2 -10   3   -0.01    0.18
   1  10  -3    0.09    0.17
  -1 -10   3   -0.04    0.29
  -1 -10   3   -0.25    0.16
   0  10  -3    0.11    0.17
   0 -10   3    0.21    0.18
  -1  10  -3    0.18    0.16
  -2  10  -3   -0.14    0.14
  -3  10  -3    0.26    0.18
  -4  10  -3    0.13    0.16
  -5  10  -3   -0.21    0.14
  -4  -9   3    1.16    0.33
  -4  -9   3    0.93    0.30
  -3  -9   3    0.04    0.24
  -3  -9   3    0.12    0.17
   2   9  -3    0.67    0.21
   2   9  -3    0.39    0.17
  -2  -9   3    0.56    0.32
  -2  -9   3    0.47    0.19
   1   9  -3    0.06    0.15
  -1  -9   3   -0.03    0.13
  -1  -9   3    0.19    0.29
   0   9  -3    0.22    0.15
   0  -9   3    0.13    0.16
  -1   9  -3    1.51    0.27
   1  -9   3    1.31    0.24
  -2   9  -3    2.06    0.31
  -3   9  -3    0.12    0.14
  -4   9  -3    0.15    0.14
  -5   9  -3   -0.04    0.13
  -6   9  -3   -0.18    0.13
  -4  -8   3    0.25    0.19
  -4  -8   3    0.52    0.25
   3   8  -3    0.25    0.16
  -3  -8   3    0.97    0.24
  -3  -8   3    0.77    0.28
   2   8  -3    0.62    0.17
   2   8  -3    0.55    0.19
  -2  -8   3    0.41    0.17
  -2  -8   3   -0.11    0.22
   1   8  -3    2.95    0.34
   1   8  -3    3.24    0.28
  -1  -8   3    3.05    0.32
   0   8  -3   15.89    0.53
   0   8  -3   13.82    0.64
   0  -8   3   16.44    0.66
  -1   8  -3   16.08    0.69
   1  -8   3   17.92    0.68
  -2   8  -3    1.70    0.24
  -3   8  -3    0.71    0.18
   3  -8   3    0.61    0.15
  -4   8  -3   -0.10    0.11
   4  -8   3   -0.02    0.10
  -5   8  -3   -0.01    0.12
   5  -8   3    0.12    0.12
  -6   8  -3    0.26    0.15
   6  -8   3   -0.05    0.12
  -5  -7   3   -0.01    0.15
  -5  -7   3   -0.01    0.19
  -4  -7   3   -0.13    0.12
  -4  -7   3    0.02    0.20
   3   7  -3    0.06    0.13
  -3  -7   3   -0.04    0.12
  -3  -7   3   -0.04    0.18
   2   7  -3    1.64    0.25
   2   7  -3    1.34    0.20
  -2  -7   3    1.39    0.22
  -2  -7   3    1.39    0.32
   1   7  -3    0.15    0.14
   1   7  -3    0.08    0.10
  -1  -7   3    0.29    0.13
   0   7  -3    2.87    0.29
   0   7  -3    3.29    0.22
   0  -7   3    3.04    0.30
  -1   7  -3    2.17    0.25
  -1   7  -3    1.98    0.15
   1  -7   3    2.25    0.25
  -2   7  -3    2.44    0.25
   2  -7   3    2.26    0.24
   2  -7   3    2.46    0.26
  -3   7  -3    0.13    0.11
   3  -7   3    0.05    0.09
   3  -7   3    0.14    0.14
  -4   7  -3    3.21    0.27
   4  -7   3    3.19    0.32
  -5   7  -3   10.09    0.47
   5  -7   3    9.51    0.48
  -6   7  -3    5.00    0.34
   6  -7   3    5.05    0.36
  -6  -6   3    0.00    0.15
  -6  -6   3    0.18    0.20
  -5  -6   3    0.12    0.20
  -5  -6   3    0.29    0.15
   4   6  -3    0.12    0.14
  -4  -6   3    0.14    0.14
  -4  -6   3    0.31    0.20
   3   6  -3    0.96    0.20
   3   6  -3    0.46    0.15
  -3  -6   3    0.83    0.18
  -3  -6   3    0.78    0.22
   2   6  -3    0.17    0.12
   2   6  -3    0.25    0.13
   2   6  -3    0.11    0.10
  -2  -6   3    0.10    0.12
  -2  -6   3    0.05    0.17
   1   6  -3    4.80    0.31
   1   6  -3    5.15    0.33
   1   6  -3    5.35    0.28
   1   6  -3    4.83    0.31
  -1  -6   3    5.65    0.33
  -1  -6   3    4.90    0.31
  -1  -6   3    5.14    0.31
   0   6  -3    0.01    0.06
   0   6  -3   -0.07    0.08
   0   6  -3    0.03    0.10
   0   6  -3   -0.08    0.08
   0  -6   3    0.11    0.11
   0  -6   3   -0.01    0.08
  -1   6  -3    6.49    0.32
  -1   6  -3    5.55    0.35
  -1   6  -3    6.11    0.33
  -1   6  -3    6.54    0.24
   1  -6   3    6.83    0.34
   1  -6   3    6.85    0.35
   1  -6   3    6.37    0.33
  -2   6  -3    2.74    0.26
  -2   6  -3    2.72    0.21
   2  -6   3    2.91    0.22
   2  -6   3    3.05    0.25
   2  -6   3    2.76    0.23
  -3   6  -3    0.35    0.12
   3  -6   3    0.49    0.15
   3  -6   3    0.37    0.11
   3  -6   3    0.15    0.10
  -4   6  -3    0.28    0.12
   4  -6   3    0.20    0.10
   4  -6   3    0.07    0.12
  -5   6  -3   -0.15    0.11
   5  -6   3    0.04    0.12
   5  -6   3    0.04    0.08
  -6   6  -3   -0.04    0.12
   6  -6   3   -0.07    0.10
  -6  -5   3    1.11    0.27
  -6  -5   3    1.20    0.24
  -5  -5   3    1.56    0.24
  -5  -5   3    1.95    0.31
   4   5  -3    0.97    0.18
   4   5  -3    0.95    0.18
  -4  -5   3    1.02    0.22
  -4  -5   3    1.02    0.18
   3   5  -3   -0.02    0.09
   3   5  -3   -0.10    0.08
   3   5  -3   -0.05    0.09
  -3  -5   3    0.05    0.13
  -3  -5   3    0.12    0.10
   2   5  -3    5.62    0.30
   2   5  -3    6.11    0.33
   2   5  -3    5.65    0.32
   2   5  -3    5.89    0.34
  -2  -5   3    6.68    0.34
  -2  -5   3    5.32    0.40
  -2  -5   3    5.84    0.32
   1   5  -3    0.01    0.08
   1   5  -3    0.10    0.08
   1   5  -3    0.02    0.08
   1   5  -3    0.13    0.10
  -1  -5   3    0.21    0.10
  -1  -5   3    0.17    0.11
   0   5  -3    0.56    0.11
   0   5  -3    0.65    0.10
   0   5  -3    0.57    0.13
   0   5  -3    0.63    0.14
   0  -5   3    0.47    0.11
   0  -5   3    0.52    0.11
  -1   5  -3    0.57    0.14
  -1   5  -3    0.56    0.11
  -1   5  -3    0.65    0.13
  -1   5  -3    0.61    0.08
   1  -5   3    0.74    0.09
   1  -5   3    0.57    0.12
   1  -5   3    0.42    0.10
   1  -5   3    0.46    0.12
  -2   5  -3    4.76    0.28
  -2   5  -3    4.38    0.23
   2  -5   3    4.80    0.28
   2  -5   3    4.79    0.25
   2  -5   3    4.59    0.27
   2  -5   3    4.35    0.18
  -3   5  -3    0.34    0.12
  -3   5  -3    0.29    0.11
   3  -5   3    0.44    0.10
   3  -5   3    0.36    0.11
   3  -5   3    0.42    0.12
   3  -5   3    0.44    0.07
  -4   5  -3    1.13    0.17
   4  -5   3    1.33    0.18
   4  -5   3    1.42    0.19
  -5   5  -3    1.04    0.17
   5  -5   3    1.33    0.19
   5  -5   3    1.01    0.16
  -6   5  -3    0.43    0.15
   6  -5   3    0.35    0.14
   6  -5   3    0.28    0.14
  -7  -4   3   -0.07    0.20
   6   4  -3    0.08    0.12
  -6  -4   3   -0.02    0.12
  -6  -4   3    0.09    0.18
   5   4  -3    1.06    0.20
   5   4  -3    1.08    0.19
  -5  -4   3    1.08    0.19
  -5  -4   3    0.93    0.23
   4   4  -3    0.70    0.16
   4   4  -3    0.65    0.15
  -4  -4   3    0.90    0.20
  -4  -4   3    0.33    0.13
   3   4  -3    0.58    0.13
   3   4  -3    0.49    0.12
   3   4  -3    0.42    0.11
  -3  -4   3    0.54    0.13
  -3  -4   3    0.42    0.13
   2   4  -3    9.82    0.39
   2   4  -3   10.17    0.43
   2   4  -3    9.57    0.40
   2   4  -3   10.41    0.42
  -2  -4   3    9.83    0.41
  -2  -4   3    9.83    0.40
  -2  -4   3   10.34    0.41
  -2  -4   3   10.13    0.46
   1   4  -3   13.06    0.49
   1   4  -3   13.36    0.48
   1   4  -3   13.82    0.45
  -1  -4   3   14.57    0.50
  -1  -4   3   13.37    0.49
   0   4  -3    8.21    0.35
   0   4  -3    7.57    0.32
   0   4  -3    7.90    0.29
   0   4  -3    8.27    0.34
   0  -4   3    8.18    0.34
   0  -4   3    8.21    0.34
   0  -4   3    8.39    0.34
   0  -4   3    7.90    0.28
  -1   4  -3   10.28    0.39
  -1   4  -3    9.77    0.30
  -1   4  -3    8.76    0.35
  -1   4  -3    8.87    0.36
   1  -4   3    8.99    0.37
   1  -4   3    9.44    0.30
   1  -4   3    9.64    0.38
   1  -4   3    9.30    0.35
  -2   4  -3    0.06    0.09
  -2   4  -3   -0.03    0.06
  -2   4  -3   -0.06    0.07
  -2   4  -3    0.05    0.08
   2  -4   3    0.14    0.07
   2  -4   3   -0.06    0.05
   2  -4   3    0.01    0.10
   2  -4   3   -0.02    0.04
  -3   4  -3    0.56    0.12
  -3   4  -3    0.63    0.13
   3  -4   3    0.58    0.08
   3  -4   3    0.62    0.12
   3  -4   3    0.57    0.11
   3  -4   3    0.81    0.13
  -4   4  -3    0.36    0.11
   4  -4   3    0.12    0.09
   4  -4   3    0.29    0.10
   4  -4   3    0.29    0.10
  -5   4  -3   -0.01    0.09
   5  -4   3    0.13    0.09
   5  -4   3    0.07    0.10
  -6   4  -3    0.95    0.17
   6  -4   3    0.62    0.15
   6  -4   3    0.59    0.16
   7  -4   3    0.29    0.14
  -7  -3   3   -0.02    0.19
  -7  -3   3    0.46    0.15
   6   3  -3    0.23    0.13
  -6  -3   3    0.10    0.12
  -6  -3   3    0.19    0.19
   5   3  -3    0.17    0.10
   5   3  -3    0.19    0.11
  -5  -3   3    0.09    0.14
  -5  -3   3    0.06    0.11
   4   3  -3   10.43    0.42
   4   3  -3    9.63    0.44
  -4  -3   3   10.24    0.46
  -4  -3   3    9.60    0.42
   3   3  -3    1.44    0.16
   3   3  -3    1.38    0.17
   3   3  -3    1.69    0.18
  -3  -3   3    1.35    0.17
  -3  -3   3    1.82    0.20
  -3  -3   3    1.75    0.20
   2   3  -3    4.64    0.23
   2   3  -3    4.51    0.26
   2   3  -3    4.53    0.24
   2   3  -3    4.07    0.23
  -2  -3   3    4.06    0.23
  -2  -3   3    3.87    0.25
  -2  -3   3    4.66    0.26
  -2  -3   3    4.56    0.22
  -2  -3   3    4.77    0.24
   1   3  -3    0.97    0.11
   1   3  -3    0.65    0.11
   1   3  -3    0.65    0.10
   1   3  -3    1.24    0.14
  -1  -3   3    0.81    0.12
  -1  -3   3    0.94    0.11
   0   3  -3   37.66    1.06
   0   3  -3   36.87    1.01
   0   3  -3   36.80    0.92
   0   3  -3   36.69    1.03
   0  -3   3   36.85    1.04
   0  -3   3   37.70    0.92
   0  -3   3   37.22    1.04
   0  -3   3   36.84    1.00
  -1   3  -3    1.89    0.17
  -1   3  -3    1.62    0.13
  -1   3  -3    1.81    0.11
  -1   3  -3    1.88    0.15
   1  -3   3    1.71    0.11
   1  -3   3    1.81    0.14
   1  -3   3    1.93    0.15
   1  -3   3    1.85    0.14
  -2   3  -3    0.31    0.09
  -2   3  -3    0.37    0.09
  -2   3  -3    0.41    0.10
  -2   3  -3    0.31    0.07
   2  -3   3    0.30    0.08
   2  -3   3    0.48    0.09
   2  -3   3    0.36    0.06
   2  -3   3    0.35    0.08
  -3   3  -3   12.49    0.43
  -3   3  -3   12.48    0.44
   3  -3   3   12.63    0.44
   3  -3   3   12.39    0.46
   3  -3   3   12.37    0.42
  -4   3  -3    5.97    0.28
  -4   3  -3    5.97    0.36
  -4   3  -3    5.70    0.28
   4  -3   3    5.81    0.29
   4  -3   3    5.55    0.29
   4  -3   3    5.79    0.26
  -5   3  -3   -0.09    0.08
  -5   3  -3   -0.03    0.12
   5  -3   3   -0.01    0.07
   5  -3   3   -0.06    0.09
  -6   3  -3    0.49    0.13
  -6   3  -3    0.17    0.17
   6  -3   3    0.23    0.13
   6  -3   3    0.14    0.11
  -7   3  -3    0.03    0.18
   7  -3   3    0.00    0.12
  -7  -2   3    0.11    0.21
   6   2  -3    0.06    0.12
   6   2  -3   -0.09    0.08
  -6  -2   3    0.21    0.18
   5   2  -3   10.74    0.48
   5   2  -3   10.59    0.44
  -5  -2   3   10.72    0.43
  -5  -2   3   10.98    0.52
   4   2  -3   25.44    0.77
   4   2  -3   25.76    0.78
   4   2  -3   25.26    0.73
  -4  -2   3   21.92    0.76
  -4  -2   3   24.73    0.81
  -4  -2   3   24.14    0.74
   3   2  -3    9.86    0.38
   3   2  -3    9.82    0.35
   3   2  -3    9.40    0.36
  -3  -2   3    9.39    0.38
  -3  -2   3    9.78    0.37
  -3  -2   3    9.41    0.36
   2   2  -3   10.53    0.37
   2   2  -3   10.76    0.37
   2   2  -3   10.23    0.36
  -2  -2   3   11.24    0.38
  -2  -2   3   10.51    0.35
  -2  -2   3   10.68    0.37
  -2  -2   3   10.21    0.37
  -2  -2   3   10.90    0.35
   1   2  -3    2.59    0.15
   1   2  -3    2.38    0.15
   1   2  -3    2.62    0.16
   1   2  -3    2.46    0.15
  -1  -2   3    2.31    0.14
  -1  -2   3    2.56    0.16
  -1  -2   3    2.59    0.15
  -1  -2   3    2.73    0.16
   0   2  -3    8.84    0.31
   0   2  -3    8.45    0.28
   0   2  -3    8.60    0.31
   0  -2   3    8.65    0.31
   0  -2   3    8.89    0.28
   0  -2   3    9.01    0.32
   0  -2   3    8.13    0.31
   0  -2   3    9.22    0.31
  -1   2  -3  176.69    4.15
  -1   2  -3  168.98    4.31
  -1   2  -3  165.59    4.14
  -1   2  -3  173.82    4.33
  -1   2  -3  173.91    3.85
   1  -2   3  167.63    4.32
   1  -2   3  169.68    3.85
   1  -2   3  177.48    4.34
   1  -2   3  172.21    4.13
  -2   2  -3    4.70    0.21
  -2   2  -3    4.37    0.19
  -2   2  -3    4.72    0.24
  -2   2  -3    4.08    0.22
  -2   2  -3    4.77    0.21
   2  -2   3    4.46    0.22
   2  -2   3    4.93    0.21
  -3   2  -3    0.12    0.10
  -3   2  -3   -0.07    0.07
  -3   2  -3    0.06    0.08
   3  -2   3   -0.03    0.06
   3  -2   3    0.07    0.06
   3  -2   3   -0.02    0.07
  -4   2  -3    0.20    0.10
  -4   2  -3    0.02    0.10
  -4   2  -3    0.25    0.09
   4  -2   3    0.22    0.07
   4  -2   3    0.22    0.09
   4  -2   3    0.19    0.08
  -5   2  -3    0.77    0.14
  -5   2  -3    0.64    0.19
   5  -2   3    0.97    0.17
   5  -2   3    0.57    0.12
  -6   2  -3   -0.06    0.10
  -6   2  -3   -0.15    0.14
   6  -2   3   -0.03    0.10
   6  -2   3    0.04    0.11
  -7   2  -3   -0.07    0.13
  -7   2  -3   -0.03    0.17
   7  -2   3    0.09    0.12
  -8   2  -3    0.39    0.25
  -7  -1   3    0.80    0.25
   6   1  -3    0.32    0.11
   6   1  -3    0.32    0.13
   6   1  -3    0.22    0.10
  -6  -1   3    0.53    0.20
   5   1  -3    0.60    0.11
   5   1  -3    0.41    0.10
   5   1  -3    0.36    0.11
  -5  -1   3    0.33    0.16
   4   1  -3    5.65    0.29
   4   1  -3    5.51    0.25
   4   1  -3    5.55    0.24
  -4  -1   3    6.19    0.26
  -4  -1   3    5.58    0.25
  -4  -1   3    5.50    0.30
   3   1  -3   14.94    0.45
   3   1  -3   14.01    0.48
   3   1  -3   15.07    0.43
  -3  -1   3   14.46    0.49
  -3  -1   3   14.50    0.44
  -3  -1   3   12.86    0.44
   2   1  -3    0.30    0.06
   2   1  -3    0.28    0.07
   2   1  -3    0.35    0.07
  -2  -1   3    0.26    0.08
  -2  -1   3    0.22    0.06
  -2  -1   3    0.32    0.07
   1   1  -3    6.71    0.24
   1   1  -3    6.87    0.24
   1   1  -3    6.90    0.25
   1   1  -3    6.78    0.24
  -1  -1   3    7.06    0.25
  -1  -1   3    7.03    0.24
  -1  -1   3    7.41    0.25
  -1  -1   3    6.88    0.25
  -1  -1   3    6.84    0.25
   0   1  -3  976.41   21.90
   0   1  -3  988.22   23.38
   0   1  -3  985.68   24.45
   0  -1   3  975.05   21.81
   0  -1   3  987.74   23.34
   0  -1   3 1000.00   23.37
   0  -1   3  989.68   24.47
   0  -1   3  997.13   24.43
  -1   1  -3  616.82   14.63
  -1   1  -3  614.76   14.72
  -1   1  -3  637.29   14.74
  -1   1  -3  610.65   15.41
  -1   1  -3  646.73   15.43
   1  -1   3  629.11   14.77
   1  -1   3  639.96   15.42
   1  -1   3  616.40   13.75
   1  -1   3  605.93   15.43
  -2   1  -3   20.77    0.61
  -2   1  -3   19.97    0.58
  -2   1  -3   19.04    0.58
  -2   1  -3   21.02    0.59
  -2   1  -3   19.95    0.61
   2  -1   3   20.29    0.61
   2  -1   3   20.34    0.58
   2  -1   3   18.98    0.61
  -3   1  -3    6.47    0.30
  -3   1  -3    6.92    0.33
  -3   1  -3    6.52    0.29
  -3   1  -3    6.81    0.25
   3  -1   3    6.88    0.29
   3  -1   3    6.60    0.30
   3  -1   3    6.64    0.27
  -4   1  -3    0.15    0.11
  -4   1  -3    0.13    0.08
  -4   1  -3    0.10    0.08
   4  -1   3    0.06    0.07
   4  -1   3    0.12    0.07
   4  -1   3    0.21    0.08
  -5   1  -3    0.40    0.12
  -5   1  -3    0.34    0.17
   5  -1   3    0.38    0.12
   5  -1   3    0.55    0.12
  -6   1  -3    0.22    0.18
  -6   1  -3    0.59    0.15
   6  -1   3    0.20    0.13
   6  -1   3    0.38    0.12
  -7   1  -3    0.13    0.13
  -7   1  -3   -0.12    0.16
   7  -1   3    0.02    0.11
   7   0  -3    0.19    0.10
  -7   0   3    0.01    0.19
   6   0  -3    0.32    0.13
  -6   0   3    0.23    0.17
   5   0  -3    0.08    0.08
  -5   0   3   -0.11    0.10
   4   0  -3    0.76    0.12
  -4   0   3    0.63    0.13
   3   0  -3   15.91    0.50
  -3   0   3   15.72    0.50
   2   0  -3    9.97    0.33
  -2   0   3    9.98    0.30
  -2   0   3    9.90    0.30
  -2   0   3    9.99    0.31
   1   0  -3   43.16    1.13
   1   0  -3   42.13    1.13
   1   0  -3   43.26    1.04
   1   0  -3   44.16    1.08
  -1   0   3   43.92    1.09
  -1   0   3   43.69    1.04
  -1   0   3   42.28    1.11
  -1   0   3   43.80    1.09
  -1   0   3   43.46    1.11
   0   0  -3    1.48    0.09
   0   0  -3    1.76    0.12
   0   0  -3    1.18    0.11
   0   0  -3    1.29    0.07
   0   0  -3    1.33    0.10
   0   0  -3    1.27    0.11
   0   0   3    1.40    0.11
   0   0   3    1.44    0.08
   0   0   3    1.33    0.12
   0   0   3    1.33    0.10
   0   0   3    1.64    0.11
   0   0   3    1.33    0.11
  -1   0  -3  103.35    2.64
  -1   0  -3  102.76    2.55
  -1   0  -3  106.66    2.52
  -1   0  -3  100.82    2.65
   1   0   3  105.00    2.66
   1   0   3  103.67    2.53
  -2   0  -3   18.35    0.59
  -2   0  -3   18.57    0.56
  -2   0  -3   19.26    0.58
  -2   0  -3   19.63    0.57
  -2   0  -3   18.16    0.57
   2   0   3   19.67    0.61
   2   0   3   19.63    0.59
   2   0   3   18.53    0.56
  -3   0  -3    2.39    0.16
  -3   0  -3    2.37    0.18
  -3   0  -3    2.59    0.21
  -3   0  -3    2.50    0.21
   3   0   3    2.39    0.16
   3   0   3    2.15    0.19
   3   0   3    2.40    0.18
  -4   0  -3    0.51    0.11
  -4   0  -3    0.39    0.13
  -4   0  -3    0.30    0.11
   4   0   3    0.33    0.10
   4   0   3    0.41    0.10
   4   0   3    0.33    0.10
  -5   0  -3   32.85    1.11
  -5   0  -3   32.80    1.01
   5   0   3   33.71    1.05
   5   0   3   33.94    1.04
  -6   0  -3   15.86    0.75
  -6   0  -3   17.34    0.66
   6   0   3   18.47    0.68
   6   0   3   17.42    0.71
  -7   0  -3    0.20    0.14
  -7   0  -3    0.30    0.22
   7   0   3   -0.02    0.14
   7  -1  -3   -0.02    0.13
  -7   1   3   -0.26    0.16
   6  -1  -3    0.09    0.11
  -6   1   3    0.27    0.18
   5  -1  -3    0.40    0.11
  -5   1   3    0.34    0.14
   4  -1  -3    1.87    0.17
  -4   1   3    1.58    0.18
   3  -1  -3   13.19    0.41
  -3   1   3   12.65    0.43
   2  -1  -3   18.29    0.50
  -2   1   3   18.47    0.50
   1  -1  -3    0.21    0.05
   1  -1  -3    0.26    0.05
   1  -1  -3    0.20    0.05
   1  -1  -3    0.14    0.04
  -1   1   3    0.21    0.06
  -1   1   3    0.23    0.06
  -1   1   3    0.27    0.06
   0  -1  -3   20.48    0.59
   0  -1  -3   20.66    0.57
   0  -1  -3   20.47    0.54
   0  -1  -3   20.42    0.59
   0   1   3   21.06    0.57
   0   1   3   20.61    0.59
   0   1   3   20.47    0.57
   0   1   3   20.79    0.58
   0   1   3   19.13    0.56
   0   1   3   20.14    0.52
  -1  -1  -3   19.01    0.54
  -1  -1  -3   18.32    0.55
  -1  -1  -3   18.38    0.54
  -1  -1  -3   18.03    0.57
  -1  -1  -3   19.35    0.56
   1   1   3   18.50    0.56
   1   1   3   18.94    0.55
  -2  -1  -3    9.17    0.35
  -2  -1  -3    8.56    0.35
  -2  -1  -3    9.36    0.34
  -2  -1  -3    8.87    0.35
  -2  -1  -3    9.41    0.34
   2   1   3    8.73    0.33
   2   1   3    9.21    0.35
   2   1   3    8.92    0.34
  -3  -1  -3    8.38    0.34
  -3  -1  -3    8.13    0.33
  -3  -1  -3    8.03    0.35
  -3  -1  -3    8.05    0.38
   3   1   3    8.02    0.34
   3   1   3    8.12    0.35
   3   1   3    7.74    0.33
  -4  -1  -3    3.60    0.28
  -4  -1  -3    3.58    0.25
  -4  -1  -3    4.07    0.26
   4   1   3    3.21    0.21
   4   1   3    3.27    0.24
   4   1   3    3.60    0.24
  -5  -1  -3    3.23    0.27
  -5  -1  -3    3.10    0.34
   5   1   3    3.14    0.28
   5   1   3    3.25    0.26
  -6  -1  -3    0.23    0.17
  -6  -1  -3   -0.22    0.13
   6   1   3   -0.14    0.12
  -7  -1  -3    0.10    0.18
  -7  -1  -3   -0.10    0.13
   7   1   3    0.07    0.16
   7  -2  -3   -0.05    0.12
   6  -2  -3    3.70    0.26
  -6   2   3    3.33    0.35
   5  -2  -3    2.70    0.20
  -5   2   3    2.56    0.27
   4  -2  -3    0.34    0.08
   3  -2  -3    9.13    0.31
   2  -2  -3    0.72    0.08
  -2   2   3    0.93    0.09
   1  -2  -3    3.71    0.16
   1  -2  -3    3.76    0.14
   1  -2  -3    3.85    0.16
   1  -2  -3    3.50    0.15
  -1   2   3    3.75    0.15
  -1   2   3    3.71    0.16
  -1   2   3    3.58    0.17
  -1   2   3    3.50    0.15
   0  -2  -3   15.72    0.49
   0  -2  -3   15.58    0.49
   0  -2  -3   16.24    0.49
   0  -2  -3   15.92    0.48
   0   2   3   16.22    0.49
   0   2   3   15.45    0.48
   0   2   3   16.32    0.48
   0   2   3   14.93    0.47
  -1  -2  -3    4.97    0.23
  -1  -2  -3    4.99    0.23
  -1  -2  -3    4.79    0.23
  -1  -2  -3    4.93    0.23
   1   2   3    4.54    0.22
   1   2   3    4.78    0.22
   1   2   3    5.20    0.23
  -2  -2  -3   34.05    1.01
  -2  -2  -3   36.52    1.00
  -2  -2  -3   35.19    1.00
  -2  -2  -3   35.31    0.99
   2   2   3   35.29    1.02
   2   2   3   33.67    0.97
   2   2   3   34.15    1.01
  -3  -2  -3    4.64    0.29
  -3  -2  -3    4.62    0.27
  -3  -2  -3    4.49    0.26
   3   2   3    4.63    0.27
   3   2   3    4.88    0.28
   3   2   3    4.31    0.25
  -4  -2  -3    0.67    0.16
  -4  -2  -3    0.56    0.14
   4   2   3    0.51    0.12
   4   2   3    0.55    0.13
   4   2   3    0.65    0.13
  -5  -2  -3    0.06    0.10
  -5  -2  -3   -0.02    0.13
   5   2   3    0.22    0.11
  -6  -2  -3    0.37    0.16
  -6  -2  -3    0.29    0.19
   6   2   3    0.27    0.14
  -7  -2  -3    0.01    0.14
  -7  -2  -3   -0.02    0.17
   6  -3  -3    0.00    0.09
   5  -3  -3    0.55    0.11
   4  -3  -3    0.11    0.06
   3  -3  -3    4.85    0.19
   2  -3  -3    6.85    0.23
   2  -3  -3    6.73    0.24
   2  -3  -3    6.66    0.21
  -2   3   3    6.68    0.24
  -2   3   3    6.62    0.22
  -2   3   3    6.78    0.24
   1  -3  -3   29.06    0.82
   1  -3  -3   29.00    0.83
   1  -3  -3   29.11    0.80
  -1   3   3   29.16    0.71
  -1   3   3   30.53    0.80
  -1   3   3   29.77    0.81
  -1   3   3   30.02    0.81
   0  -3  -3   33.29    0.97
   0  -3  -3   34.85    1.01
   0  -3  -3   33.86    0.97
   0   3   3   34.62    0.96
   0   3   3   35.06    0.96
   0   3   3   34.11    0.94
   0   3   3   34.64    0.94
  -1  -3  -3    0.21    0.09
  -1  -3  -3    0.43    0.09
  -1  -3  -3    0.32    0.08
   1   3   3    0.43    0.09
   1   3   3    0.27    0.09
   1   3   3    0.29    0.08
  -2  -3  -3    4.30    0.25
  -2  -3  -3    4.40    0.25
  -2  -3  -3    4.51    0.28
   2   3   3    4.59    0.26
   2   3   3    4.35    0.25
  -3  -3  -3    2.92    0.25
  -3  -3  -3    2.70    0.23
  -3  -3  -3    3.05    0.22
   3   3   3    2.95    0.23
   3   3   3    3.29    0.24
   3   3   3    3.12    0.23
  -4  -3  -3    0.22    0.12
  -4  -3  -3    0.26    0.12
   4   3   3    0.33    0.14
   4   3   3    0.12    0.11
   4   3   3    0.33    0.11
  -5  -3  -3    0.11    0.12
  -5  -3  -3   -0.14    0.10
   5   3   3    0.07    0.13
  -6  -3  -3    0.33    0.18
  -6  -3  -3    0.15    0.16
  -7  -3  -3    0.28    0.24
  -7  -3  -3    0.19    0.17
   5  -4  -3    0.07    0.06
   4  -4  -3   13.85    0.41
   2  -4  -3    0.76    0.11
   2  -4  -3    0.75    0.10
  -2   4   3    0.90    0.12
  -2   4   3    0.74    0.12
   1  -4  -3    0.00    0.05
   1  -4  -3   -0.03    0.06
   1  -4  -3    0.06    0.06
  -1   4   3   -0.02    0.05
  -1   4   3   -0.04    0.06
  -1   4   3    0.03    0.07
  -1   4   3    0.03    0.05
  -1   4   3    0.02    0.04
   0  -4  -3    0.14    0.07
   0  -4  -3    0.23    0.08
   0  -4  -3    0.16    0.08
   0   4   3    0.24    0.09
   0   4   3    0.26    0.08
  -1  -4  -3    3.58    0.23
  -1  -4  -3    3.34    0.22
  -1  -4  -3    3.72    0.24
  -1  -4  -3    3.28    0.26
   1   4   3    3.37    0.23
   1   4   3    2.75    0.22
   1   4   3    3.48    0.22
  -2  -4  -3    2.90    0.27
  -2  -4  -3    2.83    0.22
  -2  -4  -3    2.78    0.22
  -2  -4  -3    2.48    0.21
   2   4   3    3.30    0.24
   2   4   3    2.77    0.22
   2   4   3    2.52    0.21
  -3  -4  -3    3.76    0.36
  -3  -4  -3    4.04    0.29
   3   4   3    3.92    0.28
   3   4   3    3.94    0.27
   3   4   3    4.20    0.29
  -4  -4  -3    3.40    0.36
  -4  -4  -3    3.25    0.32
   4   4   3    3.60    0.30
   4   4   3    3.52    0.29
  -5  -4  -3    0.30    0.16
  -5  -4  -3    0.61    0.20
  -6  -4  -3    0.18    0.16
  -6  -4  -3    0.04    0.17
   3  -5  -3    5.51    0.27
   3  -5  -3    5.56    0.24
  -3   5   3    6.48    0.27
  -3   5   3    5.72    0.26
   2  -5  -3    0.04    0.06
   2  -5  -3    0.10    0.08
   2  -5  -3    0.06    0.06
  -2   5   3    0.12    0.08
  -2   5   3    0.09    0.08
   1  -5  -3    0.68    0.12
   1  -5  -3    0.51    0.11
   1  -5  -3    0.68    0.12
  -1   5   3    0.71    0.08
  -1   5   3    0.79    0.11
  -1   5   3    0.71    0.13
  -1   5   3    0.71    0.14
   0  -5  -3   -0.05    0.07
   0  -5  -3    0.04    0.06
   0  -5  -3    0.02    0.09
   0   5   3   -0.08    0.07
   0   5   3    0.08    0.07
  -1  -5  -3   20.34    0.69
  -1  -5  -3   20.94    0.70
  -1  -5  -3   19.86    0.70
  -1  -5  -3   19.09    0.74
   1   5   3   19.89    0.69
   1   5   3   20.46    0.70
   1   5   3   19.29    0.68
  -2  -5  -3    0.51    0.14
  -2  -5  -3    0.69    0.18
  -2  -5  -3    0.64    0.16
  -2  -5  -3    0.47    0.14
   2   5   3    0.43    0.12
   2   5   3    0.81    0.16
   2   5   3    0.66    0.14
  -3  -5  -3    2.75    0.32
   3   5   3    2.23    0.27
  -4  -5  -3    0.11    0.14
  -4  -5  -3   -0.03    0.13
  -5  -5  -3    0.00    0.13
  -5  -5  -3   -0.07    0.11
  -6  -5  -3   -0.12    0.16
  -6  -5  -3    0.13    0.18
   4  -6  -3    2.28    0.20
  -4   6   3    1.68    0.17
   3  -6  -3    5.55    0.29
  -3   6   3    5.40    0.28
   2  -6  -3    0.79    0.14
   2  -6  -3    0.87    0.13
   2  -6  -3    0.99    0.15
  -2   6   3    0.79    0.14
   1  -6  -3    3.12    0.24
   1  -6  -3    3.60    0.25
   1  -6  -3    3.77    0.26
  -1   6   3    3.73    0.25
   0  -6  -3   38.42    1.34
   0  -6  -3   41.89    1.21
   0  -6  -3   41.66    1.25
   0  -6  -3   41.49    1.24
   0   6   3   41.80    1.22
   0   6   3   39.28    1.21
  -1  -6  -3   81.44    2.15
  -1  -6  -3   79.26    2.24
  -1  -6  -3   77.04    2.22
   1   6   3   80.56    2.24
   1   6   3   77.70    2.15
  -2  -6  -3    1.30    0.22
  -2  -6  -3    1.43    0.27
   2   6   3    1.42    0.24
  -3  -6  -3    0.22    0.15
  -3  -6  -3    0.07    0.13
   3   6   3    0.20    0.15
  -4  -6  -3   -0.12    0.12
  -5  -6  -3    0.40    0.21
  -5  -6  -3    0.37    0.20
   5  -7  -3    0.54    0.14
   4  -7  -3    0.18    0.12
  -4   7   3   -0.05    0.10
   3  -7  -3    0.59    0.15
   3  -7  -3    0.34    0.11
  -3   7   3    0.48    0.13
   2  -7  -3    1.44    0.18
   2  -7  -3    2.59    0.25
  -2   7   3    1.68    0.21
   1  -7  -3    0.11    0.11
   1  -7  -3    0.09    0.10
   1  -7  -3    0.15    0.11
  -1   7   3    0.30    0.13
   0  -7  -3    5.57    0.36
   0  -7  -3    6.31    0.37
   0  -7  -3    5.73    0.55
   0   7   3    6.09    0.37
  -1  -7  -3    3.54    0.34
  -1  -7  -3    4.05    0.43
   1   7   3    3.91    0.36
  -2  -7  -3    1.10    0.21
  -2  -7  -3    0.62    0.20
   2   7   3    0.71    0.20
  -3  -7  -3    1.18    0.27
  -3  -7  -3    1.65    0.27
   3   7   3    1.88    0.28
  -4  -7  -3    0.54    0.24
  -5  -7  -3    3.61    0.50
  -5  -7  -3    2.59    0.38
   6  -8  -3    0.04    0.13
   5  -8  -3   -0.09    0.11
   4  -8  -3    0.28    0.11
   4  -8  -3    0.38    0.15
  -4   8   3    0.33    0.14
   3  -8  -3    0.38    0.13
  -3   8   3    0.30    0.13
   2  -8  -3    2.79    0.29
  -2   8   3    2.88    0.30
   1  -8  -3    0.51    0.15
  -1   8   3    0.56    0.17
   0  -8  -3   -0.01    0.20
   0  -8  -3   -0.05    0.12
   0   8   3   -0.07    0.10
  -1  -8  -3    0.97    0.29
  -1  -8  -3    1.35    0.23
   1   8   3    0.86    0.21
  -2  -8  -3   -0.16    0.13
  -2  -8  -3    0.03    0.15
   2   8   3    0.09    0.13
  -3  -8  -3    0.79    0.22
  -3  -8  -3    0.59    0.24
   3   8   3    0.81    0.26
  -4  -8  -3    0.11    0.20
  -5   9   3    1.33    0.19
   4  -9  -3    0.19    0.13
  -4   9   3    0.34    0.16
   3  -9  -3    0.18    0.12
  -3   9   3    0.25    0.15
  -2   9   3    0.13    0.15
  -1   9   3    1.09    0.22
   0  -9  -3   -0.19    0.21
   0   9   3    0.13    0.14
  -1  -9  -3    0.19    0.21
  -1  -9  -3    0.05    0.14
   1   9   3    0.07    0.15
  -2  -9  -3    0.36    0.23
  -2  -9  -3    0.39    0.21
   2   9   3    0.57    0.19
  -3  -9  -3    0.55    0.24
  -5  10   3    0.23    0.13
  -4  10   3    0.06    0.14
  -3  10   3   -0.09    0.13
  -2  10   3   -0.01    0.14
  -1  10   3    1.93    0.31
   0 -10  -3    1.77    0.43
   0  10   3    2.39    0.35
  -1 -10  -3    0.68    0.29
   1  10   3    0.70    0.24
  -2 -10  -3    0.12    0.20
  -2 -10  -3   -0.02    0.21
   2  10   3    0.07    0.17
  -3  11   3    0.65    0.23
  -2  11   3   -0.22    0.17
   1 -11  -3    0.24    0.32
  -1  11   3    0.26    0.21
   0 -11  -3    0.26    0.31
   0  11   3   -0.01    0.16
   1  11  -4    0.06    0.21
  -1 -11   4    0.16    0.35
   0  11  -4   -0.03    0.18
  -1  11  -4    0.80    0.25
  -2  11  -4   -0.18    0.17
  -3  11  -4   -0.19    0.19
  -2 -10   4    0.22    0.30
  -2 -10   4    0.03    0.18
   1  10  -4   -0.03    0.18
  -1 -10   4    0.62    0.38
  -1 -10   4    0.18    0.19
   0  10  -4    0.23    0.19
   0 -10   4    0.22    0.18
  -1  10  -4   -0.19    0.15
  -2  10  -4    0.03    0.16
  -3  10  -4    0.35    0.18
  -4  10  -4    0.51    0.20
  -5  10  -4    0.58    0.22
  -3  -9   4    0.13    0.23
  -3  -9   4    0.03    0.19
   2   9  -4    0.24    0.16
  -2  -9   4    0.09    0.18
  -2  -9   4   -0.05    0.28
   1   9  -4    0.02    0.15
  -1  -9   4    0.36    0.31
  -1  -9   4    0.09    0.16
   0   9  -4    0.55    0.19
   0  -9   4    1.20    0.26
  -1   9  -4    1.40    0.28
   1  -9   4    1.52    0.26
  -2   9  -4    1.08    0.25
  -3   9  -4    0.01    0.13
  -4   9  -4    0.10    0.15
  -5   9  -4    0.11    0.14
  -4  -8   4    0.86    0.24
  -4  -8   4    1.11    0.29
   3   8  -4    0.17    0.15
  -3  -8   4    0.00    0.14
  -3  -8   4   -0.21    0.22
   2   8  -4    0.15    0.14
   2   8  -4   -0.01    0.13
  -2  -8   4    0.00    0.24
  -2  -8   4    0.05    0.14
   1   8  -4    0.31    0.13
   1   8  -4    0.36    0.18
  -1  -8   4    0.29    0.16
   0   8  -4    0.37    0.12
   0   8  -4    0.34    0.16
   0  -8   4    0.50    0.16
  -1   8  -4    2.32    0.30
   1  -8   4    3.21    0.34
  -2   8  -4    0.87    0.20
  -3   8  -4   -0.07    0.12
   3  -8   4    0.16    0.13
  -4   8  -4    0.79    0.19
   4  -8   4    1.00    0.22
  -5   8  -4    1.14    0.21
   5  -8   4    0.70    0.20
  -6   8  -4    0.52    0.18
   6  -8   4    0.32    0.18
  -5  -7   4   -0.14    0.19
  -5  -7   4    0.07    0.17
  -4  -7   4   -0.13    0.14
  -4  -7   4    0.26    0.22
   3   7  -4    2.01    0.27
  -3  -7   4    2.05    0.27
  -3  -7   4    2.24    0.34
   2   7  -4    2.18    0.25
   2   7  -4    2.84    0.33
  -2  -7   4    2.84    0.39
  -2  -7   4    2.81    0.30
   1   7  -4    8.11    0.38
   1   7  -4    6.70    0.41
  -1  -7   4    8.10    0.43
   0   7  -4    0.41    0.11
   0   7  -4    0.09    0.11
   0  -7   4    0.37    0.14
  -1   7  -4    3.92    0.20
  -1   7  -4    3.21    0.31
   1  -7   4    3.53    0.28
  -2   7  -4    1.09    0.20
   2  -7   4    1.02    0.19
   2  -7   4    1.25    0.19
  -3   7  -4    0.61    0.16
   3  -7   4    1.09    0.20
  -4   7  -4   -0.11    0.12
   4  -7   4   -0.07    0.10
  -5   7  -4    0.35    0.16
   5  -7   4    0.06    0.11
  -6   7  -4    0.18    0.16
   6  -7   4    0.07    0.14
  -7   7  -4    0.10    0.15
  -6  -6   4    0.05    0.19
  -6  -6   4   -0.15    0.14
  -5  -6   4   -0.13    0.19
  -5  -6   4    0.17    0.16
   4   6  -4    0.33    0.16
  -4  -6   4    0.00    0.18
  -4  -6   4    0.12    0.14
   3   6  -4    0.71    0.17
  -3  -6   4    0.98    0.19
  -3  -6   4    1.03    0.24
   2   6  -4    0.51    0.14
   2   6  -4    0.78    0.19
   2   6  -4    0.88    0.18
  -2  -6   4    0.47    0.25
  -2  -6   4    0.60    0.15
   1   6  -4   10.64    0.42
   1   6  -4   10.50    0.47
   1   6  -4   10.05    0.46
  -1  -6   4   10.31    0.47
   0   6  -4    0.96    0.17
   0   6  -4    0.84    0.18
   0   6  -4    0.84    0.13
   0   6  -4    0.75    0.15
   0  -6   4    0.73    0.17
   0  -6   4    0.99    0.17
  -1   6  -4    0.02    0.09
  -1   6  -4    0.35    0.08
  -1   6  -4    0.54    0.16
  -1   6  -4    0.25    0.11
   1  -6   4    0.34    0.11
   1  -6   4    0.23    0.11
   1  -6   4    0.23    0.11
  -2   6  -4    2.68    0.26
  -2   6  -4    2.47    0.21
   2  -6   4    2.59    0.26
   2  -6   4    2.74    0.22
   2  -6   4    3.06    0.26
   2  -6   4    2.54    0.16
  -3   6  -4    9.47    0.44
   3  -6   4    9.24    0.40
   3  -6   4    9.36    0.44
   3  -6   4    8.93    0.44
  -4   6  -4    3.60    0.28
   4  -6   4    3.26    0.28
   4  -6   4    3.56    0.28
  -5   6  -4    0.38    0.15
   5  -6   4    0.46    0.16
  -6   6  -4    0.72    0.19
   6  -6   4    0.57    0.17
  -6  -5   4    0.01    0.14
  -6  -5   4    0.31    0.21
  -5  -5   4    0.45    0.16
  -5  -5   4    0.85    0.25
   4   5  -4    0.37    0.15
   4   5  -4    0.35    0.14
  -4  -5   4    0.26    0.17
  -4  -5   4    0.52    0.14
   3   5  -4    4.81    0.31
   3   5  -4    5.49    0.32
   3   5  -4    4.17    0.30
  -3  -5   4    3.82    0.30
  -3  -5   4    5.02    0.38
   2   5  -4    9.02    0.42
   2   5  -4    9.90    0.42
   2   5  -4    9.97    0.44
   2   5  -4    9.75    0.46
  -2  -5   4    9.65    0.44
  -2  -5   4    9.94    0.51
  -2  -5   4    9.37    0.42
   1   5  -4    3.11    0.24
   1   5  -4    3.49    0.24
   1   5  -4    2.95    0.21
   1   5  -4    3.14    0.25
  -1  -5   4    3.09    0.25
  -1  -5   4    3.15    0.24
   0   5  -4   12.15    0.49
   0   5  -4   12.67    0.49
   0   5  -4   13.31    0.53
   0   5  -4   12.56    0.43
   0  -5   4   13.09    0.50
   0  -5   4   12.71    0.49
   0  -5   4   12.30    0.49
  -1   5  -4    1.85    0.21
  -1   5  -4    2.27    0.22
  -1   5  -4    1.90    0.14
  -1   5  -4    1.73    0.18
   1  -5   4    2.03    0.14
   1  -5   4    2.25    0.21
   1  -5   4    1.28    0.19
   1  -5   4    2.20    0.23
  -2   5  -4    1.36    0.18
  -2   5  -4    1.10    0.14
   2  -5   4    1.43    0.13
   2  -5   4    1.22    0.17
   2  -5   4    1.27    0.16
   2  -5   4    0.91    0.15
  -3   5  -4    9.69    0.43
   3  -5   4   10.11    0.40
   3  -5   4    9.63    0.44
   3  -5   4   10.76    0.44
   3  -5   4    9.67    0.34
  -4   5  -4    6.20    0.34
   4  -5   4    6.17    0.35
   4  -5   4    6.46    0.34
  -5   5  -4    0.09    0.12
   5  -5   4    0.05    0.09
   5  -5   4   -0.10    0.10
  -6   5  -4    0.54    0.16
   6  -5   4    0.58    0.17
  -7   5  -4    0.31    0.15
   6   4  -4    0.27    0.15
  -6  -4   4    0.45    0.16
  -6  -4   4    0.38    0.23
   5   4  -4    0.12    0.14
   5   4  -4    0.07    0.11
  -5  -4   4    0.01    0.14
  -5  -4   4    0.01    0.12
   4   4  -4    3.52    0.32
   4   4  -4    3.70    0.30
   4   4  -4    3.24    0.26
  -4  -4   4    2.92    0.25
  -4  -4   4    3.29    0.33
   3   4  -4    2.64    0.26
   3   4  -4    2.72    0.26
   3   4  -4    2.69    0.27
   3   4  -4    2.40    0.24
  -3  -4   4    2.66    0.22
  -3  -4   4    2.77    0.28
   2   4  -4    0.17    0.09
   2   4  -4    0.19    0.09
   2   4  -4    0.10    0.09
   2   4  -4    0.30    0.09
  -2  -4   4    0.16    0.12
  -2  -4   4    0.31    0.09
  -2  -4   4    0.11    0.09
   1   4  -4   55.11    1.51
   1   4  -4   55.38    1.42
   1   4  -4   56.16    1.60
   1   4  -4   56.08    1.57
  -1  -4   4   59.47    1.57
  -1  -4   4   57.40    1.53
   0   4  -4   32.06    0.97
   0   4  -4   31.79    0.86
   0   4  -4   32.66    0.95
   0   4  -4   34.40    1.01
   0  -4   4   33.09    0.95
   0  -4   4   32.55    0.86
   0  -4   4   33.14    0.98
   0  -4   4   33.78    0.99
  -1   4  -4    3.05    0.21
  -1   4  -4    3.82    0.26
  -1   4  -4    3.06    0.16
  -1   4  -4    3.36    0.21
   1  -4   4    3.33    0.17
   1  -4   4    3.34    0.22
   1  -4   4    2.91    0.24
   1  -4   4    2.96    0.20
  -2   4  -4    3.28    0.22
  -2   4  -4    3.11    0.19
  -2   4  -4    3.21    0.22
   2  -4   4    3.49    0.21
   2  -4   4    3.12    0.22
   2  -4   4    3.64    0.23
   2  -4   4    3.18    0.17
  -3   4  -4    8.51    0.37
  -3   4  -4    7.25    0.35
   3  -4   4    7.95    0.37
   3  -4   4    8.15    0.36
   3  -4   4    7.60    0.33
   3  -4   4    7.49    0.29
  -4   4  -4    0.09    0.10
   4  -4   4   -0.07    0.08
   4  -4   4   -0.02    0.08
  -5   4  -4    2.11    0.24
   5  -4   4    2.34    0.24
   5  -4   4    1.88    0.22
  -6   4  -4    0.02    0.12
   6  -4   4    0.04    0.12
   6  -4   4   -0.08    0.10
  -7   4  -4    0.08    0.13
   7  -4   4   -0.07    0.13
   6   3  -4    1.08    0.19
  -6  -3   4    0.76    0.23
  -6  -3   4    0.94    0.19
   5   3  -4    1.89    0.22
   5   3  -4    1.63    0.24
  -5  -3   4    1.45    0.24
  -5  -3   4    1.80    0.21
   4   3  -4   18.90    0.68
   4   3  -4   19.28    0.66
  -4  -3   4   18.46    0.64
  -4  -3   4   17.54    0.66
   3   3  -4    4.83    0.28
   3   3  -4    4.80    0.26
   3   3  -4    4.25    0.27
   3   3  -4    4.89    0.26
  -3  -3   4    5.12    0.29
  -3  -3   4    4.63    0.26
  -3  -3   4    5.34    0.29
   2   3  -4    6.18    0.28
   2   3  -4    5.43    0.26
   2   3  -4    5.07    0.27
   2   3  -4    5.29    0.27
  -2  -3   4    5.44    0.25
  -2  -3   4    5.68    0.29
  -2  -3   4    5.35    0.28
  -2  -3   4    5.49    0.29
   1   3  -4    0.00    0.05
   1   3  -4    0.04    0.06
   1   3  -4    0.03    0.06
   1   3  -4   -0.03    0.06
  -1  -3   4   -0.01    0.06
  -1  -3   4    0.04    0.06
  -1  -3   4   -0.08    0.05
   0   3  -4    6.68    0.26
   0   3  -4    7.11    0.33
   0   3  -4    6.12    0.28
   0   3  -4    6.67    0.28
   0  -3   4    6.74    0.29
   0  -3   4    6.82    0.29
   0  -3   4    6.68    0.30
   0  -3   4    6.51    0.26
  -1   3  -4   41.34    1.01
  -1   3  -4   41.06    1.13
  -1   3  -4   42.45    1.17
  -1   3  -4   39.41    1.14
   1  -3   4   40.93    1.02
   1  -3   4   41.27    1.12
   1  -3   4   41.08    1.16
   1  -3   4   41.23    1.17
  -2   3  -4    9.19    0.35
  -2   3  -4    8.97    0.37
  -2   3  -4    9.53    0.38
  -2   3  -4    9.41    0.38
   2  -3   4    9.46    0.38
   2  -3   4    9.05    0.31
   2  -3   4    9.26    0.39
   2  -3   4    9.04    0.35
  -3   3  -4    2.22    0.21
  -3   3  -4    2.14    0.18
   3  -3   4    1.92    0.20
   3  -3   4    1.77    0.14
   3  -3   4    2.28    0.20
   3  -3   4    2.41    0.18
  -4   3  -4   30.06    1.01
  -4   3  -4   28.85    0.92
   4  -3   4   31.75    0.96
   4  -3   4   32.33    0.98
   4  -3   4   30.23    0.88
  -5   3  -4    5.84    0.41
  -5   3  -4    5.85    0.33
   5  -3   4    6.06    0.35
   5  -3   4    6.53    0.36
  -6   3  -4    0.44    0.15
  -6   3  -4   -0.05    0.14
   6  -3   4    0.13    0.10
   6  -3   4    0.34    0.14
  -7   3  -4    0.04    0.18
  -7   3  -4    0.19    0.15
   7  -3   4    0.10    0.13
   6   2  -4    0.38    0.13
   6   2  -4    0.55    0.18
  -6  -2   4    0.52    0.14
  -6  -2   4    0.56    0.22
   5   2  -4    0.14    0.11
   5   2  -4    0.26    0.11
  -5  -2   4    0.16    0.11
  -5  -2   4    0.12    0.14
   4   2  -4   -0.01    0.09
   4   2  -4    0.33    0.12
  -4  -2   4    0.23    0.11
  -4  -2   4    0.03    0.11
   3   2  -4    0.35    0.09
   3   2  -4    0.36    0.10
   3   2  -4    0.35    0.10
  -3  -2   4    0.26    0.11
  -3  -2   4    0.30    0.10
  -3  -2   4    0.18    0.09
   2   2  -4    0.78    0.11
   2   2  -4    0.67    0.11
   2   2  -4    0.73    0.11
   2   2  -4    0.57    0.09
  -2  -2   4    0.75    0.11
  -2  -2   4    0.78    0.11
  -2  -2   4    0.66    0.11
  -2  -2   4    0.56    0.08
   1   2  -4   12.24    0.43
   1   2  -4   11.50    0.40
   1   2  -4   12.30    0.40
   1   2  -4   11.88    0.41
  -1  -2   4   11.71    0.41
  -1  -2   4   11.86    0.41
  -1  -2   4   11.73    0.40
  -1  -2   4   12.79    0.41
  -1  -2   4   12.91    0.40
   0   2  -4  157.71    4.00
   0   2  -4  159.44    3.58
   0   2  -4  157.03    3.84
   0  -2   4  159.90    4.00
   0  -2   4  160.35    3.84
   0  -2   4  155.43    3.57
   0  -2   4  154.36    4.00
  -1   2  -4   75.75    2.06
  -1   2  -4   79.69    1.84
  -1   2  -4   80.21    2.00
  -1   2  -4   79.10    2.08
   1  -2   4   76.58    1.84
   1  -2   4   79.99    2.09
   1  -2   4   80.83    1.98
  -2   2  -4    0.30    0.08
  -2   2  -4    0.45    0.10
  -2   2  -4    0.35    0.10
  -2   2  -4    0.42    0.09
  -2   2  -4    0.25    0.08
   2  -2   4    0.27    0.08
   2  -2   4    0.16    0.08
   2  -2   4    0.37    0.09
   2  -2   4    0.29    0.07
  -3   2  -4    5.75    0.32
  -3   2  -4    5.63    0.30
  -3   2  -4    6.15    0.29
  -3   2  -4    5.96    0.25
   3  -2   4    5.89    0.27
   3  -2   4    6.24    0.30
   3  -2   4    6.19    0.30
  -4   2  -4    2.21    0.28
  -4   2  -4    1.59    0.20
  -4   2  -4    2.13    0.21
   4  -2   4    1.52    0.17
   4  -2   4    1.96    0.21
   4  -2   4    1.72    0.20
  -5   2  -4    0.43    0.18
  -5   2  -4    0.57    0.15
   5  -2   4    0.48    0.14
   5  -2   4    0.58    0.15
  -6   2  -4    0.28    0.19
  -6   2  -4    0.16    0.13
   6  -2   4    0.17    0.11
   6  -2   4    0.15    0.13
  -7   2  -4    0.42    0.16
  -7   2  -4    0.19    0.21
   7  -2   4    0.18    0.15
   6   1  -4    1.30    0.22
   6   1  -4    2.05    0.20
  -6  -1   4    1.65    0.29
   5   1  -4    0.12    0.08
   5   1  -4   -0.11    0.08
  -5  -1   4    0.03    0.13
   4   1  -4   -0.02    0.07
   4   1  -4   -0.16    0.05
  -4  -1   4   -0.08    0.07
  -4  -1   4   -0.01    0.07
  -4  -1   4   -0.10    0.08
   3   1  -4    6.08    0.28
   3   1  -4    6.03    0.24
   3   1  -4    6.11    0.24
  -3  -1   4    6.22    0.26
  -3  -1   4    6.16    0.25
  -3  -1   4    4.54    0.23
   2   1  -4    3.21    0.16
   2   1  -4    2.90    0.18
   2   1  -4    3.04    0.17
   2   1  -4    3.21    0.16
  -2  -1   4    3.21    0.15
  -2  -1   4    3.23    0.17
  -2  -1   4    3.32    0.18
   1   1  -4    0.13    0.05
   1   1  -4    0.15    0.05
   1   1  -4    0.04    0.05
   1   1  -4    0.15    0.06
  -1  -1   4    0.13    0.07
  -1  -1   4    0.07    0.06
  -1  -1   4    0.14    0.07
  -1  -1   4    0.03    0.06
  -1  -1   4    0.08    0.07
  -1  -1   4    0.09    0.05
   0   1  -4   60.86    1.59
   0   1  -4   60.93    1.53
   0   1  -4   58.76    1.42
   0   1  -4   59.56    1.59
   0  -1   4   61.94    1.59
   0  -1   4   61.12    1.53
   0  -1   4   59.56    1.59
   0  -1   4   59.04    1.46
   0  -1   4   57.56    1.42
   0  -1   4   58.82    1.52
  -1   1  -4   12.43    0.42
  -1   1  -4   12.49    0.43
  -1   1  -4   11.96    0.43
  -1   1  -4   13.07    0.40
   1  -1   4   12.50    0.44
   1  -1   4   12.59    0.38
   1  -1   4   12.43    0.41
  -2   1  -4    0.15    0.07
  -2   1  -4    0.38    0.09
  -2   1  -4    0.31    0.08
  -2   1  -4    0.08    0.07
  -2   1  -4    0.18    0.09
   2  -1   4    0.03    0.06
   2  -1   4    0.13    0.07
   2  -1   4    0.22    0.07
  -3   1  -4    1.73    0.20
  -3   1  -4    1.92    0.21
  -3   1  -4    1.61    0.14
  -3   1  -4    1.88    0.18
   3  -1   4    1.97    0.20
   3  -1   4    1.51    0.17
   3  -1   4    1.83    0.18
  -4   1  -4    0.75    0.17
  -4   1  -4    0.41    0.12
  -4   1  -4    0.84    0.14
   4  -1   4    0.55    0.13
   4  -1   4    0.78    0.13
   4  -1   4    0.57    0.12
  -5   1  -4    9.09    0.50
  -5   1  -4    8.34    0.42
   5  -1   4    9.26    0.44
   5  -1   4    9.78    0.45
  -6   1  -4    1.54    0.23
  -6   1  -4    1.06    0.25
   6  -1   4    1.38    0.21
  -7   1  -4    0.30    0.16
  -7   1  -4    0.07    0.20
   7  -1   4   -0.10    0.14
  -7   0   4    0.15    0.22
   6   0  -4   -0.10    0.08
  -6   0   4   -0.06    0.15
   5   0  -4    0.19    0.09
  -5   0   4    0.25    0.13
   4   0  -4    0.82    0.13
  -4   0   4    0.67    0.13
   3   0  -4    8.95    0.35
  -3   0   4    8.62    0.32
   2   0  -4  187.35    4.58
   2   0  -4  191.12    4.37
   2   0  -4  187.48    4.16
   2   0  -4  172.22    4.58
  -2   0   4  183.16    4.33
  -2   0   4  183.91    4.15
  -2   0   4  177.76    4.38
   1   0  -4   25.38    0.70
   1   0  -4   26.34    0.68
   1   0  -4   26.33    0.73
   1   0  -4   24.88    0.73
  -1   0   4   26.74    0.71
  -1   0   4   26.06    0.71
  -1   0   4   25.54    0.68
  -1   0   4   25.48    0.71
  -1   0   4   26.02    0.71
   0   0  -4    6.81    0.21
   0   0  -4    7.03    0.24
   0   0  -4    7.00    0.28
   0   0  -4    6.88    0.27
   0   0  -4    6.90    0.27
   0   0   4    6.90    0.27
   0   0   4    6.43    0.26
   0   0   4    6.64    0.26
   0   0   4    7.04    0.25
   0   0   4    7.44    0.28
   0   0   4    6.66    0.21
  -1   0  -4    0.11    0.06
  -1   0  -4    0.10    0.07
  -1   0  -4    0.03    0.06
  -1   0  -4    0.16    0.07
   1   0   4    0.12    0.06
   1   0   4    0.04    0.05
   1   0   4    0.07    0.06
   1   0   4    0.15    0.07
  -2   0  -4    3.85    0.23
  -2   0  -4    4.71    0.22
  -2   0  -4    4.14    0.22
  -2   0  -4    4.15    0.23
  -2   0  -4    4.46    0.24
   2   0   4    3.83    0.22
   2   0   4    4.47    0.24
   2   0   4    4.02    0.21
  -3   0  -4    0.33    0.12
  -3   0  -4    0.58    0.12
  -3   0  -4    0.41    0.11
  -3   0  -4    0.56    0.11
   3   0   4    0.38    0.10
   3   0   4    0.35    0.09
   3   0   4    0.38    0.10
  -4   0  -4    1.07    0.17
  -4   0  -4    1.08    0.19
   4   0   4    1.28    0.16
   4   0   4    0.99    0.15
   4   0   4    1.00    0.16
  -5   0  -4    0.04    0.11
  -5   0  -4    0.14    0.14
   5   0   4    0.12    0.11
   5   0   4    0.04    0.10
  -6   0  -4    1.89    0.30
  -6   0  -4    1.54    0.25
   6   0   4    1.90    0.25
  -7   0  -4    0.02    0.14
  -7   0  -4    0.26    0.19
   7   0   4   -0.11    0.15
   7  -1  -4    0.22    0.14
  -7   1   4    0.04    0.20
   6  -1  -4    0.17    0.11
  -6   1   4   -0.03    0.14
   5  -1  -4    1.01    0.16
  -5   1   4    1.26    0.20
   4  -1  -4    0.29    0.09
  -4   1   4    0.47    0.12
   3  -1  -4    5.79    0.25
  -3   1   4    5.41    0.24
   2  -1  -4    1.84    0.13
   2  -1  -4    1.68    0.10
   2  -1  -4    1.46    0.11
   2  -1  -4    1.46    0.10
  -2   1   4    1.62    0.11
  -2   1   4    1.92    0.14
   1  -1  -4   33.52    0.94
   1  -1  -4   33.85    0.93
   1  -1  -4   34.34    0.85
   1  -1  -4   33.74    0.90
  -1   1   4   34.48    0.91
  -1   1   4   34.07    0.86
  -1   1   4   35.84    0.90
  -1   1   4   34.11    0.90
  -1   1   4   34.42    0.90
   0  -1  -4   20.55    0.62
   0  -1  -4   20.06    0.62
   0  -1  -4   20.70    0.60
   0  -1  -4   20.90    0.55
   0   1   4   20.88    0.62
   0   1   4   20.67    0.55
   0   1   4   21.13    0.60
   0   1   4   19.76    0.57
   0   1   4   21.55    0.61
   0   1   4   18.89    0.59
  -1  -1  -4    7.47    0.29
  -1  -1  -4    7.19    0.28
  -1  -1  -4    6.77    0.30
  -1  -1  -4    7.29    0.30
   1   1   4    7.19    0.29
   1   1   4    7.03    0.29
   1   1   4    6.72    0.29
  -2  -1  -4   13.14    0.47
  -2  -1  -4   12.68    0.47
  -2  -1  -4   13.31    0.45
   2   1   4   13.72    0.46
   2   1   4   12.29    0.46
   2   1   4   13.33    0.48
  -3  -1  -4   39.71    1.17
  -3  -1  -4   40.00    1.15
  -3  -1  -4   38.41    1.15
   3   1   4   40.87    1.18
   3   1   4   41.76    1.19
   3   1   4   40.52    1.13
  -4  -1  -4    1.48    0.20
  -4  -1  -4    1.11    0.20
   4   1   4    1.36    0.18
   4   1   4    1.10    0.17
   4   1   4    1.23    0.17
  -5  -1  -4    0.07    0.13
  -5  -1  -4    0.01    0.11
   5   1   4   -0.02    0.10
  -6  -1  -4    0.04    0.14
  -6  -1  -4    0.08    0.13
   6   1   4    0.19    0.14
  -7  -1  -4   -0.11    0.17
  -7  -1  -4   -0.07    0.13
   7  -2  -4   -0.02    0.12
   6  -2  -4    0.82    0.15
   5  -2  -4    5.81    0.29
   4  -2  -4    0.15    0.07
   3  -2  -4    3.59    0.19
   2  -2  -4    0.44    0.06
   2  -2  -4    0.52    0.08
   2  -2  -4    0.57    0.07
  -2   2   4    0.55    0.08
  -2   2   4    0.68    0.08
   1  -2  -4    0.00    0.04
   1  -2  -4   -0.02    0.04
   1  -2  -4    0.03    0.04
   1  -2  -4    0.01    0.05
  -1   2   4    0.03    0.04
  -1   2   4    0.08    0.05
  -1   2   4    0.05    0.04
  -1   2   4    0.03    0.05
   0  -2  -4   58.05    1.57
   0  -2  -4   59.28    1.57
   0  -2  -4   59.80    1.52
   0  -2  -4   57.37    1.48
   0   2   4   57.15    1.57
   0   2   4   58.32    1.51
   0   2   4   59.44    1.39
   0   2   4   60.49    1.56
  -1  -2  -4   -0.04    0.06
  -1  -2  -4   -0.10    0.07
  -1  -2  -4   -0.04    0.06
  -1  -2  -4    0.05    0.07
   1   2   4    0.00    0.06
   1   2   4   -0.09    0.06
   1   2   4    0.06    0.06
  -2  -2  -4   21.41    0.67
  -2  -2  -4   19.95    0.68
  -2  -2  -4   21.60    0.68
  -2  -2  -4   20.96    0.67
   2   2   4   21.48    0.68
   2   2   4   19.12    0.67
   2   2   4   19.84    0.65
  -3  -2  -4    3.57    0.24
  -3  -2  -4    3.11    0.24
   3   2   4    3.27    0.24
   3   2   4    3.53    0.25
   3   2   4    3.43    0.22
  -4  -2  -4    3.46    0.34
  -4  -2  -4    3.48    0.27
   4   2   4    3.25    0.24
   4   2   4    3.41    0.26
   4   2   4    2.97    0.26
  -5  -2  -4    0.56    0.18
  -5  -2  -4    0.50    0.16
   5   2   4    0.66    0.16
  -6  -2  -4    0.11    0.17
  -6  -2  -4   -0.01    0.12
  -7  -2  -4    0.39    0.17
  -7  -2  -4    0.03    0.19
   6  -3  -4    0.02    0.09
   5  -3  -4    0.05    0.07
   4  -3  -4    3.59    0.20
   3  -3  -4   -0.01    0.04
   2  -3  -4    5.22    0.19
   2  -3  -4    5.27    0.21
   2  -3  -4    5.02    0.21
   2  -3  -4    5.27    0.22
  -2   3   4    5.33    0.22
  -2   3   4    5.31    0.21
   1  -3  -4  159.49    3.99
   1  -3  -4  154.06    3.81
   1  -3  -4  155.37    3.99
  -1   3   4  157.52    3.96
  -1   3   4  156.86    3.82
  -1   3   4  155.97    3.54
  -1   3   4  160.93    3.81
   0  -3  -4   59.54    1.61
   0  -3  -4   58.62    1.57
   0  -3  -4   57.60    1.59
   0  -3  -4   58.12    1.55
   0   3   4   59.41    1.60
   0   3   4   61.12    1.59
   0   3   4   59.61    1.55
  -1  -3  -4    0.26    0.09
  -1  -3  -4    0.32    0.09
  -1  -3  -4    0.23    0.09
  -1  -3  -4    0.20    0.09
   1   3   4    0.10    0.07
   1   3   4    0.37    0.09
   1   3   4    0.21    0.08
  -2  -3  -4    1.01    0.16
  -2  -3  -4    1.05    0.16
  -2  -3  -4    1.11    0.16
  -2  -3  -4    1.23    0.16
   2   3   4    1.23    0.16
   2   3   4    1.01    0.16
   2   3   4    0.95    0.14
  -3  -3  -4    0.35    0.13
  -3  -3  -4    0.40    0.13
  -3  -3  -4    0.39    0.13
   3   3   4    0.29    0.11
   3   3   4    0.64    0.14
   3   3   4    0.37    0.12
  -4  -3  -4    0.71    0.17
  -4  -3  -4    1.14    0.20
   4   3   4    0.66    0.16
   4   3   4    1.01    0.18
  -5  -3  -4    0.16    0.13
  -5  -3  -4    0.28    0.18
  -6  -3  -4    0.04    0.16
  -6  -3  -4    0.35    0.16
  -7  -3  -4   -0.05    0.14
  -7  -3  -4    0.12    0.20
   5  -4  -4    1.76    0.17
   4  -4  -4   25.48    0.68
   3  -4  -4    1.78    0.11
   3  -4  -4    1.87    0.13
   3  -4  -4    1.86    0.14
  -3   4   4    1.89    0.14
  -3   4   4    2.04    0.14
   2  -4  -4    3.49    0.20
   2  -4  -4    3.92    0.20
   2  -4  -4    3.54    0.19
  -2   4   4    3.74    0.20
  -2   4   4    3.85    0.17
  -2   4   4    4.02    0.20
   1  -4  -4    8.74    0.36
   1  -4  -4    8.45    0.34
   1  -4  -4    8.60    0.35
  -1   4   4    8.08    0.35
  -1   4   4    8.64    0.34
  -1   4   4    8.56    0.33
  -1   4   4    8.91    0.28
   0  -4  -4   10.49    0.42
   0  -4  -4   11.47    0.44
   0  -4  -4   10.83    0.43
   0  -4  -4   10.64    0.48
   0   4   4   10.99    0.43
   0   4   4   11.28    0.42
   0   4   4   11.16    0.42
  -1  -4  -4    3.30    0.24
  -1  -4  -4    3.62    0.26
  -1  -4  -4    3.68    0.24
  -1  -4  -4    3.43    0.24
   1   4   4    3.36    0.23
   1   4   4    3.59    0.24
   1   4   4    3.33    0.24
  -2  -4  -4    0.41    0.13
  -2  -4  -4    0.53    0.14
  -2  -4  -4    0.86    0.15
  -2  -4  -4    0.62    0.13
   2   4   4    0.36    0.11
   2   4   4    0.59    0.14
   2   4   4    0.57    0.12
  -3  -4  -4    0.75    0.19
  -3  -4  -4    0.41    0.14
   3   4   4    0.59    0.14
   3   4   4    0.70    0.15
  -4  -4  -4   10.59    0.52
  -4  -4  -4    9.91    0.54
   4   4   4   10.50    0.52
  -5  -4  -4    2.83    0.36
  -5  -4  -4    2.82    0.33
  -6  -4  -4    0.15    0.15
  -6  -4  -4   -0.08    0.16
   3  -5  -4    9.71    0.38
   3  -5  -4    9.51    0.37
  -3   5   4   10.33    0.37
  -3   5   4   10.86    0.38
   2  -5  -4    1.42    0.15
   2  -5  -4    1.67    0.17
   2  -5  -4    1.95    0.17
  -2   5   4    1.97    0.19
  -2   5   4    2.20    0.20
   1  -5  -4    1.10    0.15
   1  -5  -4    1.01    0.15
  -1   5   4    1.20    0.16
  -1   5   4    1.25    0.11
  -1   5   4    0.80    0.12
   0  -5  -4   11.85    0.49
   0  -5  -4   12.55    0.57
   0  -5  -4   11.97    0.48
   0   5   4   12.42    0.48
   0   5   4   11.88    0.47
  -1  -5  -4   16.92    0.61
  -1  -5  -4   15.70    0.62
  -1  -5  -4   15.08    0.64
   1   5   4   16.89    0.61
   1   5   4   17.18    0.62
   1   5   4   15.21    0.60
  -2  -5  -4    1.11    0.22
   2   5   4    1.68    0.24
   2   5   4    1.01    0.18
  -3  -5  -4    1.58    0.23
  -3  -5  -4    1.79    0.27
   3   5   4    2.42    0.30
  -4  -5  -4    1.50    0.25
  -4  -5  -4    1.44    0.27
  -5  -5  -4   -0.09    0.11
  -5  -5  -4   -0.13    0.13
  -6  -5  -4    0.10    0.19
  -6  -5  -4   -0.20    0.19
   4  -6  -4    1.62    0.17
   4  -6  -4    1.91    0.17
  -4   6   4    2.08    0.18
   3  -6  -4    1.12    0.16
   3  -6  -4    0.91    0.13
  -3   6   4    1.78    0.18
   2  -6  -4    2.30    0.20
   2  -6  -4    2.21    0.21
  -2   6   4    2.65    0.21
   1  -6  -4   -0.04    0.08
   1  -6  -4    0.07    0.09
   1  -6  -4    0.00    0.07
  -1   6   4   -0.05    0.06
  -1   6   4    0.00    0.06
   0  -6  -4   11.76    0.62
   0  -6  -4   12.78    0.53
   0  -6  -4   11.58    0.50
   0  -6  -4   12.67    0.52
   0   6   4   11.99    0.50
   0   6   4   12.22    0.52
  -1  -6  -4    1.96    0.30
  -1  -6  -4    2.15    0.28
  -1  -6  -4    2.46    0.27
   1   6   4    2.94    0.30
  -2  -6  -4    2.54    0.32
   2   6   4    2.69    0.30
  -3  -6  -4    2.55    0.30
  -3  -6  -4    2.65    0.32
   3   6   4    2.50    0.32
  -4  -6  -4   -0.02    0.15
  -4  -6  -4    0.20    0.16
  -5  -6  -4    1.07    0.26
  -5  -6  -4    0.79    0.27
   5  -7  -4    0.06    0.08
   5  -7  -4   -0.04    0.10
   4  -7  -4    2.16    0.22
   4  -7  -4    1.66    0.19
  -4   7   4    2.33    0.21
   3  -7  -4    1.32    0.18
   3  -7  -4    2.17    0.23
  -3   7   4    2.03    0.22
   2  -7  -4   16.31    0.63
   2  -7  -4   17.08    0.64
  -2   7   4   16.24    0.62
   1  -7  -4    0.53    0.15
   1  -7  -4    0.60    0.16
  -1   7   4    0.34    0.14
   0  -7  -4    0.80    0.18
   0  -7  -4    1.19    0.29
   0  -7  -4    1.17    0.18
   0   7   4    1.09    0.20
  -1  -7  -4    1.56    0.23
  -1  -7  -4    1.66    0.30
   1   7   4    1.82    0.25
  -2  -7  -4    0.11    0.16
   2   7   4    0.36    0.16
  -3  -7  -4    0.11    0.16
   3   7   4    0.20    0.15
  -4  -7  -4    0.32    0.21
  -4  -7  -4    0.06    0.15
  -5  -7  -4   -0.02    0.19
  -5  -7  -4    0.08    0.22
   5  -8  -4    0.11    0.13
   5  -8  -4    0.06    0.09
   4  -8  -4    0.00    0.08
  -4   8   4   -0.03    0.11
   3  -8  -4    1.91    0.24
  -3   8   4    2.09    0.25
   2  -8  -4    0.42    0.14
  -2   8   4    0.15    0.13
  -1   8   4    0.83    0.20
   0  -8  -4    3.37    0.34
   0  -8  -4    3.25    0.44
   0   8   4    3.62    0.36
  -1  -8  -4    1.80    0.28
  -1  -8  -4    2.19    0.36
   1   8   4    1.72    0.25
  -2  -8  -4    1.26    0.28
   2   8   4    0.81    0.22
  -3  -8  -4    2.45    0.38
   3   8   4    2.24    0.36
  -4  -8  -4   -0.03    0.19
  -4  -8  -4    0.38    0.23
  -5   9   4    0.56    0.16
   4  -9  -4    0.38    0.15
  -4   9   4    0.25    0.14
   3  -9  -4   -0.04    0.12
  -3   9   4    0.13    0.13
  -2   9   4    0.63    0.18
  -1   9   4    0.29    0.15
   0  -9  -4    0.07    0.23
   0   9   4    0.04    0.13
  -1  -9  -4    0.16    0.21
  -1  -9  -4    0.31    0.20
   1   9   4    0.05    0.14
  -2  -9  -4    0.92    0.28
   2   9   4    1.09    0.27
  -3  -9  -4    0.36    0.25
  -3  -9  -4    0.12    0.20
  -4  10   4    0.07    0.13
  -3  10   4    0.42    0.17
  -2  10   4    0.07    0.14
   1 -10  -4    0.97    0.34
  -1  10   4    1.00    0.24
   0 -10  -4    1.17    0.36
   0  10   4    1.86    0.31
  -1 -10  -4   -0.10    0.21
   1  10   4    0.08    0.18
  -2 -10  -4    0.31    0.25
   2  10   4    0.09    0.20
  -3  11   4    0.23    0.18
  -2  11   4    0.12    0.17
   1 -11  -4    0.30    0.36
  -1  11   4    0.13    0.17
   0 -11  -4    0.26    0.29
   0  11   4    0.37    0.19
   0  11  -5    0.68    0.28
  -1  11  -5   -0.03    0.20
  -2  11  -5   -0.16    0.20
  -3  11  -5   -0.32    0.17
  -2 -10   5    0.03    0.30
  -2 -10   5    0.00    0.19
   1  10  -5    0.77    0.25
  -1 -10   5    1.07    0.41
  -1 -10   5    0.60    0.23
   0  10  -5    0.01    0.16
   0 -10   5   -0.01    0.17
  -1  10  -5   -0.03    0.15
  -2  10  -5   -0.03    0.16
  -3  10  -5   -0.03    0.15
  -4  10  -5   -0.03    0.17
  -3  -9   5    0.07    0.24
  -3  -9   5   -0.04    0.17
   2   9  -5   -0.18    0.14
  -2  -9   5    0.17    0.28
  -2  -9   5    0.14    0.16
   1   9  -5    0.02    0.14
  -1  -9   5    0.16    0.17
  -1  -9   5    0.14    0.34
   0   9  -5    1.55    0.30
   0  -9   5    1.84    0.29
  -1   9  -5    8.80    0.52
   1  -9   5    8.61    0.49
  -2   9  -5    3.62    0.38
  -3   9  -5   -0.05    0.13
  -4   9  -5    0.28    0.17
  -5   9  -5   -0.13    0.14
  -4  -8   5    0.16    0.18
  -4  -8   5   -0.29    0.20
  -3  -8   5    0.56    0.28
  -3  -8   5    0.36    0.20
   2   8  -5    0.44    0.17
   2   8  -5    0.43    0.19
  -2  -8   5    0.19    0.25
  -2  -8   5    0.24    0.16
   1   8  -5   -0.03    0.11
   1   8  -5   -0.11    0.11
  -1  -8   5    0.09    0.13
   0   8  -5    0.05    0.13
   0   8  -5    0.60    0.14
   0  -8   5    0.20    0.16
  -1   8  -5   -0.16    0.12
   1  -8   5    0.10    0.14
  -2   8  -5    0.63    0.18
  -3   8  -5    0.81    0.19
  -4   8  -5    0.06    0.13
  -5   8  -5    1.26    0.24
  -6   8  -5    2.00    0.28
  -5  -7   5    0.50    0.25
  -5  -7   5    0.14    0.18
  -4  -7   5    0.09    0.12
  -4  -7   5    0.05    0.21
   3   7  -5    1.31    0.24
  -3  -7   5    1.60    0.25
  -3  -7   5    1.56    0.31
   2   7  -5    0.94    0.18
   2   7  -5    0.78    0.20
  -2  -7   5    0.97    0.20
  -2  -7   5    0.66    0.26
   1   7  -5    2.76    0.26
   1   7  -5    2.79    0.32
  -1  -7   5    2.18    0.28
   0   7  -5    1.17    0.17
   0   7  -5    0.92    0.19
   0  -7   5    1.18    0.21
  -1   7  -5    0.36    0.10
  -1   7  -5    0.29    0.14
   1  -7   5    0.22    0.13
  -2   7  -5    1.52    0.24
   2  -7   5    1.85    0.24
   2  -7   5    1.60    0.22
  -3   7  -5    0.37    0.15
   3  -7   5    0.34    0.13
  -4   7  -5   -0.06    0.10
   4  -7   5   -0.04    0.10
  -5   7  -5    0.13    0.15
   5  -7   5    0.02    0.12
  -6   7  -5    0.35    0.16
   6  -7   5    0.41    0.17
  -5  -6   5    1.59    0.32
  -5  -6   5    1.41    0.25
   4   6  -5    0.22    0.16
  -4  -6   5    0.27    0.19
  -4  -6   5    0.34    0.15
   3   6  -5    0.45    0.15
  -3  -6   5    0.51    0.21
  -3  -6   5    0.23    0.15
   2   6  -5    7.19    0.40
   2   6  -5    7.89    0.39
  -2  -6   5    7.88    0.52
  -2  -6   5    7.12    0.40
   1   6  -5    0.96    0.17
   1   6  -5    1.37    0.18
   1   6  -5    1.23    0.21
  -1  -6   5    1.28    0.21
   0   6  -5    3.91    0.28
   0   6  -5    3.71    0.23
   0   6  -5    3.39    0.27
   0  -6   5    3.88    0.28
  -1   6  -5    4.27    0.29
  -1   6  -5    4.22    0.30
  -1   6  -5    4.11    0.33
  -1   6  -5    4.22    0.22
   1  -6   5    4.15    0.23
   1  -6   5    4.67    0.30
   1  -6   5    4.39    0.29
  -2   6  -5    6.94    0.40
  -2   6  -5    7.88    0.40
   2  -6   5    7.62    0.37
   2  -6   5    7.19    0.29
   2  -6   5    6.66    0.38
   2  -6   5    7.71    0.43
  -3   6  -5    0.39    0.14
   3  -6   5    0.54    0.13
   3  -6   5    0.34    0.12
  -4   6  -5   -0.10    0.10
   4  -6   5   -0.01    0.09
  -5   6  -5   -0.03    0.12
   5  -6   5   -0.02    0.11
  -6   6  -5    0.17    0.16
   6  -6   5    0.02    0.14
  -7   6  -5    0.05    0.16
  -6  -5   5    0.27    0.17
  -5  -5   5    0.09    0.14
  -5  -5   5    0.27    0.20
   4   5  -5    1.35    0.22
   4   5  -5    1.52    0.22
  -4  -5   5    1.53    0.26
  -4  -5   5    1.18    0.20
   3   5  -5    0.07    0.10
   3   5  -5    0.26    0.14
  -3  -5   5    0.15    0.11
  -3  -5   5    0.35    0.18
   2   5  -5    5.86    0.37
   2   5  -5    6.19    0.33
   2   5  -5    5.48    0.33
   2   5  -5    5.21    0.32
  -2  -5   5    5.13    0.40
  -2  -5   5    5.65    0.33
  -2  -5   5    5.57    0.33
   1   5  -5   30.51    0.96
   1   5  -5   31.95    0.99
   1   5  -5   31.63    0.91
  -1  -5   5   30.44    0.97
  -1  -5   5   32.68    0.99
   0   5  -5   13.77    0.53
   0   5  -5   13.41    0.56
   0   5  -5   13.30    0.46
   0   5  -5   13.92    0.54
   0  -5   5   13.96    0.54
   0  -5   5   13.46    0.53
   0  -5   5   13.82    0.53
  -1   5  -5    0.04    0.09
  -1   5  -5   -0.01    0.08
  -1   5  -5   -0.02    0.06
  -1   5  -5    0.04    0.09
   1  -5   5    0.11    0.09
   1  -5   5   -0.02    0.06
   1  -5   5    0.04    0.08
   1  -5   5    0.03    0.07
  -2   5  -5    1.08    0.17
  -2   5  -5    1.04    0.15
   2  -5   5    0.82    0.16
   2  -5   5    1.25    0.18
   2  -5   5    0.84    0.15
   2  -5   5    1.45    0.15
  -3   5  -5    8.82    0.43
   3  -5   5    9.52    0.41
   3  -5   5    8.88    0.44
   3  -5   5    9.55    0.35
   3  -5   5   10.35    0.45
  -4   5  -5    0.07    0.10
   4  -5   5    0.00    0.13
   4  -5   5    0.15    0.10
  -5   5  -5    0.58    0.16
   5  -5   5    0.32    0.15
  -6   5  -5    0.53    0.17
   6  -5   5    0.40    0.15
  -7   5  -5    0.53    0.19
   6   4  -5    0.81    0.21
  -6  -4   5    0.78    0.18
   5   4  -5    0.10    0.13
   5   4  -5    0.02    0.11
  -5  -4   5   -0.08    0.12
  -5  -4   5   -0.04    0.12
   4   4  -5    0.81    0.16
   4   4  -5    0.77    0.17
  -4  -4   5    0.96    0.18
  -4  -4   5    0.88    0.20
   3   4  -5   14.70    0.56
   3   4  -5   14.47    0.55
   3   4  -5   15.33    0.59
   3   4  -5   14.18    0.56
  -3  -4   5   14.40    0.55
  -3  -4   5   14.26    0.56
   2   4  -5    0.29    0.10
   2   4  -5    0.20    0.10
   2   4  -5    0.37    0.11
   2   4  -5    0.26    0.10
  -2  -4   5    0.18    0.10
  -2  -4   5    0.21    0.09
  -2  -4   5    0.40    0.15
   1   4  -5   23.29    0.80
   1   4  -5   23.15    0.76
   1   4  -5   23.38    0.70
   1   4  -5   23.64    0.75
  -1  -4   5   23.42    0.75
  -1  -4   5   23.02    0.75
   0   4  -5    4.89    0.30
   0   4  -5    4.87    0.24
   0   4  -5    5.35    0.28
   0   4  -5    5.02    0.28
   0  -4   5    4.95    0.27
   0  -4   5    5.47    0.29
   0  -4   5    4.87    0.24
   0  -4   5    4.90    0.28
  -1   4  -5    2.96    0.17
  -1   4  -5    3.11    0.21
  -1   4  -5    3.23    0.23
  -1   4  -5    3.24    0.24
   1  -4   5    3.05    0.21
   1  -4   5    3.01    0.22
   1  -4   5    3.07    0.18
  -2   4  -5    2.23    0.18
  -2   4  -5    2.64    0.22
  -2   4  -5    2.64    0.25
   2  -4   5    2.44    0.16
   2  -4   5    2.19    0.21
   2  -4   5    1.83    0.20
   2  -4   5    2.36    0.21
  -3   4  -5   -0.01    0.08
   3  -4   5    0.45    0.12
   3  -4   5    0.60    0.13
   3  -4   5    0.30    0.12
   3  -4   5    0.33    0.09
  -4   4  -5    9.04    0.43
   4  -4   5    9.38    0.44
   4  -4   5    8.88    0.45
  -5   4  -5    1.12    0.20
   5  -4   5    0.81    0.18
   5  -4   5    0.81    0.17
  -6   4  -5    0.34    0.15
   6  -4   5    0.27    0.15
  -7   4  -5    0.09    0.15
   7  -4   5    0.31    0.18
   6   3  -5    0.19    0.14
  -6  -3   5    0.33    0.20
  -6  -3   5    0.29    0.13
   5   3  -5    0.03    0.11
   5   3  -5    0.06    0.10
   5   3  -5    0.05    0.11
  -5  -3   5    0.21    0.16
  -5  -3   5    0.14    0.12
   4   3  -5   31.42    0.98
   4   3  -5   31.15    0.96
   4   3  -5   30.74    0.96
  -4  -3   5   29.62    0.93
  -4  -3   5   29.34    0.95
   3   3  -5   50.81    1.45
   3   3  -5   50.62    1.42
   3   3  -5   50.46    1.37
   3   3  -5   51.23    1.36
  -3  -3   5   48.05    1.38
  -3  -3   5   49.76    1.36
   2   3  -5    0.20    0.09
   2   3  -5    0.09    0.08
   2   3  -5    0.16    0.11
   2   3  -5    0.13    0.08
  -2  -3   5    0.19    0.09
  -2  -3   5    0.08    0.10
  -2  -3   5    0.16    0.12
  -2  -3   5    0.14    0.08
   1   3  -5   12.67    0.46
   1   3  -5   13.80    0.52
   1   3  -5   12.93    0.48
   1   3  -5   13.49    0.47
  -1  -3   5   15.06    0.50
  -1  -3   5   12.77    0.48
  -1  -3   5   13.34    0.47
   0   3  -5    5.03    0.28
   0   3  -5    6.10    0.25
   0   3  -5    5.31    0.27
   0   3  -5    5.30    0.26
   0  -3   5    4.77    0.26
   0  -3   5    5.18    0.24
   0  -3   5    4.52    0.26
   0  -3   5    5.39    0.27
  -1   3  -5   26.15    0.70
  -1   3  -5   25.68    0.79
  -1   3  -5   26.49    0.80
  -1   3  -5   26.18    0.82
   1  -3   5   25.26    0.82
   1  -3   5   26.36    0.79
   1  -3   5   25.84    0.71
  -2   3  -5    4.66    0.27
  -2   3  -5    4.37    0.27
  -2   3  -5    4.62    0.24
   2  -3   5    4.23    0.21
   2  -3   5    4.15    0.26
   2  -3   5    4.31    0.27
   2  -3   5    4.40    0.24
  -3   3  -5    3.45    0.23
  -3   3  -5    4.27    0.27
   3  -3   5    3.97    0.24
   3  -3   5    4.24    0.27
   3  -3   5    4.06    0.27
  -4   3  -5    4.62    0.34
  -4   3  -5    4.53    0.30
   4  -3   5    4.42    0.31
   4  -3   5    5.20    0.33
   4  -3   5    4.53    0.27
  -5   3  -5    0.00    0.12
  -5   3  -5    0.19    0.12
   5  -3   5    0.21    0.12
   5  -3   5    0.13    0.12
  -6   3  -5   -0.17    0.14
  -6   3  -5    0.04    0.13
   6  -3   5    0.08    0.13
  -7   3  -5    0.25    0.21
  -7   3  -5    0.11    0.15
   7  -3   5    0.13    0.17
   6   2  -5    0.07    0.10
  -6  -2   5    0.14    0.16
   5   2  -5    0.01    0.08
   5   2  -5    0.12    0.11
  -5  -2   5   -0.11    0.13
  -5  -2   5   -0.13    0.09
   4   2  -5    0.51    0.12
   4   2  -5    0.26    0.11
   4   2  -5    0.33    0.11
  -4  -2   5    0.28    0.12
  -4  -2   5    0.34    0.11
   3   2  -5    0.71    0.13
   3   2  -5    0.87    0.12
   3   2  -5    0.75    0.12
   3   2  -5    0.82    0.13
  -3  -2   5    0.76    0.12
  -3  -2   5    0.94    0.14
  -3  -2   5    0.75    0.14
   2   2  -5    1.78    0.15
   2   2  -5    1.67    0.17
   2   2  -5    1.73    0.19
   2   2  -5    1.90    0.17
  -2  -2   5    1.70    0.14
  -2  -2   5    1.67    0.17
  -2  -2   5    1.53    0.17
   1   2  -5    3.55    0.20
   1   2  -5    3.21    0.19
   1   2  -5    3.48    0.21
   1   2  -5    3.41    0.20
  -1  -2   5    3.19    0.19
  -1  -2   5    3.12    0.19
  -1  -2   5    3.21    0.20
  -1  -2   5    3.79    0.20
  -1  -2   5    3.53    0.21
   0   2  -5   16.01    0.53
   0   2  -5   16.41    0.49
   0   2  -5   16.70    0.54
   0  -2   5   16.57    0.55
   0  -2   5   15.80    0.52
   0  -2   5   16.61    0.50
   0  -2   5   16.59    0.54
  -1   2  -5  272.07    6.23
  -1   2  -5  277.27    6.98
  -1   2  -5  283.54    7.01
  -1   2  -5  278.63    6.71
   1  -2   5  277.33    6.24
   1  -2   5  272.90    7.00
   1  -2   5  281.15    7.02
   1  -2   5  283.98    6.69
  -2   2  -5  156.74    3.94
  -2   2  -5  158.96    4.09
  -2   2  -5  166.32    4.12
  -2   2  -5  159.97    3.97
   2  -2   5  159.21    3.94
   2  -2   5  162.89    4.15
   2  -2   5  161.92    4.14
   2  -2   5  157.83    3.66
  -3   2  -5    0.68    0.12
  -3   2  -5    0.69    0.14
  -3   2  -5    0.54    0.15
   3  -2   5    0.40    0.12
   3  -2   5    0.54    0.13
   3  -2   5    0.60    0.12
  -4   2  -5    1.59    0.21
  -4   2  -5    2.23    0.28
   4  -2   5    1.89    0.23
   4  -2   5    2.20    0.22
   4  -2   5    1.80    0.23
  -5   2  -5    0.46    0.16
  -5   2  -5    0.50    0.18
   5  -2   5    0.53    0.14
   5  -2   5    0.69    0.16
  -6   2  -5   -0.06    0.16
  -6   2  -5    0.14    0.15
   6  -2   5   -0.04    0.12
  -7   2  -5    0.19    0.15
  -7   2  -5   -0.05    0.17
   7  -2   5    0.11    0.16
   6   1  -5    0.23    0.13
   6   1  -5    0.25    0.11
  -6  -1   5    0.25    0.19
   5   1  -5    0.12    0.10
   5   1  -5    0.18    0.09
  -5  -1   5    0.03    0.12
   4   1  -5    0.39    0.08
   4   1  -5    0.06    0.08
   4   1  -5    0.19    0.07
  -4  -1   5    0.30    0.11
  -4  -1   5    0.26    0.08
  -4  -1   5    0.18    0.10
   3   1  -5    4.03    0.24
   3   1  -5    4.05    0.21
   3   1  -5    3.89    0.22
   3   1  -5    4.08    0.19
  -3  -1   5    4.21    0.20
  -3  -1   5    3.90    0.21
   2   1  -5   -0.01    0.05
   2   1  -5    0.04    0.05
   2   1  -5    0.03    0.05
   2   1  -5   -0.01    0.05
  -2  -1   5    0.06    0.05
  -2  -1   5   -0.01    0.07
  -2  -1   5    0.01    0.06
  -2  -1   5   -0.09    0.08
   1   1  -5   11.20    0.42
   1   1  -5   11.00    0.39
   1   1  -5   11.07    0.38
   1   1  -5   11.45    0.38
  -1  -1   5   10.47    0.39
  -1  -1   5   10.25    0.37
  -1  -1   5   11.71    0.39
  -1  -1   5   11.23    0.39
  -1  -1   5   11.11    0.38
   0   1  -5    2.29    0.17
   0   1  -5    2.20    0.16
   0   1  -5    1.99    0.13
   0   1  -5    2.05    0.16
   0  -1   5    2.52    0.18
   0  -1   5    2.29    0.15
   0  -1   5    2.20    0.17
   0  -1   5    2.00    0.11
   0  -1   5    2.19    0.16
  -1   1  -5   77.68    2.01
  -1   1  -5   77.79    2.08
  -1   1  -5   79.29    1.95
  -1   1  -5   77.76    2.07
   1  -1   5   77.07    2.09
   1  -1   5   77.53    1.84
   1  -1   5   78.69    2.09
   1  -1   5   78.33    1.99
  -2   1  -5    3.23    0.21
  -2   1  -5    3.34    0.23
  -2   1  -5    3.43    0.22
  -2   1  -5    3.10    0.22
   2  -1   5    3.19    0.19
   2  -1   5    2.90    0.23
   2  -1   5    3.19    0.21
   2  -1   5    3.35    0.23
  -3   1  -5    2.63    0.19
  -3   1  -5    2.85    0.27
  -3   1  -5    2.71    0.22
   3  -1   5    2.70    0.20
   3  -1   5    2.60    0.22
   3  -1   5    2.03    0.20
  -4   1  -5    1.86    0.25
  -4   1  -5    2.02    0.24
   4  -1   5    1.34    0.20
   4  -1   5    1.45    0.20
   4  -1   5    1.89    0.21
  -5   1  -5    1.84    0.24
  -5   1  -5    1.75    0.29
   5  -1   5    1.41    0.22
   5  -1   5    1.79    0.23
  -6   1  -5   10.91    0.53
  -6   1  -5   10.49    0.61
   6  -1   5   11.43    0.56
  -7   1  -5    1.40    0.25
  -7   1  -5    2.03    0.35
   7  -1   5    1.43    0.25
   6   0  -5    0.45    0.16
  -6   0   5    0.40    0.19
   5   0  -5    1.10    0.18
  -5   0   5    1.15    0.19
   4   0  -5    0.19    0.06
   4   0  -5    0.26    0.07
   4   0  -5    0.33    0.10
  -4   0   5    0.30    0.10
   3   0  -5    5.11    0.26
   3   0  -5    5.20    0.22
   3   0  -5    5.06    0.22
  -3   0   5    5.27    0.22
  -3   0   5    5.05    0.22
  -3   0   5    5.34    0.23
   2   0  -5    0.81    0.10
   2   0  -5    0.68    0.09
   2   0  -5    1.06    0.11
   2   0  -5    0.89    0.12
  -2   0   5    0.94    0.11
  -2   0   5    0.85    0.11
  -2   0   5    0.71    0.11
   1   0  -5    1.89    0.14
   1   0  -5    1.97    0.14
   1   0  -5    1.86    0.14
   1   0  -5    1.93    0.15
  -1   0   5    2.05    0.16
  -1   0   5    2.12    0.18
  -1   0   5    2.06    0.15
  -1   0   5    2.07    0.14
  -1   0   5    2.25    0.15
   0   0  -5   11.86    0.42
   0   0  -5   11.23    0.33
   0   0  -5   11.43    0.42
   0   0  -5   11.73    0.41
   0   0  -5   11.51    0.37
   0   0   5   12.19    0.41
   0   0   5   11.30    0.33
   0   0   5   10.91    0.41
   0   0   5   11.57    0.37
   0   0   5   11.22    0.40
   0   0   5   12.07    0.40
  -1   0  -5    0.39    0.10
  -1   0  -5    0.40    0.08
  -1   0  -5    0.19    0.08
  -1   0  -5    0.28    0.08
   1   0   5    0.33    0.08
   1   0   5    0.26    0.09
   1   0   5    0.33    0.09
   1   0   5    0.47    0.10
  -2   0  -5    1.17    0.16
  -2   0  -5    1.18    0.15
  -2   0  -5    1.17    0.15
  -2   0  -5    0.81    0.12
   2   0   5    0.90    0.13
   2   0   5    1.20    0.16
   2   0   5    0.84    0.13
  -3   0  -5    0.69    0.12
  -3   0  -5    0.63    0.14
  -3   0  -5    0.51    0.14
   3   0   5    0.57    0.12
   3   0   5    0.50    0.12
   3   0   5    0.59    0.14
  -4   0  -5    0.58    0.14
  -4   0  -5    0.28    0.13
   4   0   5    0.32    0.13
   4   0   5    0.31    0.10
   4   0   5    0.23    0.10
  -5   0  -5    1.91    0.29
  -5   0  -5    1.71    0.25
   5   0   5    1.69    0.25
  -6   0  -5    2.21    0.33
  -6   0  -5    1.80    0.26
   6   0   5    2.12    0.28
  -7   0  -5    0.20    0.21
  -7   0  -5    0.15    0.15
   7  -1  -5    0.47    0.18
   6  -1  -5    1.21    0.20
  -6   1   5    1.09    0.23
   5  -1  -5   10.10    0.44
  -5   1   5   10.54    0.45
   4  -1  -5    0.17    0.08
  -4   1   5    0.06    0.09
   3  -1  -5    2.27    0.17
   2  -1  -5   17.05    0.51
   2  -1  -5   16.25    0.52
   2  -1  -5   16.70    0.48
   2  -1  -5   17.72    0.53
  -2   1   5   16.83    0.51
   1  -1  -5   12.09    0.38
   1  -1  -5   11.60    0.39
   1  -1  -5   11.65    0.41
   1  -1  -5   11.59    0.41
  -1   1   5   11.97    0.40
  -1   1   5   12.36    0.39
  -1   1   5   11.64    0.39
  -1   1   5   12.12    0.37
  -1   1   5   11.44    0.40
   0  -1  -5   15.87    0.45
   0  -1  -5   14.99    0.53
   0  -1  -5   15.50    0.52
   0  -1  -5   15.55    0.51
   0   1   5   16.08    0.51
   0   1   5   15.57    0.46
   0   1   5   15.67    0.50
   0   1   5   15.81    0.50
   0   1   5   15.40    0.52
  -1  -1  -5    2.52    0.18
  -1  -1  -5    2.59    0.16
  -1  -1  -5    2.66    0.19
   1   1   5    2.53    0.18
   1   1   5    2.44    0.17
  -2  -1  -5    9.44    0.39
  -2  -1  -5    9.50    0.40
  -2  -1  -5    9.87    0.39
  -2  -1  -5    8.95    0.39
   2   1   5    9.23    0.40
   2   1   5    9.06    0.38
  -3  -1  -5    6.04    0.34
  -3  -1  -5    6.26    0.33
  -3  -1  -5    6.32    0.32
   3   1   5    5.88    0.33
   3   1   5    5.94    0.31
   3   1   5    6.86    0.34
  -4  -1  -5    1.34    0.21
  -4  -1  -5    0.95    0.17
   4   1   5    1.35    0.21
   4   1   5    1.08    0.18
   4   1   5    1.04    0.18
  -5  -1  -5    0.72    0.19
  -5  -1  -5    0.76    0.18
   5   1   5    0.79    0.18
  -6  -1  -5    0.12    0.14
  -6  -1  -5    0.13    0.15
  -7  -1  -5    0.05    0.14
  -7  -1  -5    0.01    0.17
   6  -2  -5    0.96    0.17
   5  -2  -5    0.27    0.10
   4  -2  -5    4.17    0.24
   3  -2  -5    0.25    0.07
   2  -2  -5    8.04    0.30
   2  -2  -5    8.09    0.28
   2  -2  -5    8.06    0.29
   2  -2  -5    7.83    0.29
  -2   2   5    8.08    0.29
  -2   2   5    8.14    0.31
   1  -2  -5   71.58    1.80
   1  -2  -5   72.93    1.85
   1  -2  -5   72.78    1.93
   1  -2  -5   73.09    1.71
   1  -2  -5   71.64    1.92
  -1   2   5   71.69    1.89
  -1   2   5   72.28    1.72
  -1   2   5   73.90    1.84
  -1   2   5   73.55    1.87
  -1   2   5   74.97    1.85
   0  -2  -5   85.96    2.23
   0  -2  -5   86.88    2.17
   0  -2  -5   87.48    2.32
   0  -2  -5   91.66    2.34
   0   2   5   88.63    2.32
   0   2   5   86.53    2.06
   0   2   5   92.71    2.31
   0   2   5   86.79    2.23
  -1  -2  -5    0.91    0.13
  -1  -2  -5    0.86    0.12
  -1  -2  -5    0.78    0.13
  -1  -2  -5    0.80    0.13
   1   2   5    0.68    0.12
   1   2   5    0.67    0.12
   1   2   5    0.89    0.14
  -2  -2  -5    4.70    0.28
  -2  -2  -5    4.73    0.28
  -2  -2  -5    4.97    0.28
   2   2   5    4.56    0.26
   2   2   5    4.69    0.28
   2   2   5    4.35    0.27
  -3  -2  -5    2.67    0.26
  -3  -2  -5    2.17    0.25
  -3  -2  -5    2.27    0.25
   3   2   5    2.50    0.26
   3   2   5    2.79    0.27
   3   2   5    2.16    0.22
  -4  -2  -5    0.46    0.15
  -4  -2  -5    0.27    0.14
   4   2   5    0.42    0.14
   4   2   5    0.22    0.11
  -5  -2  -5    0.39    0.15
  -5  -2  -5    0.25    0.16
   5   2   5    0.19    0.14
  -6  -2  -5   -0.16    0.12
  -6  -2  -5    0.07    0.16
  -7  -2  -5    0.47    0.25
  -7  -2  -5    0.52    0.22
   6  -3  -5    0.71    0.15
   5  -3  -5    0.42    0.11
   4  -3  -5    1.95    0.18
   3  -3  -5   11.06    0.37
   2  -3  -5    0.88    0.10
   2  -3  -5    1.08    0.12
   2  -3  -5    1.29    0.13
   2  -3  -5    1.21    0.11
  -2   3   5    1.02    0.12
  -2   3   5    1.26    0.13
   1  -3  -5   83.64    2.21
   1  -3  -5   83.27    2.20
   1  -3  -5   82.66    2.11
  -1   3   5   85.21    2.12
  -1   3   5   81.18    2.17
  -1   3   5   83.88    2.11
  -1   3   5   85.76    1.96
   0  -3  -5    0.95    0.13
   0  -3  -5    0.81    0.13
   0  -3  -5    0.96    0.14
   0  -3  -5    1.07    0.16
   0   3   5    0.83    0.13
   0   3   5    0.94    0.12
   0   3   5    1.12    0.15
   0   3   5    1.11    0.15
  -1  -3  -5    2.21    0.19
  -1  -3  -5    2.42    0.23
  -1  -3  -5    1.87    0.20
  -1  -3  -5    2.34    0.22
   1   3   5    2.03    0.21
   1   3   5    2.28    0.19
   1   3   5    1.80    0.19
  -2  -3  -5    0.26    0.11
  -2  -3  -5    0.33    0.12
  -2  -3  -5    0.12    0.10
  -2  -3  -5    0.15    0.10
   2   3   5    0.30    0.10
   2   3   5    0.32    0.11
   2   3   5    0.30    0.10
  -3  -3  -5    0.16    0.13
  -3  -3  -5    0.23    0.12
   3   3   5    0.18    0.11
   3   3   5    0.34    0.13
  -4  -3  -5    3.40    0.34
   4   3   5    3.76    0.32
   4   3   5    3.22    0.27
  -5  -3  -5    1.34    0.27
  -5  -3  -5    1.15    0.23
  -6  -3  -5    0.16    0.15
  -6  -3  -5   -0.09    0.15
   5  -4  -5    2.35    0.18
   4  -4  -5   23.20    0.65
   3  -4  -5  106.67    2.90
   3  -4  -5  113.36    2.60
   3  -4  -5  112.41    2.91
  -3   4   5  119.82    2.78
  -3   4   5  113.92    2.78
   2  -4  -5    0.72    0.11
   2  -4  -5    0.63    0.11
   2  -4  -5    0.61    0.11
  -2   4   5    0.61    0.11
  -2   4   5    0.77    0.12
  -2   4   5    0.77    0.10
   1  -4  -5    5.98    0.29
   1  -4  -5    5.93    0.30
   1  -4  -5    6.31    0.30
  -1   4   5    6.29    0.30
  -1   4   5    6.19    0.28
  -1   4   5    6.47    0.30
  -1   4   5    5.92    0.24
   0  -4  -5   10.38    0.44
   0  -4  -5   10.15    0.44
   0  -4  -5   10.34    0.43
   0  -4  -5   10.57    0.44
   0   4   5    9.73    0.35
   0   4   5   11.21    0.42
   0   4   5   11.31    0.44
   0   4   5   10.06    0.42
  -1  -4  -5    5.99    0.33
  -1  -4  -5    6.17    0.33
  -1  -4  -5    6.46    0.33
  -1  -4  -5    5.72    0.33
   1   4   5    6.48    0.33
   1   4   5    6.08    0.33
   1   4   5    5.86    0.32
  -2  -4  -5    0.18    0.11
  -2  -4  -5    0.18    0.12
  -2  -4  -5    0.14    0.10
  -2  -4  -5    0.23    0.12
   2   4   5    0.19    0.10
   2   4   5    0.19    0.10
   2   4   5    0.22    0.11
  -3  -4  -5    0.13    0.15
  -3  -4  -5    0.45    0.15
   3   4   5    0.21    0.11
  -4  -4  -5    1.41    0.25
  -4  -4  -5    2.09    0.28
  -5  -4  -5    0.36    0.19
  -5  -4  -5    0.25    0.16
  -6  -4  -5    0.01    0.16
  -6  -4  -5    0.09    0.19
   4  -5  -5    5.14    0.26
   4  -5  -5    5.27    0.25
   3  -5  -5    0.99    0.15
   3  -5  -5    0.76    0.12
  -3   5   5    0.82    0.12
   2  -5  -5    1.97    0.19
   2  -5  -5    1.87    0.19
   2  -5  -5    2.02    0.18
  -2   5   5    2.05    0.14
  -2   5   5    2.00    0.20
  -2   5   5    2.47    0.22
   1  -5  -5   10.89    0.44
   1  -5  -5   11.03    0.45
   1  -5  -5   10.86    0.45
  -1   5   5   11.56    0.46
  -1   5   5   11.24    0.36
   0  -5  -5    5.40    0.32
   0  -5  -5    4.83    0.30
   0  -5  -5    5.19    0.31
   0  -5  -5    3.96    0.32
   0   5   5    5.28    0.30
   0   5   5    5.22    0.31
  -1  -5  -5   45.70    1.37
  -1  -5  -5   42.67    1.29
  -1  -5  -5   42.95    1.33
  -1  -5  -5   42.24    1.30
   1   5   5   44.79    1.31
   1   5   5   42.84    1.29
   1   5   5   42.73    1.31
  -2  -5  -5   63.74    1.80
  -2  -5  -5   62.36    1.80
   2   5   5   62.79    1.78
  -3  -5  -5    0.16    0.14
  -3  -5  -5   -0.15    0.10
   3   5   5   -0.06    0.11
  -4  -5  -5    0.37    0.17
  -4  -5  -5    0.36    0.20
  -5  -5  -5    0.15    0.18
  -5  -5  -5    0.00    0.15
  -6  -5  -5    0.14    0.20
  -6  -5  -5    0.16    0.20
   4  -6  -5    1.29    0.16
   4  -6  -5    1.11    0.16
   3  -6  -5    0.46    0.13
   3  -6  -5    0.42    0.11
  -3   6   5    0.49    0.12
   2  -6  -5    0.29    0.13
   2  -6  -5    0.32    0.10
  -2   6   5    0.17    0.10
   1  -6  -5    3.01    0.24
   1  -6  -5    2.76    0.24
   1  -6  -5    2.72    0.25
  -1   6   5    3.27    0.25
   0  -6  -5    0.17    0.15
   0  -6  -5    0.07    0.10
   0  -6  -5   -0.05    0.07
   0   6   5   -0.03    0.09
  -1  -6  -5   23.17    0.88
  -1  -6  -5   23.89    0.85
   1   6   5   24.20    0.85
  -2  -6  -5    0.57    0.17
  -2  -6  -5    0.90    0.20
   2   6   5    0.34    0.16
  -3  -6  -5    0.19    0.14
  -3  -6  -5    0.38    0.18
   3   6   5    0.16    0.14
  -4  -6  -5    1.76    0.31
  -4  -6  -5    2.00    0.32
  -5  -6  -5   -0.02    0.18
  -5  -6  -5    0.02    0.15
   5  -7  -5    0.01    0.08
   5  -7  -5    0.05    0.11
   4  -7  -5   -0.12    0.10
   4  -7  -5   -0.03    0.09
  -4   7   5    0.20    0.10
   3  -7  -5    0.28    0.13
   3  -7  -5    0.64    0.15
  -3   7   5    0.66    0.15
   2  -7  -5    0.14    0.11
  -2   7   5    0.06    0.11
   1  -7  -5    5.01    0.34
  -1   7   5    4.86    0.33
   0  -7  -5    0.38    0.21
   0   7   5    0.63    0.17
  -1  -7  -5    1.19    0.22
  -1  -7  -5    1.13    0.23
   1   7   5    1.11    0.21
  -2  -7  -5    1.09    0.24
  -2  -7  -5    1.29    0.25
   2   7   5    1.59    0.27
  -3  -7  -5    0.25    0.18
  -3  -7  -5    0.06    0.15
   3   7   5    0.05    0.16
  -4  -7  -5    0.11    0.20
  -4  -7  -5    0.12    0.19
   5  -8  -5    0.69    0.19
   4  -8  -5    1.16    0.20
  -4   8   5    1.12    0.19
   3  -8  -5    0.90    0.18
  -3   8   5    1.39    0.22
   2  -8  -5   -0.07    0.09
  -2   8   5    0.07    0.11
   1  -8  -5   -0.10    0.19
  -1   8   5    0.06    0.13
   0  -8  -5    0.60    0.26
   0   8   5    1.08    0.22
  -1  -8  -5    0.17    0.17
   1   8   5    0.09    0.14
  -2  -8  -5    0.14    0.18
  -2  -8  -5    0.15    0.18
   2   8   5    0.03    0.14
  -3  -8  -5    1.79    0.32
  -3  -8  -5    1.35    0.30
  -4  -8  -5    0.41    0.23
  -4  -8  -5    0.66    0.27
   4  -9  -5   -0.01    0.14
  -4   9   5    0.10    0.14
   3  -9  -5    0.17    0.13
  -3   9   5   -0.02    0.13
  -2   9   5    0.55    0.18
   1  -9  -5    0.05    0.23
  -1   9   5    0.47    0.18
   0  -9  -5    0.65    0.27
   0   9   5    0.64    0.21
  -1  -9  -5    0.38    0.25
   1   9   5    0.57    0.21
  -2  -9  -5    0.39    0.23
  -2  -9  -5    0.16    0.19
   2   9   5    0.28    0.19
  -3  -9  -5    0.20    0.23
  -3  -9  -5   -0.06    0.20
  -4  10   5   -0.11    0.12
  -3  10   5    0.00    0.15
  -2  10   5    0.01    0.14
   1 -10  -5    0.17    0.31
  -1  10   5   -0.02    0.15
   0 -10  -5   -0.02    0.22
   0  10   5    0.05    0.17
  -1 -10  -5   -0.12    0.22
   1  10   5   -0.12    0.14
   1 -11  -5   -0.36    0.27
  -1  11   5    0.17    0.18
   0  11  -6    0.16    0.22
  -1  11  -6   -0.19    0.20
  -2  11  -6   -0.01    0.19
  -2 -10   6    0.65    0.26
  -2 -10   6    0.34    0.30
  -1 -10   6    0.00    0.33
  -1 -10   6   -0.13    0.20
   0  10  -6   -0.09    0.17
   0 -10   6    0.17    0.20
  -1  10  -6    0.06    0.16
  -2  10  -6    0.61    0.24
  -3  10  -6    0.38    0.20
  -4  10  -6   -0.01    0.16
  -3  -9   6    1.58    0.36
  -3  -9   6    1.97    0.33
   2   9  -6   -0.13    0.16
  -2  -9   6   -0.34    0.29
  -2  -9   6   -0.20    0.16
   1   9  -6   -0.24    0.14
  -1  -9   6    0.10    0.34
  -1  -9   6   -0.09    0.16
   0   9  -6    1.09    0.26
   0  -9   6    1.18    0.24
  -1   9  -6    2.25    0.32
   1  -9   6    2.50    0.34
  -2   9  -6    0.01    0.15
  -3   9  -6    0.16    0.15
  -4   9  -6   -0.04    0.14
  -5   9  -6    0.05    0.17
  -4  -8   6   -0.20    0.21
  -4  -8   6    0.05    0.18
  -3  -8   6    0.27    0.24
  -3  -8   6    0.25    0.19
   2   8  -6    0.57    0.18
  -2  -8   6   -0.12    0.25
  -2  -8   6    0.52    0.19
   1   8  -6    0.69    0.20
   1   8  -6    0.70    0.17
  -1  -8   6    0.58    0.19
   0   8  -6    0.03    0.13
   0   8  -6    0.00    0.11
   0  -8   6    0.03    0.13
  -1   8  -6    2.62    0.32
   1  -8   6    2.51    0.32
  -2   8  -6    7.35    0.46
  -3   8  -6    0.24    0.17
  -4   8  -6   -0.13    0.14
  -5   8  -6    0.57    0.22
  -6   8  -6    1.38    0.27
  -5  -7   6    0.35    0.21
  -4  -7   6    0.75    0.25
  -4  -7   6    0.58    0.19
   3   7  -6    0.08    0.13
  -3  -7   6   -0.06    0.13
  -3  -7   6    0.25    0.21
   2   7  -6    0.20    0.16
   2   7  -6    0.51    0.16
  -2  -7   6    0.38    0.25
  -2  -7   6    0.61    0.17
   1   7  -6    0.18    0.14
   1   7  -6    0.12    0.11
  -1  -7   6    0.24    0.15
   0   7  -6    1.56    0.24
   0   7  -6    2.17    0.22
   0  -7   6    1.80    0.24
  -1   7  -6    1.49    0.25
  -1   7  -6    1.70    0.18
   1  -7   6    1.80    0.24
  -2   7  -6    2.36    0.29
   2  -7   6    2.17    0.26
  -3   7  -6    0.32    0.15
  -4   7  -6    0.17    0.15
  -5   7  -6   -0.12    0.13
  -6   7  -6    0.41    0.20
  -5  -6   6    1.20    0.25
  -4  -6   6    0.47    0.21
  -4  -6   6    0.27    0.15
   3   6  -6    0.26    0.14
  -3  -6   6    0.22    0.18
  -3  -6   6    0.36    0.14
   2   6  -6    4.59    0.32
   2   6  -6    4.49    0.33
  -2  -6   6    4.78    0.46
  -2  -6   6    4.94    0.34
   1   6  -6    2.84    0.29
   1   6  -6    2.49    0.24
  -1  -6   6    2.62    0.28
   0   6  -6    0.77    0.14
   0   6  -6    0.72    0.19
   0  -6   6    0.39    0.14
  -1   6  -6    1.15    0.15
  -1   6  -6    1.33    0.21
   1  -6   6    1.23    0.18
   1  -6   6    1.34    0.21
  -2   6  -6    1.08    0.20
   2  -6   6    1.13    0.19
   2  -6   6    1.26    0.21
  -3   6  -6    0.71    0.18
   3  -6   6    0.49    0.16
  -4   6  -6    0.37    0.15
   4  -6   6    0.35    0.15
  -5   6  -6    0.07    0.13
   5  -6   6   -0.08    0.11
  -6   6  -6    0.31    0.17
  -6  -5   6    0.03    0.15
  -5  -5   6    0.11    0.14
   4   5  -6   -0.13    0.11
   4   5  -6    0.21    0.14
  -4  -5   6   -0.12    0.16
  -4  -5   6    0.04    0.12
   3   5  -6    0.56    0.16
   3   5  -6    0.63    0.17
  -3  -5   6    0.47    0.15
  -3  -5   6    0.36    0.17
   2   5  -6    0.31    0.12
   2   5  -6    0.52    0.15
   2   5  -6    0.48    0.14
  -2  -5   6    0.41    0.13
  -2  -5   6    0.25    0.19
   1   5  -6    1.35    0.18
   1   5  -6    1.02    0.19
   1   5  -6    1.53    0.21
  -1  -5   6    1.51    0.20
  -1  -5   6    1.62    0.20
   0   5  -6   16.02    0.64
   0   5  -6   14.83    0.58
   0   5  -6   15.66    0.59
   0   5  -6   14.85    0.52
   0  -5   6   15.25    0.58
   0  -5   6   15.83    0.60
   0  -5   6   14.71    0.59
  -1   5  -6    1.42    0.21
  -1   5  -6    1.37    0.16
  -1   5  -6    1.07    0.16
  -1   5  -6    1.52    0.22
   1  -5   6    1.41    0.19
   1  -5   6    1.08    0.16
   1  -5   6    1.93    0.22
  -2   5  -6    2.74    0.29
  -2   5  -6    1.91    0.20
   2  -5   6    2.47    0.25
   2  -5   6    2.23    0.23
   2  -5   6    2.81    0.25
  -3   5  -6    0.20    0.11
   3  -5   6    0.31    0.12
   3  -5   6    0.23    0.12
  -4   5  -6    1.50    0.22
   4  -5   6    1.97    0.27
  -5   5  -6    0.07    0.13
   5  -5   6    0.12    0.13
  -6   5  -6    0.00    0.13
   6  -5   6   -0.08    0.14
  -7   5  -6    0.04    0.16
   6   4  -6   -0.09    0.15
  -6  -4   6   -0.03    0.13
   5   4  -6    0.28    0.14
  -5  -4   6    0.26    0.17
  -5  -4   6    0.55    0.17
   4   4  -6    0.01    0.10
   4   4  -6   -0.08    0.10
  -4  -4   6   -0.02    0.11
  -4  -4   6    0.07    0.14
   3   4  -6    1.28    0.19
   3   4  -6    0.81    0.18
   3   4  -6    1.08    0.19
  -3  -4   6    0.92    0.17
  -3  -4   6    1.14    0.21
   2   4  -6    5.28    0.30
   2   4  -6    5.31    0.31
   2   4  -6    5.25    0.33
   2   4  -6    5.44    0.31
  -2  -4   6    5.27    0.31
  -2  -4   6    4.99    0.32
   1   4  -6   -0.01    0.08
   1   4  -6   -0.05    0.06
   1   4  -6   -0.07    0.08
   1   4  -6    0.09    0.08
  -1  -4   6   -0.03    0.10
  -1  -4   6   -0.07    0.08
   0   4  -6   -0.09    0.08
   0   4  -6    0.00    0.08
   0   4  -6   -0.07    0.08
   0   4  -6    0.00    0.07
   0  -4   6    0.03    0.09
   0  -4   6   -0.01    0.08
   0  -4   6   -0.06    0.07
  -1   4  -6    0.02    0.06
  -1   4  -6   -0.03    0.08
  -1   4  -6    0.00    0.07
  -1   4  -6    0.02    0.09
   1  -4   6    0.09    0.08
   1  -4   6   -0.04    0.09
   1  -4   6    0.03    0.08
  -2   4  -6    0.56    0.14
  -2   4  -6    0.33    0.12
  -2   4  -6    0.32    0.11
   2  -4   6    0.45    0.12
   2  -4   6    0.28    0.11
   2  -4   6    0.49    0.14
  -3   4  -6    0.70    0.16
   3  -4   6    0.65    0.15
   3  -4   6    0.51    0.13
   3  -4   6    0.57    0.14
  -4   4  -6    0.30    0.15
   4  -4   6    0.32    0.15
   4  -4   6    0.31    0.13
  -5   4  -6    3.63    0.34
   5  -4   6    3.83    0.33
  -6   4  -6    0.05    0.14
   6  -4   6   -0.01    0.12
  -7   4  -6   -0.04    0.13
   6   3  -6    0.02    0.11
  -6  -3   6    0.08    0.13
   5   3  -6    0.91    0.17
   5   3  -6    0.60    0.17
  -5  -3   6    0.87    0.21
  -5  -3   6    1.00    0.18
   4   3  -6    0.49    0.15
   4   3  -6    0.47    0.13
   4   3  -6    0.56    0.15
  -4  -3   6    0.56    0.14
  -4  -3   6    0.83    0.18
   3   3  -6    2.77    0.25
   3   3  -6    3.06    0.29
   3   3  -6    2.80    0.23
   3   3  -6    2.59    0.25
  -3  -3   6    3.29    0.27
  -3  -3   6    2.65    0.26
   2   3  -6    0.98    0.14
   2   3  -6    1.21    0.16
   2   3  -6    0.84    0.13
   2   3  -6    1.39    0.18
  -2  -3   6    1.34    0.16
  -2  -3   6    1.00    0.15
   1   3  -6    2.18    0.20
   1   3  -6    2.62    0.26
   1   3  -6    1.90    0.19
   1   3  -6    2.25    0.19
  -1  -3   6    2.05    0.20
  -1  -3   6    1.85    0.19
  -1  -3   6    2.03    0.17
   0   3  -6    4.06    0.27
   0   3  -6    3.69    0.24
   0   3  -6    3.75    0.23
   0   3  -6    4.20    0.22
   0  -3   6    3.80    0.24
   0  -3   6    3.76    0.24
   0  -3   6    4.08    0.25
  -1   3  -6    1.84    0.22
  -1   3  -6    1.38    0.16
  -1   3  -6    1.55    0.20
  -1   3  -6    1.38    0.14
   1  -3   6    1.65    0.20
   1  -3   6    1.00    0.14
   1  -3   6    1.40    0.19
   1  -3   6    1.43    0.17
  -2   3  -6    1.72    0.22
  -2   3  -6    2.00    0.21
  -2   3  -6    2.10    0.20
   2  -3   6    1.83    0.20
   2  -3   6    1.60    0.18
   2  -3   6    2.30    0.26
  -3   3  -6    6.13    0.30
  -3   3  -6    5.79    0.34
   3  -3   6    6.12    0.31
   3  -3   6    6.38    0.36
   3  -3   6    6.02    0.35
  -4   3  -6    0.34    0.13
   4  -3   6    0.20    0.13
   4  -3   6    0.48    0.15
  -5   3  -6    0.38    0.19
  -5   3  -6    0.26    0.13
   5  -3   6    0.39    0.15
  -6   3  -6    0.02    0.19
  -6   3  -6    0.29    0.14
   6  -3   6    0.30    0.16
  -7   3  -6    0.15    0.15
   6   2  -6    2.17    0.26
   6   2  -6    1.80    0.22
  -6  -2   6    2.04    0.22
   5   2  -6    0.27    0.12
   5   2  -6    0.51    0.16
   5   2  -6    0.14    0.09
  -5  -2   6    0.41    0.16
  -5  -2   6    0.53    0.13
   4   2  -6    1.63    0.21
   4   2  -6    1.56    0.19
   4   2  -6    1.53    0.18
  -4  -2   6    1.53    0.19
  -4  -2   6    1.91    0.21
   3   2  -6   11.31    0.41
   3   2  -6   10.99    0.43
   3   2  -6   11.35    0.46
   3   2  -6   11.46    0.46
  -3  -2   6   11.92    0.41
  -3  -2   6   10.92    0.43
  -3  -2   6   11.40    0.45
   2   2  -6    3.89    0.23
   2   2  -6    3.68    0.23
   2   2  -6    4.08    0.25
   2   2  -6    3.92    0.25
  -2  -2   6    4.23    0.25
  -2  -2   6    4.34    0.20
  -2  -2   6    4.04    0.24
   1   2  -6    2.37    0.18
   1   2  -6    2.18    0.18
   1   2  -6    1.77    0.20
   1   2  -6    2.10    0.20
  -1  -2   6    1.98    0.16
  -1  -2   6    2.29    0.18
  -1  -2   6    2.02    0.20
   0   2  -6   23.29    0.67
   0   2  -6   23.20    0.73
   0   2  -6   23.87    0.74
   0  -2   6   23.46    0.75
   0  -2   6   23.72    0.73
   0  -2   6   24.66    0.77
   0  -2   6   22.96    0.68
  -1   2  -6   20.19    0.68
  -1   2  -6   21.04    0.69
  -1   2  -6   22.25    0.72
  -1   2  -6   21.07    0.61
   1  -2   6   20.90    0.67
   1  -2   6   20.72    0.71
   1  -2   6   21.90    0.72
   1  -2   6   20.37    0.61
  -2   2  -6   20.45    0.68
  -2   2  -6   22.08    0.71
  -2   2  -6   20.64    0.71
  -2   2  -6   19.45    0.67
   2  -2   6   22.08    0.74
   2  -2   6   21.11    0.73
   2  -2   6   21.12    0.69
  -3   2  -6   -0.13    0.08
  -3   2  -6    0.10    0.10
  -3   2  -6    0.09    0.10
   3  -2   6    0.11    0.10
   3  -2   6    0.10    0.10
   3  -2   6   -0.02    0.08
  -4   2  -6    1.90    0.24
  -4   2  -6    1.86    0.28
   4  -2   6    1.56    0.21
   4  -2   6    1.79    0.23
   4  -2   6    2.09    0.22
  -5   2  -6    0.06    0.14
  -5   2  -6   -0.14    0.12
   5  -2   6    0.06    0.12
  -6   2  -6    0.15    0.19
  -6   2  -6    0.31    0.16
   6  -2   6    0.56    0.18
  -7   2  -6    0.17    0.21
  -7   2  -6    0.06    0.14
   6   1  -6    0.21    0.11
   6   1  -6    0.15    0.14
   6   1  -6   -0.01    0.10
   5   1  -6   -0.03    0.08
   5   1  -6    0.14    0.10
   5   1  -6    0.10    0.09
  -5  -1   6   -0.15    0.12
   4   1  -6    0.38    0.10
   4   1  -6    0.29    0.09
   4   1  -6    0.12    0.09
  -4  -1   6    0.27    0.09
  -4  -1   6    0.40    0.11
   3   1  -6    5.41    0.24
   3   1  -6    5.71    0.28
   3   1  -6    5.33    0.26
   3   1  -6    5.69    0.30
  -3  -1   6    4.91    0.26
  -3  -1   6    5.33    0.26
  -3  -1   6    5.63    0.23
   2   1  -6    0.15    0.08
   2   1  -6    0.25    0.08
   2   1  -6    0.25    0.08
   2   1  -6    0.11    0.08
  -2  -1   6    0.21    0.08
  -2  -1   6    0.23    0.09
   1   1  -6   21.11    0.69
   1   1  -6   20.57    0.64
   1   1  -6   20.20    0.61
   1   1  -6   20.26    0.66
  -1  -1   6   21.61    0.66
  -1  -1   6   21.55    0.66
  -1  -1   6   20.49    0.63
  -1  -1   6   20.67    0.63
  -1  -1   6   20.35    0.64
   0   1  -6    0.23    0.09
   0   1  -6    0.31    0.09
   0   1  -6    0.21    0.09
   0   1  -6    0.43    0.09
   0  -1   6    0.40    0.10
   0  -1   6    0.34    0.10
   0  -1   6    0.19    0.09
   0  -1   6    0.49    0.09
  -1   1  -6   30.06    0.90
  -1   1  -6   29.75    0.91
  -1   1  -6   29.81    0.83
  -1   1  -6   30.40    0.93
   1  -1   6   30.10    0.88
   1  -1   6   30.34    0.93
   1  -1   6   30.35    0.81
   1  -1   6   28.38    0.92
  -2   1  -6   32.32    0.96
  -2   1  -6   30.76    0.96
  -2   1  -6   31.11    0.93
  -2   1  -6   31.20    0.96
   2  -1   6   32.20    1.00
   2  -1   6   30.57    0.99
   2  -1   6   32.76    0.94
  -3   1  -6    2.11    0.24
  -3   1  -6    1.75    0.21
  -3   1  -6    2.11    0.21
   3  -1   6    1.73    0.21
   3  -1   6    1.70    0.21
   3  -1   6    2.25    0.24
  -4   1  -6    0.63    0.21
  -4   1  -6    0.49    0.15
   4  -1   6    0.45    0.13
   4  -1   6    0.58    0.16
   4  -1   6    0.34    0.14
  -5   1  -6    0.78    0.21
  -5   1  -6    0.90    0.18
   5  -1   6    0.63    0.16
  -6   1  -6    5.12    0.51
  -6   1  -6    4.77    0.37
   6  -1   6    5.08    0.41
  -7   1  -6    1.87    0.36
  -7   1  -6    2.30    0.33
   6   0  -6   -0.04    0.08
   6   0  -6    0.10    0.11
   6   0  -6    0.00    0.08
   5   0  -6    0.21    0.11
   5   0  -6    0.51    0.10
   5   0  -6    0.29    0.09
  -5   0   6    0.36    0.14
   4   0  -6    2.29    0.22
   4   0  -6    2.18    0.16
   4   0  -6    2.35    0.18
  -4   0   6    2.40    0.18
   3   0  -6    0.72    0.10
   3   0  -6    0.24    0.08
   3   0  -6    0.35    0.10
   3   0  -6    0.30    0.07
  -3   0   6    0.35    0.07
  -3   0   6    0.39    0.09
  -3   0   6    0.58    0.10
   2   0  -6   10.39    0.38
   2   0  -6    9.13    0.37
   2   0  -6   10.33    0.35
   2   0  -6    9.51    0.38
  -2   0   6    9.96    0.36
  -2   0   6    9.78    0.37
   1   0  -6    0.21    0.07
   1   0  -6    0.25    0.08
   1   0  -6    0.19    0.07
   1   0  -6    0.31    0.08
  -1   0   6    0.23    0.08
  -1   0   6    0.11    0.07
  -1   0   6    0.26    0.08
  -1   0   6    0.18    0.08
  -1   0   6    0.18    0.07
   0   0  -6    2.29    0.12
   0   0  -6    2.62    0.16
   0   0  -6    2.55    0.19
   0   0  -6    2.56    0.19
   0   0  -6    2.38    0.18
   0   0   6    2.40    0.17
   0   0   6    2.38    0.12
   0   0   6    2.56    0.18
   0   0   6    2.40    0.18
   0   0   6    2.70    0.18
  -1   0  -6    0.00    0.06
  -1   0  -6   -0.05    0.07
  -1   0  -6   -0.06    0.06
  -1   0  -6   -0.02    0.07
   1   0   6   -0.06    0.07
   1   0   6   -0.03    0.07
   1   0   6   -0.04    0.06
   1   0   6   -0.01    0.06
  -2   0  -6    6.45    0.33
  -2   0  -6    6.67    0.32
  -2   0  -6    6.82    0.35
  -2   0  -6    7.30    0.34
   2   0   6    6.82    0.35
  -3   0  -6    0.06    0.10
  -3   0  -6   -0.09    0.07
  -3   0  -6   -0.04    0.07
   3   0   6    0.09    0.10
   3   0   6   -0.05    0.07
   3   0   6    0.04    0.07
  -4   0  -6    1.16    0.21
  -4   0  -6    1.32    0.22
   4   0   6    1.43    0.19
   4   0   6    0.81    0.16
   4   0   6    1.03    0.19
  -5   0  -6    0.13    0.12
  -5   0  -6    0.29    0.16
   5   0   6   -0.01    0.10
  -6   0  -6    0.02    0.15
  -6   0  -6    0.05    0.16
  -7   0  -6    0.05    0.21
  -7   0  -6   -0.15    0.14
   6  -1  -6    0.21    0.12
   5  -1  -6    3.77    0.27
   4  -1  -6    5.65    0.30
   3  -1  -6    3.62    0.16
   3  -1  -6    3.74    0.20
   3  -1  -6    3.57    0.22
   3  -1  -6    4.02    0.20
  -3   1   6    3.96    0.20
  -3   1   6    3.56    0.19
   2  -1  -6    7.05    0.29
   2  -1  -6    6.97    0.30
   2  -1  -6    6.77    0.27
   2  -1  -6    6.36    0.29
  -2   1   6    6.89    0.29
  -2   1   6    7.28    0.29
   1  -1  -6    2.19    0.16
   1  -1  -6    2.15    0.15
   1  -1  -6    2.12    0.17
   1  -1  -6    2.01    0.16
  -1   1   6    2.21    0.18
  -1   1   6    2.35    0.15
  -1   1   6    2.43    0.17
  -1   1   6    2.02    0.16
  -1   1   6    1.99    0.16
   0  -1  -6   18.78    0.54
   0  -1  -6   19.16    0.64
   0  -1  -6   18.84    0.65
   0  -1  -6   19.32    0.63
   0   1   6   19.10    0.57
   0   1   6   19.34    0.62
   0   1   6   19.15    0.63
   0   1   6   20.72    0.62
  -1  -1  -6    5.12    0.25
  -1  -1  -6    5.47    0.29
  -1  -1  -6    4.94    0.29
  -1  -1  -6    4.54    0.28
   1   1   6    5.41    0.28
   1   1   6    5.38    0.29
   1   1   6    5.41    0.29
  -2  -1  -6    3.41    0.24
  -2  -1  -6    3.18    0.22
  -2  -1  -6    3.14    0.24
  -2  -1  -6    3.00    0.24
   2   1   6    3.75    0.25
   2   1   6    2.72    0.23
   2   1   6    3.26    0.23
  -3  -1  -6    1.34    0.18
  -3  -1  -6    1.35    0.20
  -3  -1  -6    1.34    0.20
   3   1   6    1.31    0.18
   3   1   6    1.71    0.21
   3   1   6    1.11    0.19
  -4  -1  -6    0.32    0.14
  -4  -1  -6    1.00    0.19
   4   1   6    0.46    0.14
   4   1   6    0.89    0.18
  -5  -1  -6    0.01    0.12
  -5  -1  -6    0.27    0.17
   5   1   6   -0.09    0.11
  -6  -1  -6    0.07    0.13
  -6  -1  -6   -0.01    0.18
  -7  -1  -6    0.33    0.22
  -7  -1  -6    0.05    0.17
   6  -2  -6   -0.06    0.10
   5  -2  -6    0.19    0.09
   4  -2  -6   -0.09    0.05
   3  -2  -6    0.16    0.07
   3  -2  -6   -0.01    0.04
   3  -2  -6    0.07    0.06
  -3   2   6    0.16    0.07
   2  -2  -6    0.53    0.09
   2  -2  -6    0.35    0.09
   2  -2  -6    0.51    0.09
   2  -2  -6    0.60    0.07
   2  -2  -6    0.43    0.09
  -2   2   6    0.43    0.10
  -2   2   6    0.48    0.09
  -2   2   6    0.55    0.11
   1  -2  -6   12.07    0.44
   1  -2  -6   12.66    0.46
   1  -2  -6   12.11    0.40
   1  -2  -6   12.45    0.37
   1  -2  -6   12.31    0.47
  -1   2   6   12.37    0.43
  -1   2   6   12.17    0.41
  -1   2   6   12.75    0.44
  -1   2   6   12.26    0.44
   0  -2  -6   59.14    1.46
   0  -2  -6   57.83    1.54
   0  -2  -6   56.49    1.58
   0  -2  -6   55.06    1.59
   0   2   6   58.68    1.41
   0   2   6   55.86    1.52
   0   2   6   55.23    1.58
   0   2   6   59.99    1.57
  -1  -2  -6   24.62    0.77
  -1  -2  -6   22.93    0.79
  -1  -2  -6   23.84    0.76
  -1  -2  -6   23.85    0.72
   1   2   6   21.14    0.77
   1   2   6   24.27    0.76
   1   2   6   25.63    0.78
  -2  -2  -6    5.29    0.32
  -2  -2  -6    5.73    0.32
  -2  -2  -6    5.92    0.33
   2   2   6    5.54    0.32
   2   2   6    5.36    0.32
   2   2   6    5.38    0.31
  -3  -2  -6    0.04    0.10
  -3  -2  -6    0.14    0.11
  -3  -2  -6    0.28    0.13
   3   2   6    0.35    0.13
   3   2   6    0.32    0.16
   3   2   6    0.11    0.10
  -4  -2  -6    1.27    0.21
  -4  -2  -6    1.28    0.22
   4   2   6    1.53    0.23
   4   2   6    1.07    0.20
  -5  -2  -6    0.10    0.14
  -5  -2  -6    0.02    0.15
  -6  -2  -6    0.20    0.15
  -6  -2  -6    0.20    0.18
   5  -3  -6    1.14    0.16
   4  -3  -6   -0.02    0.07
   3  -3  -6    1.04    0.12
   3  -3  -6    1.08    0.13
   3  -3  -6    0.79    0.11
  -3   3   6    1.04    0.14
  -3   3   6    0.77    0.13
   2  -3  -6    4.16    0.20
   2  -3  -6    4.49    0.22
   2  -3  -6    4.24    0.23
   2  -3  -6    4.39    0.24
  -2   3   6    4.12    0.22
  -2   3   6    3.91    0.22
  -2   3   6    4.12    0.22
   1  -3  -6    1.02    0.14
   1  -3  -6    1.15    0.14
   1  -3  -6    1.12    0.14
   1  -3  -6    0.88    0.13
  -1   3   6    1.07    0.16
  -1   3   6    0.91    0.12
  -1   3   6    0.74    0.12
  -1   3   6    0.97    0.13
   0  -3  -6   20.23    0.67
   0  -3  -6   19.98    0.62
   0  -3  -6   20.85    0.70
   0  -3  -6   20.21    0.68
   0   3   6   19.63    0.68
   0   3   6   19.79    0.59
   0   3   6   20.42    0.67
   0   3   6   21.09    0.66
  -1  -3  -6    1.43    0.20
  -1  -3  -6    1.43    0.18
  -1  -3  -6    1.24    0.17
  -1  -3  -6    1.25    0.18
   1   3   6    1.05    0.16
   1   3   6    0.99    0.16
   1   3   6    1.56    0.18
  -2  -3  -6   -0.02    0.09
  -2  -3  -6   -0.08    0.08
  -2  -3  -6   -0.09    0.07
  -2  -3  -6    0.02    0.09
   2   3   6    0.01    0.08
   2   3   6    0.04    0.08
   2   3   6    0.07    0.09
  -3  -3  -6    0.16    0.11
  -3  -3  -6    0.14    0.11
   3   3   6    0.16    0.12
   3   3   6    0.34    0.12
  -4  -3  -6    0.51    0.18
  -4  -3  -6    0.18    0.14
   4   3   6    0.48    0.17
  -5  -3  -6    3.12    0.36
  -5  -3  -6    3.72    0.43
  -6  -3  -6    0.48    0.24
  -6  -3  -6    0.36    0.20
   4  -4  -6    0.16    0.07
   3  -4  -6    1.52    0.14
   3  -4  -6    0.88    0.12
   3  -4  -6    1.46    0.16
  -3   4   6    1.73    0.16
  -3   4   6    1.35    0.15
   2  -4  -6    7.01    0.32
   2  -4  -6    6.21    0.30
   2  -4  -6    6.39    0.31
  -2   4   6    6.49    0.27
  -2   4   6    6.52    0.30
  -2   4   6    6.66    0.31
   1  -4  -6    6.71    0.32
   1  -4  -6    6.19    0.32
   1  -4  -6    6.57    0.33
   1  -4  -6    5.99    0.34
  -1   4   6    6.71    0.27
  -1   4   6    6.40    0.31
  -1   4   6    6.72    0.32
   0  -4  -6    2.18    0.22
   0  -4  -6    2.24    0.24
   0  -4  -6    2.30    0.23
   0  -4  -6    2.44    0.21
   0   4   6    2.06    0.22
   0   4   6    1.70    0.19
  -1  -4  -6   -0.09    0.08
  -1  -4  -6   -0.02    0.09
  -1  -4  -6    0.09    0.10
  -1  -4  -6   -0.05    0.08
   1   4   6   -0.12    0.08
   1   4   6   -0.09    0.07
   1   4   6    0.06    0.09
  -2  -4  -6   -0.07    0.11
  -2  -4  -6    0.02    0.10
   2   4   6    0.14    0.10
  -3  -4  -6    0.36    0.17
  -3  -4  -6    0.56    0.17
   3   4   6    0.69    0.18
  -4  -4  -6    0.81    0.21
  -4  -4  -6    0.54    0.18
  -5  -4  -6    0.59    0.21
  -5  -4  -6    0.60    0.23
  -6  -4  -6   -0.07    0.16
  -6  -4  -6    0.06    0.19
   4  -5  -6    2.84    0.21
   4  -5  -6    2.55    0.19
   3  -5  -6    2.17    0.20
   3  -5  -6    2.19    0.19
  -3   5   6    2.30    0.19
   2  -5  -6    0.20    0.11
   2  -5  -6    0.11    0.08
  -2   5   6   -0.02    0.07
  -2   5   6    0.08    0.08
   1  -5  -6   -0.01    0.09
   1  -5  -6   -0.10    0.07
   1  -5  -6   -0.03    0.13
   1  -5  -6   -0.04    0.08
  -1   5   6    0.14    0.09
  -1   5   6    0.16    0.07
   0  -5  -6    0.37    0.13
   0  -5  -6    0.11    0.11
   0  -5  -6    0.21    0.10
   0  -5  -6    0.25    0.12
   0   5   6    0.12    0.11
   0   5   6    0.21    0.10
  -1  -5  -6    5.29    0.35
  -1  -5  -6    4.79    0.33
  -1  -5  -6    4.88    0.34
   1   5   6    5.14    0.34
  -2  -5  -6    9.11    0.49
  -2  -5  -6    9.19    0.50
   2   5   6    9.67    0.48
  -3  -5  -6    0.97    0.21
  -3  -5  -6    1.32    0.24
   3   5   6    1.54    0.25
  -4  -5  -6    1.37    0.28
  -4  -5  -6    1.25    0.26
  -5  -5  -6    0.20    0.18
  -5  -5  -6   -0.10    0.14
   5  -6  -6   -0.01    0.10
   5  -6  -6   -0.03    0.08
   4  -6  -6    0.07    0.10
   4  -6  -6    0.07    0.08
   3  -6  -6    0.59    0.12
   3  -6  -6    0.75    0.15
  -3   6   6    0.79    0.14
   2  -6  -6   -0.04    0.10
   2  -6  -6   -0.07    0.07
  -2   6   6   -0.03    0.08
   1  -6  -6    1.55    0.28
   1  -6  -6    1.31    0.20
   1  -6  -6    0.91    0.16
  -1   6   6    1.46    0.21
   0  -6  -6    0.34    0.14
   0  -6  -6    0.42    0.13
   0  -6  -6    0.09    0.15
   0   6   6    0.20    0.12
  -1  -6  -6    3.46    0.35
  -1  -6  -6    4.35    0.34
   1   6   6    3.99    0.33
  -2  -6  -6    0.47    0.17
  -2  -6  -6    0.74    0.21
   2   6   6    0.88    0.20
  -3  -6  -6    0.10    0.15
  -3  -6  -6    0.23    0.17
   3   6   6    0.22    0.15
  -4  -6  -6    0.36    0.21
  -4  -6  -6    0.44    0.20
  -5  -6  -6   -0.05    0.18
  -5  -6  -6    0.11    0.20
   5  -7  -6    0.07    0.12
   5  -7  -6    0.02    0.09
   4  -7  -6    0.06    0.12
   4  -7  -6    0.09    0.10
  -4   7   6    0.24    0.11
   3  -7  -6   -0.04    0.09
   3  -7  -6    0.10    0.12
  -3   7   6   -0.04    0.09
   2  -7  -6    0.06    0.09
  -2   7   6    0.05    0.11
   1  -7  -6    0.90    0.19
   1  -7  -6    1.07    0.28
  -1   7   6    1.36    0.22
   0  -7  -6    0.06    0.13
   0  -7  -6    0.15    0.15
   0   7   6    0.10    0.12
  -1  -7  -6    0.19    0.15
  -1  -7  -6    0.11    0.13
   1   7   6    0.10    0.14
  -2  -7  -6    0.16    0.15
  -2  -7  -6    0.14    0.16
   2   7   6    0.19    0.14
  -3  -7  -6   -0.01    0.18
  -3  -7  -6    0.21    0.17
   3   7   6    0.09    0.15
  -4  -7  -6   -0.10    0.18
  -4  -7  -6   -0.08    0.18
   4  -8  -6    1.35    0.21
  -4   8   6    1.36    0.20
   3  -8  -6    0.03    0.11
  -3   8   6   -0.07    0.11
   2  -8  -6   -0.01    0.11
  -2   8   6    0.11    0.12
   1  -8  -6    0.02    0.20
  -1   8   6    0.14    0.13
   0  -8  -6    0.05    0.17
   0   8   6    0.23    0.14
  -1  -8  -6    0.16    0.18
   1   8   6    0.29    0.17
  -2  -8  -6    0.23    0.18
  -2  -8  -6   -0.10    0.14
   2   8   6    0.21    0.17
  -3  -8  -6    0.11    0.18
  -3  -8  -6    0.06    0.18
   4  -9  -6   -0.13    0.13
  -4   9   6    0.04    0.11
  -3   9   6    0.10    0.13
  -2   9   6    0.65    0.19
   1  -9  -6    0.14    0.25
  -1   9   6    0.20    0.16
   0  -9  -6    2.97    0.42
   0   9   6    2.97    0.37
  -1  -9  -6    1.85    0.34
   1   9   6    1.89    0.33
  -2  -9  -6    0.11    0.18
   2   9   6    0.08    0.19
  -3  10   6    0.14    0.15
   2 -10  -6    0.08    0.29
  -2  10   6   -0.02    0.14
   1 -10  -6    0.07    0.27
  -1  10   6    0.18    0.16
   0 -10  -6    0.32    0.24
   0  10   6    0.14    0.18
  -1 -10  -6   -0.05    0.22
   1  10   6   -0.10    0.19
  -1 -10   7   -0.21    0.35
  -1 -10   7    0.24    0.22
   0  10  -7    0.06    0.19
   0 -10   7    0.43    0.22
  -1  10  -7    1.10    0.27
  -2  10  -7    1.94    0.33
  -3  10  -7    0.25    0.21
  -3  -9   7    0.28    0.28
  -3  -9   7    0.07    0.20
  -2  -9   7    0.15    0.31
  -2  -9   7   -0.07    0.18
   1   9  -7   -0.01    0.16
  -1  -9   7    0.06    0.15
  -1  -9   7   -0.28    0.31
   0   9  -7    0.05    0.17
   0  -9   7    0.29    0.19
  -1   9  -7    0.26    0.18
  -2   9  -7    0.47    0.20
  -3   9  -7   -0.07    0.15
  -4   9  -7    0.14    0.18
  -5   9  -7    0.35    0.21
  -4  -8   7    0.16    0.19
  -3  -8   7    0.34    0.20
  -3  -8   7    0.38    0.27
   2   8  -7    1.67    0.26
  -2  -8   7    1.67    0.27
  -2  -8   7    1.95    0.42
   1   8  -7    3.12    0.36
   1   8  -7    2.83    0.30
  -1  -8   7    2.61    0.34
   0   8  -7    0.34    0.13
   0   8  -7    0.17    0.16
   0  -8   7    0.23    0.16
  -1   8  -7   -0.04    0.13
   1  -8   7   -0.08    0.13
  -2   8  -7   -0.09    0.14
  -3   8  -7    0.06    0.14
  -4   8  -7    0.14    0.15
  -5   8  -7    0.15    0.16
  -4  -7   7   -0.21    0.15
  -3  -7   7   -0.30    0.20
  -3  -7   7   -0.09    0.12
   2   7  -7    0.21    0.14
  -2  -7   7    0.30    0.25
  -2  -7   7    0.08    0.16
   1   7  -7    0.00    0.09
   1   7  -7    0.12    0.13
  -1  -7   7   -0.02    0.11
   0   7  -7    0.07    0.11
   0   7  -7    0.17    0.14
   0  -7   7   -0.13    0.11
  -1   7  -7    0.18    0.10
  -1   7  -7    0.08    0.14
   1  -7   7    0.19    0.14
  -2   7  -7    0.60    0.19
   2  -7   7    0.93    0.21
  -3   7  -7    3.93    0.39
  -4   7  -7    2.51    0.32
  -5   7  -7    0.48    0.19
  -6   7  -7    0.09    0.17
  -5  -6   7    0.27    0.16
  -4  -6   7   -0.07    0.14
   3   6  -7   -0.01    0.12
  -3  -6   7    0.30    0.20
  -3  -6   7    0.13    0.14
   2   6  -7    0.31    0.15
   2   6  -7   -0.11    0.10
  -2  -6   7    0.07    0.12
  -2  -6   7    0.18    0.22
   1   6  -7    1.40    0.23
   1   6  -7    1.44    0.20
  -1  -6   7    1.25    0.20
   0   6  -7   -0.02    0.09
   0   6  -7   -0.04    0.11
   0  -6   7    0.16    0.12
  -1   6  -7    0.91    0.15
  -1   6  -7    0.75    0.19
   1  -6   7    0.63    0.17
  -2   6  -7    1.35    0.23
   2  -6   7    2.38    0.27
  -3   6  -7    0.47    0.16
  -4   6  -7    0.08    0.13
  -5   6  -7    0.32    0.17
  -6   6  -7   -0.08    0.16
  -5  -5   7    0.70    0.20
   4   5  -7    0.92    0.21
  -4  -5   7    1.20    0.21
   3   5  -7    0.14    0.12
   3   5  -7    0.04    0.12
  -3  -5   7    0.16    0.13
  -3  -5   7    0.31    0.16
   2   5  -7    1.98    0.24
   2   5  -7    1.71    0.23
   2   5  -7    1.54    0.21
  -2  -5   7    1.23    0.20
  -2  -5   7    1.50    0.26
   1   5  -7    2.35    0.27
   1   5  -7    2.12    0.24
   1   5  -7    2.57    0.25
  -1  -5   7    2.37    0.26
   0   5  -7    0.38    0.13
   0   5  -7    0.29    0.13
   0   5  -7    0.40    0.12
   0  -5   7    0.35    0.13
  -1   5  -7    0.02    0.10
  -1   5  -7    0.12    0.09
   1  -5   7    0.00    0.09
   1  -5   7    0.10    0.13
  -2   5  -7    1.03    0.19
   2  -5   7    1.02    0.21
   2  -5   7    0.96    0.17
  -3   5  -7    0.39    0.15
   3  -5   7    0.34    0.15
   3  -5   7    0.35    0.14
  -4   5  -7    0.20    0.12
   4  -5   7    0.12    0.12
  -5   5  -7   -0.14    0.12
  -6   5  -7    0.49    0.19
  -6  -4   7    0.24    0.14
   5   4  -7    0.08    0.12
  -5  -4   7   -0.04    0.12
   4   4  -7    1.77    0.23
   4   4  -7    1.56    0.24
  -4  -4   7    1.81    0.23
   3   4  -7   18.61    0.68
   3   4  -7   17.24    0.67
  -3  -4   7   17.99    0.63
  -3  -4   7   17.51    0.66
   2   4  -7   20.43    0.70
   2   4  -7   20.00    0.70
   2   4  -7   20.12    0.76
   2   4  -7   20.73    0.73
  -2  -4   7   19.83    0.69
  -2  -4   7   19.84    0.71
   1   4  -7    0.25    0.10
   1   4  -7    0.64    0.13
   1   4  -7    0.26    0.13
   1   4  -7    0.46    0.13
  -1  -4   7    0.50    0.14
  -1  -4   7    0.47    0.12
   0   4  -7    6.81    0.32
   0   4  -7    6.71    0.35
   0   4  -7    6.75    0.40
   0   4  -7    6.38    0.36
   0  -4   7    7.07    0.36
   0  -4   7    8.31    0.40
   0  -4   7    6.81    0.36
  -1   4  -7   10.56    0.48
  -1   4  -7   10.08    0.44
  -1   4  -7   10.20    0.46
  -1   4  -7   10.27    0.40
   1  -4   7    9.93    0.47
   1  -4   7   10.29    0.45
   1  -4   7   10.85    0.48
  -2   4  -7    0.02    0.09
  -2   4  -7    0.09    0.10
   2  -4   7    0.04    0.08
   2  -4   7    0.11    0.09
   2  -4   7   -0.02    0.09
  -3   4  -7    0.11    0.12
   3  -4   7    0.08    0.11
   3  -4   7    0.09    0.09
  -4   4  -7    0.88    0.19
   4  -4   7    0.82    0.18
  -5   4  -7    1.36    0.23
   5  -4   7    0.88    0.21
  -6   4  -7    0.26    0.16
  -7   4  -7   -0.04    0.16
   6   3  -7    0.12    0.14
  -6  -3   7    0.06    0.13
   5   3  -7    0.14    0.13
   5   3  -7    0.13    0.11
  -5  -3   7    0.24    0.15
   4   3  -7    0.18    0.11
   4   3  -7    0.25    0.13
   4   3  -7    0.08    0.13
  -4  -3   7    0.09    0.11
   3   3  -7    0.62    0.15
   3   3  -7    0.31    0.13
   3   3  -7    0.20    0.13
  -3  -3   7    0.38    0.13
  -3  -3   7    0.41    0.14
   2   3  -7    1.45    0.19
   2   3  -7    2.02    0.22
   2   3  -7    1.68    0.20
   2   3  -7    2.30    0.26
  -2  -3   7    1.30    0.18
  -2  -3   7    1.95    0.19
   1   3  -7    0.29    0.11
   1   3  -7    0.36    0.10
   1   3  -7    0.24    0.13
   1   3  -7    0.31    0.11
  -1  -3   7    0.31    0.11
  -1  -3   7    0.21    0.10
   0   3  -7    7.47    0.36
   0   3  -7    7.31    0.33
   0   3  -7    7.00    0.38
   0   3  -7    7.86    0.37
   0  -3   7    7.65    0.36
   0  -3   7    7.64    0.37
   0  -3   7    7.28    0.36
  -1   3  -7   22.66    0.69
  -1   3  -7   21.72    0.76
  -1   3  -7   24.04    0.79
  -1   3  -7   24.38    0.81
   1  -3   7   23.34    0.80
   1  -3   7   22.91    0.76
   1  -3   7   24.31    0.81
  -2   3  -7   24.33    0.82
  -2   3  -7   23.36    0.79
  -2   3  -7   25.92    0.84
   2  -3   7   23.72    0.84
   2  -3   7   23.68    0.79
  -3   3  -7    6.99    0.36
  -3   3  -7    6.98    0.40
   3  -3   7    7.22    0.37
   3  -3   7    8.12    0.43
   3  -3   7    7.06    0.42
  -4   3  -7    0.11    0.12
   4  -3   7    0.13    0.11
  -5   3  -7    0.58    0.18
   5  -3   7    0.62    0.18
  -6   3  -7    0.27    0.16
  -7   3  -7   -0.04    0.16
   6   2  -7    1.73    0.22
   5   2  -7    1.48    0.22
   5   2  -7    1.42    0.19
   5   2  -7    1.02    0.21
  -5  -2   7    2.09    0.22
   4   2  -7    0.13    0.10
   4   2  -7    0.05    0.08
   4   2  -7   -0.08    0.09
  -4  -2   7    0.12    0.11
   3   2  -7    1.69    0.19
   3   2  -7    1.95    0.22
   3   2  -7    1.70    0.20
  -3  -2   7    1.71    0.14
  -3  -2   7    1.68    0.19
   2   2  -7    0.10    0.09
   2   2  -7    0.15    0.09
   2   2  -7    0.16    0.10
   2   2  -7    0.26    0.09
  -2  -2   7    0.04    0.10
  -2  -2   7    0.26    0.10
  -2  -2   7    0.09    0.06
   1   2  -7    2.39    0.19
   1   2  -7    2.43    0.19
   1   2  -7    2.70    0.21
   1   2  -7    2.37    0.25
  -1  -2   7    2.89    0.22
  -1  -2   7    2.24    0.19
   0   2  -7    0.08    0.08
   0   2  -7    0.04    0.05
   0   2  -7    0.08    0.07
   0   2  -7    0.12    0.08
   0  -2   7    0.13    0.09
   0  -2   7    0.06    0.09
   0  -2   7    0.07    0.08
  -1   2  -7    0.01    0.08
  -1   2  -7    0.05    0.09
  -1   2  -7    0.04    0.09
   1  -2   7    0.08    0.08
   1  -2   7    0.08    0.09
   1  -2   7    0.08    0.09
  -2   2  -7    4.07    0.29
  -2   2  -7    3.78    0.26
  -2   2  -7    3.96    0.28
   2  -2   7    3.97    0.29
   2  -2   7    3.86    0.27
  -3   2  -7    0.52    0.14
  -3   2  -7    0.46    0.16
  -3   2  -7    0.48    0.14
   3  -2   7    0.21    0.11
   3  -2   7    0.46    0.13
   3  -2   7    0.32    0.15
  -4   2  -7    0.23    0.13
  -4   2  -7    0.06    0.13
   4  -2   7    0.01    0.11
  -5   2  -7    1.26    0.23
  -5   2  -7    1.15    0.25
   5  -2   7    1.35    0.23
  -6   2  -7    2.36    0.31
  -6   2  -7    2.41    0.36
  -7   2  -7    0.82    0.27
  -7   2  -7    1.39    0.26
   6   1  -7   -0.16    0.10
   6   1  -7    0.12    0.10
   5   1  -7    0.06    0.08
   5   1  -7    0.10    0.10
   5   1  -7    0.11    0.10
  -5  -1   7    0.23    0.11
   4   1  -7    0.21    0.11
   4   1  -7    0.34    0.11
   4   1  -7    0.12    0.08
  -4  -1   7    0.19    0.09
   3   1  -7   -0.02    0.07
   3   1  -7   -0.10    0.07
   3   1  -7    0.04    0.08
   3   1  -7    0.04    0.07
  -3  -1   7   -0.05    0.07
   2   1  -7   41.82    1.23
   2   1  -7   42.17    1.21
   2   1  -7   43.59    1.14
   2   1  -7   40.83    1.15
  -2  -1   7   41.34    1.18
  -2  -1   7   41.45    1.17
   1   1  -7   30.39    0.94
   1   1  -7   29.52    0.91
   1   1  -7   29.98    0.84
   1   1  -7   30.38    0.88
  -1  -1   7   28.72    0.88
  -1  -1   7   29.16    0.87
   0   1  -7   24.96    0.77
   0   1  -7   23.89    0.70
   0   1  -7   23.47    0.78
   0   1  -7   23.25    0.79
   0  -1   7   25.45    0.79
   0  -1   7   24.19    0.77
   0  -1   7   23.68    0.78
  -1   1  -7    0.21    0.08
  -1   1  -7    0.13    0.07
  -1   1  -7    0.10    0.09
  -1   1  -7    0.27    0.10
   1  -1   7    0.12    0.09
   1  -1   7    0.21    0.09
   1  -1   7    0.27    0.11
  -2   1  -7    0.13    0.11
  -2   1  -7    0.34    0.11
  -2   1  -7    0.14    0.10
  -2   1  -7    0.09    0.09
   2  -1   7    0.14    0.10
   2  -1   7    0.07    0.09
   2  -1   7    0.18    0.09
  -3   1  -7    0.03    0.09
  -3   1  -7   -0.09    0.09
  -3   1  -7    0.13    0.11
   3  -1   7    0.05    0.10
   3  -1   7    0.09    0.12
   3  -1   7   -0.10    0.07
  -4   1  -7   -0.07    0.12
  -4   1  -7    0.13    0.12
   4  -1   7   -0.05    0.09
   4  -1   7    0.06    0.11
  -5   1  -7    0.23    0.14
  -5   1  -7    0.11    0.15
   5  -1   7   -0.19    0.11
  -6   1  -7   -0.26    0.13
  -6   1  -7   -0.03    0.14
  -7   1  -7   -0.14    0.19
  -7   1  -7    0.04    0.18
   6   0  -7   -0.02    0.09
   6   0  -7    0.00    0.11
   6   0  -7    0.08    0.11
   5   0  -7    0.08    0.09
   5   0  -7    0.07    0.10
   5   0  -7    0.06    0.08
   4   0  -7    0.40    0.10
   4   0  -7    0.62    0.10
   4   0  -7    0.41    0.12
  -4   0   7    0.45    0.11
   3   0  -7    2.40    0.20
   3   0  -7    2.08    0.17
   3   0  -7    2.34    0.23
   3   0  -7    2.35    0.16
  -3   0   7    2.17    0.17
   2   0  -7    0.14    0.08
   2   0  -7    0.45    0.11
   2   0  -7    0.46    0.12
   2   0  -7    0.47    0.11
  -2   0   7    0.37    0.11
  -2   0   7    0.30    0.10
   1   0  -7    0.18    0.08
   1   0  -7    0.13    0.08
   1   0  -7    0.24    0.08
   1   0  -7    0.14    0.10
  -1   0   7    0.17    0.09
  -1   0   7    0.30    0.10
  -1   0   7    0.08    0.07
   0   0  -7    0.00    0.05
   0   0  -7    0.04    0.07
   0   0  -7   -0.02    0.08
   0   0  -7    0.30    0.11
   0   0  -7   -0.02    0.07
   0   0   7    0.08    0.10
   0   0   7    0.00    0.08
   0   0   7   -0.01    0.07
  -1   0  -7    1.03    0.13
  -1   0  -7    0.80    0.13
  -1   0  -7    0.70    0.15
  -1   0  -7    0.97    0.16
   1   0   7    1.13    0.17
   1   0   7    0.77    0.14
   1   0   7    0.96    0.15
  -2   0  -7    0.61    0.14
  -2   0  -7    0.48    0.12
  -2   0  -7    0.73    0.15
  -2   0  -7    0.45    0.14
   2   0   7    0.37    0.12
   2   0   7    0.54    0.13
   2   0   7    0.54    0.12
  -3   0  -7   14.93    0.60
  -3   0  -7   16.64    0.63
  -3   0  -7   16.16    0.65
   3   0   7   16.34    0.65
   3   0   7   15.77    0.63
   3   0   7   16.74    0.61
  -4   0  -7    7.59    0.44
  -4   0  -7    6.87    0.42
   4   0   7    7.27    0.44
   4   0   7    7.60    0.40
  -5   0  -7    0.81    0.21
  -5   0  -7    1.11    0.24
  -6   0  -7    0.16    0.15
  -6   0  -7    0.16    0.19
  -7   0  -7    0.23    0.22
  -7   0  -7    0.40    0.19
   6  -1  -7    0.14    0.13
   5  -1  -7    0.13    0.10
   4  -1  -7    0.03    0.08
   4  -1  -7    0.07    0.08
   4  -1  -7    0.11    0.08
   3  -1  -7    0.06    0.06
   3  -1  -7    0.01    0.07
   3  -1  -7    0.07    0.07
   3  -1  -7    0.02    0.06
  -3   1   7    0.18    0.08
  -3   1   7    0.06    0.07
   2  -1  -7    0.61    0.12
   2  -1  -7    0.66    0.12
   2  -1  -7    0.72    0.11
   2  -1  -7    0.56    0.10
  -2   1   7    0.72    0.13
  -2   1   7    0.74    0.13
   1  -1  -7    1.81    0.16
   1  -1  -7    1.71    0.18
   1  -1  -7    1.44    0.17
   1  -1  -7    1.38    0.17
  -1   1   7    1.42    0.16
  -1   1   7    1.47    0.16
  -1   1   7    1.41    0.18
   0  -1  -7    3.68    0.25
   0  -1  -7    3.66    0.17
   0  -1  -7    3.56    0.25
   0  -1  -7    3.87    0.25
   0   1   7    3.77    0.24
   0   1   7    3.74    0.24
   0   1   7    4.10    0.23
  -1  -1  -7    0.01    0.06
  -1  -1  -7   -0.01    0.06
  -1  -1  -7    0.02    0.08
  -1  -1  -7    0.07    0.09
   1   1   7   -0.03    0.07
   1   1   7    0.09    0.09
   1   1   7    0.01    0.07
  -2  -1  -7    6.02    0.32
  -2  -1  -7    5.64    0.34
  -2  -1  -7    6.77    0.34
  -2  -1  -7    5.87    0.35
   2   1   7    5.80    0.35
   2   1   7    6.28    0.35
   2   1   7    6.41    0.34
  -3  -1  -7    0.55    0.15
  -3  -1  -7    0.66    0.16
   3   1   7    0.60    0.15
   3   1   7    0.34    0.12
  -4  -1  -7    0.61    0.18
  -4  -1  -7    0.83    0.20
   4   1   7    0.54    0.16
   4   1   7    0.78    0.18
  -5  -1  -7    0.51    0.18
  -5  -1  -7    0.36    0.19
  -6  -1  -7    0.09    0.14
  -6  -1  -7   -0.20    0.15
   6  -2  -7    0.22    0.12
   5  -2  -7    0.76    0.15
   4  -2  -7    2.21    0.17
   4  -2  -7    1.87    0.16
   4  -2  -7    1.79    0.20
   3  -2  -7    0.57    0.10
   3  -2  -7    0.68    0.12
   3  -2  -7    0.88    0.13
  -3   2   7    0.87    0.13
  -3   2   7    0.52    0.10
   2  -2  -7    0.07    0.07
   2  -2  -7    0.12    0.07
   2  -2  -7    0.12    0.06
   2  -2  -7    0.13    0.09
  -2   2   7    0.19    0.09
  -2   2   7    0.14    0.08
   1  -2  -7   10.19    0.43
   1  -2  -7   10.03    0.30
   1  -2  -7   10.13    0.36
   1  -2  -7    9.60    0.42
   1  -2  -7    9.78    0.40
  -1   2   7    9.30    0.39
  -1   2   7   10.02    0.40
  -1   2   7    9.91    0.40
   0  -2  -7    1.60    0.14
   0  -2  -7    1.63    0.20
   0  -2  -7    1.17    0.16
   0  -2  -7    1.47    0.19
   0   2   7    1.56    0.19
   0   2   7    1.27    0.17
   0   2   7    1.54    0.16
  -1  -2  -7    1.30    0.20
  -1  -2  -7    0.89    0.15
  -1  -2  -7    0.89    0.13
  -1  -2  -7    1.20    0.17
   1   2   7    0.97    0.16
   1   2   7    1.45    0.18
   1   2   7    1.05    0.16
  -2  -2  -7    0.77    0.16
  -2  -2  -7    0.83    0.18
  -2  -2  -7    0.74    0.16
  -2  -2  -7    0.45    0.13
   2   2   7    0.63    0.14
   2   2   7    0.82    0.17
   2   2   7    0.68    0.16
  -3  -2  -7    0.62    0.16
  -3  -2  -7    0.57    0.16
   3   2   7    0.48    0.14
   3   2   7    0.27    0.13
  -4  -2  -7    0.57    0.18
  -4  -2  -7    0.33    0.15
   4   2   7    0.73    0.18
  -5  -2  -7    0.11    0.13
  -5  -2  -7   -0.10    0.14
  -6  -2  -7    0.00    0.16
  -6  -2  -7   -0.06    0.17
   5  -3  -7    0.22    0.11
   4  -3  -7    4.66    0.25
   4  -3  -7    4.91    0.24
   4  -3  -7    4.67    0.26
   3  -3  -7   18.49    0.57
   3  -3  -7   18.38    0.61
   3  -3  -7   18.20    0.62
   2  -3  -7   29.78    0.91
   2  -3  -7   29.88    0.83
   2  -3  -7   29.89    0.81
   2  -3  -7   29.18    0.87
   2  -3  -7   29.89    0.91
  -2   3   7   29.14    0.87
  -2   3   7   30.97    0.87
   1  -3  -7    1.16    0.16
   1  -3  -7    1.53    0.18
   1  -3  -7    1.44    0.18
   1  -3  -7    1.41    0.14
  -1   3   7    1.63    0.19
  -1   3   7    1.60    0.19
   0  -3  -7   11.37    0.46
   0  -3  -7   10.78    0.40
   0  -3  -7   10.57    0.46
   0  -3  -7   10.44    0.45
   0   3   7    9.98    0.44
   0   3   7   11.04    0.46
  -1  -3  -7    3.90    0.28
  -1  -3  -7    4.41    0.26
  -1  -3  -7    4.83    0.30
  -1  -3  -7    4.05    0.30
   1   3   7    4.05    0.28
   1   3   7    3.76    0.28
   1   3   7    4.63    0.29
  -2  -3  -7    0.04    0.10
  -2  -3  -7    0.09    0.11
   2   3   7    0.02    0.12
   2   3   7   -0.01    0.08
  -3  -3  -7    1.51    0.24
  -3  -3  -7    1.67    0.25
   3   3   7    1.71    0.25
  -4  -3  -7    0.06    0.14
  -4  -3  -7    0.30    0.15
  -5  -3  -7    1.12    0.25
  -5  -3  -7    1.69    0.30
  -6  -3  -7    0.39    0.23
  -6  -3  -7    0.33    0.21
   4  -4  -7   -0.02    0.06
   4  -4  -7    0.11    0.09
   4  -4  -7    0.00    0.07
   3  -4  -7    0.09    0.07
   3  -4  -7   -0.08    0.09
   3  -4  -7    0.00    0.08
  -3   4   7   -0.11    0.08
   2  -4  -7    0.42    0.14
   2  -4  -7    0.19    0.10
   2  -4  -7    0.26    0.11
  -2   4   7    0.27    0.10
   1  -4  -7   -0.04    0.08
   1  -4  -7    0.10    0.08
   1  -4  -7    0.03    0.08
   1  -4  -7    0.00    0.08
  -1   4   7   -0.03    0.07
   0  -4  -7    0.09    0.10
   0  -4  -7    0.07    0.08
   0  -4  -7    0.06    0.11
   0  -4  -7    0.09    0.10
   0   4   7    0.11    0.10
   0   4   7    0.16    0.10
  -1  -4  -7   10.43    0.50
  -1  -4  -7   10.72    0.47
  -1  -4  -7   11.77    0.53
   1   4   7   10.95    0.49
  -2  -4  -7    7.07    0.43
  -2  -4  -7    7.12    0.41
   2   4   7    6.90    0.40
  -3  -4  -7    4.39    0.41
  -3  -4  -7    4.34    0.36
   3   4   7    3.84    0.32
  -4  -4  -7    0.16    0.15
  -4  -4  -7    0.24    0.17
  -5  -4  -7   -0.03    0.16
  -5  -4  -7   -0.03    0.16
  -6  -4  -7    0.14    0.23
   4  -5  -7    0.89    0.14
   4  -5  -7    0.64    0.13
   3  -5  -7    0.10    0.09
   3  -5  -7   -0.01    0.11
  -3   5   7    0.15    0.10
   2  -5  -7    0.02    0.11
   2  -5  -7    0.02    0.08
  -2   5   7    0.11    0.09
   1  -5  -7    1.25    0.19
   1  -5  -7    1.18    0.19
   1  -5  -7    1.12    0.19
   1  -5  -7    1.23    0.20
  -1   5   7    0.94    0.17
   0  -5  -7    0.56    0.16
   0  -5  -7    0.64    0.17
   0  -5  -7    0.61    0.16
   0   5   7    0.73    0.17
  -1  -5  -7    0.29    0.14
  -1  -5  -7    0.24    0.13
   1   5   7    0.43    0.14
  -2  -5  -7    0.19    0.16
  -2  -5  -7    0.51    0.18
   2   5   7    0.45    0.17
  -3  -5  -7    0.75    0.21
  -3  -5  -7    0.97    0.23
   3   5   7    0.80    0.21
  -4  -5  -7    0.05    0.13
  -4  -5  -7    0.21    0.18
  -5  -5  -7    0.12    0.19
  -5  -5  -7    0.01    0.18
   5  -6  -7   -0.03    0.10
   5  -6  -7   -0.06    0.09
   4  -6  -7   -0.03    0.08
   4  -6  -7    0.20    0.12
   3  -6  -7   -0.01    0.08
   3  -6  -7    0.04    0.12
  -3   6   7    0.07    0.10
   2  -6  -7    5.15    0.34
   2  -6  -7    5.56    0.36
  -2   6   7    4.78    0.32
   1  -6  -7    4.43    0.36
   1  -6  -7    5.10    0.35
  -1   6   7    4.85    0.32
   0  -6  -7    1.66    0.25
   0  -6  -7    1.48    0.23
   0   6   7    1.45    0.22
  -1  -6  -7    0.26    0.16
  -1  -6  -7    0.59    0.18
   1   6   7    0.36    0.16
  -2  -6  -7    0.66    0.19
  -2  -6  -7    0.40    0.19
   2   6   7    0.50    0.18
  -3  -6  -7    0.03    0.17
  -3  -6  -7    0.09    0.15
   3   6   7   -0.09    0.13
  -4  -6  -7    0.02    0.21
  -4  -6  -7   -0.12    0.16
   5  -7  -7   -0.12    0.13
   4  -7  -7    0.03    0.14
   4  -7  -7   -0.11    0.09
  -4   7   7    0.02    0.10
   3  -7  -7   -0.01    0.09
  -3   7   7    0.04    0.10
   2  -7  -7   -0.19    0.18
   2  -7  -7   -0.12    0.10
  -2   7   7   -0.04    0.09
   1  -7  -7    0.29    0.20
  -1   7   7    0.36    0.14
   0  -7  -7    0.38    0.17
   0   7   7    0.55    0.16
  -1  -7  -7    0.29    0.17
  -1  -7  -7    0.14    0.17
   1   7   7    0.14    0.14
  -2  -7  -7    0.03    0.17
  -2  -7  -7   -0.12    0.13
   2   7   7    0.10    0.14
  -3  -7  -7    0.78    0.25
  -3  -7  -7    1.49    0.29
   3   7   7    1.19    0.26
  -4  -7  -7    0.67    0.27
  -4  -7  -7    0.83    0.29
   4  -8  -7    0.08    0.12
  -4   8   7    0.28    0.14
   3  -8  -7   -0.03    0.11
  -3   8   7   -0.01    0.11
   2  -8  -7    0.43    0.26
  -2   8   7    0.15    0.12
   1  -8  -7   -0.01    0.17
  -1   8   7    0.18    0.12
   0  -8  -7   -0.07    0.14
   0   8   7    0.22    0.15
  -1  -8  -7    0.02    0.16
   1   8   7   -0.03    0.12
  -2  -8  -7    0.42    0.22
  -2  -8  -7   -0.08    0.17
   2   8   7    0.01    0.14
  -3  -8  -7   -0.10    0.19
  -3  -8  -7    0.23    0.22
  -4   9   7    0.10    0.13
  -3   9   7    0.05    0.11
   2  -9  -7    0.25    0.28
  -2   9   7    0.17    0.15
   1  -9  -7    0.17    0.22
  -1   9   7    0.22    0.14
   0  -9  -7    0.49    0.24
   0   9   7    0.51    0.21
  -1  -9  -7    0.10    0.18
   1   9   7   -0.07    0.16
  -2  -9  -7    0.13    0.21
   2   9   7   -0.01    0.16
  -3  10   7    1.68    0.27
   2 -10  -7    1.02    0.37
  -2  10   7    1.01    0.25
   1 -10  -7    0.19    0.25
  -1  10   7    0.45    0.21
   0 -10  -7   -0.08    0.19
   0  10   7    0.05    0.18
  -1 -10   8    0.37    0.40
  -1 -10   8   -0.19    0.20
   0  10  -8   -0.06    0.19
  -1  10  -8    0.83    0.27
  -2  10  -8    1.31    0.30
  -3  10  -8    0.78    0.27
  -2  -9   8    0.21    0.35
  -2  -9   8   -0.06    0.19
  -1  -9   8    0.15    0.18
  -1  -9   8    0.31    0.38
   0   9  -8    0.44    0.21
   0  -9   8    0.13    0.19
  -1   9  -8   -0.05    0.17
  -2   9  -8    0.10    0.18
  -3   9  -8    0.02    0.18
  -4   9  -8   -0.14    0.18
  -3  -8   8    0.28    0.22
  -2  -8   8   -0.19    0.27
  -2  -8   8    0.13    0.16
   1   8  -8    0.69    0.21
   1   8  -8    0.44    0.17
  -1  -8   8    0.32    0.17
   0   8  -8    0.05    0.12
   0   8  -8    0.12    0.16
   0  -8   8   -0.20    0.12
  -1   8  -8    0.17    0.16
   1  -8   8    0.16    0.17
  -2   8  -8   -0.16    0.15
  -3   8  -8    0.24    0.17
  -4   8  -8   -0.05    0.15
  -5   8  -8    0.09    0.18
  -4  -7   8    0.86    0.26
  -3  -7   8   -0.06    0.13
   2   7  -8    0.05    0.13
  -2  -7   8    0.10    0.15
  -2  -7   8    0.04    0.24
   1   7  -8   -0.12    0.13
   1   7  -8    0.10    0.13
  -1  -7   8   -0.03    0.12
   0   7  -8    0.13    0.11
   0   7  -8   -0.09    0.12
   0  -7   8    0.36    0.16
  -1   7  -8   -0.13    0.11
  -1   7  -8    0.13    0.10
   1  -7   8    0.30    0.15
  -2   7  -8   -0.15    0.13
   2  -7   8    0.10    0.13
  -3   7  -8    0.15    0.16
  -4   7  -8    0.46    0.20
  -5   7  -8    0.20    0.19
  -5  -6   8    0.15    0.17
  -4  -6   8    0.06    0.17
   3   6  -8    0.04    0.12
  -3  -6   8    0.45    0.17
   2   6  -8    0.24    0.13
  -2  -6   8    0.00    0.12
  -2  -6   8    0.24    0.22
   1   6  -8    1.32    0.21
   1   6  -8    2.16    0.27
  -1  -6   8    1.86    0.26
   0   6  -8    4.62    0.30
   0   6  -8    5.14    0.36
   0  -6   8    4.55    0.34
  -1   6  -8    3.78    0.32
  -1   6  -8    3.94    0.26
   1  -6   8    4.56    0.33
  -2   6  -8    0.20    0.15
   2  -6   8   -0.03    0.13
  -3   6  -8    0.33    0.17
  -4   6  -8    0.50    0.18
  -5   6  -8    0.05    0.15
  -6   6  -8   -0.08    0.15
  -5  -5   8    0.26    0.18
  -4  -5   8    0.24    0.15
   3   5  -8    0.53    0.17
  -3  -5   8    0.33    0.14
   2   5  -8    0.01    0.10
   2   5  -8    0.29    0.14
  -2  -5   8    0.07    0.17
  -2  -5   8    0.03    0.11
   1   5  -8   -0.10    0.09
   1   5  -8   -0.05    0.09
  -1  -5   8   -0.04    0.09
   0   5  -8    1.31    0.19
   0   5  -8    1.18    0.20
   0  -5   8    0.86    0.18
  -1   5  -8    0.00    0.09
  -1   5  -8    0.15    0.12
   1  -5   8   -0.01    0.11
  -2   5  -8    0.68    0.18
   2  -5   8    0.37    0.15
  -3   5  -8    0.03    0.12
   3  -5   8   -0.18    0.11
  -4   5  -8    0.57    0.19
  -5   5  -8    1.94    0.29
  -6   5  -8   -0.28    0.12
  -6  -4   8   -0.12    0.14
   5   4  -8    0.17    0.14
  -5  -4   8    0.13    0.15
   4   4  -8    2.41    0.31
   4   4  -8    1.98    0.26
  -4  -4   8    2.03    0.26
   3   4  -8   10.07    0.49
   3   4  -8    9.69    0.47
  -3  -4   8    8.99    0.46
   2   4  -8    8.29    0.43
   2   4  -8   10.04    0.45
   2   4  -8    8.97    0.45
  -2  -4   8    8.89    0.42
  -2  -4   8    9.34    0.44
   1   4  -8    0.25    0.11
   1   4  -8    0.08    0.10
   1   4  -8    0.39    0.13
  -1  -4   8   -0.08    0.10
   0   4  -8   -0.03    0.08
   0   4  -8   -0.11    0.08
   0   4  -8    0.01    0.08
   0  -4   8    0.08    0.11
  -1   4  -8    5.20    0.34
  -1   4  -8    5.22    0.29
   1  -4   8    5.46    0.33
   1  -4   8    4.87    0.35
  -2   4  -8    0.17    0.12
   2  -4   8    0.01    0.10
   2  -4   8    0.12    0.11
  -3   4  -8    0.14    0.13
   3  -4   8   -0.12    0.10
   3  -4   8   -0.02    0.11
  -4   4  -8    0.09    0.13
  -5   4  -8    0.17    0.15
  -6   4  -8   -0.15    0.14
  -6  -3   8    0.10    0.13
   5   3  -8    1.03    0.19
  -5  -3   8    1.09    0.20
   4   3  -8    0.07    0.12
   4   3  -8    0.08    0.11
  -4  -3   8    0.27    0.13
   3   3  -8    0.97    0.18
   3   3  -8    1.99    0.23
   3   3  -8    1.63    0.25
  -3  -3   8    1.53    0.21
   2   3  -8    0.11    0.11
   2   3  -8    0.04    0.12
   2   3  -8    0.09    0.09
   2   3  -8    0.06    0.11
  -2  -3   8    0.12    0.10
  -2  -3   8    0.11    0.11
   1   3  -8    0.07    0.10
   1   3  -8    0.30    0.11
   1   3  -8    0.22    0.10
   1   3  -8    0.25    0.13
  -1  -3   8    0.19    0.11
  -1  -3   8    0.35    0.11
   0   3  -8    5.50    0.35
   0   3  -8    5.58    0.29
   0   3  -8    4.93    0.31
   0   3  -8    5.27    0.32
   0  -3   8    4.62    0.31
   0  -3   8    5.52    0.34
   0  -3   8    4.91    0.32
  -1   3  -8    9.96    0.49
  -1   3  -8   10.84    0.41
  -1   3  -8    9.54    0.47
  -1   3  -8    9.89    0.46
   1  -3   8   10.58    0.49
   1  -3   8   11.36    0.47
   1  -3   8    9.47    0.47
  -2   3  -8   47.68    1.47
  -2   3  -8   47.09    1.40
   2  -3   8   47.28    1.37
   2  -3   8   45.66    1.45
  -3   3  -8   15.71    0.65
   3  -3   8   15.73    0.62
   3  -3   8   15.62    0.68
  -4   3  -8    0.17    0.14
  -5   3  -8   -0.05    0.14
  -6   3  -8    0.06    0.16
   5   2  -8    0.12    0.11
   5   2  -8    0.18    0.14
  -5  -2   8    0.24    0.12
   4   2  -8    0.28    0.13
   4   2  -8    0.26    0.12
   4   2  -8    0.37    0.11
  -4  -2   8    0.38    0.13
   3   2  -8    0.50    0.16
   3   2  -8    0.44    0.13
   3   2  -8    0.26    0.11
  -3  -2   8    0.48    0.13
   2   2  -8    0.94    0.17
   2   2  -8    1.24    0.18
   2   2  -8    0.89    0.16
   2   2  -8    1.39    0.19
  -2  -2   8    1.06    0.17
   1   2  -8    1.10    0.15
   1   2  -8    0.80    0.14
   1   2  -8    1.32    0.20
   1   2  -8    1.13    0.18
  -1  -2   8    1.02    0.15
  -1  -2   8    1.12    0.17
   0   2  -8    3.48    0.22
   0   2  -8    2.93    0.24
   0   2  -8    3.14    0.24
   0  -2   8    2.82    0.25
   0  -2   8    2.80    0.24
   0  -2   8    3.03    0.27
  -1   2  -8    4.01    0.31
  -1   2  -8    4.86    0.30
  -1   2  -8    4.59    0.30
   1  -2   8    5.06    0.33
   1  -2   8    4.72    0.30
   1  -2   8    4.97    0.32
  -2   2  -8   -0.09    0.10
  -2   2  -8   -0.12    0.10
  -2   2  -8    0.00    0.10
   2  -2   8    0.03    0.11
   2  -2   8    0.06    0.11
   2  -2   8   -0.01    0.12
  -3   2  -8   -0.02    0.11
  -3   2  -8    0.13    0.12
   3  -2   8    0.05    0.11
   3  -2   8   -0.02    0.11
  -4   2  -8    0.29    0.15
  -4   2  -8    0.19    0.15
   4  -2   8    0.12    0.14
  -5   2  -8   -0.08    0.12
  -5   2  -8    0.04    0.15
  -6   2  -8    2.20    0.33
  -6   2  -8    2.06    0.35
   6   1  -8    0.13    0.14
   5   1  -8    0.04    0.11
   5   1  -8    0.21    0.11
   5   1  -8    0.18    0.12
  -5  -1   8   -0.02    0.11
   4   1  -8    0.60    0.14
   4   1  -8    0.54    0.14
   4   1  -8    0.71    0.15
  -4  -1   8    0.75    0.14
   3   1  -8    0.05    0.08
   3   1  -8   -0.01    0.07
   3   1  -8   -0.11    0.09
  -3  -1   8   -0.07    0.08
   2   1  -8    0.12    0.10
   2   1  -8    0.12    0.08
   2   1  -8    0.16    0.08
   2   1  -8    0.07    0.08
  -2  -1   8    0.31    0.11
   1   1  -8    0.76    0.14
   1   1  -8    0.84    0.15
   1   1  -8    0.83    0.14
   1   1  -8    0.64    0.13
  -1  -1   8    0.86    0.15
  -1  -1   8    0.88    0.14
   0   1  -8    3.29    0.22
   0   1  -8    3.66    0.26
   0   1  -8    3.55    0.25
   0   1  -8    3.38    0.26
   0  -1   8    3.50    0.26
   0  -1   8    3.47    0.25
   0  -1   8    3.80    0.26
  -1   1  -8    0.62    0.16
  -1   1  -8    0.44    0.13
  -1   1  -8    0.39    0.12
   1  -1   8    0.64    0.15
   1  -1   8    0.24    0.11
   1  -1   8    0.24    0.12
  -2   1  -8    0.25    0.11
  -2   1  -8    0.21    0.13
  -2   1  -8    0.12    0.09
  -2   1  -8    0.17    0.12
   2  -1   8    0.32    0.13
   2  -1   8    0.31    0.13
   2  -1   8    0.17    0.12
  -3   1  -8    0.50    0.16
  -3   1  -8    0.50    0.16
   3  -1   8    0.65    0.17
   3  -1   8    0.76    0.17
  -4   1  -8    0.11    0.12
  -4   1  -8    0.26    0.15
  -5   1  -8    0.31    0.17
  -5   1  -8    0.07    0.18
  -6   1  -8    0.19    0.18
  -6   1  -8    0.14    0.20
   6   0  -8    0.14    0.11
   5   0  -8    4.24    0.32
   5   0  -8    3.93    0.25
   5   0  -8    4.49    0.29
   4   0  -8    3.44    0.27
   4   0  -8    4.30    0.28
   4   0  -8    3.69    0.23
  -4   0   8    3.83    0.24
   3   0  -8    0.12    0.08
   3   0  -8    0.25    0.11
   3   0  -8    0.30    0.10
  -3   0   8    0.32    0.10
   2   0  -8    0.43    0.12
   2   0  -8    0.52    0.11
   2   0  -8    0.58    0.12
   2   0  -8    0.41    0.12
  -2   0   8    0.49    0.12
  -2   0   8    0.60    0.14
   1   0  -8    4.22    0.26
   1   0  -8    4.47    0.25
   1   0  -8    4.54    0.29
  -1   0   8    4.23    0.25
  -1   0   8    4.44    0.27
   0   0  -8    4.79    0.30
   0   0  -8    5.23    0.27
   0   0  -8    4.57    0.30
   0   0  -8    5.27    0.31
   0   0   8    4.93    0.30
   0   0   8    4.87    0.30
   0   0   8    5.23    0.30
  -1   0  -8    0.33    0.12
  -1   0  -8    0.26    0.11
  -1   0  -8    0.31    0.10
  -1   0  -8    0.23    0.11
   1   0   8    0.68    0.16
   1   0   8    0.21    0.10
   1   0   8    0.22    0.10
  -2   0  -8    0.26    0.11
  -2   0  -8    0.39    0.12
  -2   0  -8    0.56    0.14
  -2   0  -8    0.26    0.12
   2   0   8    0.41    0.12
   2   0   8    0.30    0.13
   2   0   8    0.42    0.13
  -3   0  -8    0.29    0.14
  -3   0  -8    0.39    0.14
   3   0   8    0.22    0.12
   3   0   8    0.22    0.12
  -4   0  -8    0.05    0.13
  -4   0  -8    0.00    0.11
  -5   0  -8    0.01    0.15
  -5   0  -8    0.12    0.14
  -6   0  -8    0.12    0.16
  -6   0  -8   -0.01    0.18
   6  -1  -8    0.21    0.13
   5  -1  -8    0.51    0.11
   5  -1  -8    0.37    0.14
   5  -1  -8    0.74    0.15
   4  -1  -8    0.74    0.14
   4  -1  -8    0.94    0.15
   4  -1  -8    0.80    0.14
  -4   1   8    0.83    0.14
   3  -1  -8    3.22    0.24
   3  -1  -8    2.86    0.22
   3  -1  -8    2.80    0.25
  -3   1   8    2.99    0.21
   2  -1  -8    1.34    0.17
   2  -1  -8    2.18    0.20
   2  -1  -8    1.71    0.20
   2  -1  -8    1.29    0.16
  -2   1   8    1.48    0.18
   1  -1  -8    6.83    0.33
   1  -1  -8    6.14    0.29
   1  -1  -8    6.01    0.34
   1  -1  -8    6.57    0.35
  -1   1   8    5.81    0.31
   0  -1  -8   41.28    1.22
   0  -1  -8   40.93    1.04
   0  -1  -8   39.71    1.18
   0  -1  -8   40.23    1.23
   0   1   8   35.82    1.16
   0   1   8   40.33    1.17
   0   1   8   41.48    1.21
  -1  -1  -8    6.82    0.36
  -1  -1  -8    6.68    0.30
  -1  -1  -8    7.08    0.38
  -1  -1  -8    6.77    0.38
   1   1   8    6.36    0.37
   1   1   8    6.81    0.36
   1   1   8    7.21    0.37
  -2  -1  -8    0.62    0.15
  -2  -1  -8    0.55    0.16
  -2  -1  -8    0.53    0.14
   2   1   8    0.52    0.14
   2   1   8    0.54    0.14
  -3  -1  -8    0.52    0.15
  -3  -1  -8    0.36    0.14
   3   1   8    0.68    0.16
  -4  -1  -8    1.81    0.28
  -4  -1  -8    1.57    0.26
  -5  -1  -8    0.20    0.18
  -5  -1  -8    0.05    0.13
  -6  -1  -8    0.08    0.18
  -6  -1  -8    0.21    0.17
   6  -2  -8    0.09    0.13
   5  -2  -8    0.11    0.10
   5  -2  -8   -0.01    0.07
   4  -2  -8    2.24    0.22
   4  -2  -8    1.93    0.20
   4  -2  -8    1.90    0.20
   3  -2  -8    0.59    0.11
   3  -2  -8    1.04    0.16
   3  -2  -8    0.80    0.14
  -3   2   8    0.80    0.14
   2  -2  -8    6.55    0.30
   2  -2  -8    6.72    0.31
   2  -2  -8    6.76    0.34
   2  -2  -8    6.44    0.34
  -2   2   8    6.74    0.33
   1  -2  -8    6.67    0.33
   1  -2  -8    6.86    0.36
   1  -2  -8    6.47    0.35
  -1   2   8    6.47    0.33
   0  -2  -8    1.20    0.13
   0  -2  -8    1.25    0.20
   0  -2  -8    0.78    0.15
   0  -2  -8    1.04    0.19
   0   2   8    1.15    0.18
   0   2   8    1.04    0.17
  -1  -2  -8    1.23    0.19
  -1  -2  -8    0.67    0.12
  -1  -2  -8    0.57    0.14
  -1  -2  -8    1.06    0.19
   1   2   8    1.39    0.21
   1   2   8    1.13    0.18
   1   2   8    0.85    0.17
  -2  -2  -8    1.02    0.20
  -2  -2  -8    0.91    0.17
   2   2   8    1.52    0.21
  -3  -2  -8    0.45    0.16
  -3  -2  -8    0.67    0.18
   3   2   8    0.73    0.17
  -4  -2  -8    0.46    0.18
  -4  -2  -8    0.81    0.22
  -5  -2  -8    3.19    0.40
  -5  -2  -8    2.54    0.37
  -6  -2  -8    0.31    0.23
  -6  -2  -8    0.03    0.19
   5  -3  -8    1.16    0.17
   4  -3  -8    0.08    0.08
   4  -3  -8    0.01    0.08
   4  -3  -8    0.02    0.07
   3  -3  -8   39.89    1.15
   3  -3  -8   37.83    1.14
   3  -3  -8   38.67    1.04
  -3   3   8   37.06    1.08
   2  -3  -8   20.60    0.72
   2  -3  -8   21.18    0.73
   2  -3  -8   21.51    0.64
  -2   3   8   20.35    0.69
   1  -3  -8    0.15    0.10
   1  -3  -8    0.17    0.11
   1  -3  -8    0.15    0.10
   1  -3  -8    0.18    0.07
  -1   3   8    0.13    0.10
   0  -3  -8    0.40    0.13
   0  -3  -8    0.47    0.14
   0  -3  -8    0.58    0.12
   0  -3  -8    0.52    0.14
   0   3   8    0.44    0.14
   0   3   8    0.57    0.14
  -1  -3  -8    5.26    0.30
  -1  -3  -8    5.28    0.35
  -1  -3  -8    4.99    0.36
   1   3   8    5.20    0.33
  -2  -3  -8   -0.06    0.09
  -2  -3  -8    0.19    0.13
   2   3   8    0.26    0.13
  -3  -3  -8    0.16    0.15
  -3  -3  -8    0.05    0.12
   3   3   8    0.48    0.16
  -4  -3  -8    0.98    0.25
  -4  -3  -8    0.95    0.24
  -5  -3  -8    0.38    0.19
  -5  -3  -8    0.49    0.22
  -6  -3  -8    0.06    0.20
  -6  -3  -8   -0.01    0.20
   4  -4  -8    1.53    0.17
   4  -4  -8    1.24    0.17
   4  -4  -8    0.99    0.15
   3  -4  -8    0.08    0.11
   3  -4  -8    0.08    0.10
   3  -4  -8    0.16    0.08
  -3   4   8    0.09    0.11
   2  -4  -8    3.27    0.27
   2  -4  -8    3.59    0.27
   2  -4  -8    3.38    0.22
  -2   4   8    3.26    0.25
   1  -4  -8    0.00    0.09
   1  -4  -8    0.16    0.09
   1  -4  -8    0.07    0.10
   1  -4  -8    0.02    0.10
  -1   4   8   -0.03    0.08
   0  -4  -8    7.37    0.40
   0  -4  -8    7.41    0.35
   0  -4  -8    7.70    0.42
   0   4   8    7.17    0.39
  -1  -4  -8    1.53    0.24
  -1  -4  -8    1.48    0.21
   1   4   8    1.14    0.19
  -2  -4  -8   42.73    1.35
  -2  -4  -8   42.51    1.30
   2   4   8   40.95    1.32
  -3  -4  -8   10.09    0.56
   3   4   8   10.40    0.55
  -4  -4  -8    0.02    0.14
  -4  -4  -8   -0.01    0.15
  -5  -4  -8    0.18    0.19
  -5  -4  -8   -0.32    0.15
   5  -5  -8   -0.14    0.10
   5  -5  -8   -0.10    0.08
   4  -5  -8    0.12    0.10
   4  -5  -8    0.19    0.12
   3  -5  -8    0.03    0.11
   3  -5  -8   -0.02    0.09
  -3   5   8   -0.04    0.09
   2  -5  -8    0.94    0.18
   2  -5  -8    1.10    0.20
   2  -5  -8    1.10    0.20
  -2   5   8    0.84    0.17
   1  -5  -8    0.12    0.11
   1  -5  -8    0.19    0.11
  -1   5   8    0.03    0.10
   0  -5  -8    0.28    0.15
   0  -5  -8    0.14    0.13
   0  -5  -8    0.41    0.14
   0   5   8    0.01    0.11
  -1  -5  -8    5.58    0.36
  -1  -5  -8    5.33    0.39
   1   5   8    5.10    0.36
  -2  -5  -8    0.83    0.21
  -2  -5  -8    1.00    0.22
   2   5   8    0.79    0.20
  -3  -5  -8   -0.03    0.16
  -3  -5  -8    0.22    0.17
   3   5   8    0.04    0.13
  -4  -5  -8    0.25    0.19
  -4  -5  -8    0.06    0.18
  -5  -5  -8    0.91    0.26
  -5  -5  -8    0.17    0.21
   5  -6  -8   -0.07    0.11
   4  -6  -8    0.07    0.14
   4  -6  -8    0.16    0.11
  -4   6   8    0.24    0.12
   3  -6  -8    0.26    0.12
  -3   6   8    0.35    0.14
   2  -6  -8    0.09    0.12
   2  -6  -8    0.28    0.17
  -2   6   8    0.23    0.12
   1  -6  -8    0.42    0.15
   1  -6  -8    0.39    0.15
  -1   6   8    0.50    0.15
   0  -6  -8    0.13    0.13
   0   6   8   -0.18    0.10
  -1  -6  -8    0.22    0.14
  -1  -6  -8    0.46    0.19
   1   6   8    0.46    0.19
  -2  -6  -8    0.35    0.17
  -2  -6  -8    0.81    0.23
   2   6   8    0.46    0.18
  -3  -6  -8    0.20    0.19
  -3  -6  -8    0.01    0.16
   3   6   8    0.02    0.15
  -4  -6  -8    0.09    0.20
  -4  -6  -8    0.17    0.18
   4  -7  -8    2.00    0.25
  -4   7   8    2.39    0.25
   3  -7  -8    0.50    0.16
  -3   7   8    0.57    0.16
   2  -7  -8   -0.12    0.16
   2  -7  -8    0.08    0.13
  -2   7   8    0.11    0.12
   1  -7  -8    0.30    0.16
  -1   7   8    0.04    0.11
   0  -7  -8    0.39    0.17
   0   7   8    0.42    0.16
  -1  -7  -8    0.13    0.14
   1   7   8    0.07    0.13
  -2  -7  -8   -0.09    0.16
  -2  -7  -8   -0.12    0.17
   2   7   8    0.05    0.15
  -3  -7  -8    0.09    0.19
  -3  -7  -8   -0.08    0.20
   3   7   8    0.34    0.19
   4  -8  -8   -0.11    0.14
  -4   8   8   -0.23    0.12
   3  -8  -8    0.10    0.16
  -3   8   8    0.19    0.14
  -2   8   8    0.16    0.12
   1  -8  -8   -0.03    0.16
  -1   8   8    0.08    0.13
   0  -8  -8    2.15    0.33
   0   8   8    1.80    0.30
  -1  -8  -8    0.92    0.25
   1   8   8    0.98    0.24
  -2  -8  -8    0.23    0.21
   2   8   8    0.51    0.21
  -4   9   8   -0.06    0.13
  -3   9   8   -0.16    0.11
  -2   9   8    0.58    0.17
   1  -9  -8    0.03    0.18
  -1   9   8    0.35    0.18
   0  -9  -8    0.56    0.25
   0   9   8    0.59    0.21
  -1  -9  -8    0.42    0.21
   1   9   8    0.19    0.18
  -1  10  -9    0.09    0.22
  -2  -9   9    0.20    0.21
  -1  -9   9    0.11    0.19
   0   9  -9    0.78    0.24
   0  -9   9    0.61    0.23
  -1   9  -9    0.21    0.19
  -2   9  -9    1.78    0.34
  -3   9  -9    0.75    0.28
  -3  -8   9    0.05    0.19
  -2  -8   9    0.03    0.17
   1   8  -9    0.17    0.15
  -1  -8   9   -0.12    0.13
   0   8  -9    0.48    0.17
   0   8  -9    0.35    0.19
   0  -8   9    0.48    0.19
  -1   8  -9   -0.11    0.16
   1  -8   9   -0.01    0.16
  -2   8  -9    0.59    0.21
  -3   8  -9    0.10    0.17
  -4   8  -9    0.00    0.18
  -4  -7   9   -0.16    0.17
  -3  -7   9   -0.10    0.15
  -2  -7   9    0.72    0.21
   1   7  -9    0.01    0.14
   1   7  -9    0.22    0.14
  -1  -7   9    0.12    0.14
   0   7  -9    0.29    0.14
   0   7  -9    0.63    0.21
   0  -7   9    0.29    0.16
  -1   7  -9    0.04    0.15
  -1   7  -9   -0.01    0.10
   1  -7   9    0.15    0.14
  -2   7  -9    0.09    0.15
   2  -7   9   -0.06    0.13
  -3   7  -9   -0.12    0.14
  -4   7  -9    0.05    0.16
  -5   7  -9    0.35    0.19
  -4  -6   9    0.29    0.18
  -3  -6   9    0.29    0.16
   2   6  -9    0.14    0.13
  -2  -6   9    0.21    0.14
   1   6  -9    0.96    0.19
   1   6  -9    0.76    0.20
  -1  -6   9    0.81    0.19
   0   6  -9    0.57    0.15
   0   6  -9    0.73    0.20
   0  -6   9    0.43    0.17
  -1   6  -9    1.57    0.21
  -1   6  -9    1.88    0.28
   1  -6   9    1.58    0.25
  -2   6  -9    0.17    0.14
   2  -6   9   -0.10    0.11
  -3   6  -9    0.12    0.15
  -4   6  -9    0.28    0.16
  -5   6  -9    0.40    0.21
  -5  -5   9    0.01    0.15
  -4  -5   9    0.16    0.15
   3   5  -9    0.94    0.20
  -3  -5   9    1.38    0.24
   2   5  -9    1.27    0.22
  -2  -5   9    1.23    0.22
   1   5  -9    1.67    0.24
   1   5  -9    1.20    0.19
  -1  -5   9    1.05    0.20
   0   5  -9    0.13    0.11
   0   5  -9    0.05    0.12
   0  -5   9   -0.01    0.11
  -1   5  -9   -0.11    0.08
  -1   5  -9   -0.19    0.10
   1  -5   9    0.24    0.15
  -2   5  -9    0.04    0.14
   2  -5   9    0.32    0.16
  -3   5  -9    0.00    0.12
  -4   5  -9   -0.07    0.14
  -5   5  -9    0.21    0.17
  -6   5  -9    0.75    0.24
  -5  -4   9    0.05    0.15
  -4  -4   9    0.17    0.13
   3   4  -9    0.09    0.14
   3   4  -9    0.40    0.15
  -3  -4   9    0.11    0.13
   2   4  -9    2.83    0.28
   2   4  -9    2.61    0.28
  -2  -4   9    2.67    0.29
   1   4  -9    1.20    0.21
   1   4  -9    1.35    0.22
   1   4  -9    1.26    0.19
  -1  -4   9    1.06    0.19
   0   4  -9    0.35    0.15
   0   4  -9    0.43    0.13
   0  -4   9    0.18    0.13
  -1   4  -9   -0.11    0.08
  -1   4  -9    0.02    0.11
   1  -4   9    0.09    0.12
  -2   4  -9    1.22    0.23
   2  -4   9    1.91    0.26
  -3   4  -9    0.03    0.13
   3  -4   9    0.19    0.15
  -4   4  -9    0.14    0.16
  -5   4  -9    0.13    0.17
  -6   4  -9   -0.27    0.15
  -6  -3   9    0.28    0.16
   5   3  -9    0.73    0.18
  -5  -3   9    1.04    0.19
   4   3  -9    1.52    0.24
   4   3  -9    1.35    0.22
  -4  -3   9    1.06    0.20
   3   3  -9    2.60    0.28
   3   3  -9    2.86    0.29
  -3  -3   9    2.07    0.24
   2   3  -9    4.84    0.32
   2   3  -9    4.69    0.32
  -2  -3   9    4.72    0.32
   1   3  -9    0.75    0.14
   1   3  -9    0.64    0.16
   1   3  -9    0.57    0.15
  -1  -3   9    0.70    0.17
   0   3  -9    0.08    0.10
   0   3  -9    0.09    0.09
   0   3  -9    0.03    0.11
   0  -3   9    0.13    0.12
  -1   3  -9    0.25    0.13
   1  -3   9    0.22    0.11
  -2   3  -9    0.09    0.13
   2  -3   9    0.07    0.11
  -3   3  -9    0.91    0.20
   3  -3   9    0.83    0.19
  -4   3  -9    0.72    0.20
  -5   3  -9   -0.01    0.14
  -6   3  -9    0.17    0.19
   5   2  -9    0.19    0.13
  -5  -2   9   -0.12    0.12
   4   2  -9    0.97    0.19
   4   2  -9    0.83    0.17
  -4  -2   9    1.22    0.19
   3   2  -9    1.26    0.23
   3   2  -9    1.35    0.19
   3   2  -9    1.08    0.19
  -3  -2   9    1.00    0.18
   2   2  -9    0.21    0.11
   2   2  -9    0.14    0.13
   2   2  -9    0.08    0.09
   2   2  -9    0.07    0.09
  -2  -2   9    0.07    0.11
   1   2  -9    1.35    0.20
   1   2  -9    1.15    0.21
   1   2  -9    1.40    0.19
   1   2  -9    1.26    0.17
  -1  -2   9    1.30    0.19
  -1  -2   9    1.31    0.19
   0   2  -9    6.59    0.33
   0   2  -9    6.23    0.36
   0   2  -9    6.11    0.36
   0  -2   9    6.71    0.36
   0  -2   9    6.65    0.41
   0  -2   9    5.79    0.36
  -1   2  -9    0.24    0.12
  -1   2  -9    0.33    0.13
   1  -2   9    0.56    0.15
  -2   2  -9   10.15    0.51
   2  -2   9    9.65    0.48
  -3   2  -9    7.33    0.44
   3  -2   9    6.16    0.39
  -4   2  -9    0.08    0.14
  -4   2  -9    0.13    0.14
  -5   2  -9    0.16    0.16
  -5   2  -9   -0.12    0.15
  -6   2  -9    0.19    0.17
  -6   2  -9    0.05    0.19
   5   1  -9    1.40    0.23
   5   1  -9    1.33    0.19
   5   1  -9    1.20    0.22
  -5  -1   9    1.13    0.18
   4   1  -9    0.25    0.11
   4   1  -9    0.40    0.15
   4   1  -9    0.03    0.11
  -4  -1   9    0.24    0.12
   3   1  -9    0.88    0.17
   3   1  -9    1.20    0.21
   3   1  -9    1.00    0.16
  -3  -1   9    0.88    0.16
   2   1  -9    1.98    0.24
   2   1  -9    2.29    0.24
   2   1  -9    1.79    0.20
   2   1  -9    1.64    0.20
  -2  -1   9    1.96    0.23
   1   1  -9    1.06    0.19
   1   1  -9    0.80    0.14
   1   1  -9    1.10    0.18
   1   1  -9    0.94    0.17
  -1  -1   9    1.08    0.17
   0   1  -9    5.72    0.35
   0   1  -9    6.04    0.37
   0   1  -9    7.40    0.38
   0   1  -9    6.39    0.32
   0  -1   9    6.85    0.37
   0  -1   9    6.29    0.36
  -1   1  -9    3.60    0.29
  -1   1  -9    3.11    0.27
   1  -1   9    3.23    0.31
   1  -1   9    2.98    0.31
  -2   1  -9    1.18    0.19
  -2   1  -9    1.22    0.22
   2  -1   9    1.31    0.22
  -3   1  -9   -0.07    0.12
  -3   1  -9    0.17    0.14
   3  -1   9   -0.03    0.11
  -4   1  -9    0.47    0.19
  -4   1  -9    0.56    0.20
  -5   1  -9    0.63    0.22
  -5   1  -9    0.32    0.21
  -6   1  -9   -0.17    0.16
  -6   1  -9   -0.08    0.18
   6   0  -9    0.15    0.15
   5   0  -9   -0.04    0.09
   5   0  -9    0.04    0.10
   5   0  -9    0.00    0.12
   4   0  -9    4.90    0.32
   4   0  -9    4.77    0.29
   4   0  -9    5.42    0.34
  -4   0   9    4.96    0.29
   3   0  -9    0.59    0.14
   3   0  -9    0.60    0.16
   3   0  -9    0.61    0.14
  -3   0   9    0.58    0.14
   2   0  -9    5.16    0.30
   2   0  -9    4.86    0.30
   2   0  -9    4.62    0.31
   2   0  -9    5.01    0.29
  -2   0   9    4.98    0.30
   1   0  -9    0.07    0.07
   1   0  -9    0.06    0.09
   1   0  -9    0.22    0.11
   1   0  -9    0.11    0.09
  -1   0   9   -0.06    0.09
   0   0  -9   16.47    0.62
   0   0  -9   15.50    0.63
   0   0  -9   16.64    0.65
   0   0   9   16.12    0.62
   0   0   9   15.35    0.62
  -1   0  -9    0.95    0.14
  -1   0  -9    1.10    0.19
  -1   0  -9    0.66    0.16
   1   0   9    0.74    0.16
   1   0   9    0.57    0.15
   1   0   9    0.78    0.19
  -2   0  -9    0.56    0.17
  -2   0  -9    0.40    0.13
   2   0   9    0.66    0.17
  -3   0  -9    0.47    0.17
  -3   0  -9    0.67    0.18
   3   0   9    0.78    0.19
  -4   0  -9   -0.15    0.13
  -4   0  -9    0.18    0.13
  -5   0  -9    1.08    0.27
  -5   0  -9    0.90    0.24
  -6   0  -9    0.27    0.18
  -6   0  -9    0.23    0.23
   6  -1  -9    0.06    0.13
   5  -1  -9    0.06    0.11
   5  -1  -9    0.07    0.11
   5  -1  -9    0.03    0.09
   4  -1  -9    0.30    0.11
   4  -1  -9    0.34    0.12
   4  -1  -9    0.14    0.11
  -4   1   9    0.34    0.12
   3  -1  -9    0.94    0.16
   3  -1  -9    0.53    0.13
   3  -1  -9    0.92    0.17
  -3   1   9    0.86    0.14
   2  -1  -9    1.39    0.21
   2  -1  -9    1.10    0.17
   2  -1  -9    1.13    0.16
  -2   1   9    0.90    0.16
   1  -1  -9   16.51    0.64
   1  -1  -9   16.30    0.64
   1  -1  -9   15.78    0.60
   1  -1  -9   17.24    0.57
  -1   1   9   15.62    0.60
   0  -1  -9    0.75    0.10
   0  -1  -9    0.55    0.15
   0  -1  -9    0.46    0.15
   0  -1  -9    0.45    0.13
   0   1   9    0.51    0.15
   0   1   9    0.58    0.18
  -1  -1  -9   26.52    0.79
  -1  -1  -9   24.22    0.91
  -1  -1  -9   26.52    0.91
   1   1   9   28.03    0.90
  -2  -1  -9    0.33    0.14
  -2  -1  -9    0.59    0.15
   2   1   9    0.39    0.13
  -3  -1  -9    0.93    0.20
  -3  -1  -9    0.96    0.21
   3   1   9    1.45    0.23
  -4  -1  -9    0.66    0.21
  -4  -1  -9    0.57    0.19
  -5  -1  -9    1.16    0.28
  -5  -1  -9    0.66    0.21
  -6  -1  -9   -0.08    0.17
  -6  -1  -9   -0.20    0.15
   6  -2  -9    0.11    0.13
   5  -2  -9    0.68    0.16
   5  -2  -9    0.78    0.14
   5  -2  -9    0.79    0.15
   4  -2  -9    0.35    0.10
   4  -2  -9    0.28    0.12
   4  -2  -9    0.31    0.12
  -4   2   9    0.57    0.14
   3  -2  -9    9.41    0.44
   3  -2  -9    9.02    0.42
   3  -2  -9    9.31    0.41
  -3   2   9    8.56    0.40
   2  -2  -9    3.21    0.23
   2  -2  -9    3.66    0.27
   2  -2  -9    4.06    0.29
  -2   2   9    3.47    0.26
   1  -2  -9    0.45    0.13
   1  -2  -9    0.39    0.13
   1  -2  -9    0.14    0.13
  -1   2   9    0.43    0.13
   0  -2  -9    6.50    0.27
   0  -2  -9    5.88    0.36
   0  -2  -9    6.17    0.38
   0  -2  -9    6.56    0.40
   0   2   9    6.17    0.36
   0   2   9    6.08    0.40
  -1  -2  -9    0.27    0.14
  -1  -2  -9    0.40    0.15
  -1  -2  -9    0.28    0.11
   1   2   9    0.22    0.14
  -2  -2  -9    1.43    0.24
  -2  -2  -9    1.65    0.22
   2   2   9    1.50    0.24
  -3  -2  -9   -0.12    0.11
  -3  -2  -9    0.05    0.13
   3   2   9   -0.09    0.12
  -4  -2  -9    0.94    0.23
  -4  -2  -9    1.32    0.27
  -5  -2  -9    0.37    0.19
  -5  -2  -9    0.32    0.23
  -6  -2  -9    1.86    0.36
  -6  -2  -9    1.77    0.34
   5  -3  -9    0.17    0.10
   5  -3  -9    0.42    0.14
   5  -3  -9    0.38    0.13
   4  -3  -9    0.16    0.09
   4  -3  -9    0.17    0.11
   4  -3  -9    0.20    0.10
  -4   3   9    0.16    0.12
   3  -3  -9    1.84    0.19
   3  -3  -9    1.50    0.19
   3  -3  -9    1.63    0.21
   2  -3  -9    0.79    0.19
   2  -3  -9    0.28    0.13
  -2   3   9    0.72    0.16
   1  -3  -9    1.14    0.12
   1  -3  -9    0.64    0.15
   1  -3  -9    0.67    0.16
   1  -3  -9    0.69    0.17
  -1   3   9    0.70    0.16
   0  -3  -9    3.87    0.30
   0  -3  -9    4.01    0.23
   0  -3  -9    3.80    0.31
   0   3   9    4.21    0.31
  -1  -3  -9    0.10    0.09
  -1  -3  -9    0.13    0.13
   1   3   9    0.25    0.13
  -2  -3  -9    5.74    0.40
  -2  -3  -9    5.66    0.36
   2   3   9    5.06    0.37
  -3  -3  -9   -0.07    0.14
  -3  -3  -9    0.17    0.15
   3   3   9    0.03    0.14
  -4  -3  -9    0.10    0.16
  -4  -3  -9   -0.01    0.15
  -5  -3  -9    0.16    0.20
  -5  -3  -9    0.56    0.23
   5  -4  -9    1.21    0.17
   5  -4  -9    2.14    0.21
   4  -4  -9    0.17    0.11
   4  -4  -9    0.05    0.12
   4  -4  -9    0.06    0.09
  -4   4   9    0.00    0.12
   3  -4  -9    0.50    0.13
   3  -4  -9    0.45    0.14
  -3   4   9    0.40    0.13
   2  -4  -9    0.44    0.14
   2  -4  -9    0.14    0.11
  -2   4   9    0.09    0.11
   1  -4  -9    0.05    0.08
   1  -4  -9   -0.01    0.11
  -1   4   9    0.10    0.12
   0  -4  -9    0.07    0.11
   0  -4  -9    0.15    0.10
   0  -4  -9    0.03    0.12
   0   4   9    0.14    0.12
  -1  -4  -9    1.33    0.21
  -1  -4  -9    1.00    0.21
   1   4   9    0.89    0.19
  -2  -4  -9   -0.06    0.11
  -2  -4  -9    0.07    0.15
   2   4   9    0.00    0.12
  -3  -4  -9    0.76    0.21
  -3  -4  -9    0.93    0.26
   3   4   9    1.33    0.27
  -4  -4  -9    0.37    0.22
  -4  -4  -9    0.21    0.20
  -5  -4  -9    0.44    0.23
  -5  -4  -9    0.27    0.21
   5  -5  -9   -0.01    0.11
   4  -5  -9    0.20    0.13
   4  -5  -9    0.13    0.11
  -4   5   9    0.13    0.12
   3  -5  -9    0.51    0.16
   3  -5  -9    0.67    0.18
  -3   5   9    0.33    0.14
   2  -5  -9    0.32    0.14
  -2   5   9    0.13    0.11
   1  -5  -9    1.17    0.22
   1  -5  -9    1.18    0.17
  -1   5   9    1.31    0.22
   0  -5  -9    3.62    0.28
   0   5   9    3.45    0.35
  -1  -5  -9    0.21    0.14
  -1  -5  -9    0.44    0.15
   1   5   9    0.22    0.14
  -2  -5  -9    0.51    0.18
  -2  -5  -9    0.29    0.18
   2   5   9    0.78    0.21
  -3  -5  -9    0.68    0.21
  -3  -5  -9    0.63    0.21
   3   5   9    0.52    0.21
  -4  -5  -9    0.27    0.19
  -4  -5  -9    0.11    0.19
   5  -6  -9    0.09    0.14
   4  -6  -9   -0.10    0.10
  -4   6   9    0.02    0.11
   3  -6  -9    0.22    0.13
  -3   6   9    0.05    0.13
   2  -6  -9    0.08    0.13
  -2   6   9    0.00    0.11
   1  -6  -9    0.20    0.14
  -1   6   9    0.21    0.14
   0  -6  -9    0.52    0.16
   0   6   9    0.54    0.17
  -1  -6  -9    0.98    0.22
   1   6   9    0.49    0.18
  -2  -6  -9    0.25    0.18
  -2  -6  -9    0.14    0.18
   2   6   9    0.13    0.15
  -3  -6  -9   -0.20    0.18
  -3  -6  -9    0.09    0.20
   3   6   9   -0.06    0.19
  -4  -6  -9    0.30    0.23
  -4  -6  -9    0.25    0.21
   4  -7  -9    1.58    0.25
   3  -7  -9    0.88    0.20
  -3   7   9    0.83    0.19
  -2   7   9    0.00    0.11
  -1   7   9    0.06    0.12
   0  -7  -9    0.33    0.17
   0   7   9    0.34    0.17
  -1  -7  -9   -0.13    0.15
   1   7   9   -0.03    0.14
  -2  -7  -9    0.14    0.19
   2   7   9    0.13    0.18
  -3  -7  -9    0.07    0.21
  -3  -7  -9    0.31    0.25
  -4   8   9   -0.17    0.13
  -3   8   9    0.07    0.15
  -2   8   9    0.09    0.13
  -1   8   9    0.99    0.23
   0  -8  -9    0.10    0.17
   0   8   9    0.15    0.16
  -1  -8  -9    2.85    0.37
   1   8   9    3.09    0.39
  -2  -8  -9    0.40    0.22
   2   8   9    0.53    0.24
  -3   9   9    0.42    0.18
  -2   9   9    0.45    0.19
  -1   9   9    0.18    0.18
   0   9   9    0.62    0.22
  -1  -9  10    0.38    0.24
   0  -9  10    0.10    0.18
  -1   9 -10   -0.04    0.19
  -2   9 -10    0.11    0.22
  -2  -8  10   -0.17    0.18
  -1  -8  10   -0.08    0.15
   0   8 -10    0.24    0.16
   0   8 -10    0.35    0.21
   0  -8  10    0.49    0.18
  -1   8 -10   -0.10    0.17
   1  -8  10    0.08    0.18
  -2   8 -10    0.26    0.17
  -3   8 -10    0.68    0.24
  -4   8 -10    0.46    0.25
  -3  -7  10    0.07    0.17
  -2  -7  10    0.20    0.15
   1   7 -10    0.43    0.17
  -1  -7  10    0.41    0.19
   0   7 -10   -0.07    0.12
   0   7 -10   -0.27    0.15
   0  -7  10   -0.01    0.15
  -1   7 -10    0.39    0.18
  -1   7 -10    0.43    0.15
   1  -7  10    0.22    0.15
  -2   7 -10    0.14    0.17
  -3   7 -10    0.09    0.19
  -4   7 -10    0.25    0.20
  -4  -6  10    0.54    0.22
  -3  -6  10    0.24    0.15
  -2  -6  10    0.09    0.14
   1   6 -10    0.70    0.18
  -1  -6  10    0.71    0.20
   0   6 -10   -0.06    0.11
   0   6 -10    0.10    0.15
   0  -6  10    0.13    0.14
  -1   6 -10    0.16    0.12
  -1   6 -10    0.24    0.17
   1  -6  10    0.13    0.15
  -2   6 -10    0.07    0.15
   2  -6  10    0.05    0.14
  -3   6 -10    0.28    0.17
  -4   6 -10    0.12    0.16
  -5   6 -10    0.12    0.18
  -4  -5  10   -0.18    0.13
  -3  -5  10    1.75    0.26
   2   5 -10    8.79    0.48
  -2  -5  10    7.76    0.47
   1   5 -10    2.47    0.31
   1   5 -10    1.71    0.23
  -1  -5  10    2.29    0.30
   0   5 -10    0.18    0.12
   0   5 -10    0.48    0.18
   0  -5  10    0.44    0.16
  -1   5 -10    2.89    0.36
  -1   5 -10    3.42    0.31
   1  -5  10    3.24    0.36
  -2   5 -10    0.24    0.14
   2  -5  10   -0.11    0.13
  -3   5 -10    0.01    0.14
  -4   5 -10    0.10    0.16
  -5   5 -10   -0.03    0.16
  -5  -4  10    0.17    0.15
  -4  -4  10    0.39    0.14
   3   4 -10   -0.03    0.12
  -3  -4  10    0.04    0.12
   2   4 -10    1.59    0.23
  -2  -4  10    1.61    0.25
   1   4 -10    0.12    0.11
   1   4 -10    0.07    0.13
  -1  -4  10   -0.07    0.11
   0   4 -10    0.01    0.09
   0   4 -10   -0.06    0.10
   0  -4  10    0.03    0.13
  -1   4 -10    1.13    0.23
  -1   4 -10    0.91    0.17
   1  -4  10    0.70    0.18
  -2   4 -10    4.59    0.37
   2  -4  10    5.84    0.40
  -3   4 -10    8.48    0.51
   3  -4  10    8.16    0.49
  -4   4 -10    0.92    0.24
  -5   4 -10    0.00    0.17
  -6   4 -10   -0.16    0.19
   5   3 -10    0.21    0.16
  -5  -3  10    0.00    0.14
   4   3 -10    0.17    0.13
  -4  -3  10    0.06    0.13
   3   3 -10    1.50    0.23
   3   3 -10    1.65    0.23
  -3  -3  10    1.16    0.20
   2   3 -10    0.00    0.13
   2   3 -10   -0.04    0.10
  -2  -3  10    0.03    0.12
   1   3 -10    1.31    0.20
   1   3 -10    1.47    0.23
  -1  -3  10    1.14    0.21
   0   3 -10   -0.01    0.08
   0   3 -10   -0.06    0.10
   0  -3  10    0.19    0.14
  -1   3 -10    0.02    0.12
   1  -3  10   -0.01    0.10
  -2   3 -10   -0.03    0.13
   2  -3  10    0.25    0.14
  -3   3 -10    0.07    0.14
   3  -3  10    0.24    0.15
  -4   3 -10    0.22    0.17
  -5   3 -10   -0.04    0.15
  -6   3 -10    0.50    0.22
  -6  -2  10   -0.01    0.14
   5   2 -10    0.86    0.18
  -5  -2  10    1.02    0.20
   4   2 -10    0.04    0.11
   4   2 -10   -0.03    0.11
  -4  -2  10    0.13    0.14
   3   2 -10    0.87    0.18
   3   2 -10    1.11    0.21
  -3  -2  10    1.14    0.19
   2   2 -10    5.04    0.34
   2   2 -10    6.14    0.35
  -2  -2  10    5.20    0.34
   1   2 -10    6.75    0.39
   1   2 -10    7.61    0.38
   1   2 -10    7.11    0.40
  -1  -2  10    6.99    0.40
   0   2 -10    1.38    0.22
   0   2 -10    1.29    0.21
   0   2 -10    1.01    0.16
   0  -2  10    1.51    0.22
  -1   2 -10    0.25    0.13
   1  -2  10    0.22    0.13
  -2   2 -10    1.09    0.22
   2  -2  10    0.72    0.19
  -3   2 -10    0.05    0.13
   3  -2  10    0.04    0.14
  -4   2 -10   -0.01    0.14
  -4   2 -10    0.01    0.15
  -5   2 -10    0.15    0.18
  -5   2 -10   -0.01    0.15
  -6   2 -10    0.14    0.22
  -6   2 -10   -0.10    0.18
   5   1 -10    0.31    0.15
  -5  -1  10    0.06    0.12
   4   1 -10    3.63    0.29
   4   1 -10    3.53    0.33
  -4  -1  10    3.61    0.29
   3   1 -10    0.16    0.11
   3   1 -10    0.21    0.11
  -3  -1  10    0.28    0.13
   2   1 -10    1.17    0.18
   2   1 -10    1.32    0.19
  -2  -1  10    1.59    0.22
   1   1 -10    0.91    0.15
   1   1 -10    0.87    0.18
   1   1 -10    0.45    0.13
  -1  -1  10    0.52    0.15
   0   1 -10    6.72    0.35
   0   1 -10    6.75    0.39
   0   1 -10    7.36    0.41
   0  -1  10    7.08    0.40
  -1   1 -10    0.38    0.14
   1  -1  10   -0.08    0.10
  -2   1 -10    0.10    0.14
  -2   1 -10    0.34    0.13
   2  -1  10   -0.03    0.12
  -3   1 -10    3.16    0.36
  -3   1 -10    3.26    0.34
   3  -1  10    3.75    0.38
  -4   1 -10    2.70    0.35
  -4   1 -10    1.97    0.31
  -5   1 -10    0.28    0.21
  -5   1 -10    0.22    0.20
  -6   1 -10   -0.05    0.19
  -6   1 -10    0.00    0.20
   5   0 -10    0.03    0.11
  -5   0  10    0.06    0.11
   4   0 -10    1.33    0.21
   4   0 -10    0.93    0.16
   4   0 -10    1.19    0.21
  -4   0  10    1.29    0.19
   3   0 -10    0.22    0.14
   3   0 -10    0.11    0.11
   3   0 -10    0.38    0.12
  -3   0  10   -0.07    0.11
   2   0 -10    0.32    0.11
   2   0 -10    0.35    0.13
   2   0 -10    0.36    0.17
  -2   0  10    0.25    0.12
   1   0 -10    4.71    0.31
   1   0 -10    5.16    0.30
   1   0 -10    4.55    0.32
  -1   0  10    4.39    0.32
   0   0 -10    0.53    0.15
   0   0 -10    0.44    0.15
   0   0  10    0.63    0.17
  -1   0 -10    6.09    0.30
  -1   0 -10    5.60    0.38
   1   0  10    6.59    0.39
  -2   0 -10    0.12    0.12
  -2   0 -10    0.16    0.12
   2   0  10    0.24    0.14
  -3   0 -10    0.60    0.18
  -3   0 -10    0.80    0.20
   3   0  10    0.99    0.24
  -4   0 -10    0.00    0.14
  -4   0 -10    0.08    0.16
  -5   0 -10    0.17    0.20
  -5   0 -10    0.07    0.14
  -6   0 -10   -0.08    0.21
  -6   0 -10   -0.21    0.19
   5  -1 -10    0.02    0.11
   5  -1 -10    0.12    0.14
   5  -1 -10    0.36    0.12
   4  -1 -10    1.37    0.21
   4  -1 -10    1.36    0.22
   4  -1 -10    0.85    0.16
  -4   1  10    1.11    0.18
   3  -1 -10    0.09    0.13
   3  -1 -10   -0.02    0.08
   3  -1 -10    0.09    0.10
  -3   1  10    0.19    0.11
   2  -1 -10    0.05    0.08
   2  -1 -10    0.08    0.13
   2  -1 -10    0.09    0.10
  -2   1  10    0.12    0.11
   1  -1 -10    6.14    0.32
   1  -1 -10    6.14    0.36
   1  -1 -10    5.63    0.37
  -1   1  10    5.84    0.35
   0  -1 -10    1.85    0.26
   0  -1 -10    1.67    0.24
   0   1  10    2.12    0.26
  -1  -1 -10    1.46    0.18
  -1  -1 -10    1.74    0.26
   1   1  10    1.30    0.22
  -2  -1 -10    0.33    0.14
  -2  -1 -10    0.16    0.13
   2   1  10    0.23    0.14
  -3  -1 -10    0.24    0.15
  -3  -1 -10    0.13    0.14
   3   1  10    0.13    0.14
  -4  -1 -10    0.62    0.22
  -4  -1 -10    0.60    0.21
  -5  -1 -10    0.55    0.21
  -5  -1 -10    0.60    0.22
   5  -2 -10    0.10    0.10
   5  -2 -10    0.07    0.11
   5  -2 -10    0.15    0.12
   4  -2 -10    0.11    0.11
   4  -2 -10    0.13    0.14
   4  -2 -10    0.18    0.11
  -4   2  10    0.28    0.14
   3  -2 -10    0.44    0.13
   3  -2 -10    0.73    0.15
   3  -2 -10    0.76    0.18
  -3   2  10    0.32    0.13
   2  -2 -10   29.21    0.87
   2  -2 -10   28.93    0.99
   2  -2 -10   29.41    0.98
  -2   2  10   26.97    0.92
   1  -2 -10   13.78    0.60
  -1   2  10   12.03    0.54
   0  -2 -10    2.22    0.28
   0  -2 -10    3.27    0.32
   0   2  10    2.46    0.27
  -1  -2 -10    1.87    0.21
  -1  -2 -10    1.39    0.24
   1   2  10    1.28    0.22
  -2  -2 -10    0.09    0.13
  -2  -2 -10    0.12    0.13
   2   2  10    0.09    0.13
  -3  -2 -10    0.10    0.13
  -3  -2 -10    0.15    0.15
   3   2  10    0.09    0.14
  -4  -2 -10    0.11    0.15
  -4  -2 -10   -0.08    0.15
  -5  -2 -10   -0.02    0.19
  -5  -2 -10    0.14    0.17
   5  -3 -10    0.00    0.12
   5  -3 -10   -0.06    0.11
   4  -3 -10    0.04    0.10
   4  -3 -10    0.06    0.10
   4  -3 -10    0.03    0.12
  -4   3  10    0.20    0.13
   3  -3 -10    0.01    0.08
   3  -3 -10    0.11    0.11
   3  -3 -10    0.04    0.12
  -3   3  10    0.29    0.13
   2  -3 -10    0.11    0.13
  -2   3  10    0.38    0.14
   1  -3 -10    0.14    0.13
  -1   3  10    0.16    0.13
   0  -3 -10   -0.06    0.09
   0  -3 -10   -0.05    0.10
   0   3  10   -0.16    0.10
  -1  -3 -10   -0.07    0.09
  -1  -3 -10    0.17    0.13
   1   3  10    0.17    0.13
  -2  -3 -10    2.63    0.29
  -2  -3 -10    2.50    0.34
   2   3  10    2.73    0.33
  -3  -3 -10   11.95    0.59
  -3  -3 -10   10.53    0.62
   3   3  10   12.14    0.62
  -4  -3 -10    1.28    0.29
  -4  -3 -10    1.80    0.32
  -5  -3 -10   -0.19    0.16
  -5  -3 -10    0.02    0.19
   5  -4 -10    0.30    0.15
   4  -4 -10    0.20    0.13
   4  -4 -10    0.54    0.17
  -4   4  10    0.29    0.15
   3  -4 -10    0.01    0.11
  -3   4  10    0.00    0.12
   2  -4 -10   -0.02    0.11
  -2   4  10   -0.03    0.11
   1  -4 -10    0.14    0.14
  -1   4  10   -0.01    0.11
   0  -4 -10   -0.01    0.11
   0   4  10    0.11    0.13
  -1  -4 -10   -0.07    0.10
  -1  -4 -10    0.07    0.13
   1   4  10   -0.05    0.12
  -2  -4 -10    1.08    0.25
  -2  -4 -10    0.52    0.17
   2   4  10    0.71    0.21
  -3  -4 -10    0.73    0.21
  -3  -4 -10    1.14    0.27
   3   4  10    0.64    0.22
  -4  -4 -10   -0.19    0.15
  -4  -4 -10   -0.05    0.18
   4  -5 -10   -0.05    0.11
  -4   5  10    0.03    0.13
   3  -5 -10    0.13    0.13
  -3   5  10    0.19    0.12
   2  -5 -10    0.77    0.20
  -2   5  10    0.76    0.18
  -1   5  10    1.08    0.21
   0   5  10    0.76    0.20
  -1  -5 -10    0.83    0.19
   1   5  10    0.53    0.19
  -2  -5 -10    0.13    0.19
  -2  -5 -10    0.33    0.17
   2   5  10   -0.03    0.14
  -3  -5 -10    0.17    0.17
  -3  -5 -10   -0.09    0.17
   3   5  10   -0.05    0.16
  -4  -5 -10    0.13    0.21
  -4  -5 -10    0.14    0.23
   4  -6 -10    1.17    0.22
  -4   6  10    1.29    0.19
   3  -6 -10    0.45    0.17
  -3   6  10    0.61    0.17
  -2   6  10   -0.04    0.12
  -1   6  10    0.91    0.21
   0   6  10    0.04    0.14
  -1  -6 -10    0.16    0.16
   1   6  10   -0.13    0.14
  -2  -6 -10    0.12    0.18
   2   6  10    0.01    0.15
  -3  -6 -10    0.14    0.19
  -3  -6 -10    0.04    0.20
   3   6  10    0.05    0.19
  -4   7  10    0.13    0.14
  -3   7  10    0.52    0.18
  -2   7  10   -0.03    0.12
  -1   7  10    0.02    0.15
   0   7  10   -0.02    0.14
  -1  -7 -10    1.16    0.27
   1   7  10    0.67    0.23
  -2  -7 -10    0.16    0.21
   2   7  10   -0.12    0.21
  -3   8  10   -0.11    0.14
  -2   8  10   -0.04    0.16
  -1   8  10    0.09    0.15
   0   8  10    0.19    0.17
   1   8  10   -0.04    0.17
  -1  -8  11   -0.21    0.18
   0  -8  11    0.11    0.19
  -1   8 -11   -0.16    0.20
   1  -8  11   -0.16    0.17
  -2   8 -11    0.36    0.21
  -3   8 -11    0.14    0.25
  -2  -7  11    0.08    0.19
  -1  -7  11    0.11    0.18
   0   7 -11   -0.05    0.18
   0  -7  11    0.18    0.19
  -1   7 -11    0.98    0.27
  -1   7 -11    0.82    0.19
   1  -7  11    0.99    0.25
  -2   7 -11    0.74    0.24
  -3   7 -11    0.13    0.19
  -4   7 -11    0.08    0.18
  -3  -6  11    0.02    0.15
  -2  -6  11    0.19    0.17
  -1  -6  11    0.33    0.17
   0   6 -11    0.07    0.18
   0   6 -11   -0.02    0.12
   0  -6  11    0.23    0.16
  -1   6 -11   -0.12    0.14
  -1   6 -11    0.05    0.12
   1  -6  11   -0.01    0.15
  -2   6 -11    0.16    0.18
   2  -6  11    0.21    0.17
  -3   6 -11    0.00    0.16
  -4   6 -11    0.03    0.17
  -4  -5  11   -0.31    0.12
  -3  -5  11    0.84    0.21
  -2  -5  11    1.36    0.25
   1   5 -11   -0.06    0.11
  -1  -5  11    0.13    0.14
   0   5 -11   -0.10    0.13
   0   5 -11   -0.08    0.10
   0  -5  11   -0.07    0.12
  -1   5 -11    0.44    0.18
   1  -5  11    0.82    0.22
  -2   5 -11    0.74    0.22
   2  -5  11    0.38    0.19
  -3   5 -11    0.07    0.15
  -4   5 -11    0.09    0.19
  -5   5 -11   -0.07    0.18
  -4  -4  11    0.48    0.18
  -3  -4  11   -0.07    0.14
   2   4 -11    1.11    0.21
  -2  -4  11    0.70    0.20
   1   4 -11    2.73    0.29
  -1  -4  11    3.01    0.34
   0   4 -11   -0.06    0.10
   0   4 -11    0.17    0.16
   0  -4  11    0.13    0.14
  -1   4 -11    0.01    0.13
   1  -4  11    0.03    0.13
  -2   4 -11    3.42    0.40
   2  -4  11    3.80    0.41
  -3   4 -11    3.76    0.42
  -4   4 -11    0.57    0.24
  -5   4 -11   -0.18    0.17
  -5  -3  11   -0.01    0.14
  -4  -3  11   -0.13    0.12
  -3  -3  11    0.42    0.16
   2   3 -11    1.07    0.20
  -2  -3  11    0.81    0.19
   1   3 -11    1.40    0.21
  -1  -3  11    1.30    0.23
   0   3 -11    1.43    0.21
   0   3 -11    1.26    0.24
   0  -3  11    1.06    0.23
  -1   3 -11    2.42    0.31
   1  -3  11    2.16    0.28
  -2   3 -11    0.15    0.16
   2  -3  11    0.17    0.15
  -3   3 -11    0.86    0.23
   3  -3  11    1.20    0.24
  -4   3 -11    0.22    0.18
  -5   3 -11   -0.09    0.16
   5   2 -11    0.01    0.13
  -5  -2  11    0.10    0.13
   4   2 -11    0.17    0.15
  -4  -2  11    0.20    0.15
   3   2 -11    0.03    0.13
   3   2 -11    0.08    0.12
  -3  -2  11    0.27    0.14
   2   2 -11    1.33    0.23
   2   2 -11    1.86    0.24
  -2  -2  11    1.17    0.21
   1   2 -11   -0.08    0.08
  -1  -2  11   -0.07    0.11
   0   2 -11    0.08    0.10
   0   2 -11    0.08    0.14
   0  -2  11    0.23    0.15
  -1   2 -11    0.73    0.20
   1  -2  11    0.93    0.20
  -2   2 -11    0.04    0.14
   2  -2  11    0.25    0.15
  -3   2 -11    1.10    0.25
   3  -2  11    0.88    0.22
  -4   2 -11    0.13    0.18
  -5   2 -11    0.08    0.19
   5   1 -11   -0.04    0.12
  -5  -1  11   -0.01    0.12
   4   1 -11   -0.04    0.12
  -4  -1  11    0.29    0.15
   3   1 -11    2.07    0.25
   3   1 -11    2.92    0.30
  -3  -1  11    2.24    0.27
   2   1 -11    0.01    0.10
   2   1 -11    0.07    0.12
  -2  -1  11    0.17    0.13
   1   1 -11    0.60    0.17
   1   1 -11    0.53    0.14
  -1  -1  11    0.43    0.16
   0   1 -11    0.31    0.14
   0  -1  11    0.33    0.15
  -1   1 -11    0.06    0.14
   1  -1  11    0.12    0.14
  -2   1 -11    0.38    0.17
   2  -1  11    0.26    0.16
  -3   1 -11    0.08    0.15
  -3   1 -11    0.21    0.20
   3  -1  11    0.07    0.15
  -4   1 -11    0.00    0.17
  -4   1 -11   -0.17    0.14
  -5   1 -11    0.28    0.21
  -5   1 -11   -0.27    0.17
   5   0 -11   -0.13    0.13
  -5   0  11   -0.07    0.12
   4   0 -11    0.06    0.10
   4   0 -11    0.09    0.13
  -4   0  11   -0.04    0.12
   3   0 -11    0.08    0.11
   3   0 -11    0.19    0.11
  -3   0  11   -0.01    0.12
   2   0 -11    0.12    0.12
   2   0 -11    0.17    0.11
  -2   0  11    0.37    0.14
   1   0 -11    1.31    0.22
   1   0 -11    0.90    0.17
  -1   0  11    0.93    0.19
   0   0 -11    0.53    0.17
   0   0  11    0.47    0.15
  -1   0 -11    2.11    0.29
   1   0  11    2.03    0.28
  -2   0 -11    4.63    0.39
  -2   0 -11    4.38    0.31
   2   0  11    4.88    0.38
  -3   0 -11   -0.04    0.14
  -3   0 -11   -0.08    0.13
   3   0  11   -0.15    0.14
  -4   0 -11   -0.01    0.16
  -4   0 -11   -0.03    0.15
  -5   0 -11    0.12    0.22
  -5   0 -11    0.44    0.24
   4  -1 -11   -0.05    0.11
   4  -1 -11    0.08    0.12
  -4   1  11   -0.10    0.11
   3  -1 -11   -0.07    0.09
   3  -1 -11    0.06    0.11
  -3   1  11    0.00    0.11
   2  -1 -11    0.13    0.12
   2  -1 -11    0.05    0.09
  -2   1  11    0.10    0.12
   1  -1 -11   -0.03    0.11
  -1   1  11    0.12    0.13
   0  -1 -11    0.68    0.19
   0   1  11    0.69    0.17
  -1  -1 -11   -0.05    0.12
   1   1  11    0.20    0.14
  -2  -1 -11   -0.02    0.12
  -2  -1 -11    0.17    0.14
   2   1  11    0.06    0.14
  -3  -1 -11    0.40    0.18
  -3  -1 -11    0.16    0.15
   3   1  11    0.40    0.19
  -4  -1 -11    0.09    0.18
  -4  -1 -11    0.20    0.16
  -5  -1 -11   -0.06    0.17
  -5  -1 -11    0.17    0.22
   4  -2 -11    0.04    0.11
   4  -2 -11   -0.02    0.11
  -4   2  11   -0.01    0.13
   3  -2 -11    1.47    0.22
   3  -2 -11    2.03    0.23
  -3   2  11    1.11    0.20
   2  -2 -11    2.67    0.26
   2  -2 -11    2.89    0.31
   1  -2 -11    2.15    0.28
  -1   2  11    2.38    0.27
   0  -2 -11    0.31    0.14
   0   2  11   -0.02    0.12
  -1  -2 -11    0.17    0.14
   1   2  11    0.11    0.13
  -2  -2 -11    0.71    0.18
  -2  -2 -11    0.90    0.24
   2   2  11    0.75    0.19
  -3  -2 -11    0.25    0.18
  -3  -2 -11    0.09    0.15
   3   2  11    0.21    0.16
  -4  -2 -11   -0.11    0.15
  -4  -2 -11   -0.31    0.14
  -5  -2 -11    0.08    0.21
  -5  -2 -11    0.05    0.20
   4  -3 -11    1.96    0.23
   4  -3 -11    1.62    0.23
  -4   3  11    1.72    0.22
   3  -3 -11    0.16    0.12
   3  -3 -11    0.12    0.13
  -3   3  11    0.21    0.14
   2  -3 -11    2.22    0.28
  -2   3  11    2.05    0.25
  -1   3  11    1.11    0.20
   0   3  11    0.03    0.12
  -1  -3 -11    0.00    0.12
   1   3  11    0.29    0.15
  -2  -3 -11    1.28    0.26
  -2  -3 -11    1.72    0.25
   2   3  11    2.00    0.29
  -3  -3 -11    3.01    0.40
  -3  -3 -11    3.93    0.40
   3   3  11    3.49    0.39
  -4  -3 -11    1.09    0.30
  -4  -3 -11    1.24    0.27
   4  -4 -11    0.25    0.14
  -4   4  11    0.17    0.14
   3  -4 -11    0.11    0.14
  -3   4  11   -0.13    0.12
   2  -4 -11    0.05    0.13
  -2   4  11    0.18    0.13
  -1   4  11    0.16    0.15
   0   4  11    0.26    0.15
   1   4  11    1.89    0.29
  -2  -4 -11    0.14    0.18
  -2  -4 -11   -0.05    0.15
   2   4  11    0.10    0.15
  -3  -4 -11    0.16    0.19
  -3  -4 -11    0.03    0.17
   3   4  11    0.43    0.22
  -4  -4 -11    0.05    0.20
  -4  -4 -11    0.18    0.22
   4  -5 -11    0.05    0.14
  -4   5  11   -0.03    0.13
   3  -5 -11    0.14    0.14
  -3   5  11    0.06    0.13
  -2   5  11    0.18    0.14
  -1   5  11    0.06    0.13
   0   5  11    0.18    0.15
   1   5  11    0.27    0.19
  -2  -5 -11   -0.04    0.15
   2   5  11   -0.25    0.15
  -3  -5 -11   -0.05    0.19
  -3  -5 -11    0.33    0.24
   3   5  11    0.32    0.23
  -4   6  11    0.24    0.15
  -3   6  11    1.70    0.24
  -2   6  11    0.37    0.16
  -1   6  11   -0.01    0.15
   0   6  11    0.01    0.13
   1   6  11   -0.08    0.16
   2   6  11    0.00    0.16
  -3   7  11    0.08    0.15
  -2   7  11    0.11    0.17
  -1   7  11   -0.01    0.15
   0   7  11   -0.22    0.15
   1   7  11    1.09    0.27
  -1   8  11    0.02    0.19
   0  -8  12   -0.22    0.19
  -1   8 -12    0.02    0.22
  -2  -7  12   -0.14    0.18
  -1  -7  12    0.06    0.19
   0  -7  12    0.27    0.19
  -1   7 -12   -0.02    0.19
   1  -7  12    0.07    0.18
  -2   7 -12    0.34    0.21
  -3   7 -12    0.09    0.21
  -3  -6  12    0.02    0.19
  -2  -6  12    0.75    0.23
  -1  -6  12    3.09    0.37
   0  -6  12    0.52    0.22
  -1   6 -12    0.06    0.19
   1  -6  12   -0.10    0.16
  -2   6 -12   -0.07    0.18
  -3   6 -12   -0.21    0.17
  -4   6 -12   -0.03    0.18
  -3  -5  12    0.04    0.17
  -2  -5  12    0.45    0.19
  -1  -5  12    0.48    0.20
   0  -5  12   -0.18    0.13
  -1   5 -12   -0.14    0.14
   1  -5  12   -0.15    0.13
  -2   5 -12    0.31    0.19
   2  -5  12    0.48    0.22
  -3   5 -12    1.14    0.28
  -4   5 -12    0.46    0.24
  -4  -4  12    0.51    0.18
  -3  -4  12   -0.03    0.15
  -2  -4  12   -0.07    0.14
  -1  -4  12   -0.05    0.12
   0   4 -12   -0.05    0.14
   0   4 -12   -0.15    0.11
   0  -4  12    0.01    0.15
  -1   4 -12   -0.07    0.13
   1  -4  12   -0.19    0.13
  -2   4 -12   -0.06    0.15
   2  -4  12   -0.18    0.16
  -3   4 -12    0.66    0.24
  -4   4 -12    0.65    0.25
  -4  -3  12   -0.01    0.15
  -3  -3  12    0.12    0.14
  -2  -3  12    0.19    0.15
   1   3 -12    0.09    0.11
  -1  -3  12    0.09    0.13
   0   3 -12    1.34    0.23
   0   3 -12    1.83    0.28
   0  -3  12    1.26    0.27
  -1   3 -12    1.78    0.29
   1  -3  12    1.49    0.25
  -2   3 -12    0.11    0.17
   2  -3  12   -0.10    0.15
  -3   3 -12    1.07    0.27
  -4   3 -12   -0.12    0.17
  -5   3 -12    0.07    0.20
  -5  -2  12    0.17    0.14
  -4  -2  12   -0.13    0.11
  -3  -2  12    0.13    0.13
   2   2 -12   -0.05    0.10
  -2  -2  12   -0.02    0.12
   1   2 -12    0.19    0.12
  -1  -2  12   -0.25    0.11
   0   2 -12    0.15    0.16
   0  -2  12    0.00    0.13
  -1   2 -12    0.40    0.19
   1  -2  12    0.28    0.17
  -2   2 -12   -0.04    0.14
   2  -2  12    0.07    0.16
  -3   2 -12   -0.14    0.15
   3  -2  12    0.10    0.18
  -4   2 -12   -0.10    0.18
  -5   2 -12    0.27    0.22
  -5  -1  12    0.06    0.13
   4   1 -12   -0.06    0.15
  -4  -1  12    0.34    0.16
   3   1 -12   -0.02    0.14
  -3  -1  12    0.06    0.15
   2   1 -12    0.03    0.10
  -2  -1  12   -0.06    0.12
   1   1 -12    0.05    0.10
  -1  -1  12    0.18    0.14
   0   1 -12    0.90    0.22
   0  -1  12    0.81    0.20
  -1   1 -12    0.53    0.19
   1  -1  12    0.27    0.16
  -2   1 -12    0.11    0.15
   2  -1  12   -0.07    0.15
  -3   1 -12   -0.04    0.16
   3  -1  12   -0.15    0.15
  -4   1 -12   -0.08    0.16
  -4   1 -12    0.14    0.19
  -5   1 -12    0.20    0.22
  -5   1 -12   -0.04    0.20
  -5   0  12    0.99    0.19
   4   0 -12   -0.03    0.12
  -4   0  12   -0.03    0.12
   3   0 -12    0.46    0.16
   3   0 -12    0.29    0.13
  -3   0  12    0.65    0.19
   2   0 -12    0.52    0.15
  -2   0  12    0.45    0.16
   1   0 -12    0.77    0.17
  -1   0  12    0.61    0.18
   0   0  12    0.20    0.15
  -1   0 -12    1.18    0.26
   1   0  12    1.17    0.23
  -2   0 -12    0.89    0.24
   2   0  12    0.97    0.24
  -3   0 -12    0.00    0.17
  -3   0 -12    0.03    0.14
   3   0  12    0.02    0.15
  -4   0 -12    0.01    0.18
  -4   0 -12   -0.04    0.20
  -5   0 -12    0.02    0.23
  -5   1  12    0.00    0.12
   4  -1 -12    0.10    0.14
  -4   1  12   -0.10    0.12
   3  -1 -12    0.61    0.18
   3  -1 -12    0.71    0.17
  -3   1  12    0.96    0.20
   2  -1 -12    4.01    0.35
   2  -1 -12    3.33    0.31
  -2   1  12    4.10    0.33
  -1   1  12    5.81    0.40
   0   1  12    3.19    0.34
  -1  -1 -12   -0.18    0.14
   1   1  12    0.04    0.14
  -2  -1 -12    0.28    0.17
   2   1  12   -0.11    0.15
  -3  -1 -12    0.31    0.17
  -3  -1 -12    0.11    0.16
   3   1  12    0.06    0.18
  -4  -1 -12    0.46    0.20
  -4  -1 -12    0.33    0.21
   4  -2 -12    0.14    0.13
  -4   2  12   -0.15    0.12
   3  -2 -12    0.20    0.14
   3  -2 -12    0.19    0.12
  -3   2  12    0.05    0.12
   2  -2 -12    0.08    0.14
  -2   2  12    0.05    0.14
  -1   2  12    0.70    0.19
   0   2  12    0.80    0.20
  -1  -2 -12    0.14    0.16
   1   2  12    0.21    0.14
  -2  -2 -12    1.36    0.29
   2   2  12    1.35    0.26
  -3  -2 -12    2.25    0.31
  -3  -2 -12    2.40    0.37
   3   2  12    1.35    0.28
  -4  -2 -12    0.72    0.26
  -4  -2 -12    0.78    0.25
   4  -3 -12    0.95    0.20
   4  -3 -12    0.44    0.17
  -4   3  12    0.44    0.16
   3  -3 -12    0.34    0.16
  -3   3  12    0.12    0.15
  -2   3  12   -0.14    0.12
  -1   3  12    0.03    0.13
   0   3  12    0.01    0.13
   1   3  12    0.37    0.16
  -2  -3 -12    0.20    0.19
   2   3  12    0.29    0.17
  -3  -3 -12    0.02    0.18
   3   3  12    0.20    0.19
  -4  -3 -12    0.38    0.23
  -4  -3 -12    0.44    0.24
  -4   4  12   -0.01    0.14
   3  -4 -12   -0.02    0.15
  -3   4  12    0.14    0.14
  -2   4  12   -0.05    0.12
  -1   4  12    0.01    0.13
   0   4  12    0.89    0.23
   1   4  12    0.87    0.23
   2   4  12   -0.06    0.16
  -3  -4 -12    0.25    0.22
   3   4  12    0.16    0.21
  -4   5  12    0.10    0.15
  -3   5  12    0.06    0.15
  -2   5  12    0.08    0.13
  -1   5  12   -0.18    0.12
   0   5  12    0.18    0.17
   1   5  12    0.21    0.18
   2   5  12    0.03    0.17
  -3   6  12    0.45    0.18
  -2   6  12    0.06    0.16
  -1   6  12    0.13    0.16
   0   6  12    0.02    0.17
   1   6  12    0.34    0.22
  -2   7  12    0.35    0.19
  -1   7  12    0.00    0.18
   0   7  12    0.21    0.22
   0  -7  13    0.23    0.21
   1  -7  13    0.20    0.22
  -2  -6  13    0.65    0.24
  -1  -6  13    0.38    0.21
   0  -6  13    0.13    0.20
  -1   6 -13   -0.02    0.24
   1  -6  13    0.20    0.20
  -2   6 -13   -0.23    0.18
  -3   6 -13    0.12    0.23
  -3  -5  13   -0.17    0.18
  -2  -5  13    0.50    0.21
  -1  -5  13    0.22    0.19
   0  -5  13    0.06    0.17
  -1   5 -13   -0.02    0.19
   1  -5  13    0.18    0.18
  -2   5 -13   -0.16    0.15
   2  -5  13    0.02    0.19
  -3   5 -13    0.61    0.25
  -3  -4  13    0.00    0.16
  -2  -4  13   -0.13    0.15
  -1  -4  13   -0.10    0.16
   0  -4  13   -0.05    0.16
  -1   4 -13    0.12    0.16
   1  -4  13   -0.07    0.15
  -2   4 -13   -0.03    0.18
   2  -4  13   -0.24    0.17
  -3   4 -13    0.12    0.20
  -4   4 -13   -0.05    0.20
  -4  -3  13   -0.03    0.16
  -3  -3  13    0.11    0.15
  -2  -3  13    0.11    0.16
  -1  -3  13    0.51    0.21
   0  -3  13   -0.03    0.15
  -1   3 -13    0.18    0.17
   1  -3  13    0.18    0.17
  -2   3 -13   -0.08    0.17
   2  -3  13   -0.14    0.15
  -3   3 -13   -0.14    0.18
  -4   3 -13   -0.01    0.21
  -4  -2  13    0.13    0.15
  -3  -2  13    0.61    0.19
  -2  -2  13    0.05    0.15
  -1  -2  13    0.02    0.15
   0  -2  13    1.44    0.27
  -1   2 -13    0.71    0.24
   1  -2  13    0.70    0.21
  -2   2 -13   -0.06    0.16
   2  -2  13   -0.08    0.17
  -3   2 -13    0.28    0.20
  -4   2 -13    0.39    0.24
  -4  -1  13   -0.09    0.14
  -3  -1  13   -0.13    0.13
  -2  -1  13   -0.04    0.14
  -1  -1  13    0.22    0.15
   0  -1  13    0.00    0.15
  -1   1 -13    1.11    0.26
   1  -1  13    1.30    0.27
  -2   1 -13    0.55    0.24
   2  -1  13    0.91    0.23
  -3   1 -13    0.00    0.17
  -4   1 -13    0.09    0.19
  -4   0  13    0.02    0.14
  -3   0  13   -0.07    0.14
  -2   0  13    0.10    0.13
  -1   0  13    0.19    0.15
   0   0  13   -0.06    0.14
  -1   0 -13    0.46    0.22
   1   0  13    0.29    0.18
  -2   0 -13   -0.20    0.15
   2   0  13   -0.07    0.15
  -3   0 -13   -0.25    0.17
   3   0  13    0.00    0.21
  -4   0 -13    0.53    0.28
   4  -1 -13    0.20    0.16
  -4   1  13   -0.14    0.13
  -3   1  13    0.16    0.14
  -2   1  13    1.53    0.25
  -1   1  13    5.20    0.41
   0   1  13    0.71    0.22
   1   1  13    0.16    0.18
  -2  -1 -13   -0.31    0.16
   2   1  13    0.05    0.17
  -3  -1 -13   -0.32    0.18
   3   1  13    0.04    0.19
  -4  -1 -13   -0.25    0.20
  -4   2  13   -0.01    0.15
  -3   2  13   -0.02    0.14
  -2   2  13    0.16    0.14
  -1   2  13    0.20    0.17
   0   2  13    0.07    0.15
   1   2  13    0.06    0.16
  -2  -2 -13    0.09    0.16
   2   2  13    0.01    0.17
  -3  -2 -13    2.02    0.36
   3   2  13    1.27    0.30
  -4   3  13   -0.09    0.14
  -3   3  13   -0.08    0.12
  -2   3  13    0.21    0.16
  -1   3  13   -0.15    0.13
   0   3  13   -0.06    0.14
   1   3  13    0.23    0.18
   2   3  13    0.16    0.17
  -3  -3 -13    0.09    0.20
  -4   4  13   -0.11    0.16
  -3   4  13    0.18    0.17
  -2   4  13   -0.10    0.14
  -1   4  13    0.10    0.16
   0   4  13   -0.18    0.13
   1   4  13    0.15    0.17
   2   4  13    0.09    0.19
  -2   5  13    0.20    0.16
  -1   5  13    0.22    0.17
   0   5  13    0.44    0.21
   1   5  13    0.10    0.20
  -2   6  13    0.31    0.18
  -1   6  13    0.17    0.19
   0   6  13    0.12    0.20
  -1  -5  14    0.83    0.26
   0  -5  14    0.01    0.20
   1  -5  14    0.26    0.22
  -2   5 -14    0.14    0.21
  -2  -4  14    0.14    0.20
  -1  -4  14    0.07    0.18
   0  -4  14   -0.01    0.20
   1  -4  14    0.58    0.22
  -2   4 -14    0.71    0.29
   2  -4  14    0.39    0.26
  -3   4 -14   -0.04    0.22
  -3  -3  14    0.08    0.18
  -2  -3  14    0.18    0.17
  -1  -3  14    0.02    0.15
   0  -3  14   -0.28    0.16
   1  -3  14    0.14    0.19
  -2   3 -14    0.30    0.24
   2  -3  14    0.74    0.24
  -3   3 -14   -0.18    0.21
  -3  -2  14    0.32    0.17
  -2  -2  14    0.16    0.17
  -1  -2  14   -0.21    0.16
   0  -2  14    0.49    0.20
   1  -2  14    0.18    0.17
  -2   2 -14   -0.03    0.19
   2  -2  14    0.13    0.20
  -3   2 -14    0.03    0.20
  -3  -1  14   -0.01    0.17
  -2  -1  14    0.00    0.16
  -1  -1  14    0.36    0.19
   0  -1  14   -0.12    0.15
   1  -1  14    0.03    0.16
  -2   1 -14    0.33    0.24
   2  -1  14    1.00    0.28
  -3   1 -14    0.23    0.24
  -3   0  14   -0.04    0.16
  -2   0  14    0.29    0.17
  -1   0  14    0.57    0.20
   0   0  14   -0.11    0.15
   1   0  14   -0.09    0.16
   2   0  14    0.05    0.20
  -3   0 -14    0.25    0.24
  -3   1  14    0.12    0.16
  -2   1  14    0.14    0.17
  -1   1  14    0.16    0.16
   0   1  14    0.22    0.19
   1   1  14   -0.09    0.18
   2   1  14    0.18    0.20
  -3  -1 -14    0.08    0.24
  -3   2  14    1.06    0.24
  -2   2  14   -0.01    0.15
  -1   2  14    1.02    0.25
   0   2  14    0.55    0.22
   1   2  14   -0.05    0.17
   2   2  14    0.30    0.21
  -3   3  14    0.17    0.17
  -2   3  14    0.16    0.16
  -1   3  14    0.45    0.20
   0   3  14   -0.13    0.18
   1   3  14    0.36    0.21
   2   3  14    0.59    0.27
  -2   4  14    0.25    0.18
  -1   4  14    0.20    0.20
   0   4  14    0.17    0.20
   1   4  14    0.30    0.23
   0  -4  15    0.03    0.22
   1  -4  15    0.31    0.24
  -1  -3  15   -0.18    0.19
   0  -3  15   -0.41    0.17
   1  -3  15   -0.07    0.20
  -2  -2  15   -0.10    0.18
  -1  -2  15   -0.24    0.18
   0  -2  15    0.05    0.19
   1  -2  15   -0.10    0.21
   2  -2  15    0.46    0.23
  -2  -1  15   -0.07    0.18
  -1  -1  15    0.28    0.18
   0  -1  15    0.13    0.18
   1  -1  15    0.07    0.21
   2  -1  15    0.12    0.23
  -2   0  15    0.29    0.19
  -1   0  15    1.65    0.29
   0   0  15    3.22    0.41
   1   0  15    0.56    0.23
   2   0  15    0.14    0.24
  -2   1  15    0.20    0.17
  -1   1  15   -0.03    0.16
   0   1  15   -0.18    0.17
   1   1  15   -0.14    0.19
  -2   2  15    0.18    0.18
  -1   2  15    0.01    0.20
   0   2  15   -0.10    0.20
   1   2  15    0.16    0.22
  -1   3  15   -0.07    0.20
   0   0   0    0.00    0.00
;
_shelx_hkl_checksum              52762
loop_
_space_group_symop_operation_xyz
'x, y, z'
'-x, -y, -z'
loop_
_atom_site_label
_atom_site_type_symbol
_atom_site_fract_x
_atom_site_fract_y
_atom_site_fract_z
_atom_site_U_iso_or_equiv
_atom_site_adp_type
_atom_site_occupancy
_atom_site_site_symmetry_order
_atom_site_calc_flag
_atom_site_refinement_flags_posn
_atom_site_refinement_flags_adp
_atom_site_refinement_flags_occupancy
_atom_site_disorder_assembly
_atom_site_disorder_group
H7 H 0.464(3) 0.578(2) 0.7357(15) 0.061(5) Uiso 1 1 d . . . . .
C9 C 0.0264(3) 0.85474(18) 0.93676(13) 0.0389(4) Uani 1 1 d . . . . .
N1 N -0.1215(2) 0.57999(15) 0.85657(12) 0.0451(3) Uani 1 1 d . . . . .
C1 C -0.0759(3) 0.43517(19) 0.79624(14) 0.0433(4) Uani 1 1 d . . . . .
O1 O 0.27461(18) 0.70242(14) 0.83037(10) 0.0505(3) Uani 1 1 d . . . . .
C11 C 0.2085(3) 0.99073(19) 0.94182(14) 0.0439(4) Uani 1 1 d . . . . .
H11 H 0.348951 0.984693 0.902630 0.053 Uiso 1 1 calc R U . . .
C8 C 0.0499(3) 0.70049(19) 0.87069(13) 0.0411(4) Uani 1 1 d . . . . .
C6 C 0.1304(3) 0.43238(18) 0.73381(14) 0.0436(4) Uani 1 1 d . . . . .
C10 C -0.1821(3) 0.86646(19) 0.99578(14) 0.0443(4) Uani 1 1 d . . . . .
H10 H -0.305027 0.776717 0.993019 0.053 Uiso 1 1 calc R U . . .
C7 C 0.3011(3) 0.5912(2) 0.73021(15) 0.0476(4) Uani 1 1 d . . . . .
F3 F 0.2965(2) 0.58656(14) 0.51683(10) 0.0797(4) Uani 1 1 d . . . . .
C5 C 0.1686(3) 0.2884(2) 0.67521(16) 0.0535(4) Uani 1 1 d . . . . .
H5 H 0.307999 0.286078 0.634114 0.064 Uiso 1 1 calc R U . . .
F1 F 0.0577(2) 0.72095(14) 0.60505(10) 0.0772(4) Uani 1 1 d . . . . .
C3 C -0.2048(4) 0.1507(2) 0.73951(17) 0.0600(5) Uani 1 1 d . . . . .
H3 H -0.317964 0.055769 0.741060 0.072 Uiso 1 1 calc R U . . .
C4 C -0.0009(4) 0.1480(2) 0.67786(17) 0.0602(5) Uani 1 1 d . . . . .
H4 H 0.023702 0.051462 0.637663 0.072 Uiso 1 1 calc R U . . .
C2 C -0.2441(3) 0.2928(2) 0.79928(16) 0.0539(4) Uani 1 1 d . . . . .
H2 H -0.382539 0.293511 0.841514 0.065 Uiso 1 1 calc R U . . .
F2 F 0.4284(3) 0.81618(15) 0.61108(12) 0.1049(5) Uani 1 1 d . . . . .
C12 C 0.2713(4) 0.6791(2) 0.61565(17) 0.0594(5) Uani 1 1 d . . . . .
loop_
_atom_site_aniso_label
_atom_site_aniso_U_11
_atom_site_aniso_U_22
_atom_site_aniso_U_33
_atom_site_aniso_U_23
_atom_site_aniso_U_13
_atom_site_aniso_U_12
C9 0.0350(8) 0.0431(9) 0.0381(8) 0.0015(7) -0.0024(6) 0.0060(6)
N1 0.0384(7) 0.0426(7) 0.0526(8) 0.0003(6) 0.0020(6) 0.0033(6)
C1 0.0448(9) 0.0402(9) 0.0446(9) 0.0026(7) -0.0044(7) 0.0070(7)
O1 0.0343(6) 0.0530(7) 0.0611(7) -0.0158(5) 0.0012(5) 0.0041(5)
C11 0.0345(8) 0.0507(9) 0.0457(9) -0.0010(7) 0.0042(6) 0.0056(7)
C8 0.0343(8) 0.0462(9) 0.0432(9) 0.0004(7) -0.0005(6) 0.0085(7)
C6 0.0432(9) 0.0398(9) 0.0478(9) 0.0007(7) -0.0049(7) 0.0085(7)
C10 0.0372(8) 0.0424(9) 0.0500(9) -0.0014(7) 0.0014(7) -0.0010(7)
C7 0.0375(9) 0.0469(9) 0.0575(11) -0.0102(8) 0.0043(7) 0.0085(7)
F3 0.1083(10) 0.0675(7) 0.0616(7) -0.0061(6) 0.0258(6) 0.0102(6)
C5 0.0572(11) 0.0468(10) 0.0581(11) -0.0016(8) -0.0015(8) 0.0153(8)
F1 0.0971(10) 0.0717(8) 0.0703(8) 0.0143(6) 0.0024(6) 0.0327(7)
C3 0.0722(13) 0.0403(10) 0.0632(12) 0.0055(8) -0.0055(9) -0.0023(8)
C4 0.0820(14) 0.0393(10) 0.0593(11) -0.0012(8) -0.0073(9) 0.0134(9)
C2 0.0526(10) 0.0480(10) 0.0582(11) 0.0067(8) 0.0003(8) -0.0006(8)
F2 0.1290(12) 0.0647(8) 0.1028(10) 0.0048(7) 0.0242(8) -0.0370(8)
C12 0.0678(12) 0.0428(10) 0.0626(12) -0.0044(8) 0.0159(9) -0.0039(9)
loop_
_atom_type_symbol
_atom_type_description
_atom_type_scat_dispersion_real
_atom_type_scat_dispersion_imag
_atom_type_scat_source
C C 0.0033 0.0016 'International Tables Vol C Tables 4.2.6.8 and 6.1.1.4'
H H 0.0000 0.0000 'International Tables Vol C Tables 4.2.6.8 and 6.1.1.4'
F F 0.0171 0.0103 'International Tables Vol C Tables 4.2.6.8 and 6.1.1.4'
N N 0.0061 0.0033 'International Tables Vol C Tables 4.2.6.8 and 6.1.1.4'
O O 0.0106 0.0060 'International Tables Vol C Tables 4.2.6.8 and 6.1.1.4'
loop_
_geom_angle_atom_site_label_1
_geom_angle_atom_site_label_2
_geom_angle_atom_site_label_3
_geom_angle
_geom_angle_site_symmetry_1
_geom_angle_site_symmetry_3
_geom_angle_publ_flag
C10 C9 C11 118.80(14) . . ?
C10 C9 C8 119.53(14) . . ?
C11 C9 C8 121.67(14) . . ?
C8 N1 C1 117.58(14) . . ?
C6 C1 C2 119.63(15) . . ?
C6 C1 N1 121.58(14) . . ?
C2 C1 N1 118.79(15) . . ?
C8 O1 C7 117.17(12) . . ?
C10 C11 C9 120.55(14) 2_577 . ?
N1 C8 O1 125.39(14) . . ?
N1 C8 C9 122.41(14) . . ?
O1 C8 C9 112.18(12) . . ?
C5 C6 C1 120.01(15) . . ?
C5 C6 C7 122.84(15) . . ?
C1 C6 C7 117.12(14) . . ?
C11 C10 C9 120.66(14) 2_577 . ?
O1 C7 C6 111.94(13) . . ?
O1 C7 C12 107.15(14) . . ?
C6 C7 C12 112.65(14) . . ?
C4 C5 C6 119.85(17) . . ?
C4 C3 C2 120.61(17) . . ?
C3 C4 C5 120.14(17) . . ?
C3 C2 C1 119.75(17) . . ?
F2 C12 F3 106.90(15) . . ?
F2 C12 F1 106.56(16) . . ?
F3 C12 F1 106.56(16) . . ?
F2 C12 C7 112.29(16) . . ?
F3 C12 C7 111.88(15) . . ?
F1 C12 C7 112.26(14) . . ?
loop_
_geom_bond_atom_site_label_1
_geom_bond_atom_site_label_2
_geom_bond_distance
_geom_bond_site_symmetry_2
_geom_bond_publ_flag
C9 C10 1.389(2) . ?
C9 C11 1.394(2) . ?
C9 C8 1.469(2) . ?
N1 C8 1.2736(19) . ?
N1 C1 1.412(2) . ?
C1 C6 1.385(2) . ?
C1 C2 1.390(2) . ?
O1 C8 1.3687(17) . ?
O1 C7 1.4330(19) . ?
C11 C10 1.374(2) 2_577 ?
C6 C5 1.383(2) . ?
C6 C7 1.501(2) . ?
C7 C12 1.513(3) . ?
F3 C12 1.329(2) . ?
C5 C4 1.382(2) . ?
F1 C12 1.331(2) . ?
C3 C4 1.368(3) . ?
C3 C2 1.377(2) . ?
F2 C12 1.326(2) . ?
