#------------------------------------------------------------------------------
#$Date: 2020-10-04 06:34:55 +0300 (Sun, 04 Oct 2020) $
#$Revision: 257127 $
#$URL: file:///home/coder/svn-repositories/cod/cif/4/03/87/4038748.cif $
#------------------------------------------------------------------------------
#
# This file is available in the Crystallography Open Database (COD),
# http://www.crystallography.net/
#
# All data on this site have been placed in the public domain by the
# contributors.
#
data_4038748
loop_
_publ_author_name
'Chernykh, Anton V.'
'Olifir, Oleksandr S.'
'Kuchkovska, Yuliya O.'
'Volochnyuk, Dmitriy M.'
'Yarmolchuk, Vladimir S.'
'Grygorenko, Oleksandr O.'
_publ_section_title
;
 Fluoroalkyl-Substituted Cyclopropane Derivatives: Synthesis and
 Physicochemical Properties.
;
_journal_issue                   19
_journal_name_full               'The Journal of organic chemistry'
_journal_page_first              12692
_journal_page_last               12702
_journal_paper_doi               10.1021/acs.joc.0c01848
_journal_volume                  85
_journal_year                    2020
_chemical_formula_moiety         'C5 H6 F2 O2'
_chemical_formula_sum            'C5 H6 F2 O2'
_chemical_formula_weight         136.10
_space_group_crystal_system      monoclinic
_space_group_IT_number           14
_space_group_name_Hall           '-P 2ybc'
_space_group_name_H-M_alt        'P 1 21/c 1'
_atom_sites_solution_hydrogens   mixed
_audit_creation_method           SHELXL-2016/4
_cell_angle_alpha                90
_cell_angle_beta                 94.341(4)
_cell_angle_gamma                90
_cell_formula_units_Z            4
_cell_length_a                   5.4220(3)
_cell_length_b                   8.6988(5)
_cell_length_c                   12.1636(7)
_cell_measurement_reflns_used    814
_cell_measurement_temperature    123(2)
_cell_measurement_theta_max      20.93
_cell_measurement_theta_min      2.88
_cell_volume                     572.05(6)
_computing_cell_refinement       'Bruker SAINT'
_computing_data_collection       'Bruker APEX2'
_computing_data_reduction        'Bruker SAINT'
_computing_molecular_graphics    'Bruker SHELXTL'
_computing_publication_material  'Bruker SHELXTL'
_computing_structure_refinement  'SHELXL-2016/4 (Sheldrick, 2016)'
_computing_structure_solution    'SHELXS-97 (Sheldrick 2008)'
_diffrn_ambient_temperature      123(2)
_diffrn_measured_fraction_theta_full 1.000
_diffrn_measured_fraction_theta_max 0.996
_diffrn_measurement_device_type  'Bruker APEX-II CCD'
_diffrn_measurement_method       '\f and \w scans'
_diffrn_radiation_type           MoK\a
_diffrn_radiation_wavelength     0.71073
_diffrn_reflns_av_R_equivalents  0.0487
_diffrn_reflns_av_unetI/netI     0.0494
_diffrn_reflns_Laue_measured_fraction_full 1.000
_diffrn_reflns_Laue_measured_fraction_max 0.996
_diffrn_reflns_limit_h_max       6
_diffrn_reflns_limit_h_min       -6
_diffrn_reflns_limit_k_max       10
_diffrn_reflns_limit_k_min       -10
_diffrn_reflns_limit_l_max       15
_diffrn_reflns_limit_l_min       -15
_diffrn_reflns_number            5050
_diffrn_reflns_point_group_measured_fraction_full 1.000
_diffrn_reflns_point_group_measured_fraction_max 0.996
_diffrn_reflns_theta_full        25.242
_diffrn_reflns_theta_max         26.709
_diffrn_reflns_theta_min         2.882
_diffrn_source                   'sealed tube'
_exptl_absorpt_coefficient_mu    0.160
_exptl_absorpt_correction_T_max  0.9193
_exptl_absorpt_correction_T_min  0.8373
_exptl_absorpt_correction_type   numerical
_exptl_absorpt_process_details   face-indexing
_exptl_crystal_colour            colourless
_exptl_crystal_density_diffrn    1.580
_exptl_crystal_description       block
_exptl_crystal_F_000             280
_exptl_crystal_size_max          0.240
_exptl_crystal_size_mid          0.090
_exptl_crystal_size_min          0.070
_refine_diff_density_max         0.224
_refine_diff_density_min         -0.190
_refine_diff_density_rms         0.050
_refine_ls_extinction_method     none
_refine_ls_goodness_of_fit_ref   1.194
_refine_ls_hydrogen_treatment    mixed
_refine_ls_matrix_type           full
_refine_ls_number_parameters     86
_refine_ls_number_reflns         1202
_refine_ls_number_restraints     0
_refine_ls_restrained_S_all      1.194
_refine_ls_R_factor_all          0.0757
_refine_ls_R_factor_gt           0.0468
_refine_ls_shift/su_max          0.000
_refine_ls_shift/su_mean         0.000
_refine_ls_structure_factor_coef Fsqd
_refine_ls_weighting_details
'w=1/[\s^2^(Fo^2^)+(0.0355P)^2^] where P=(Fo^2^+2Fc^2^)/3'
_refine_ls_weighting_scheme      calc
_refine_ls_wR_factor_gt          0.0907
_refine_ls_wR_factor_ref         0.0994
_reflns_Friedel_coverage         0.000
_reflns_number_gt                848
_reflns_number_total             1202
_reflns_threshold_expression     'I > 2\s(I)'
_cod_data_source_file            jo0c01848_si_002.cif
_cod_data_source_block           xr182
_cod_depositor_comments
'Adding full bibliography for 4038748--4038751.cif.'
_cod_original_sg_symbol_H-M      'P 21/c'
_cod_database_code               4038748
_shelx_shelxl_version_number     2016/4
_shelx_space_group_comment
;
The symmetry employed for this shelxl refinement is uniquely defined
by the following loop, which should always be used as a source of
symmetry information in preference to the above space-group names.
They are only intended as comments.
;
_shelx_estimated_absorpt_t_min   0.963
_shelx_estimated_absorpt_t_max   0.989
_shelx_res_file
;
TITL xr182 in P2(1)/c
 xr182.res created by SHELXL-2016/4 at 11:15:46 on 18-Jul-2019
CELL 0.71073   5.42200   8.69880  12.16360  90.0000  94.3407  90.0000
ZERR    4.00   0.00030   0.00050   0.00070   0.0000   0.0042   0.0000
LATT 1
SYMM -X, 0.5+Y, 0.5-Z
SFAC C  H  O  F
UNIT 20  24  8  8
L.S. 4
ACTA
BOND
FMAP 2
PLAN 20
SIZE 0.07 0.09 0.24
TEMP -150
WGHT    0.035500
FVAR       0.36564
MOLE 1
F1    4    0.218867    0.170208    0.658707    11.00000    0.05612    0.03580 =
         0.03694   -0.00891    0.00013   -0.00967
F2    4    0.545905    0.315066    0.684089    11.00000    0.04532    0.04626 =
         0.04340   -0.00132    0.02075   -0.00946
O1    3    0.195292    0.102556    0.938163    11.00000    0.02439    0.02611 =
         0.03639    0.00770    0.00580    0.00384
O2    3   -0.198579    0.167769    0.960398    11.00000    0.02313    0.02876 =
         0.04261    0.01096    0.00722    0.00097
C1    1    0.358704    0.251102    0.738258    11.00000    0.03264    0.03487 =
         0.02460   -0.00068    0.00639   -0.00666
AFIX  13
H1    2    0.426146    0.181286    0.798563    11.00000   -1.20000
AFIX   0
C2    1    0.209130    0.374683    0.782453    11.00000    0.03125    0.02254 =
         0.02580    0.00641    0.00167   -0.00167
AFIX  13
H2    2    0.147993    0.453647    0.727178    11.00000   -1.20000
AFIX   0
C3    1    0.040533    0.346579    0.874754    11.00000    0.02458    0.02252 =
         0.02995    0.00196    0.00407    0.00066
AFIX  13
H3    2   -0.114453    0.409275    0.871246    11.00000   -1.20000
AFIX   0
C4    1    0.279051    0.436104    0.895180    11.00000    0.03108    0.02435 =
         0.02932   -0.00160    0.00199   -0.00433
AFIX  23
H4A   2    0.266721    0.548481    0.906408    11.00000   -1.20000
H4B   2    0.417689    0.385692    0.938939    11.00000   -1.20000
AFIX   0
C5    1    0.024056    0.194087    0.926543    11.00000    0.02371    0.02563 =
         0.02263   -0.00198    0.00309   -0.00253
H2O   2   -0.200771    0.076618    0.997733    11.00000    0.07200
HKLF 4




REM  xr182 in P2(1)/c
REM R1 =  0.0468 for     848 Fo > 4sig(Fo)  and  0.0757 for all    1202 data
REM     86 parameters refined using      0 restraints

END

WGHT      0.0381      0.1446

REM Highest difference peak  0.224,  deepest hole -0.190,  1-sigma level  0.050
Q1    1   0.1224  0.3515  0.8301  11.00000  0.05    0.22
Q2    1   0.0546  0.2771  0.9045  11.00000  0.05    0.21
Q3    1   0.2695  0.2986  0.7778  11.00000  0.05    0.19
Q4    1   0.0957  0.1406  0.8977  11.00000  0.05    0.19
Q5    1   0.0905  0.4023  0.7268  11.00000  0.05    0.18
Q6    1   0.0000  0.0000  1.0000  10.50000  0.05    0.18
Q7    1   0.1890  0.4053  0.7758  11.00000  0.05    0.17
Q8    1   0.4606  0.2575  0.6120  11.00000  0.05    0.16
Q9    1   0.1225  0.4177  0.9286  11.00000  0.05    0.16
Q10   1   0.3879  0.1564  0.7810  11.00000  0.05    0.16
Q11   1  -0.0763  0.3723  0.8410  11.00000  0.05    0.16
Q12   1   0.2254  0.0752  1.0371  11.00000  0.05    0.15
Q13   1   0.2902  0.4233  0.8235  11.00000  0.05    0.15
Q14   1  -0.1983  0.1007  0.9773  11.00000  0.05    0.14
Q15   1   0.1560  0.6826  0.8780  11.00000  0.05    0.14
Q16   1   0.0765  0.3907  0.9785  11.00000  0.05    0.14
Q17   1   0.5208  0.1383  0.7607  11.00000  0.05    0.14
Q18   1   0.6246  0.3002  0.8638  11.00000  0.05    0.14
Q19   1  -0.1161  0.2469  0.7762  11.00000  0.05    0.14
Q20   1   0.4793  0.6644  0.9406  11.00000  0.05    0.13
;
_shelx_res_checksum              60013
_shelx_hkl_file
;
   1   0   0   68.52    2.39
   1   0   0   61.97    2.36
  -1   0   0   67.12    2.38
  -1   0   0   63.93    2.37
   2   0   0  213.50    7.41
   2   0   0  211.90    7.41
  -2   0   0  222.17    7.43
  -2   0   0  210.22    7.40
   3   0   0   85.51    3.52
   3   0   0   85.58    3.54
  -4   0   0   85.50    3.74
   4   0   0   75.79    3.61
   4   0   0   86.94    3.77
   5   0   0   77.45    3.82
  -5   0   0   75.74    3.79
  -6   0   0    1.99    0.96
   6   0   0    2.29    1.14
  -6   0   0    3.33    1.21
   0  -1   0   -0.85    0.12
   0  -1   0   -0.71    0.10
   0   1   0   -0.64    0.14
   0   1   0   -0.94    0.08
  -1  -1   0  380.49   12.51
  -1  -1   0  374.95   12.41
  -1  -1   0  374.39   12.50
  -1   1   0  370.66   12.51
  -1   1   0  389.54   12.32
  -1   1   0  371.96   12.36
   1   1   0  383.78   12.43
   1   1   0  382.60   12.50
  -1   1   0  387.05   12.31
   1   1   0  370.12   12.50
  -2  -1   0   20.01    1.24
   2  -1   0   17.06    1.02
  -2  -1   0   20.22    1.10
  -2  -1   0   21.82    1.26
  -2   1   0   20.74    1.08
   2   1   0   21.19    1.11
  -2   1   0   17.14    1.17
   2   1   0   20.71    1.24
  -3  -1   0   18.99    1.41
  -3  -1   0   18.42    1.26
   3  -1   0   20.87    1.30
   3   1   0   19.40    1.41
   3   1   0   18.51    1.25
   4  -1   0   22.87    1.88
  -4  -1   0   21.53    1.97
   4   1   0   22.08    1.60
   4   1   0   24.96    2.07
   5  -1   0    1.04    0.78
  -5  -1   0    1.04    0.93
   5   1   0    0.10    0.85
   5   1   0   -0.27    0.74
  -5   1   0   -0.10    0.73
  -5   1   0    0.46    0.64
  -6  -1   0   18.60    2.25
  -6   1   0   27.96    2.55
  -6   1   0   21.77    2.21
   6   1   0   14.94    2.10
   0  -2   0  570.09   19.00
   0  -2   0  584.31   18.88
   0   2   0  589.35   18.99
   0   2   0  584.27   18.88
   1  -2   0    5.99    0.36
  -1  -2   0    7.50    0.71
   1  -2   0    7.12    0.61
  -1  -2   0    6.04    0.75
  -1  -2   0    6.41    0.67
  -1   2   0    7.05    0.61
  -1   2   0    6.10    0.38
   1   2   0    5.21    0.69
   1   2   0    7.71    0.70
  -2  -2   0   48.98    2.29
  -2  -2   0   48.87    2.12
  -2   2   0   47.58    2.00
   2   2   0   47.96    2.11
  -2   2   0   50.39    1.92
   2   2   0   48.35    2.27
  -2   2   0   48.42    1.92
  -3  -2   0    0.13    0.43
  -3  -2   0   -0.11    0.39
   3   2   0   -0.44    0.50
  -3   2   0    0.27    0.44
  -3   2   0   -0.25    0.29
   3   2   0    0.37    0.48
  -4  -2   0    1.23    0.85
   4   2   0    0.19    0.56
   4   2   0    0.42    0.64
  -4   2   0    1.58    0.57
  -5  -2   0   12.71    1.71
  -5   2   0   15.34    1.58
   5   2   0   12.73    1.80
   5   2   0   13.97    1.65
  -6  -2   0   -0.39    1.00
   6   2   0    1.75    1.18
  -6   2   0    1.46    0.97
  -6   2   0    2.66    0.87
   0  -3   0   -0.04    0.29
   0  -3   0   -0.16    0.27
   0  -3   0    0.09    0.14
   0   3   0   -0.07    0.26
  -1  -3   0  120.81    4.60
   1  -3   0  120.97    4.37
  -1  -3   0  120.79    4.50
   1  -3   0  119.16    4.07
  -1   3   0  123.19    4.40
   1   3   0  117.58    4.48
  -1   3   0  127.02    4.09
  -1   3   0  126.24    4.11
   1   3   0  123.17    4.55
  -2  -3   0   19.93    1.39
  -2  -3   0   19.97    1.27
   2   3   0   23.26    1.34
   2   3   0   21.10    1.44
  -2   3   0   20.93    0.96
  -2   3   0   22.48    0.97
  -3  -3   0   22.81    2.00
  -3   3   0   24.62    1.26
   3   3   0   25.18    1.78
   3   3   0   23.15    1.51
  -3   3   0   25.57    1.30
  -4  -3   0   20.61    2.09
   4   3   0   16.91    1.87
  -4   3   0   21.08    1.36
   4   3   0   19.30    1.51
  -5  -3   0    3.64    1.10
  -5   3   0    5.27    0.93
   5   3   0    2.74    1.16
   5   3   0    3.46    1.00
  -6  -3   0    0.37    1.18
   6   3   0    0.59    1.10
   0  -4   0  301.94    9.86
   0  -4   0  297.40    9.58
   0   4   0  255.58    9.51
   1  -4   0   60.80    2.20
  -1  -4   0   61.24    2.80
   1  -4   0   59.15    2.55
   1   4   0   61.18    2.66
  -1   4   0   62.60    2.21
   1   4   0   63.98    2.78
  -2  -4   0   54.21    2.80
   2  -4   0   58.56    2.44
  -2   4   0   56.70    2.00
  -2   4   0   55.42    1.99
   2   4   0   52.64    2.68
   2   4   0   58.05    2.65
  -3  -4   0   63.45    3.36
   3   4   0   72.33    3.19
  -3   4   0   66.31    2.56
  -3   4   0   72.22    2.59
   3   4   0   61.18    3.20
  -4  -4   0   21.05    2.26
   4   4   0   21.06    2.19
   4   4   0   22.07    1.73
  -4   4   0   23.36    1.33
  -5  -4   0   11.73    1.75
   5   4   0   13.27    1.57
   5   4   0   12.43    1.94
  -6  -4   0   -0.75    1.20
   6   4   0    0.49    0.86
   0  -5   0    0.03    0.58
   0  -5   0   -0.38    0.39
   0  -5   0   -0.09    0.16
   0   5   0   -0.27    0.34
   1  -5   0    0.70    0.31
  -1  -5   0    0.32    0.65
   1  -5   0    0.76    0.52
   1   5   0    0.40    0.57
  -1   5   0    0.70    0.31
   1   5   0    0.25    0.49
   2  -5   0   27.58    1.57
  -2  -5   0   20.99    1.99
  -2   5   0   23.93    0.90
  -2   5   0   25.01    0.91
  -2   5   0   26.00    1.05
   2   5   0   22.78    1.61
   2   5   0   22.63    1.68
  -3  -5   0    0.87    0.99
   3   5   0    1.10    0.88
   3   5   0   -0.37    0.68
  -3   5   0    0.65    0.26
  -3   5   0    0.11    0.28
  -4  -5   0    1.40    0.89
   4   5   0    0.51    0.76
   4   5   0    3.47    1.19
  -5  -5   0    3.96    1.27
   5   5   0    4.34    1.44
  -6  -5   0    4.66    1.77
   6   5   0    4.56    1.68
   0  -6   0   52.88    2.85
   0   6   0   59.43    2.50
   1  -6   0    6.82    0.67
   1  -6   0    6.98    1.05
  -1  -6   0    6.51    1.27
   1   6   0    6.73    1.20
   1   6   0    6.68    1.01
  -1   6   0    6.57    0.65
   2  -6   0    8.84    1.08
  -2  -6   0    7.16    1.28
   2   6   0    9.68    1.26
   2   6   0    9.58    1.39
  -3  -6   0    9.63    1.68
   3   6   0    9.03    1.46
   3   6   0    8.22    1.34
  -4  -6   0   19.02    2.43
   4   6   0   18.10    1.90
   4   6   0   15.52    2.09
  -5  -6   0    3.73    1.38
   5   6   0    4.08    1.48
   0  -7   0    0.25    0.90
   0   7   0   -0.21    0.49
  -1  -7   0   23.43    2.31
   1  -7   0   21.69    1.93
   1   7   0   21.92    1.61
   1   7   0   21.77    2.18
  -1   7   0   19.79    1.15
   2  -7   0   -0.01    0.69
  -2  -7   0    1.79    0.92
   2   7   0    1.48    0.83
   2   7   0    1.10    0.92
  -3  -7   0    0.32    0.86
   3  -7   0    0.68    0.63
   3   7   0    0.56    0.78
   3   7   0    0.09    0.85
  -4  -7   0   23.02    2.78
   4   7   0   21.46    2.51
   4   7   0   28.18    2.52
  -5  -7   0    1.25    1.50
   5   7   0    2.92    1.40
   0  -8   0   13.81    1.81
   0   8   0   16.04    1.42
  -1  -8   0   -1.43    0.86
   1  -8   0   -0.60    0.73
   1   8   0    0.71    0.68
   1   8   0    0.48    1.02
  -2  -8   0    1.57    1.01
   2  -8   0    2.31    0.86
   2   8   0    3.04    1.02
   2   8   0    1.06    1.09
  -3  -8   0   -0.31    1.15
   3  -8   0   -0.13    0.65
   3   8   0    1.44    0.80
   3   8   0   -0.10    1.07
  -4  -8   0    6.67    1.62
   4   8   0    7.42    1.65
   0  -9   0    1.28    1.08
  -1  -9   0   -1.86    1.04
   1  -9   0    1.25    0.96
   1   9   0    0.91    0.83
   1   9   0   -0.80    0.98
  -2  -9   0    3.74    1.53
   2  -9   0    5.71    1.21
   2   9   0    2.93    1.15
   2   9   0    2.33    1.30
  -3  -9   0    2.84    1.69
   3   9   0    0.66    1.15
   3   9   0    3.09    1.20
   0 -10   0    1.58    1.17
  -1 -10   0   -1.54    1.14
   1 -10   0    0.32    0.92
   1  10   0    0.25    1.23
  -2 -10   0    1.92    1.63
   2  10   0    0.57    1.28
   2  10   0    1.98    0.99
   6   0  -1   -0.03    0.92
  -6   0   1    1.47    1.17
  -5   0   1   -0.61    0.81
   5   0  -1   -0.86    0.63
  -4   0   1    1.31    0.70
   4   0  -1    2.74    0.81
  -3   0   1    1.49    0.48
   3   0  -1    1.75    0.54
   3   0  -1    0.87    0.51
  -3   0   1    1.35    0.51
  -2   0   1   -0.59    0.32
  -2   0   1    0.08    0.27
  -2   0   1   -0.18    0.32
   2   0  -1   -0.64    0.29
   2   0  -1   -0.06    0.23
   1   0  -1   -0.44    0.12
  -1   0   1    0.00    0.18
  -1   0   1   -0.10    0.19
   1   0  -1   -0.18    0.24
  -1   0   1    0.58    0.26
   0   0   1   -0.02    0.06
   0   0   1    0.00    0.06
   0   0  -1   -0.02    0.05
   0   0  -1   -0.03    0.04
   0   0   1    0.01    0.07
   0   0  -1    0.02    0.04
   1   0   1    0.49    0.35
   1   0   1   -0.30    0.29
  -1   0  -1   -0.19    0.28
  -1   0  -1   -0.85    0.22
  -1   0  -1   -0.10    0.30
   2   0   1   -0.09    0.36
  -2   0  -1   -0.37    0.35
   2   0   1   -0.02    0.36
  -2   0  -1    0.09    0.38
   3   0   1    0.34    0.51
   3   0   1    1.41    0.59
   4   0   1    0.65    0.68
   4   0   1    0.73    0.74
   5   0   1    0.52    0.82
   5   0   1   -0.19    0.74
  -5   0  -1    0.06    0.64
  -5   0  -1    1.00    0.92
  -6   0  -1    0.70    0.95
  -6   0  -1    2.10    0.99
  -6  -1   1    4.31    1.31
   6  -1  -1    4.47    1.23
   6   1  -1    6.01    1.46
  -6   1   1    6.54    1.25
  -6   1   1    4.62    1.21
  -5  -1   1   14.99    1.80
   5  -1  -1   11.33    1.57
   5   1  -1   15.66    1.86
  -5   1   1   12.32    1.61
  -4  -1   1    4.91    1.07
   4  -1  -1    4.35    0.87
   4   1  -1    4.51    1.03
  -4   1   1    4.78    0.97
   4   1  -1    6.16    0.95
  -3  -1   1   81.81    3.45
   3  -1  -1   79.87    3.26
  -3  -1   1   81.21    3.24
   3   1  -1   82.98    3.50
  -2  -1   1    0.42    0.28
   2  -1  -1    0.19    0.32
  -2  -1   1   -0.29    0.37
  -2  -1   1   -0.22    0.41
  -2   1   1    0.22    0.33
   2   1  -1   -0.27    0.38
  -2   1   1    0.09    0.35
   2   1  -1    0.01    0.23
  -1  -1   1   23.85    0.93
  -1  -1   1   24.60    1.18
   1  -1  -1   25.33    0.96
  -1  -1   1   23.59    1.18
   1   1  -1   22.51    1.14
  -1   1   1   23.64    0.95
   1   1  -1   23.63    0.93
   1   1  -1   22.29    1.18
   0  -1  -1    9.81    0.51
   0  -1   1   12.05    0.62
   0  -1  -1   10.73    0.51
   0  -1   1   11.26    0.55
   0   1   1   11.50    0.58
   0   1   1   11.35    0.64
   0   1  -1   12.22    0.63
   0   1  -1   12.36    0.59
   1  -1   1   -0.63    0.25
  -1  -1  -1    0.55    0.37
  -1  -1  -1   -0.27    0.35
   1  -1   1    0.85    0.51
   1   1   1    0.22    0.40
   1   1   1    0.17    0.35
  -1   1  -1   -0.64    0.22
  -1   1  -1    0.22    0.30
  -1   1  -1   -0.51    0.28
  -2  -1  -1    2.76    0.70
  -2  -1  -1    3.26    0.59
   2  -1   1    2.55    0.62
  -2   1  -1    4.46    0.69
  -2   1  -1    3.38    0.57
  -2   1  -1    2.91    0.52
   2   1   1    4.06    0.68
   2   1   1    3.20    0.60
   3  -1   1   23.36    1.59
   3   1   1   20.37    1.52
   3   1   1   21.59    1.47
  -3   1  -1   24.76    1.44
   4  -1   1    8.68    1.38
  -4  -1  -1    7.72    1.31
   4  -1   1    8.20    1.21
  -4   1  -1   10.86    1.27
   4   1   1    9.62    1.36
   4   1   1    7.68    1.20
  -5  -1  -1    8.48    1.49
  -5   1  -1    8.26    1.31
   5   1   1   15.19    1.76
   5   1   1   10.50    1.65
  -6  -1  -1    3.07    1.11
  -6  -1  -1    2.54    1.21
   6   1   1    2.91    1.32
  -6   1  -1    1.87    0.92
  -6   1  -1    1.43    1.03
   6   1   1    1.45    1.08
  -6  -2   1    0.45    1.07
  -6   2   1    1.40    0.71
   6   2  -1    0.84    0.82
  -6   2   1    1.56    1.01
   5  -2  -1    0.26    0.61
  -5  -2   1    0.24    0.91
   5   2  -1   -0.33    0.52
  -5   2   1    0.67    0.56
  -5   2   1    0.37    0.66
   5   2  -1   -0.01    0.31
  -4  -2   1   -0.17    0.72
   4  -2  -1    0.53    0.53
   4   2  -1    0.82    0.64
   4   2  -1   -0.01    0.26
   3  -2  -1    0.31    0.18
  -3  -2   1    1.41    0.48
  -3  -2   1    1.03    0.54
   3   2  -1    0.26    0.38
   3   2  -1    1.09    0.64
  -3   2   1    0.78    0.46
  -2  -2   1   61.84    2.41
  -2  -2   1   67.95    2.72
   2  -2  -1   61.68    2.29
   2   2  -1   58.12    2.68
  -2   2   1   60.40    2.32
  -2   2   1   63.02    2.29
   2   2  -1   61.22    2.41
  -1  -2   1   25.40    1.28
  -1  -2   1   23.55    1.32
   1  -2  -1   23.34    0.98
  -1   2   1   23.51    0.99
   1   2  -1   21.23    1.24
   0  -2  -1   43.65    1.79
   0  -2  -1   47.52    1.83
   0  -2   1   47.69    1.83
   0  -2   1   44.87    1.90
   0  -2  -1   44.71    1.72
   0   2   1   46.62    1.82
   0   2  -1   47.49    1.83
   0   2   1   46.34    1.73
   0   2  -1   46.25    1.94
   0   2   1   46.84    1.81
  -1  -2  -1  209.26    7.23
  -1  -2  -1  213.22    7.30
   1  -2   1  213.90    7.18
   1  -2   1  213.55    7.01
  -1  -2  -1  214.91    7.29
  -1   2  -1  210.74    7.16
   1   2   1  218.60    7.25
  -1   2  -1  214.72    7.01
  -1   2  -1  217.60    7.35
   1   2   1  177.24    7.22
  -2  -2  -1   77.91    3.20
  -2  -2  -1   78.80    3.28
   2   2   1   75.50    3.21
  -2   2  -1   81.73    2.98
   2   2   1   75.98    3.26
  -2   2  -1   82.13    2.99
  -3  -2  -1   10.52    1.25
   3   2   1   11.18    1.20
  -3   2  -1   10.76    0.99
   3   2   1   11.35    1.34
  -4  -2  -1    2.52    0.85
  -4   2  -1    1.68    0.65
   4   2   1    1.01    0.71
   4   2   1    1.53    0.76
  -5  -2  -1   13.75    1.84
   5   2   1   15.61    1.87
   5   2   1   17.08    2.07
  -5   2  -1   14.13    1.60
  -6  -2  -1    1.09    1.19
   6   2   1    0.95    1.14
   6   2   1   -0.26    0.97
  -6   2  -1    0.89    0.73
  -6  -3   1    5.56    1.61
   6   3  -1    8.69    1.71
  -5  -3   1   -0.13    0.95
   5   3  -1    0.29    0.61
  -5   3   1    0.61    0.56
   5   3  -1    0.58    0.95
  -4  -3   1   23.55    2.25
  -4   3   1   27.22    1.49
   4   3  -1   22.38    2.17
   4   3  -1   24.53    1.59
  -3  -3   1   14.75    1.17
  -3  -3   1   19.11    1.70
  -3   3   1   16.29    0.96
   3   3  -1   13.51    1.08
   3   3  -1   16.03    1.61
  -3   3   1   15.77    0.91
  -2  -3   1    5.41    0.98
  -2   3   1    5.64    0.37
  -2   3   1    6.98    0.66
  -2   3   1    6.26    0.40
   2   3  -1    7.61    1.01
  -1  -3   1   51.30    2.28
  -1  -3   1   47.05    2.19
   1  -3  -1   49.98    1.97
   1   3  -1   52.36    2.23
  -1   3   1   50.92    1.99
   0  -3  -1  104.18    3.88
   0  -3   1  105.61    3.81
   0  -3   1  107.95    4.00
   0  -3  -1  103.89    3.72
   0  -3  -1  105.74    3.82
   0   3  -1  109.03    3.82
   0   3   1  107.91    3.87
   0   3   1  106.21    3.72
  -1  -3  -1   22.60    1.36
   1  -3   1   25.71    1.36
   1  -3   1   26.08    1.14
  -1  -3  -1   25.50    1.40
   1   3   1   27.08    1.51
  -1   3  -1   27.46    1.15
   1   3   1   25.93    1.35
  -2  -3  -1   20.85    1.52
   2  -3   1   23.32    1.34
  -2   3  -1   21.54    1.10
   2   3   1   22.31    1.50
  -2   3  -1   25.11    1.17
   2   3   1   24.08    1.49
  -3  -3  -1    9.12    1.25
  -3   3  -1    8.70    0.88
   3   3   1    8.84    1.15
  -3   3  -1   10.50    0.93
   3   3   1    7.73    1.15
  -4  -3  -1    2.09    0.86
   4   3   1    2.00    0.84
   4   3   1    1.46    0.97
  -4   3  -1    1.81    0.62
  -5  -3  -1   16.57    2.09
  -5   3  -1   14.36    1.51
   5   3   1   13.74    1.71
   5   3   1   13.17    1.95
  -6  -3  -1    1.93    1.29
   6   3   1    2.92    1.32
  -6  -4   1    3.83    1.56
   6   4  -1    6.97    1.74
  -5  -4   1    1.17    0.90
   5   4  -1    2.10    1.11
  -4  -4   1   53.37    3.08
   4   4  -1   53.58    2.63
   4   4  -1   52.85    3.02
  -3  -4   1    7.33    1.30
  -3   4   1    8.25    0.59
  -3   4   1    7.11    0.53
   3   4  -1    9.32    1.36
   2  -4  -1  217.80    7.49
  -2  -4   1  216.56    8.02
   2   4  -1  219.68    7.74
   2   4  -1  213.35    7.91
  -1  -4   1    7.17    0.97
   1  -4  -1    7.99    0.78
   1  -4  -1    6.45    0.36
   1   4  -1    6.87    0.87
  -1   4   1    7.09    0.65
  -1   4   1    6.42    0.35
   0  -4  -1    4.71    0.62
   0  -4   1    7.74    0.93
   0  -4   1    6.43    0.74
   0  -4  -1    4.82    0.58
   0  -4  -1    6.01    0.81
   0   4   1    6.16    0.63
   0   4  -1    6.80    0.75
   1  -4   1  246.25    8.44
  -1  -4  -1  243.23    8.58
   1  -4   1  244.37    8.09
   1   4   1  238.92    8.40
  -1   4  -1  238.94    8.08
   1   4   1  232.99    8.64
  -2  -4  -1   15.05    1.55
   2  -4   1   14.53    1.29
   2  -4   1   15.31    0.84
   2   4   1   16.46    1.48
   2   4   1   14.17    1.43
  -2   4  -1   14.36    0.85
  -3  -4  -1    0.89    0.86
  -3   4  -1    0.43    0.42
  -3   4  -1    0.81    0.43
   3   4   1   -0.07    0.57
   3   4   1   -0.85    0.65
  -4  -4  -1   22.28    2.19
   4   4   1   23.80    2.32
  -4   4  -1   23.56    1.45
   4   4   1   23.70    2.11
  -5  -4  -1   -0.26    1.06
   5   4   1    0.23    1.06
   5   4   1    1.01    0.85
  -6  -4  -1    3.34    1.25
   6   4   1    5.81    1.68
  -6  -5   1    0.16    1.42
   6   5  -1   -0.46    1.16
  -5  -5   1    8.08    1.85
   5   5  -1    7.15    1.67
  -4  -5   1    9.64    1.63
   4   5  -1    8.24    1.46
   4   5  -1   12.68    1.38
  -3  -5   1    3.01    1.16
   3   5  -1    4.21    0.81
   3   5  -1    3.38    1.07
  -2  -5   1   49.10    2.74
   2  -5  -1   49.08    2.19
   2   5  -1   47.51    2.47
   2   5  -1   46.78    2.49
   1  -5  -1   26.92    1.50
   1  -5  -1   26.55    1.08
  -1  -5   1   29.19    1.92
   1   5  -1   27.72    1.65
  -1   5   1   25.94    1.08
   0  -5   1    7.40    1.04
   0  -5   1    7.36    0.73
   0  -5  -1    7.00    0.76
   0  -5   1    5.50    0.78
   0  -5  -1    7.54    0.85
   0  -5  -1    5.37    0.93
   0   5   1    4.96    0.66
   0   5  -1    7.48    0.82
   1  -5   1   14.02    1.35
  -1  -5  -1   13.02    1.35
   1  -5   1   12.86    0.84
   1   5   1   12.54    1.37
   1   5   1   12.41    1.22
  -1   5  -1   13.57    0.88
   2  -5   1   10.58    0.69
   2  -5   1   10.38    1.21
  -2  -5  -1   12.38    1.46
   2   5   1   12.67    1.45
  -2   5  -1   10.45    0.79
   2   5   1   10.70    1.33
  -3  -5  -1   13.62    1.77
  -3   5  -1   13.87    0.89
   3   5   1    9.38    1.39
   3   5   1   12.23    1.60
  -3   5  -1   14.02    0.94
  -4  -5  -1    0.47    1.06
   4   5   1    0.40    0.96
   4   5   1    0.14    0.85
  -5  -5  -1    2.76    1.37
   5   5   1    2.65    1.03
   5   5   1    3.42    1.35
  -6  -5  -1    0.59    1.41
   6   5   1   -0.32    1.13
  -5  -6   1    3.40    1.54
   5   6  -1    4.82    1.29
  -4  -6   1    7.64    1.61
   4   6  -1    5.12    1.36
  -3  -6   1    6.92    1.51
   3   6  -1    6.29    1.15
   3   6  -1    7.00    1.28
  -2  -6   1    1.02    0.76
   2  -6  -1    0.31    0.53
  -2   6   1    0.17    0.32
   2   6  -1    0.36    0.72
   2   6  -1   -0.40    0.59
   1  -6  -1    1.90    0.69
  -1  -6   1    0.89    0.88
   1  -6  -1    1.49    0.37
   1   6  -1    0.99    0.64
  -1   6   1    1.93    0.37
   0  -6  -1    0.33    0.48
   0  -6   1   -0.29    0.51
   0  -6  -1    1.00    0.72
   0  -6   1    0.38    0.38
   0   6  -1    0.02    0.42
   0   6   1    0.23    0.42
   1  -6   1   55.99    2.73
  -1  -6  -1   52.68    2.79
   1   6   1   48.25    2.89
   1   6   1   53.57    2.57
  -1   6  -1   55.39    2.24
   2  -6   1    0.51    0.60
  -2  -6  -1   -1.17    0.72
   2  -6   1    0.47    0.27
  -2   6  -1    0.05    0.34
   2   6   1    0.43    0.72
   2   6   1   -0.01    0.76
   3  -6   1    2.65    0.83
  -3  -6  -1    1.89    0.96
   3   6   1    2.86    1.00
   3   6   1    2.82    1.01
  -4  -6  -1    2.17    1.32
   4   6   1    1.98    0.94
   4   6   1    3.07    1.05
  -5  -6  -1   -0.04    1.28
   5   6   1    2.30    1.24
  -5  -7   1    2.05    1.56
   5   7  -1    0.80    1.23
  -4  -7   1    3.15    1.53
   4   7  -1    4.06    1.29
   3  -7  -1    1.40    0.61
  -3  -7   1   -0.50    1.04
   3   7  -1    3.08    1.09
   3   7  -1   -0.17    0.82
   2  -7  -1    3.77    0.89
  -2  -7   1    3.86    1.15
   2   7  -1    4.08    1.09
   2   7  -1    4.43    1.11
  -1  -7   1    3.14    1.05
   1  -7  -1    2.49    0.87
   1   7  -1    2.88    0.88
  -1   7   1    3.54    0.51
   0  -7   1    2.43    0.59
   0  -7  -1    2.10    0.94
   0  -7   1    0.95    0.92
   0   7   1    2.19    0.64
   0   7  -1    2.47    0.71
   1  -7   1    4.81    1.10
  -1  -7  -1    5.93    1.34
  -1   7  -1    6.69    0.80
   1   7   1    5.34    1.02
   1   7   1    3.62    1.22
  -2  -7  -1   20.22    2.29
   2  -7   1   21.08    1.89
   2   7   1   18.82    1.87
   2   7   1   20.74    2.19
   3  -7   1   10.76    1.38
  -3  -7  -1    5.75    1.55
   3   7   1    9.82    1.61
   3   7   1    7.35    1.50
  -4  -7  -1   -0.04    0.87
   4   7   1    2.45    1.19
   4   7   1   -0.34    0.99
  -5  -7  -1    4.18    1.77
   5   7   1    2.03    1.38
  -4  -8   1    0.30    1.33
   4   8  -1    1.35    1.12
  -3  -8   1   -0.84    0.84
   3   8  -1   -1.06    0.81
   3   8  -1   -0.47    0.98
  -2  -8   1   22.53    2.67
   2  -8  -1   38.08    2.20
   2   8  -1   29.99    2.40
   2   8  -1   34.69    2.36
   1  -8  -1   31.94    2.16
  -1  -8   1   30.45    2.87
   1   8  -1   35.06    2.21
   1   8  -1   33.36    2.50
   0  -8   1   -0.40    0.58
   0  -8  -1    0.73    0.92
   0   8   1   -0.37    0.46
   0   8  -1   -0.60    0.53
   1  -8   1    9.81    1.48
  -1  -8  -1   11.01    1.76
  -1   8  -1   13.13    1.12
   1   8   1   13.00    1.92
   1   8   1   12.00    1.46
   2  -8   1    2.00    0.92
  -2  -8  -1    0.68    1.14
   2   8   1   -0.85    0.87
   2   8   1    1.46    0.88
  -3  -8  -1    3.19    1.52
   3  -8   1    5.52    1.11
   3   8   1    3.02    1.18
   3   8   1    3.49    1.40
  -4  -8  -1    1.96    1.16
   4   8   1    5.21    1.42
   4   8   1    4.49    1.46
  -3  -9   1   -0.78    1.23
   3   9  -1    1.64    1.16
   3   9  -1    0.17    1.04
   2  -9  -1    1.19    0.88
  -2  -9   1   -0.17    0.93
   2   9  -1    1.80    1.32
   2   9  -1    1.33    0.96
   1  -9  -1    1.67    0.92
  -1  -9   1    2.86    1.40
   1   9  -1    1.88    1.23
   1   9  -1    2.77    0.89
   0  -9   1    5.17    1.39
   0  -9  -1    2.82    1.19
   0   9  -1    4.02    0.95
  -1  -9  -1    0.37    1.10
   1  -9   1   -1.58    0.71
   1   9   1    0.48    1.15
   1   9   1   -0.30    0.71
  -2  -9  -1    0.80    1.34
   2  -9   1    2.36    0.99
   2   9   1    1.55    0.97
   2   9   1    1.00    1.16
  -3  -9  -1    0.68    1.43
   3   9   1    2.16    1.19
   3   9   1    2.93    1.38
  -2 -10   1    2.35    1.70
   2  10  -1    6.04    1.39
   2  10  -1    6.57    1.69
   1 -10  -1   -0.25    1.04
  -1 -10   1    1.24    1.34
   1  10  -1    1.31    1.36
   0 -10   1    1.00    1.21
   0 -10  -1    3.52    1.47
   0  10   1    0.34    1.01
   1 -10   1   16.06    2.09
  -1 -10  -1   14.67    2.32
   1  10   1   16.42    2.50
   2 -10   1    3.53    1.22
  -2 -10  -1    3.22    1.56
   2  10   1    0.72    1.41
   2  10   1    6.00    1.32
  -6   0   2    2.65    1.07
   6   0  -2    2.68    1.08
   5   0  -2    4.15    1.09
  -5   0   2    5.75    1.15
   4   0  -2    0.50    0.64
  -4   0   2    0.62    0.69
   3   0  -2   74.72    3.17
  -3   0   2   75.35    3.00
  -3   0   2   73.49    3.07
  -2   0   2    4.44    0.67
   2   0  -2    6.33    0.74
  -2   0   2    6.37    0.64
  -2   0   2    5.35    0.56
  -1   0   2  130.13    4.36
   1   0  -2  125.89    4.47
  -1   0   2  129.19    4.47
   0   0  -2   15.62    0.75
   0   0   2   15.63    0.75
   0   0  -2   13.90    0.69
   0   0   2   15.69    0.76
   0   0   2   13.20    0.67
   0   0  -2   13.97    0.72
   1   0   2  510.40   16.92
  -1   0  -2  516.85   16.94
  -1   0  -2  532.48   17.02
   1   0   2  502.75   17.00
  -1   0  -2  512.22   16.86
  -2   0  -2   67.83    2.78
  -2   0  -2   63.04    2.82
  -2   0  -2   67.30    2.76
   2   0   2   65.05    2.85
  -3   0  -2   15.19    1.46
   3   0   2   17.62    1.53
   3   0   2   16.11    1.50
  -4   0  -2   17.59    1.75
   4   0   2   20.50    2.01
  -5   0  -2   37.69    2.49
   5   0   2   35.87    2.56
  -6   0  -2    2.19    1.19
  -6   0  -2    2.12    1.04
   6   0   2    0.87    1.09
  -6  -1   2    0.69    1.08
   6  -1  -2    2.98    1.05
  -6   1   2    3.07    1.01
   6   1  -2    5.38    1.40
  -5  -1   2   26.67    2.40
   5  -1  -2   28.89    2.01
  -5   1   2   27.98    1.91
   5   1  -2   30.89    2.54
   4  -1  -2    6.38    1.00
  -4  -1   2    6.84    1.14
  -4   1   2    6.05    1.02
   4   1  -2    5.57    1.08
  -3  -1   2  124.86    4.88
   3  -1  -2  130.61    4.77
  -3  -1   2  126.61    4.59
  -3   1   2  136.34    5.02
   3   1  -2  120.45    4.93
  -3   1   2  129.85    4.67
   3   1  -2  123.97    4.56
  -2  -1   2    1.30    0.27
  -2  -1   2    1.74    0.52
   2  -1  -2    1.26    0.37
  -2  -1   2    2.13    0.54
   2   1  -2    1.41    0.26
  -2   1   2    1.20    0.40
   2   1  -2    1.15    0.50
  -2   1   2    0.96    0.31
  -1  -1   2   20.19    1.18
  -1  -1   2   20.58    1.14
  -1   1   2   22.24    0.96
   1   1  -2   19.24    1.09
   1   1  -2   21.07    1.10
   0  -1  -2   60.15    2.18
   0  -1   2   63.48    2.28
   0  -1  -2   61.99    2.33
   0  -1   2   58.25    2.20
   0  -1   2   56.15    2.21
   0   1  -2   58.87    2.23
   0   1  -2   59.45    2.19
   0   1  -2   57.94    2.24
   0   1   2   62.07    2.32
   0   1   2   57.28    2.16
  -1  -1  -2  920.23   31.01
  -1  -1  -2  919.97   31.02
  -1  -1  -2  935.83   31.10
   1  -1   2  949.36   31.01
   1  -1   2 1000.00   30.96
   1  -1   2  975.08   31.11
  -1  -1  -2  912.14   31.00
  -1   1  -2  974.28   31.00
  -1   1  -2  971.56   30.80
  -1   1  -2  974.47   31.11
  -1   1  -2  940.56   30.93
   1   1   2  971.16   31.12
   2  -1   2   12.46    1.19
  -2  -1  -2   11.48    1.09
  -2   1  -2    9.81    0.96
   2   1   2    7.66    0.96
  -2   1  -2   13.02    1.06
   2   1   2   11.33    1.13
   3  -1   2    0.82    0.54
  -3   1  -2    0.73    0.50
   3   1   2    0.78    0.59
   3   1   2    0.15    0.44
  -4  -1  -2    0.24    0.66
   4  -1   2    0.36    0.78
   4   1   2   -0.44    0.63
  -4   1  -2    0.67    0.63
   4   1   2    0.32    0.74
  -5  -1  -2   -0.53    0.43
  -5  -1  -2    0.79    0.76
   5  -1   2   -2.57    0.67
  -5   1  -2    0.47    0.67
   5   1   2    0.93    0.73
   5   1   2    0.16    0.84
  -6  -1  -2   10.32    1.83
  -6  -1  -2   13.21    1.92
  -6   1  -2   14.89    1.93
   6   1   2   14.06    1.98
   6  -2  -2    0.24    0.81
  -6  -2   2   -0.33    1.03
  -6   2   2    1.79    0.73
   6   2  -2   -0.33    0.91
  -5  -2   2    0.30    0.91
   5  -2  -2    1.01    0.71
  -5   2   2    1.64    0.75
   5   2  -2   -0.09    0.80
  -4  -2   2   -0.06    0.78
   4  -2  -2   -0.96    0.48
  -4  -2   2    0.07    0.48
  -4   2   2   -0.46    0.53
   4   2  -2    0.89    0.66
   4   2  -2   -0.38    0.43
  -3  -2   2   84.51    3.73
  -3  -2   2   88.66    3.30
   3   2  -2   89.01    3.83
  -3   2   2   89.01    3.38
   3   2  -2   87.37    3.27
  -2  -2   2    5.90    0.86
   2  -2  -2    7.09    0.59
   2   2  -2    7.00    0.49
  -2   2   2    6.66    0.45
  -2   2   2    6.96    0.59
   2   2  -2    5.79    0.81
  -1  -2   2  407.33   15.22
   1  -2  -2  470.44   14.86
   1  -2  -2  467.26   14.82
  -1  -2   2  471.93   15.33
  -1   2   2  458.14   14.85
   1   2  -2  462.94   15.29
  -1   2   2  475.71   14.82
   0  -2  -2   94.09    3.29
   0  -2   2   92.31    3.47
   0  -2  -2   90.50    3.27
   0  -2   2   92.30    3.37
   0  -2  -2   93.35    3.27
   0   2   2   90.94    3.39
   0   2  -2   90.43    3.38
   0   2   2   91.78    3.56
   0   2  -2   91.11    3.45
   0   2  -2   97.00    3.40
  -1  -2  -2    0.49    0.33
   1  -2   2    1.25    0.44
  -1  -2  -2    0.09    0.28
  -1  -2  -2    0.37    0.29
  -1  -2  -2    0.27    0.33
   1  -2   2    0.64    0.33
  -1   2  -2   -0.45    0.27
  -1   2  -2    0.35    0.43
   1   2   2    1.26    0.43
   1   2   2    0.49    0.35
   2  -2   2    1.83    0.60
  -2  -2  -2    2.11    0.65
   2  -2   2    2.33    0.47
  -2   2  -2    2.28    0.52
   2   2   2    1.53    0.53
  -2   2  -2    2.52    0.55
   2   2   2    1.75    0.62
  -3  -2  -2   54.51    2.85
   3  -2   2   59.48    2.98
   3   2   2   56.01    2.83
  -3   2  -2   57.95    2.58
   3   2   2   59.43    2.93
  -4  -2  -2    6.97    1.34
   4   2   2    8.40    1.34
  -4   2  -2   10.00    1.24
   4   2   2    8.06    1.31
  -5  -2  -2    3.05    0.92
  -5  -2  -2    2.55    1.17
   5   2   2    6.48    1.37
  -5   2  -2    4.88    1.04
   5   2   2    3.38    1.20
  -6  -2  -2    0.53    1.13
  -6  -2  -2    0.62    0.88
  -6   2  -2    0.49    0.75
   6   2   2    1.59    1.22
   6   2   2    0.17    1.11
  -6  -3   2    1.31    1.30
   6   3  -2    0.26    1.09
  -5  -3   2    3.64    1.28
   5   3  -2    2.13    0.91
  -5   3   2    3.09    0.75
  -5   3   2    3.01    0.84
   4  -3  -2    1.84    0.60
  -4  -3   2    1.44    0.65
  -4  -3   2    2.01    1.02
   4   3  -2    0.44    0.86
   4   3  -2    1.50    0.58
   3  -3  -2   13.40    0.85
  -3  -3   2   14.35    1.54
  -3   3   2   13.51    0.87
   3   3  -2   16.83    1.60
   3   3  -2   14.01    0.94
  -3   3   2   13.95    0.89
  -2  -3   2   76.01    3.26
   2   3  -2   75.16    2.80
  -2   3   2   72.36    2.46
   2   3  -2   71.65    3.19
  -2   3   2   71.31    2.62
   1  -3  -2   10.17    0.65
   1  -3  -2   10.76    0.44
   1  -3  -2   10.94    0.43
  -1  -3   2   10.36    1.16
  -1  -3   2   10.74    1.09
   1   3  -2   12.94    1.08
  -1   3   2   12.55    0.66
   0  -3  -2  229.94    7.72
   0  -3   2  224.93    7.75
   0  -3  -2  224.70    7.61
   0  -3   2  222.90    7.92
   0   3   2  233.33    7.73
   0   3   2  230.74    7.63
   0   3  -2  228.24    7.77
   0   3   2  233.34    7.83
   0   3   2  209.12    7.98
  -1  -3  -2   31.57    1.65
  -1  -3  -2   33.04    1.81
  -1  -3  -2   32.85    1.65
   1  -3   2   33.55    1.70
   1  -3   2   30.85    1.46
   1   3   2   31.24    1.81
   1   3   2   33.04    1.68
  -1   3  -2   38.32    1.55
   2  -3   2   16.31    1.19
  -2  -3  -2   15.64    1.44
   2  -3   2   16.67    1.00
   2   3   2   15.25    1.44
   2   3   2   16.59    1.45
  -2   3  -2   15.68    0.74
  -2   3  -2   15.12    1.00
  -3  -3  -2    6.44    1.19
   3   3   2    7.57    1.27
   3   3   2    6.58    1.09
  -3   3  -2    6.08    0.83
  -4  -3  -2   -0.22    0.93
  -4   3  -2    0.03    0.57
   4   3   2    1.04    0.98
   4   3   2   -0.95    0.66
  -5  -3  -2    6.10    1.35
  -5   3  -2    5.46    1.04
   5   3   2    8.34    1.51
   5   3   2    7.20    1.60
  -6  -3  -2    2.29    1.07
  -6  -3  -2    1.29    1.25
   6   3   2    2.46    1.31
   6   3   2    0.53    1.06
  -6  -4   2    0.87    1.29
   6   4  -2   -0.39    0.70
  -5  -4   2   -0.64    1.00
   5   4  -2    0.91    1.07
  -4  -4   2    6.31    1.47
   4   4  -2    4.13    1.19
   4   4  -2    7.99    0.95
  -4   4   2    7.99    0.76
  -3  -4   2    0.94    0.88
  -3   4   2    0.74    0.46
  -3   4   2    1.00    0.21
   3   4  -2    0.52    0.76
   3   4  -2    1.26    0.52
  -3   4   2    0.99    0.25
   2  -4  -2    9.33    0.67
  -2  -4   2    8.13    1.25
   2   4  -2   10.79    1.22
  -2   4   2    8.75    0.76
   2   4  -2    8.45    0.91
   1  -4  -2   11.43    0.83
   1  -4  -2   10.62    0.45
   1  -4  -2    9.99    0.45
  -1  -4   2   13.91    1.38
   1   4  -2   11.42    1.13
  -1   4   2   10.53    0.77
  -1   4   2    9.78    0.87
   0  -4  -2   21.43    1.15
   0  -4   2   20.61    1.26
   0  -4  -2   23.27    1.32
   0  -4   2   27.60    1.59
   0   4   2   20.43    1.14
   0   4  -2   24.15    1.31
   1  -4   2    0.24    0.35
  -1  -4  -2    0.10    0.51
   1  -4   2    0.79    0.54
   1   4   2   -0.20    0.51
   1   4   2    0.61    0.45
  -1   4  -2   -0.15    0.37
   2  -4   2    0.17    0.49
  -2  -4  -2   -0.33    0.60
   2  -4   2    0.13    0.30
  -2   4  -2   -0.15    0.37
   2   4   2    0.43    0.60
   2   4   2   -0.18    0.59
  -3  -4  -2    4.13    0.98
   3   4   2    3.30    0.92
   3   4   2    5.65    1.11
  -3   4  -2    4.66    0.72
  -4  -4  -2    4.57    1.30
   4   4   2    5.10    1.22
  -4   4  -2    5.13    0.86
   4   4   2    5.52    1.33
  -5  -4  -2    3.43    1.38
  -5   4  -2    1.85    0.72
   5   4   2    1.23    1.09
   5   4   2    2.02    1.13
  -6  -4  -2    4.61    1.50
  -6  -4  -2    4.85    1.44
   6   4   2    4.31    1.56
  -6  -5   2   -0.78    1.32
   6   5  -2    1.32    1.06
  -5  -5   2   -0.90    1.11
   5   5  -2    1.41    0.97
  -4  -5   2    1.79    1.00
   4   5  -2    1.76    0.83
   4   5  -2    1.72    0.66
  -3  -5   2   41.73    2.60
   3   5  -2   35.56    2.49
   3   5  -2   41.97    2.16
  -2  -5   2    0.87    0.69
   2  -5  -2    1.59    0.47
   2   5  -2    1.88    0.81
   2   5  -2    1.45    0.57
   1  -5  -2    1.18    0.53
  -1  -5   2    1.57    0.78
   1  -5  -2    0.49    0.19
   1  -5  -2    0.44    0.22
  -1   5   2    1.10    0.44
   1   5  -2    1.01    0.58
   0  -5   2    0.66    0.68
   0  -5  -2    0.38    0.39
   0  -5  -2   -0.31    0.56
   0   5  -2   -0.01    0.48
   0   5   2    0.79    0.41
   1  -5   2   84.30    3.21
  -1  -5  -2   79.69    3.56
   1  -5   2   80.16    3.56
   1   5   2   82.07    3.83
   1   5   2   83.58    3.45
  -1   5  -2   83.18    3.22
   2  -5   2   78.59    3.47
  -2  -5  -2   73.34    3.62
   2  -5   2   75.66    3.00
  -2   5  -2   78.25    3.03
   2   5   2   78.85    3.57
   2   5   2   78.77    3.69
  -3  -5  -2    8.28    1.53
  -3   5  -2   10.71    1.06
  -3   5  -2   12.64    1.09
   3   5   2   11.12    1.60
   3   5   2    9.65    1.51
  -4  -5  -2   14.13    1.89
  -4   5  -2   14.05    1.23
   4   5   2   14.13    1.97
   4   5   2   10.10    1.67
  -5  -5  -2    7.93    1.82
   5   5   2    9.13    1.60
   5   5   2    8.87    1.81
  -5  -6   2   -1.56    1.24
   5   6  -2    1.20    1.17
  -4  -6   2   21.14    2.54
   4   6  -2   22.74    2.43
  -3  -6   2   19.08    2.27
   3   6  -2   18.93    2.04
  -2  -6   2    2.02    1.12
   2  -6  -2    4.07    0.73
   2   6  -2    4.56    1.09
  -2   6   2    3.79    0.65
   2   6  -2    5.29    1.08
   1  -6  -2   82.62    2.84
   1  -6  -2   76.57    2.82
   1  -6  -2   79.32    3.40
  -1  -6   2   79.83    3.83
   1   6  -2   85.46    3.61
   0  -6   2   -0.67    0.69
   0  -6  -2    0.21    0.44
   0  -6  -2   -0.49    0.59
   0   6   2   -0.19    0.43
   0   6  -2    0.16    0.56
   1  -6   2   31.80    1.64
  -1  -6  -2   32.31    2.12
   1  -6   2   30.63    2.01
  -1   6  -2   31.17    1.65
   1   6   2   33.55    1.89
   1   6   2   30.28    2.27
  -2  -6  -2    6.34    1.36
   2  -6   2    6.33    1.15
   2  -6   2    6.81    0.72
  -2   6  -2    6.45    0.79
   2   6   2    4.96    1.10
   2   6   2    4.85    1.22
  -3  -6  -2   81.85    4.20
   3  -6   2   86.51    3.85
  -3   6  -2   76.84    3.12
   3   6   2   80.85    4.05
   3   6   2   80.12    4.12
  -4  -6  -2    1.96    1.26
   4   6   2    2.79    1.13
   4   6   2    2.84    1.24
  -5  -6  -2    1.91    1.42
   5   6   2    4.03    1.27
   5   6   2    4.63    1.54
  -5  -7   2    0.80    1.22
   5   7  -2   -0.89    0.73
  -4  -7   2    3.88    1.36
   4   7  -2    2.23    1.22
  -3  -7   2   65.08    3.78
   3   7  -2   70.26    3.63
   3   7  -2   61.54    3.23
   2  -7  -2    1.58    0.69
  -2  -7   2    1.34    1.11
   2   7  -2    1.06    0.87
   2   7  -2    2.01    0.86
   1  -7  -2   -0.33    0.68
  -1  -7   2    1.11    0.85
   1  -7  -2    0.41    0.25
   1   7  -2    1.16    0.79
   0  -7   2   13.78    1.05
   0  -7  -2   16.88    1.74
   0  -7   2   15.15    1.84
   0   7  -2   13.63    1.38
   0   7   2   15.35    1.31
   1  -7   2   20.07    2.02
  -1  -7  -2   14.69    1.85
   1   7   2   21.69    1.77
  -1   7  -2   18.87    1.34
   1   7   2   21.95    2.25
   2  -7   2   46.95    2.73
  -2  -7  -2   53.43    3.11
  -2   7  -2   44.64    2.08
   2   7   2   52.68    3.18
   2   7   2   48.53    2.77
   3  -7   2    3.81    1.01
  -3  -7  -2    2.87    1.12
   3   7   2    2.53    0.98
   3   7   2    1.83    1.19
  -4  -7  -2    4.84    1.40
   4   7   2    5.91    1.47
   4   7   2    5.03    1.53
  -5  -7  -2   -0.03    1.47
   5   7   2    2.24    1.43
  -4  -8   2    4.79    1.81
   4   8  -2    7.81    1.71
  -3  -8   2    1.04    1.37
   3   8  -2    0.44    0.98
   3   8  -2   -0.09    0.94
  -2  -8   2   -0.03    0.89
   2  -8  -2    0.93    0.70
   2   8  -2    0.88    0.88
   2   8  -2    0.36    0.89
   1  -8  -2    7.13    1.24
  -1  -8   2    8.47    1.65
   1   8  -2    5.72    1.14
   0  -8  -2    9.56    1.54
   0  -8   2    8.05    1.49
   0   8  -2    7.87    1.13
   0   8   2    6.44    0.92
   0   8   2    4.07    1.37
  -1  -8  -2   -0.56    0.89
   1  -8   2    2.12    0.98
  -1   8  -2    0.75    0.60
   1   8   2    1.50    0.78
   1   8   2    1.95    1.20
  -2  -8  -2   17.95    2.29
   2  -8   2   20.40    2.13
   2   8   2   18.17    1.97
   2   8   2   19.14    2.34
   3  -8   2    8.63    1.43
  -3  -8  -2    7.89    1.78
   3   8   2    4.17    1.40
   3   8   2    9.29    1.65
  -4  -8  -2    2.97    1.33
   4   8   2    6.92    1.64
   4   8   2    5.92    1.60
  -3  -9   2    2.45    1.35
   3   9  -2    2.16    1.27
  -2  -9   2    2.58    1.50
   2   9  -2    4.70    1.44
   2   9  -2    4.93    1.26
  -1  -9   2   11.44    2.00
   1  -9  -2    8.52    1.37
   1   9  -2    9.79    1.43
   0  -9  -2    0.05    0.95
   0  -9   2   -0.41    0.91
   0   9   2   -1.29    1.07
   0   9  -2    0.74    0.69
   1  -9   2    4.73    1.24
  -1  -9  -2    5.63    1.51
   1   9   2    5.43    1.09
   1   9   2    4.48    1.56
   2  -9   2    0.81    0.89
  -2  -9  -2   -0.34    1.30
   2   9   2   -0.76    1.09
   2   9   2    0.40    0.85
   3  -9   2    1.93    1.05
  -3  -9  -2   -1.33    1.18
   3   9   2   -0.07    1.16
   3   9   2    1.54    1.09
  -2 -10   2   -1.89    1.33
   2  10  -2    0.63    1.18
   2  10  -2    1.03    1.04
  -1 -10   2   -0.19    1.20
   1 -10  -2   -0.35    0.80
   1  10  -2   -0.34    1.19
   1  10  -2    0.60    0.88
   0 -10  -2    2.93    1.27
   0 -10   2    3.19    1.49
   0  10   2    5.16    1.52
  -1 -10  -2    3.02    1.43
   1 -10   2    4.02    1.35
   1  10   2    3.39    1.67
  -2 -10  -2    0.84    1.48
   2 -10   2    2.58    1.20
   2  10   2   -1.11    1.20
   2  10   2    1.37    0.98
   6   0  -3   -0.13    0.83
  -6   0   3    2.27    1.16
  -5   0   3   -0.23    0.67
   5   0  -3   -0.14    0.70
  -4   0   3    0.21    0.66
   4   0  -3   -0.13    0.63
   3   0  -3    0.53    0.50
  -3   0   3    0.20    0.36
  -3   0   3   -0.01    0.44
  -2   0   3   -0.14    0.40
   2   0  -3   -0.15    0.37
   2   0  -3   -0.07    0.12
  -2   0   3   -0.01    0.31
   1   0  -3    0.00    0.27
  -1   0   3    0.02    0.23
  -1   0   3    0.04    0.38
  -1   0   3    0.15    0.26
   1   0  -3   -0.09    0.10
   0   0   3    0.20    0.41
   0   0   3   -0.88    0.39
   0   0  -3   -0.72    0.32
   0   0   3   -0.91    0.32
   0   0  -3   -0.22    0.45
   0   0  -3   -0.22    0.36
   1   0   3    0.39    0.34
  -1   0  -3    0.13    0.38
  -1   0  -3    0.04    0.22
   1   0   3   -0.31    0.22
   1   0   3   -0.10    0.28
  -1   0  -3    0.19    0.28
  -2   0  -3    0.19    0.44
  -2   0  -3   -0.20    0.34
   2   0   3    0.43    0.50
   3   0   3    0.15    0.56
  -3   0  -3   -0.08    0.49
  -4   0  -3    1.93    0.77
   4   0   3    0.27    0.79
   5   0   3    0.83    0.98
  -5   0  -3   -0.61    0.44
   6   0   3   -0.50    1.07
  -6   0  -3    1.14    1.09
  -6   0  -3    0.47    0.92
   6  -1  -3    5.20    1.23
  -6  -1   3    3.99    1.29
   6   1  -3    4.12    1.31
   5  -1  -3   20.09    1.88
  -5  -1   3   18.35    1.87
   5   1  -3   21.58    2.13
  -5   1   3   16.65    1.65
   4  -1  -3   34.44    2.00
  -4  -1   3   35.81    1.77
  -4  -1   3   40.42    2.21
  -4   1   3   36.65    1.91
   4   1  -3   31.40    2.08
   3  -1  -3    1.06    0.50
  -3  -1   3    0.62    0.33
  -3  -1   3    1.54    0.61
   3   1  -3    1.52    0.57
  -3   1   3    0.73    0.54
  -3   1   3    1.07    0.45
   2  -1  -3  321.42   10.75
  -2  -1   3  319.97   10.86
  -2  -1   3  321.32   10.34
   2   1  -3  316.28   10.97
  -2   1   3  317.41   10.74
  -2   1   3  324.93   10.51
  -1  -1   3   82.56    3.04
   1  -1  -3   79.98    2.67
  -1  -1   3   75.98    2.65
  -1  -1   3   79.29    3.08
   1  -1  -3   78.81    2.90
   1   1  -3   79.95    2.66
  -1   1   3   80.63    2.89
   1   1  -3   82.31    3.11
   1   1  -3   79.79    3.01
  -1   1   3   76.34    2.66
   0  -1   3  237.37    8.53
   0  -1   3  242.70    8.56
   0  -1  -3  263.93    8.67
   0  -1   3  253.98    8.52
   0  -1  -3  251.78    8.52
   0   1  -3  257.20    8.57
   0   1   3  252.95    8.50
   0   1   3  271.89    8.70
   0   1  -3  236.57    8.56
   0   1  -3  266.07    8.54
  -1  -1  -3  119.73    4.63
  -1  -1  -3  120.39    4.51
   1  -1   3  130.92    4.52
   1  -1   3  128.41    4.65
  -1  -1  -3  114.99    4.53
   1  -1   3  122.51    4.34
  -1  -1  -3  124.44    4.54
   1  -1   3  130.43    4.59
  -1   1  -3  128.31    4.52
   1   1   3  119.35    4.52
   1   1   3  125.27    4.57
   1   1   3  115.23    4.62
  -1   1  -3  130.97    4.65
   2  -1   3   24.05    1.56
  -2  -1  -3   22.76    1.45
  -2   1  -3   21.74    1.20
  -2   1  -3   21.22    1.33
   2   1   3   22.30    1.47
   3  -1   3    7.14    1.20
  -3  -1  -3    7.97    1.09
  -3   1  -3    7.78    1.08
   3   1   3    7.37    1.17
  -4  -1  -3   -0.14    0.64
   4  -1   3   -0.07    0.85
   4   1   3    0.67    0.84
  -4   1  -3    0.68    0.65
  -5  -1  -3    2.60    1.01
   5  -1   3    2.01    0.96
  -5   1  -3    0.93    0.80
   5   1   3    1.75    1.08
  -6  -1  -3    3.27    1.35
  -6  -1  -3    4.23    1.32
   6   1   3    4.20    1.40
  -6   1  -3    6.27    1.39
  -6  -2   3    3.49    1.34
   6   2  -3    5.67    1.50
   5  -2  -3   92.35    4.16
  -5  -2   3   96.52    4.56
  -5   2   3   99.25    4.02
   5   2  -3   98.68    4.67
   4  -2  -3    0.26    0.48
  -4  -2   3   -0.64    0.74
  -4  -2   3    0.06    0.45
   4   2  -3    1.25    0.84
  -4   2   3    0.52    0.52
  -3  -2   3  100.56    3.53
  -3  -2   3   99.29    4.19
   3   2  -3  101.95    4.31
  -3   2   3  101.62    3.62
  -3   2   3  102.34    3.84
   2  -2  -3   59.51    2.29
  -2  -2   3   56.93    2.67
  -2   2   3   61.39    1.99
  -2   2   3   63.54    2.31
  -2   2   3   57.71    1.98
   2   2  -3   62.97    2.76
  -1  -2   3  243.49    8.37
  -1  -2   3  243.23    8.41
   1  -2  -3  243.17    8.03
   1  -2  -3  245.03    7.81
   1   2  -3  238.81    8.39
  -1   2   3  241.85    8.01
   1   2  -3  236.32    7.97
   0  -2   3  254.18    8.74
   0  -2  -3  249.34    8.56
   0  -2  -3  258.16    8.84
   0  -2   3  256.53    8.67
   0   2   3  261.54    8.56
   0   2  -3  258.59    8.65
   0   2  -3  260.46    8.69
   0   2   3  237.22    8.67
   0   2   3  254.98    8.86
   1  -2   3   41.84    1.97
   1  -2   3   42.86    1.60
  -1  -2  -3   35.93    1.96
  -1  -2  -3   41.47    1.94
   1  -2   3   42.31    1.85
  -1  -2  -3   37.23    1.91
  -1  -2  -3   38.11    1.89
   1  -2   3   45.01    2.03
  -1   2  -3   47.80    1.91
   1   2   3   38.82    2.03
  -1   2  -3   42.59    2.00
   2  -2   3   69.82    3.22
   2   2   3   68.63    3.08
  -2   2  -3   71.21    2.68
   2   2   3   72.17    3.21
  -2   2  -3   70.37    2.91
  -3  -2  -3   48.91    2.65
   3  -2   3   46.85    2.73
   3   2   3   50.06    2.69
   3   2   3   46.05    2.62
  -3   2  -3   50.86    2.24
  -3   2  -3   55.39    2.48
  -4  -2  -3   12.46    1.59
   4  -2   3   13.72    1.87
  -4  -2  -3   14.27    1.82
   4   2   3   11.89    1.60
  -4   2  -3   12.58    1.48
   4   2   3   11.20    1.61
  -5  -2  -3    2.06    1.00
  -5  -2  -3    2.23    1.18
  -5   2  -3    3.52    0.97
   5   2   3    1.80    1.08
  -6  -2  -3    2.76    1.17
  -6  -2  -3    1.42    1.21
   6   2   3    0.37    1.15
  -6   2  -3    1.28    0.85
  -6  -3   3    0.53    1.24
   6   3  -3   -0.02    0.74
  -5  -3   3   20.42    2.25
   5  -3  -3   21.93    1.55
   5   3  -3   18.14    2.20
   4  -3  -3    1.40    0.57
  -4  -3   3    1.30    0.99
   4   3  -3    1.13    0.71
   4   3  -3    0.52    0.41
  -4   3   3    1.08    0.52
  -3  -3   3    2.79    0.94
   3  -3  -3    3.35    0.50
  -3   3   3    2.41    0.50
  -3   3   3    2.81    0.40
   3   3  -3    2.14    0.38
  -3   3   3    2.86    0.39
   3   3  -3    2.66    0.75
  -2  -3   3  170.98    6.63
   2  -3  -3  184.02    5.91
   2   3  -3  177.85    6.64
  -2   3   3  169.82    5.88
   2   3  -3  183.08    6.01
   1  -3  -3  177.87    5.97
  -1  -3   3  183.87    6.59
   1  -3  -3  179.34    5.97
  -1   3   3  176.22    5.96
   1   3  -3  180.09    6.49
   0  -3  -3  151.96    5.33
   0  -3  -3  151.10    5.30
   0  -3   3  151.76    5.46
   0  -3  -3  145.02    5.31
   0  -3   3  161.20    5.64
   0   3   3  144.34    5.49
   0   3   3  156.46    5.78
   0   3  -3  148.04    5.47
   0   3  -3  156.82    5.50
   1  -3   3  270.46    9.04
   1  -3   3  264.39    9.24
  -1  -3  -3  264.34    9.18
   1  -3   3  255.73    8.59
  -1  -3  -3  263.11    9.19
   1   3   3  253.23    9.40
  -1   3  -3  268.53    9.04
   1   3   3  269.49    9.18
  -2  -3  -3  114.67    4.69
   2  -3   3  122.55    4.74
   2  -3   3  115.52    4.64
   2   3   3  116.06    4.71
   2   3   3  113.40    4.80
  -2   3  -3  118.26    4.41
  -3  -3  -3   24.07    2.16
  -3   3  -3   29.73    1.40
   3   3   3   20.02    2.00
   3   3   3   25.12    1.94
  -3   3  -3   27.95    1.65
  -4  -3  -3   11.26    1.65
  -4  -3  -3   13.68    1.78
  -4   3  -3   13.23    1.44
   4   3   3   10.10    1.63
   4   3   3   10.06    1.58
  -5  -3  -3   16.23    2.12
  -5  -3  -3   15.87    2.01
   5   3   3   12.48    1.82
   5   3   3   20.89    2.37
  -5   3  -3   20.32    1.85
  -6  -3  -3    1.28    1.37
  -6  -3  -3    1.63    0.84
   6   3   3   -0.81    1.17
  -6  -4   3    0.05    1.29
   6   4  -3   -0.41    1.11
  -5  -4   3    6.02    1.60
   5   4  -3    8.70    1.60
  -4  -4   3    2.00    0.93
   4   4  -3    4.08    1.23
   4   4  -3    2.57    0.53
  -4   4   3    3.15    0.49
  -3  -4   3   21.48    2.11
  -3   4   3   22.99    0.90
  -3   4   3   23.73    0.89
   3   4  -3   21.46    2.04
  -3   4   3   22.37    1.05
   3   4  -3   25.70    1.25
  -2  -4   3    6.60    1.07
   2   4  -3    2.06    0.50
   2   4  -3    3.14    0.83
  -2   4   3    3.51    0.39
   1  -4  -3    2.93    0.52
   1  -4  -3    4.45    0.40
   1  -4  -3    4.58    0.41
  -1  -4   3    4.19    0.92
   1   4  -3    4.71    0.87
  -1   4   3    5.24    0.58
   0  -4   3   65.56    2.99
   0  -4  -3   64.29    2.71
   0  -4  -3   62.23    2.57
   0   4  -3   68.19    2.85
   0   4   3   72.38    2.91
   1  -4   3    5.53    0.72
  -1  -4  -3    7.06    0.98
   1  -4   3    5.55    0.88
  -1  -4  -3    6.75    0.89
   1   4   3    5.86    1.05
   1   4   3    5.24    0.83
  -1   4  -3    5.92    0.80
  -2  -4  -3   -0.22    0.43
   2  -4   3    0.00    0.41
   2   4   3   -0.31    0.41
   2   4   3    0.19    0.67
  -2   4  -3   -0.11    0.41
  -3  -4  -3   -0.04    0.84
  -3   4  -3    2.52    0.38
   3   4   3    0.88    0.82
   3   4   3    2.32    0.82
  -3   4  -3    2.34    0.69
  -4  -4  -3    8.80    1.56
  -4   4  -3   12.49    1.32
   4   4   3   11.97    1.76
   4   4   3   12.53    1.89
  -5  -4  -3    5.06    1.26
  -5  -4  -3    4.90    1.49
   5   4   3    6.28    1.54
   5   4   3    4.93    1.37
  -5   4  -3    5.44    1.03
  -6  -4  -3    1.52    0.97
  -6  -4  -3   -1.24    1.15
   6   4   3   -0.41    0.76
   6   4   3    0.74    1.28
   6   5  -3    1.00    1.32
  -5  -5   3    0.93    1.28
   5   5  -3    0.22    1.05
  -4  -5   3   32.42    2.97
   4   5  -3   29.47    2.68
  -3  -5   3   -0.27    0.96
   3   5  -3    0.24    0.64
   3   5  -3   -0.20    0.47
   2  -5  -3   -0.05    0.30
  -2  -5   3    0.39    0.69
   2   5  -3   -0.24    0.47
  -2   5   3    0.07    0.35
   2   5  -3   -0.17    0.67
   1  -5  -3  105.36    3.70
   1  -5  -3  106.65    3.70
  -1  -5   3  107.68    4.68
   1  -5  -3  106.22    4.08
   1   5  -3  114.06    4.48
  -1   5   3  113.83    4.26
   0  -5  -3    4.74    0.84
   0  -5   3    5.97    0.98
   0  -5  -3    6.30    0.77
   0   5   3    7.35    1.13
   0   5  -3    5.04    0.86
  -1  -5  -3    0.58    0.62
   1  -5   3    0.67    0.63
  -1   5  -3    0.60    0.56
   1   5   3   -0.03    0.69
   1   5   3   -0.12    0.56
   2  -5   3   31.33    1.96
  -2  -5  -3   27.19    2.28
   2   5   3   31.06    2.02
   2   5   3   27.50    2.02
  -2   5  -3   27.58    1.60
  -3  -5  -3    9.18    1.44
   3   5   3    8.12    1.45
   3   5   3    6.81    1.39
  -3   5  -3    8.12    1.00
  -4  -5  -3   21.42    2.43
   4   5   3   29.49    2.66
  -4   5  -3   25.22    1.66
   4   5   3   26.17    2.61
  -5  -5  -3    2.66    1.10
  -5  -5  -3    0.97    1.25
   5   5   3    1.37    1.26
   5   5   3    1.03    1.21
  -5  -6   3   -0.33    1.25
   5   6  -3    1.03    0.96
  -4  -6   3   -2.63    0.95
   4   6  -3    1.14    1.05
  -3  -6   3   29.33    2.79
   3   6  -3   30.06    2.62
   3   6  -3   26.28    1.73
  -2  -6   3   17.05    2.06
   2   6  -3   12.89    1.65
  -2   6   3   16.72    1.21
   1  -6  -3    0.48    0.59
   1  -6  -3    0.28    0.23
  -1  -6   3    0.12    0.88
   1  -6  -3   -0.40    0.26
  -1   6   3    1.10    0.48
   1   6  -3    0.03    0.63
   0  -6  -3    0.01    0.71
   0  -6   3   -0.07    0.76
   0  -6  -3    0.97    0.55
   0  -6  -3    1.39    0.45
   0   6   3    0.55    0.68
   0   6  -3    0.95    0.64
  -1  -6  -3    4.47    1.06
   1  -6   3    2.29    0.88
  -1   6  -3    4.80    0.87
   1   6   3    1.44    0.80
   1   6   3    4.87    0.93
  -2  -6  -3   73.45    3.64
   2  -6   3   72.68    3.57
   2   6   3   79.97    3.65
   2   6   3   72.04    3.87
  -2   6  -3   70.48    3.07
   3  -6   3    2.81    0.95
  -3  -6  -3    2.54    0.97
   3   6   3    2.78    1.09
  -3   6  -3    2.30    0.72
   3   6   3    3.83    1.26
  -4  -6  -3   -0.18    1.00
   4   6   3    1.23    1.17
   4   6   3   -0.27    0.92
  -5  -6  -3   -1.58    1.05
  -5  -6  -3    0.52    0.98
   5   6   3    1.00    1.13
   5   6   3   -0.21    0.78
  -5  -7   3    3.39    1.84
   5   7  -3    4.02    1.58
  -4  -7   3    1.84    1.46
   4   7  -3    1.31    0.95
  -3  -7   3    0.84    0.95
   3   7  -3    2.49    0.88
   3   7  -3    1.66    0.89
   2  -7  -3    3.35    0.75
  -2  -7   3    3.55    1.37
  -2   7   3    4.34    0.79
   2   7  -3    2.99    0.91
   2   7  -3    4.53    1.17
   1  -7  -3   -0.99    0.64
  -1  -7   3   -0.01    0.73
   1  -7  -3    0.17    0.24
   1   7  -3   -0.58    0.65
   0  -7  -3   14.72    1.69
   0  -7  -3   14.89    1.26
   0  -7   3   15.28    1.87
   0   7  -3   13.65    1.43
   0   7   3   11.39    1.85
   1  -7   3    3.16    1.05
  -1  -7  -3    2.66    1.04
  -1   7  -3    3.48    0.79
   1   7   3    3.00    1.24
   1   7   3    0.45    0.76
   2  -7   3    3.43    1.05
  -2  -7  -3    2.93    1.22
   2   7   3    6.17    1.49
   2   7   3    5.19    1.16
  -2   7  -3    4.60    0.82
  -3  -7  -3    7.79    1.52
   3  -7   3   11.64    1.69
   3   7   3    4.83    1.47
   3   7   3    8.11    1.55
  -4  -7  -3   -0.21    0.87
   4   7   3   -0.79    1.16
   4   7   3    2.13    1.24
  -4  -8   3    0.12    1.36
   4   8  -3    0.70    1.16
  -3  -8   3   -0.93    0.89
   3   8  -3    1.40    1.13
  -2  -8   3   -0.09    1.16
   2   8  -3    0.52    0.89
   2   8  -3    0.03    0.91
   1  -8  -3    2.54    0.89
  -1  -8   3    2.69    1.28
   1   8  -3    2.81    0.97
   0  -8  -3    2.74    0.63
   0  -8   3    1.91    1.12
   0  -8  -3    1.68    0.97
   0   8  -3    3.42    0.86
   0   8   3    2.79    1.12
   1  -8   3    2.44    1.07
  -1  -8  -3    1.89    1.15
  -1   8  -3    3.72    0.85
   1   8   3    3.13    1.40
   1   8   3    4.28    1.01
  -2  -8  -3    1.09    1.12
   2  -8   3    1.94    1.00
   2   8   3    1.85    0.99
   2   8   3    1.22    1.14
   3  -8   3    1.49    1.04
  -3  -8  -3    0.84    1.28
   3   8   3    1.53    1.34
   3   8   3    1.04    1.07
  -4  -8  -3    3.39    1.74
   4   8   3    3.85    1.60
   4   8   3    6.53    1.62
  -3  -9   3    2.50    1.57
   3   9  -3    0.90    1.19
  -2  -9   3    0.35    1.36
   2   9  -3    0.19    0.90
   2   9  -3   -0.23    1.10
   1  -9  -3   36.81    2.38
  -1  -9   3   29.66    2.97
   1   9  -3   33.15    2.33
   0  -9   3    3.33    1.39
   0  -9  -3    3.36    1.22
   0   9  -3    4.15    1.10
   0   9   3    3.15    1.28
   1  -9   3    7.57    1.60
  -1  -9  -3    7.30    1.10
  -1  -9  -3    8.12    1.69
   1   9   3    5.92    1.11
   1   9   3    5.26    1.65
   2  -9   3   10.36    1.71
  -2  -9  -3    9.16    1.85
   2   9   3    6.76    1.78
   2   9   3    9.86    1.55
   3  -9   3    8.25    1.57
  -3  -9  -3    4.66    1.48
   3   9   3    6.55    1.58
   3   9   3    4.09    1.63
  -2 -10   3    1.65    1.62
   2  10  -3    1.54    1.10
  -1 -10   3   -0.19    1.23
   1  10  -3   -0.23    0.88
  -1  10   3    0.94    1.46
   0 -10  -3    0.77    1.16
   0 -10   3    0.37    1.14
   0  10   3    0.68    1.12
  -1 -10  -3    0.42    1.29
   1 -10   3    0.73    1.09
   1  10   3   -0.27    1.32
   2 -10   3    6.09    1.49
  -2 -10  -3    4.10    1.76
   2  10   3    8.54    2.05
   6   0  -4    1.79    1.11
  -5   0   4   12.53    1.49
   5   0  -4   10.17    1.50
  -4   0   4  101.37    4.12
  -4   0   4   97.04    3.88
   4   0  -4  105.35    4.37
   3   0  -4    3.34    0.75
  -3   0   4    3.27    0.66
  -3   0   4    3.83    0.55
  -2   0   4   80.84    3.08
   2   0  -4   83.23    3.32
  -1   0   4  192.87    6.52
   1   0  -4  196.05    6.73
  -1   0   4  199.55    6.54
   1   0  -4  193.13    6.52
  -1   0   4  198.94    6.71
   1   0  -4  171.84    6.50
   0   0   4   23.32    1.29
   0   0   4   27.04    1.31
   0   0  -4   26.57    1.40
   0   0  -4   28.69    1.31
   0   0  -4   25.46    1.34
   0   0   4   25.10    1.34
   1   0   4    0.18    0.46
  -1   0  -4   -0.05    0.41
   1   0   4    0.20    0.24
  -1   0  -4   -0.39    0.38
   1   0   4   -0.13    0.27
   2   0   4    1.58    0.67
  -2   0  -4    1.86    0.63
   3   0   4   50.61    2.83
  -3   0  -4   52.80    2.67
  -4   0  -4    0.00    0.56
   4   0   4    0.81    0.71
  -5   0  -4    3.57    1.13
   5   0   4    1.63    1.11
  -6   0  -4    6.35    1.47
   6   0   4    5.62    1.62
  -6  -1   4    0.50    1.11
   6  -1  -4    1.20    0.89
   6   1  -4    0.80    0.97
  -5  -1   4    0.08    0.83
   5  -1  -4    0.39    0.72
  -5   1   4   -0.57    0.66
   5   1  -4    0.90    0.87
  -4  -1   4   18.69    1.09
  -4  -1   4   19.43    1.72
   4  -1  -4   20.64    1.77
  -4   1   4   19.67    1.36
   4   1  -4   22.57    2.03
  -3  -1   4    7.46    0.97
  -3  -1   4    6.60    0.46
   3  -1  -4    8.45    1.03
   3   1  -4    9.17    1.18
  -3   1   4    9.04    0.98
  -3   1   4    7.71    0.75
   2  -1  -4   73.61    2.89
   2  -1  -4   74.49    2.56
  -2  -1   4   69.93    2.93
  -2   1   4   69.09    2.84
  -2   1   4   72.63    2.56
   2   1  -4   70.20    3.04
  -1  -1   4   24.64    1.36
  -1  -1   4   25.26    1.07
  -1  -1   4   26.10    1.33
   1  -1  -4   25.92    1.07
   1  -1  -4   27.90    1.32
  -1   1   4   22.96    1.31
   1   1  -4   25.49    1.08
   1   1  -4   25.34    1.45
  -1   1   4   25.42    1.06
  -1   1   4   27.60    1.29
   0  -1   4  980.37   30.76
   0  -1   4  938.33   30.79
   0  -1  -4  932.75   30.75
   0  -1  -4  947.46   30.88
   0  -1   4  910.77   30.78
   0  -1  -4  926.16   30.64
   0   1   4  943.30   30.73
   0   1  -4  949.72   30.74
   0   1  -4  942.77   30.83
   0   1   4  966.03   30.92
   1  -1   4   16.43    1.08
   1  -1   4   19.40    1.04
  -1  -1  -4   16.76    1.16
   1  -1   4   18.47    1.16
  -1  -1  -4   17.57    1.20
   1  -1   4   20.43    1.25
  -1   1  -4   18.09    1.25
   1   1   4   18.51    1.32
   1   1   4   17.90    1.20
  -1   1  -4   19.90    1.24
  -2  -1  -4   29.03    1.73
   2  -1   4   28.65    1.85
  -2   1  -4   30.36    1.72
  -2   1  -4   32.32    1.59
   2   1   4   31.34    1.94
   3  -1   4   45.45    2.69
  -3  -1  -4   49.07    2.62
  -3   1  -4   47.48    2.48
   3   1   4   47.84    2.72
   4  -1   4   13.22    1.72
  -4  -1  -4   10.50    1.47
  -4   1  -4    9.52    1.45
   4   1   4   14.98    1.78
   5  -1   4   42.59    3.03
  -5  -1  -4   39.23    2.78
  -5   1  -4   44.60    2.76
   5   1   4   40.82    2.93
  -6  -1  -4    2.77    1.10
   6  -1   4    1.61    1.37
  -6  -1  -4    2.45    1.31
   6   1   4    2.87    1.51
  -6   1  -4    1.74    1.05
  -6  -2   4    3.51    1.32
   6   2  -4    3.13    1.24
  -5  -2   4   -1.04    1.00
   5  -2  -4    1.49    0.80
   5   2  -4    0.21    0.88
  -4  -2   4   39.09    1.52
   4  -2  -4   39.72    2.08
  -4  -2   4   43.56    2.48
  -4   2   4   37.78    1.81
   4   2  -4   37.60    2.48
  -3  -2   4    8.98    1.19
   3   2  -4   10.88    1.35
  -3   2   4    9.22    0.96
  -3   2   4    7.39    0.56
  -2  -2   4   31.38    1.72
   2  -2  -4   31.64    1.46
  -2   2   4   30.62    1.45
   2   2  -4   32.09    1.86
  -1  -2   4    1.30    0.56
   1  -2  -4    2.29    0.26
   1   2  -4    2.07    0.32
   1   2  -4    1.58    0.52
  -1   2   4    1.87    0.37
  -1   2   4    1.91    0.58
   0  -2   4   12.33    0.89
   0  -2  -4   10.83    1.11
   0  -2   4   12.67    1.05
   0  -2  -4   11.19    0.94
   0  -2   4   10.66    1.07
   0   2   4   13.76    1.21
   0   2  -4   11.20    0.85
   0   2  -4   12.35    1.10
   0   2   4   12.93    0.93
   0   2   4   12.58    0.85
   1  -2   4   76.54    3.24
  -1  -2  -4   76.33    3.23
   1  -2   4   82.77    3.36
   1  -2   4   78.55    2.90
  -1   2  -4   80.85    3.19
   1   2   4   76.16    3.42
   1   2   4   75.70    3.28
  -2  -2  -4    5.73    0.98
   2  -2   4    8.55    1.11
  -2   2  -4    7.24    0.96
   2   2   4    8.13    1.11
   3  -2   4    2.06    0.92
  -3  -2  -4    1.76    0.78
   3   2   4    1.59    0.90
  -3   2  -4    2.08    0.73
  -4  -2  -4    2.26    0.89
   4  -2   4    1.41    1.06
  -4   2  -4    2.70    0.84
   4   2   4    3.26    1.15
   5  -2   4   -0.01    1.13
  -5  -2  -4    2.84    1.08
  -5  -2  -4    1.07    1.12
   5   2   4    2.42    1.17
  -5   2  -4    2.48    0.93
  -6  -2  -4    1.73    1.36
  -6  -2  -4    3.17    1.12
  -6   2  -4    3.45    1.11
   6   2   4    3.82    1.50
  -6  -3   4    0.52    1.21
   6   3  -4    0.44    1.07
  -5  -3   4    0.19    1.06
   5   3  -4    0.26    0.95
  -4  -3   4    6.49    1.36
   4  -3  -4    7.48    0.89
  -4   3   4    6.83    0.87
   4   3  -4    7.74    1.44
   3  -3  -4    9.93    0.85
  -3  -3   4    9.90    1.31
   3   3  -4   10.58    1.44
  -3   3   4   10.29    0.88
  -2  -3   4    0.66    0.71
   2  -3  -4   -0.04    0.27
   2   3  -4   -0.03    0.60
   2   3  -4    0.05    0.14
  -2   3   4    0.46    0.29
   2   3  -4    0.43    0.18
  -1  -3   4    1.80    0.68
   1  -3  -4    1.44    0.38
   1  -3  -4    1.36    0.29
   1   3  -4    2.41    0.71
  -1   3   4    0.68    0.29
   1   3  -4    0.45    0.31
   0  -3  -4   -0.07    0.31
   0  -3   4    0.01    0.53
   0  -3  -4    0.07    0.38
   0  -3  -4    0.32    0.32
   0   3  -4    1.12    0.58
   0   3  -4    0.56    0.42
   0   3   4    0.62    0.48
   0   3   4    0.78    0.41
   1  -3   4   18.06    0.89
   1  -3   4   17.67    1.53
  -1  -3  -4   18.43    1.28
  -1  -3  -4   19.81    1.25
  -1   3  -4   19.34    1.27
   1   3   4   18.09    1.63
   1   3   4   16.33    1.24
  -2  -3  -4  106.71    4.50
   2  -3   4  111.32    4.54
  -2  -3  -4  109.33    4.51
   2  -3   4  111.81    4.70
  -2   3  -4  109.48    4.29
   2   3   4  107.49    4.73
   3  -3   4    4.90    1.06
  -3  -3  -4    2.87    0.86
  -3  -3  -4    4.17    1.01
   3   3   4    0.38    0.78
  -3   3  -4    5.00    0.69
  -3   3  -4    3.17    0.78
  -4  -3  -4    4.87    1.10
  -4  -3  -4    6.88    1.43
   4   3   4    5.42    1.29
  -4   3  -4    5.22    0.98
  -5  -3  -4   -0.17    0.74
  -5  -3  -4   -0.47    0.63
   5   3   4   -0.31    1.00
  -5   3  -4    0.37    0.76
  -6  -3  -4    1.63    1.37
  -6  -3  -4    1.01    1.04
  -6   3  -4   -0.34    0.95
   6   3   4    1.54    1.41
  -6  -4   4   -0.97    1.29
   6   4  -4    0.75    1.20
  -5  -4   4   -1.25    1.06
   5   4  -4    0.78    1.09
  -4  -4   4    3.83    1.25
   4   4  -4    3.35    1.17
  -3  -4   4   13.10    1.73
   3  -4  -4   11.57    0.63
  -3   4   4   11.05    0.61
   3   4  -4   10.79    0.61
   3   4  -4   12.06    1.59
   2  -4  -4   12.44    0.56
  -2  -4   4   12.37    1.52
   2   4  -4   11.82    1.41
   2   4  -4   10.11    0.81
   1  -4  -4    0.70    0.30
   1  -4  -4    0.62    0.31
  -1  -4   4   -0.61    0.39
   1  -4  -4    0.32    0.35
   1   4  -4    1.11    0.66
   1   4  -4    0.80    0.45
   0  -4  -4   12.92    1.06
   0  -4  -4   13.93    1.13
   0  -4  -4   12.23    1.04
   0  -4   4   13.76    1.43
   0   4  -4   12.28    1.26
   0   4   4   13.29    1.30
   0   4   4   13.24    1.47
  -1  -4  -4    0.91    0.53
   1  -4   4    1.52    0.25
   1  -4   4    1.24    0.67
  -1  -4  -4    2.73    0.72
  -1   4  -4    2.88    0.67
   1   4   4    0.79    0.74
  -2  -4  -4    2.57    0.79
   2  -4   4    1.67    0.74
  -2  -4  -4    1.04    0.65
  -2   4  -4    2.05    0.68
   2   4   4    2.14    0.78
  -3  -4  -4   18.96    1.98
  -3  -4  -4   21.97    2.11
   3   4   4   21.00    2.20
  -3   4  -4   20.19    1.48
   3   4   4   18.93    2.05
  -4  -4  -4    0.71    0.84
  -4  -4  -4    1.32    0.83
  -4   4  -4    0.16    0.67
   4   4   4   -0.73    0.89
   4   4   4    0.46    0.99
  -5  -4  -4    0.20    1.12
  -5  -4  -4    1.94    0.89
   5   4   4    0.62    1.09
  -5   4  -4    1.41    0.83
  -5  -5   4    0.65    1.32
   5   5  -4    2.43    1.07
  -4  -5   4    1.75    1.26
   4   5  -4    2.10    0.92
  -3  -5   4   31.69    2.75
   3   5  -4   36.43    1.66
   3   5  -4   31.54    2.67
  -2  -5   4    0.05    0.89
   2  -5  -4    2.43    0.34
   2   5  -4    2.11    0.89
   2   5  -4    1.90    0.61
   1  -5  -4    8.46    0.67
   1  -5  -4    8.51    0.63
  -1  -5   4    9.21    1.29
   1  -5  -4    8.95    0.88
   1   5  -4    6.59    1.10
  -1   5   4    7.22    0.97
   0  -5  -4   33.70    1.68
   0  -5   4   34.25    2.14
   0  -5  -4   33.88    1.85
   0   5   4   31.11    2.16
   0   5  -4   32.33    1.92
   0   5   4   33.89    1.96
  -1  -5  -4    8.89    1.22
   1  -5   4   11.48    1.37
  -1  -5  -4   12.25    1.28
  -1   5  -4    9.15    1.11
   1   5   4    9.52    1.50
  -2  -5  -4    0.50    0.62
   2  -5   4   -0.47    0.41
  -2  -5  -4    0.09    0.74
   2   5   4    0.02    0.62
  -2   5  -4    0.12    0.63
   2   5   4    0.40    0.73
  -3  -5  -4    1.88    0.88
  -3  -5  -4    1.89    1.03
  -3   5  -4    1.65    0.73
   3   5   4    3.14    1.14
   3   5   4    1.01    0.97
  -4  -5  -4    4.39    1.20
  -4  -5  -4    5.10    1.16
   4   5   4    2.42    1.19
   4   5   4    5.69    1.35
  -4   5  -4    4.55    0.94
  -5  -5  -4    1.20    1.08
  -5  -5  -4    1.27    1.06
   5   5   4    2.44    1.32
  -5  -6   4    1.99    1.54
   5   6  -4    1.75    1.28
  -4  -6   4    6.12    1.76
   4   6  -4    6.00    1.34
  -3  -6   4    2.72    1.10
   3   6  -4    1.38    1.08
   3   6  -4    3.44    0.76
  -2  -6   4    3.23    1.10
   2  -6  -4    4.83    0.61
   2   6  -4    5.73    1.16
   2   6  -4    6.93    1.03
  -2   6   4    7.39    1.05
   1  -6  -4    9.21    0.68
   1  -6  -4   11.78    1.17
   1  -6  -4    9.50    0.67
  -1  -6   4    8.66    1.50
  -1   6   4   10.65    1.22
   1   6  -4    8.74    1.31
   0  -6  -4   10.99    1.25
   0  -6   4   15.22    1.66
   0  -6  -4    8.20    0.90
   0   6  -4   10.96    1.30
   0   6   4   11.31    1.74
   1  -6   4   22.78    2.14
  -1  -6  -4   18.58    1.86
  -1  -6  -4   20.34    1.72
  -1   6  -4   20.31    1.69
   1   6   4   19.10    2.18
  -2  -6  -4    2.65    1.07
   2  -6   4    2.89    0.89
  -2  -6  -4    2.76    0.89
   2   6   4    3.84    1.26
   2   6   4    4.15    1.05
  -2   6  -4    1.64    0.75
   3  -6   4    5.40    1.13
  -3  -6  -4    1.84    0.90
  -3  -6  -4    7.38    1.35
   3   6   4    5.28    1.28
   3   6   4    1.73    1.08
  -3   6  -4    3.14    0.83
  -4  -6  -4    6.77    1.68
  -4  -6  -4    9.21    1.64
   4   6   4    6.40    1.61
   4   6   4    8.41    1.72
  -5  -6  -4    0.16    0.71
  -5  -6  -4    0.14    1.20
   5   6   4    0.31    1.13
   5   6   4   -0.14    0.88
  -5  -7   4    0.19    1.14
   5   7  -4    0.31    1.28
  -4  -7   4    9.17    2.02
   4   7  -4    7.90    1.66
  -3  -7   4    0.45    1.23
  -3   7   4    0.59    0.64
   3   7  -4    0.17    0.78
  -2  -7   4   -1.03    0.94
   2   7  -4    0.74    0.88
   2   7  -4    0.00    0.40
  -2   7   4   -0.18    0.49
   1  -7  -4   36.78    2.05
  -1  -7   4   32.00    2.87
   1   7  -4   33.87    2.27
  -1   7   4   34.35    2.10
   0  -7  -4   34.85    1.79
   0  -7   4   26.37    2.50
   0  -7  -4   31.32    2.16
   0   7  -4   31.22    2.03
   0   7   4   33.21    2.52
  -1  -7  -4   30.84    2.58
   1  -7   4   33.22    2.39
  -1  -7  -4   32.89    2.02
   1   7   4   32.82    2.52
  -1   7  -4   32.83    2.01
  -2  -7  -4    3.13    1.05
  -2  -7  -4    3.22    0.89
   2  -7   4    2.76    0.96
   2   7   4    1.90    0.93
   2   7   4    2.54    1.26
  -2   7  -4    2.96    0.86
   3  -7   4    4.13    1.20
  -3  -7  -4    5.44    1.36
  -3  -7  -4    6.48    1.32
   3   7   4    5.68    1.38
   3   7   4    3.35    1.31
  -4  -7  -4    3.91    1.22
  -4  -7  -4    2.78    1.48
   4   7   4    3.39    1.34
   4   7   4    2.87    1.44
  -4  -8   4    5.54    1.91
   4   8  -4    5.78    1.62
  -3  -8   4   -0.07    1.37
   3   8  -4   -0.47    0.73
  -2  -8   4   -1.22    0.69
  -2   8   4    0.78    0.66
   2   8  -4   -0.57    0.82
   2   8  -4    0.70    0.96
  -1  -8   4   -0.03    0.78
   1  -8  -4    0.18    0.74
  -1   8   4    0.04    1.12
   1   8  -4    0.87    0.96
   0  -8  -4   21.50    2.14
   0  -8  -4   21.35    1.43
   0  -8   4   21.16    2.26
   0   8   4   18.28    2.39
   0   8  -4   18.33    1.82
  -1  -8  -4    0.47    1.00
  -1  -8  -4    2.54    0.89
   1  -8   4    3.29    1.15
   1   8   4    0.56    1.15
  -1   8  -4    0.58    0.75
  -2  -8  -4   12.24    1.92
   2  -8   4   19.40    2.18
  -2  -8  -4   11.72    1.59
   2   8   4   11.29    2.04
   2   8   4   14.15    1.77
   3  -8   4    6.79    1.44
  -3  -8  -4    3.17    1.49
  -3  -8  -4    6.77    1.37
   3   8   4    6.63    1.76
   3   8   4    4.43    1.39
  -4  -8  -4    2.63    1.10
  -4  -8  -4    0.57    1.42
   4   8   4    1.69    1.30
   4   8   4    1.26    1.33
  -3  -9   4   -0.26    1.45
   3   9  -4   -0.20    0.92
  -2  -9   4    2.04    1.58
   2   9  -4    1.31    1.09
  -1  -9   4    3.49    1.43
   1   9  -4    3.48    1.13
  -1   9   4    2.45    1.53
   0  -9  -4   12.68    1.80
   0  -9   4   17.71    2.32
   0   9  -4   16.04    1.77
   0   9   4   14.19    2.40
  -1  -9  -4   11.94    1.51
  -1  -9  -4   11.71    1.87
   1  -9   4   10.73    1.84
   1   9   4    9.61    2.02
   2  -9   4    1.17    1.02
  -2  -9  -4   -2.07    1.01
  -2  -9  -4    1.32    0.79
   2   9   4   -0.11    1.16
   3  -9   4    4.69    1.30
  -3  -9  -4    3.25    1.59
  -3  -9  -4    4.32    1.19
   3   9   4    2.72    1.54
   3   9   4    3.28    1.27
  -2 -10   4    3.72    1.77
   2  10  -4    0.84    1.10
  -1 -10   4    0.30    1.36
  -1  10   4   -0.24    1.53
   1  10  -4    0.35    1.07
   0 -10   4   -0.51    0.87
   0 -10  -4   -0.14    1.21
   0  10   4    1.21    1.18
  -1 -10  -4    2.87    1.41
   1 -10   4    5.99    1.58
   1  10   4    1.71    1.64
   6   0  -5   -0.04    0.89
   5   0  -5   -0.77    0.70
  -5   0   5   -0.44    0.80
  -4   0   5    0.93    0.70
   4   0  -5   -1.09    0.61
  -4   0   5   -0.44    0.41
   3   0  -5    2.64    0.75
  -3   0   5    0.78    0.52
  -3   0   5    0.61    0.38
  -2   0   5   -0.30    0.28
   2   0  -5   -0.23    0.23
   2   0  -5    0.02    0.35
  -2   0   5   -0.05    0.36
  -1   0   5   -0.10    0.33
   1   0  -5   -0.45    0.30
   1   0  -5    0.00    0.46
  -1   0   5   -0.02    0.32
   1   0  -5    0.09    0.32
   0   0  -5   -0.47    0.34
   0   0   5   -0.10    0.31
   0   0   5   -0.14    0.37
   0   0  -5   -0.38    0.41
   1   0   5   -0.10    0.37
  -1   0  -5    0.08    0.35
   1   0   5   -0.25    0.34
   2   0   5    0.60    0.62
  -2   0  -5    0.65    0.55
   3   0   5   -0.74    0.66
  -3   0  -5    1.26    0.57
   4   0   5    0.59    0.71
  -4   0  -5   -0.76    0.62
   5   0   5   -0.30    0.98
  -5   0  -5    0.76    0.88
  -6   0  -5    0.65    0.76
   6   0   5    0.23    1.30
  -6  -1   5    0.65    1.04
   6  -1  -5    1.14    0.89
   6   1  -5    1.58    1.13
   5  -1  -5    4.32    1.16
  -5  -1   5    3.98    1.05
   5   1  -5    3.74    1.17
   4  -1  -5    1.93    0.86
  -4  -1   5    0.80    0.75
  -4  -1   5    1.83    0.39
   4   1  -5    3.10    1.02
  -4   1   5    1.63    0.66
  -3  -1   5    0.26    0.56
   3  -1  -5    0.05    0.49
   3   1  -5    2.08    0.79
  -3   1   5    0.53    0.43
  -2  -1   5    3.65    0.75
  -2  -1   5    3.17    0.19
   2  -1  -5    2.74    0.62
   2  -1  -5    4.50    0.47
   2   1  -5    2.71    0.73
  -2   1   5    3.70    0.65
  -2   1   5    4.13    0.44
   1  -1  -5   -0.09    0.40
   1  -1  -5    0.18    0.27
  -1  -1   5   -0.46    0.37
  -1  -1   5   -0.03    0.26
   1   1  -5    1.08    0.57
  -1   1   5    0.26    0.39
  -1   1   5    0.21    0.38
  -1   1   5   -0.25    0.20
   1   1  -5    0.17    0.26
   0  -1  -5   22.16    1.42
   0  -1   5   23.65    1.32
   0  -1  -5   22.67    1.36
   0  -1   5   21.94    1.29
   0   1   5   25.37    1.49
   0   1  -5   23.21    1.31
   0   1   5   23.10    1.29
   0   1  -5   22.59    1.43
   1  -1   5   44.49    2.03
   1  -1   5   46.51    2.31
  -1  -1  -5   45.97    2.19
   1   1   5   44.63    2.17
  -1   1  -5   47.83    2.21
   1   1   5   43.92    2.36
   2  -1   5    3.04    0.78
  -2  -1  -5    3.97    0.83
   2   1   5    4.39    0.88
  -2   1  -5    3.32    0.80
  -3  -1  -5   12.81    1.54
   3  -1   5   12.82    1.55
  -3   1  -5   13.44    1.46
   3   1   5    8.68    1.31
   4  -1   5    6.32    1.43
  -4  -1  -5    5.56    1.28
  -4   1  -5    6.89    1.27
   4   1   5    6.50    1.44
  -5  -1  -5    3.95    1.29
   5  -1   5    5.41    1.40
   5   1   5    4.20    1.51
  -5   1  -5    5.50    1.28
  -6  -1  -5   -0.31    0.90
  -6  -1  -5    1.10    1.20
   6  -1   5    1.62    1.44
  -6   1  -5    1.35    1.00
   6   1   5    4.82    1.75
  -6  -2   5   -0.03    1.14
   6   2  -5   -0.22    1.01
   5  -2  -5    3.40    0.97
  -5  -2   5    1.90    1.09
   5   2  -5    2.31    0.96
   4  -2  -5   68.16    3.00
  -4  -2   5   67.99    3.32
   4   2  -5   58.97    3.35
  -4   2   5   62.50    2.49
  -3  -2   5    2.04    0.84
   3  -2  -5    0.85    0.41
   3   2  -5    1.30    0.64
  -3   2   5    1.24    0.18
  -2  -2   5    2.31    0.76
   2  -2  -5    1.10    0.43
  -2   2   5    1.74    0.47
   2   2  -5    1.30    0.72
   1  -2  -5    5.64    0.74
  -1  -2   5    7.13    0.95
  -1  -2   5    7.34    0.66
   1  -2  -5    6.96    0.51
   1   2  -5    8.35    1.08
  -1   2   5    7.47    0.75
   1   2  -5    7.75    0.61
  -1   2   5    8.34    1.02
   0  -2   5  101.97    3.97
   0  -2   5  103.04    4.07
   0  -2  -5  100.33    3.93
   0   2   5  102.47    3.94
   0   2  -5  102.04    3.96
   0   2  -5  100.96    4.04
   0   2   5  106.96    4.21
   1  -2   5  109.74    4.46
  -1  -2  -5  107.76    4.37
   1  -2   5  119.91    4.12
   1  -2   5  107.10    4.44
  -1   2  -5  114.40    4.38
   1   2   5  103.93    4.40
   1   2   5  111.70    4.65
   2  -2   5   38.99    2.21
  -2  -2  -5   29.07    1.93
   2   2   5   37.15    2.29
  -2   2  -5   36.60    2.01
   3  -2   5    5.19    1.24
  -3  -2  -5    5.90    1.18
   3   2   5    3.63    1.13
  -3   2  -5    6.18    0.99
   4  -2   5   19.81    2.31
  -4  -2  -5   18.95    2.10
   4   2   5   17.84    2.07
  -4   2  -5   20.11    1.96
  -5  -2  -5    2.56    1.11
   5  -2   5    6.50    1.49
  -5  -2  -5    4.91    1.36
   5   2   5    4.94    1.46
  -5   2  -5    4.77    1.17
  -6  -2  -5   10.95    2.01
  -6  -2  -5    6.57    1.80
   6   2   5    5.97    1.75
  -6   2  -5    7.89    1.52
  -6  -3   5    0.04    1.20
   6   3  -5    0.54    1.09
  -5  -3   5    0.43    1.09
   5   3  -5   -0.10    0.93
  -4  -3   5   45.69    2.91
   4  -3  -5   54.05    2.37
   4   3  -5   46.93    2.88
  -3  -3   5   51.83    2.85
   3  -3  -5   52.77    2.23
   3   3  -5   52.53    2.81
  -3   3   5   49.89    2.21
  -2  -3   5   72.43    3.33
   2  -3  -5   68.47    2.71
  -2   3   5   69.88    2.68
   2   3  -5   68.25    3.24
  -1  -3   5   22.49    1.46
   1  -3  -5   20.69    0.94
  -1   3   5   21.69    1.13
  -1   3   5   18.86    1.44
   1   3  -5   19.41    1.09
   1   3  -5   17.73    1.61
   0  -3   5    2.06    0.62
   0  -3  -5    2.48    0.58
   0   3   5    2.17    0.68
   0   3   5    2.56    0.70
   0   3  -5    3.28    0.80
   0   3  -5    2.54    0.60
  -1  -3  -5  218.57    8.13
   1  -3   5  229.73    8.29
   1  -3   5  231.07    8.30
   1   3   5  218.07    8.47
  -1   3  -5  231.06    8.13
   1   3   5  226.80    8.31
  -2  -3  -5   25.60    1.83
   2  -3   5   28.86    1.90
   2  -3   5   25.71    1.96
  -2   3  -5   27.91    1.73
   2   3   5   29.51    2.10
  -3  -3  -5   11.72    1.62
   3  -3   5   13.79    1.76
  -3   3  -5   16.65    1.61
   3   3   5   12.60    1.75
  -4  -3  -5   16.30    2.05
   4  -3   5   20.39    2.38
  -4  -3  -5   16.45    2.02
  -4   3  -5   20.33    1.93
   4   3   5   17.68    2.16
  -5  -3  -5    1.52    1.17
  -5  -3  -5   -0.13    0.62
   5   3   5   -1.08    0.96
  -5   3  -5    0.18    0.74
  -6   3  -5    2.57    1.13
  -6  -4   5    4.66    1.71
   6   4  -5    5.69    1.51
  -5  -4   5    1.18    1.25
   5   4  -5    2.15    1.02
  -4  -4   5    4.04    1.36
   4   4  -5    5.83    1.45
   3  -4  -5    2.33    0.42
  -3  -4   5    2.56    1.15
  -3   4   5    2.49    0.42
   3   4  -5    2.23    0.98
   2  -4  -5  104.65    3.66
  -2  -4   5  104.18    4.59
  -2   4   5  101.65    3.63
   2   4  -5  100.32    3.66
   2   4  -5  106.15    4.53
  -1  -4   5   19.10    1.72
   1  -4  -5   19.16    1.08
   1  -4  -5   16.23    0.98
   1  -4  -5   17.13    0.96
  -1   4   5   17.00    1.71
   1   4  -5   16.99    1.14
  -1   4   5   16.88    0.99
   1   4  -5   18.09    1.62
   0  -4   5    4.57    0.97
   0  -4  -5    4.48    0.70
   0  -4  -5    4.30    0.72
   0   4   5    3.53    0.86
   0   4  -5    5.30    0.98
   0   4   5    5.93    0.91
   1  -4   5   27.86    1.89
  -1  -4  -5   27.59    1.74
  -1  -4  -5   28.41    1.75
   1   4   5   26.65    2.04
  -1   4  -5   28.92    1.76
   2  -4   5   27.75    1.96
  -2  -4  -5   25.10    2.15
  -2  -4  -5   27.27    1.89
   2   4   5   25.26    2.37
  -2   4  -5   25.77    1.73
  -3  -4  -5    0.62    0.73
  -3  -4  -5    1.55    0.81
  -3   4  -5    1.60    0.85
   3   4   5    0.35    1.00
  -4  -4  -5   -0.23    0.53
  -4  -4  -5    0.92    0.82
  -4   4  -5   -0.21    0.73
   4   4   5    0.24    1.04
  -5  -4  -5    2.93    1.22
  -5  -4  -5    3.75    1.16
   5   4   5    5.11    1.56
  -5   4  -5    3.77    1.00
  -5  -5   5   -0.16    1.31
   5   5  -5    0.99    1.24
  -4  -5   5   18.69    2.26
   4   5  -5   22.96    2.51
  -3  -5   5   56.82    3.38
   3   5  -5   56.29    3.16
   2  -5  -5    2.01    0.24
  -2  -5   5    1.89    1.06
   2  -5  -5    1.87    0.22
   2   5  -5    1.07    0.88
   2   5  -5    2.51    0.58
   1  -5  -5    8.66    0.79
   1  -5  -5    8.75    0.80
  -1  -5   5    8.01    1.39
   1  -5  -5    8.73    0.87
   1   5  -5    7.04    1.20
  -1   5   5    9.91    1.23
  -1   5   5    9.97    1.54
   0  -5  -5   15.22    1.10
   0  -5  -5   16.87    1.42
   0  -5   5   13.90    1.68
   0   5  -5   16.93    1.62
   0   5   5   14.81    1.85
   0   5   5   16.25    1.61
   1  -5   5   83.68    4.02
  -1  -5  -5   93.78    3.90
  -1  -5  -5   88.55    3.89
   1   5   5   90.54    4.35
  -1   5  -5   89.50    3.83
  -2  -5  -5    6.55    1.21
  -2  -5  -5    6.67    1.29
   2  -5   5    5.86    1.19
   2   5   5    5.18    1.38
  -2   5  -5    6.11    1.06
  -3  -5  -5    1.28    1.03
  -3  -5  -5    2.39    0.96
   3   5   5    2.91    1.24
  -3   5  -5    1.30    0.81
  -4  -5  -5   11.64    1.78
  -4  -5  -5   15.17    2.03
  -4   5  -5    9.99    1.40
   4   5   5   15.40    2.20
  -5  -5  -5    1.42    1.27
  -5  -5  -5    4.02    1.33
   5   5   5    2.93    1.50
  -5  -6   5    2.98    1.32
   5   6  -5    1.20    1.33
  -4  -6   5    0.15    1.21
   4   6  -5    0.72    1.05
  -3  -6   5    4.92    1.33
   3   6  -5    4.37    1.31
  -2  -6   5   10.47    1.76
   2   6  -5    6.57    1.35
  -2   6   5   10.08    1.28
  -1  -6   5    0.22    0.69
   1  -6  -5    1.80    0.66
   1  -6  -5    0.41    0.68
   1  -6  -5    0.78    0.42
  -1   6   5    1.50    0.88
  -1   6   5    1.78    0.74
   1   6  -5    1.55    0.89
   0  -6  -5    0.88    0.27
   0  -6  -5    0.40    0.73
   0  -6   5   -0.39    0.59
   0   6  -5   -0.11    0.69
   0   6   5    0.12    0.54
   0   6   5   -0.57    0.86
  -1  -6  -5   14.34    1.47
   1  -6   5   11.27    1.66
  -1  -6  -5   11.12    1.46
   1   6   5   11.61    1.80
  -1   6  -5    9.35    1.32
   2  -6   5    0.37    0.78
  -2  -6  -5    0.14    0.63
  -2  -6  -5    1.57    0.95
   2   6   5    1.22    1.08
  -2   6  -5    0.69    0.78
  -3  -6  -5   26.14    2.46
   3  -6   5   22.90    2.30
  -3  -6  -5   19.70    2.23
   3   6   5   21.77    2.45
  -3   6  -5   22.32    1.89
  -4  -6  -5    1.09    0.97
  -4  -6  -5    1.19    0.85
   4   6   5    1.73    1.28
  -5  -6  -5    0.78    1.04
  -5  -6  -5    1.46    1.42
   5   6   5    1.86    1.36
  -4  -7   5    5.25    1.57
   4   7  -5    3.83    1.26
  -3  -7   5    2.11    1.50
  -3   7   5    1.70    0.83
   3   7  -5    0.57    1.12
  -2  -7   5   15.78    2.19
  -2   7   5   21.38    1.85
   2   7  -5   16.99    2.01
   2   7  -5   19.48    1.73
  -1  -7   5   22.49    2.46
   1   7  -5   25.41    2.28
  -1   7   5   27.29    2.75
  -1   7   5   26.11    1.86
   0  -7   5    2.16    1.10
   0  -7  -5    3.82    0.73
   0  -7  -5    1.40    0.79
   0   7  -5    3.03    1.01
   0   7   5    3.15    1.12
  -1  -7  -5    0.89    0.87
  -1  -7  -5    0.81    0.57
   1  -7   5   -0.93    0.50
   1   7   5   -0.04    1.06
  -1   7  -5    0.54    0.78
  -2  -7  -5    9.77    1.52
  -2  -7  -5    7.18    1.31
   2  -7   5    6.64    1.31
   2   7   5    7.19    1.52
  -2   7  -5    6.04    1.14
   3  -7   5   13.14    1.85
  -3  -7  -5    9.45    1.78
  -3  -7  -5    8.45    1.49
   3   7   5    7.62    1.82
  -4  -7  -5    0.29    1.24
  -4  -7  -5    0.72    0.83
   4   7   5    3.99    1.65
  -4  -8   5    1.83    1.70
   4   8  -5    0.28    1.20
  -3  -8   5    2.42    1.30
   3   8  -5    3.32    1.33
  -2  -8   5    6.37    1.67
  -2   8   5    7.67    1.22
   2   8  -5    6.40    1.45
  -1  -8   5   -0.25    1.03
   1  -8  -5    0.54    0.85
   1   8  -5    0.86    1.03
  -1   8   5   -0.15    0.85
   0  -8   5    0.25    0.75
   0  -8  -5    0.74    0.96
   0   8   5   -0.18    0.82
   0   8  -5   -0.27    0.71
  -1  -8  -5    0.03    0.93
   1  -8   5   -0.36    0.68
  -1  -8  -5    0.63    0.69
  -1   8  -5   -0.22    0.75
   1   8   5   -1.39    0.63
  -2  -8  -5    1.41    0.83
  -2  -8  -5    0.25    1.04
   2  -8   5    1.40    0.98
   2   8   5    2.04    1.39
  -3  -8  -5    0.71    1.24
  -3  -8  -5    0.90    0.90
   3  -8   5    3.08    1.17
   3   8   5   -0.14    0.95
  -3  -9   5    7.38    2.02
   3   9  -5    6.81    1.75
  -2  -9   5   -0.86    0.83
   2   9  -5   -0.29    1.00
  -2   9   5    0.58    1.13
  -1  -9   5    8.34    1.89
  -1   9   5   14.07    2.22
   1   9  -5   11.22    1.66
   0  -9   5   14.26    2.18
   0  -9  -5   12.90    1.82
   0   9   5   13.36    2.35
   0   9  -5   12.03    1.70
  -1  -9  -5    5.52    1.49
   1  -9   5    7.60    1.67
   1   9   5    5.88    1.87
   2  -9   5    5.42    1.41
  -2  -9  -5    6.21    1.28
  -2  -9  -5    4.67    1.62
   2   9   5    4.25    1.78
  -3  -9  -5    2.85    1.16
  -1 -10   5    1.52    1.44
  -1  10   5   -1.12    0.96
   1  10  -5    0.71    1.28
   0 -10   5    2.59    1.45
   0  10   5    0.51    1.49
   1 -10   5    2.07    1.35
  -1 -10  -5   -0.58    1.04
   1  10   5   -2.35    1.23
   6   0  -6    1.48    1.07
   5   0  -6    5.15    1.29
  -5   0   6    5.39    1.15
   4   0  -6   54.46    2.86
  -4   0   6   49.99    2.50
  -3   0   6   60.06    2.37
   3   0  -6   58.51    2.90
  -3   0   6   59.42    2.59
   2   0  -6    6.95    1.02
  -2   0   6    6.51    0.76
  -2   0   6    6.06    0.68
   1   0  -6   47.64    2.35
  -1   0   6   52.51    2.26
   1   0  -6   52.62    2.27
  -1   0   6   50.34    2.18
   0   0   6    9.37    0.99
   0   0   6   10.33    1.11
   0   0  -6   10.76    1.17
  -1   0  -6   18.72    1.59
   1   0   6   17.97    1.61
   1   0   6   18.56    1.29
   2   0   6    1.63    0.78
  -2   0  -6    0.65    0.61
  -3   0  -6   32.54    2.14
   3   0   6   25.89    2.07
  -4   0  -6   14.29    1.83
   4   0   6   16.06    2.09
  -5   0  -6    0.64    0.75
   5   0   6    0.25    1.21
   6   0   6    0.07    1.31
  -6   0  -6    4.41    1.39
   6  -1  -6    1.14    0.93
   6   1  -6    1.31    1.09
   5  -1  -6   15.04    1.70
  -5  -1   6    9.84    1.56
   5   1  -6    9.23    1.59
  -4  -1   6    2.30    0.85
   4  -1  -6    3.59    0.92
   4   1  -6    3.26    1.08
  -4   1   6    4.09    0.77
   3  -1  -6  135.13    5.23
  -3  -1   6  138.82    5.23
   3   1  -6  127.36    5.37
  -3   1   6  131.50    4.70
  -3   1   6  135.88    5.03
   2  -1  -6   39.33    1.67
  -2  -1   6   40.76    1.52
   2  -1  -6   40.92    2.06
  -2  -1   6   39.15    1.97
   2   1  -6   39.36    2.22
  -2   1   6   39.02    1.64
  -2   1   6   40.37    1.98
   1  -1  -6    2.36    0.62
   1  -1  -6    3.57    0.52
   1  -1  -6    3.42    0.73
  -1  -1   6    3.60    0.68
  -1  -1   6    2.69    0.50
   1   1  -6    2.68    0.78
  -1   1   6    3.26    0.67
   1   1  -6    4.26    0.59
   0  -1   6   16.99    1.42
   0  -1  -6   15.07    1.14
   0  -1   6   20.15    1.26
   0   1   6   14.56    1.40
   0   1  -6   15.48    1.16
   0   1  -6   17.90    1.53
   1  -1   6   63.45    2.74
   1  -1   6   59.91    2.96
  -1  -1  -6   63.50    2.94
   1   1   6   64.76    2.93
  -1   1  -6   64.05    2.91
   1   1   6   65.46    3.08
  -2  -1  -6  153.51    6.25
   2  -1   6  160.97    6.44
  -2   1  -6  170.98    6.31
   2   1   6  158.13    6.52
   3  -1   6    0.97    0.88
  -3  -1  -6    0.71    0.62
   3   1   6    1.45    0.79
  -3   1  -6    1.92    0.85
   4  -1   6    4.06    1.33
  -4  -1  -6    2.77    1.01
  -4   1  -6    1.97    0.93
   4   1   6    3.51    1.06
  -5  -1  -6   10.26    1.73
   5  -1   6   13.22    2.21
   5   1   6   12.19    2.11
  -5   1  -6    9.29    1.52
  -6  -1  -6    3.61    1.40
  -6   1  -6    5.26    1.43
  -6  -2   6   -0.55    1.11
   6   2  -6   -0.73    1.04
   5  -2  -6    7.24    1.17
  -5  -2   6    6.35    1.51
   5   2  -6    7.68    1.54
   4  -2  -6    6.01    0.98
  -4  -2   6    2.30    1.03
   4   2  -6    3.43    1.10
   3  -2  -6   47.95    2.32
  -3  -2   6   47.92    2.60
   3   2  -6   49.10    2.67
   2  -2  -6    1.01    0.17
  -2  -2   6    1.01    0.64
   2  -2  -6    0.97    0.57
  -2   2   6    0.87    0.62
   2   2  -6    1.05    0.62
  -1  -2   6    5.39    0.90
   1  -2  -6    4.73    0.77
   1  -2  -6    4.87    0.55
  -1  -2   6    4.48    0.61
   1   2  -6    2.66    0.80
   1   2  -6    4.32    0.59
  -1   2   6    3.24    0.77
   0  -2   6   21.05    1.34
   0  -2  -6   18.20    1.31
   0  -2   6   19.47    1.36
   0   2  -6   20.30    1.52
   0   2  -6   23.86    1.57
   0   2   6   18.98    1.52
   1  -2   6    8.51    0.91
   1  -2   6    6.52    1.06
  -1  -2  -6    8.14    1.02
   1  -2   6    7.27    1.10
  -1   2  -6    6.91    1.05
   1   2   6    7.06    1.02
   1   2   6    7.39    1.20
   2  -2   6   34.90    2.27
  -2  -2  -6   30.20    2.04
  -2   2  -6   30.09    1.98
   2   2   6   36.73    2.36
  -3  -2  -6   26.91    2.39
   3  -2   6   23.88    2.36
  -3   2  -6   25.72    2.17
   3   2   6   26.31    2.43
  -4  -2  -6    2.76    1.12
   4  -2   6    6.60    1.42
   4   2   6    0.77    0.77
  -4   2  -6    6.08    1.24
   5  -2   6    1.23    1.02
  -5  -2  -6    1.68    1.09
   5   2   6    1.42    1.28
  -5   2  -6    0.88    0.85
  -6  -3   6    1.71    1.59
   6   3  -6    2.68    1.31
  -5  -3   6    4.60    1.38
   5   3  -6    4.45    1.41
  -4  -3   6   -0.24    0.93
   4  -3  -6    0.16    0.53
   4   3  -6    0.28    0.88
   3  -3  -6    0.78    0.50
  -3  -3   6    0.27    0.88
   3   3  -6    1.48    0.91
  -2  -3   6   41.36    2.41
   2  -3  -6   42.27    1.99
  -2   3   6   43.55    2.44
  -2   3   6   42.80    1.93
   2   3  -6   41.27    2.38
   1  -3  -6   19.94    1.29
   1  -3  -6   19.53    1.00
   1  -3  -6   20.64    1.02
  -1  -3   6   20.76    1.73
  -1   3   6   20.32    1.80
   1   3  -6   20.68    1.19
  -1   3   6   16.81    1.30
   1   3  -6   21.17    1.53
   0  -3  -6    9.95    1.06
   0  -3   6   10.14    1.14
   0  -3   6    9.66    1.20
   0   3  -6   11.70    1.31
   0   3   6   12.16    1.47
   0   3   6    8.34    1.11
  -1  -3  -6    1.27    0.53
   1  -3   6    1.03    0.66
   1  -3   6    0.55    0.52
   1   3   6    0.80    0.73
   1   3   6    1.12    0.55
  -1   3  -6    0.63    0.68
  -2  -3  -6    4.31    0.95
   2  -3   6    1.85    0.93
   2  -3   6    3.93    0.89
   2   3   6    2.51    0.87
  -2   3  -6    3.07    0.89
   3  -3   6   38.77    2.72
  -3  -3  -6   35.21    2.48
  -3   3  -6   43.77    2.44
   3   3   6   32.17    2.49
   4  -3   6    4.79    1.45
  -4  -3  -6    5.80    1.39
  -4   3  -6    4.43    1.10
   4   3   6    5.81    1.51
  -5  -3  -6    4.13    1.24
  -5  -3  -6    8.08    1.58
  -5   3  -6    8.02    1.46
   5   3   6    5.24    1.63
  -5  -4   6   -0.20    1.18
   5   4  -6    0.51    1.02
  -4  -4   6    3.65    1.34
   4   4  -6    3.16    1.06
   3  -4  -6   22.96    1.24
  -3  -4   6   23.02    2.34
   3   4  -6   23.23    2.28
  -2  -4   6    1.71    0.90
   2  -4  -6    0.21    0.43
  -2   4   6    1.39    0.41
  -2   4   6    1.21    0.84
   2   4  -6    0.53    0.81
   2   4  -6    1.05    0.31
  -1  -4   6   29.13    2.03
   1  -4  -6   29.22    1.35
   1  -4  -6   27.19    1.50
  -1   4   6   26.28    2.06
  -1   4   6   28.18    1.48
   1   4  -6   29.95    1.59
   1   4  -6   33.83    2.12
   0  -4  -6    2.69    0.64
   0  -4  -6    2.65    0.62
   0  -4   6    3.37    0.92
   0   4   6    3.35    1.08
   0   4   6    3.07    0.82
   0   4  -6    1.77    0.68
  -1  -4  -6    3.81    0.88
   1  -4   6    2.98    0.91
  -1  -4  -6    4.51    0.91
   1   4   6    3.58    0.96
   1   4   6    3.07    0.91
  -1   4  -6    3.68    0.97
   2  -4   6    0.18    0.55
  -2  -4  -6    0.43    0.56
  -2  -4  -6    0.09    0.77
   2   4   6    0.39    0.92
  -2   4  -6    0.33    0.71
  -3  -4  -6    0.62    0.66
  -3  -4  -6    0.28    0.87
  -3   4  -6    1.16    0.80
   3   4   6   -0.39    0.92
  -4  -4  -6    6.46    1.43
  -4  -4  -6    7.33    1.59
   4   4   6    7.52    1.61
  -4   4  -6    6.97    1.29
  -5  -4  -6    1.01    1.20
  -5  -4  -6    1.57    1.18
   5   4   6    3.06    1.45
  -5   4  -6    2.14    0.98
  -5  -5   6    1.73    1.39
   5   5  -6    0.87    1.20
  -4  -5   6    1.79    1.33
   4   5  -6    1.29    0.97
  -3  -5   6   16.60    2.17
   3   5  -6   18.97    2.15
   2  -5  -6   74.67    2.78
  -2  -5   6   70.87    3.73
   2   5  -6   77.42    3.73
  -2   5   6   70.65    3.87
   1  -5  -6   19.14    1.17
  -1  -5   6   16.57    1.83
   1  -5  -6   17.57    1.11
   1  -5  -6   16.10    1.11
  -1   5   6   18.70    2.01
  -1   5   6   15.82    1.65
   1   5  -6   19.20    1.90
   0  -5  -6   29.15    1.71
   0  -5   6   22.91    2.13
   0  -5  -6   26.28    1.64
   0   5  -6   27.29    1.97
   0   5   6   30.95    2.00
   0   5   6   23.77    2.37
  -1  -5  -6   25.58    1.83
   1  -5   6   26.46    2.34
  -1  -5  -6   25.67    2.09
  -1   5  -6   26.48    2.14
   1   5   6   22.47    2.34
  -2  -5  -6   32.59    2.24
   2  -5   6   38.39    2.53
  -2  -5  -6   34.87    2.34
  -2   5  -6   38.63    2.33
   2   5   6   33.99    2.71
  -3  -5  -6    0.17    0.68
  -3  -5  -6    1.00    0.69
   3   5   6    0.86    1.14
  -3   5  -6    1.00    0.80
  -4  -5  -6    1.78    1.26
  -4  -5  -6   -0.06    0.84
   4   5   6   -0.57    1.09
  -4   5  -6    0.72    0.80
  -5  -5  -6    2.20    1.08
  -5  -5  -6    4.23    1.38
   5   5   6    2.27    1.58
  -5  -6   6    2.40    1.52
   5   6  -6   -2.51    0.90
  -4  -6   6    1.41    1.44
   4   6  -6    1.00    1.25
  -3  -6   6    6.62    1.65
   3   6  -6    9.69    1.68
  -2  -6   6    1.01    1.10
   2   6  -6   -0.39    0.88
  -2   6   6    1.69    1.14
  -2   6   6    0.52    0.68
   1  -6  -6    2.07    0.55
  -1  -6   6    1.65    0.88
   1  -6  -6    1.64    0.64
  -1   6   6    1.03    1.10
   1   6  -6    0.25    0.88
  -1   6   6    1.43    0.78
   0  -6  -6   68.44    3.02
   0  -6   6   65.33    3.58
   0  -6  -6   69.60    3.15
   0   6   6   63.79    3.38
   0   6   6   68.77    3.89
   0   6  -6   65.37    3.38
  -1  -6  -6   11.75    1.43
   1  -6   6   10.72    1.65
  -1  -6  -6   10.39    1.42
  -1   6  -6   12.76    1.53
   1   6   6    7.81    1.61
  -2  -6  -6   54.59    3.21
  -2  -6  -6   55.49    3.16
   2  -6   6   59.20    3.39
   2   6   6   57.19    3.69
  -2   6  -6   63.73    3.12
  -3  -6  -6    1.69    1.15
  -3  -6  -6    2.55    1.01
   3   6   6    1.58    1.25
  -3   6  -6    2.22    0.99
  -4  -6  -6    1.19    1.29
  -4  -6  -6    2.60    1.04
   4   6   6    2.35    1.17
  -4  -7   6    2.01    1.55
   4   7  -6    4.40    1.39
  -3  -7   6   -0.86    1.21
  -3   7   6    1.86    0.82
   3   7  -6    1.04    1.11
  -2  -7   6   -1.33    0.99
   2   7  -6    2.28    1.09
  -2   7   6   -0.06    0.84
  -2   7   6    1.27    0.80
  -1  -7   6   16.23    2.10
   1  -7  -6   17.11    1.51
  -1   7   6   17.75    1.87
  -1   7   6   17.26    2.32
   1   7  -6   17.18    1.90
   0  -7  -6    1.40    0.45
   0  -7  -6    0.61    0.77
   0  -7   6   -0.61    0.56
   0   7  -6    1.87    0.97
   0   7   6    1.81    1.21
  -1  -7  -6    7.36    1.32
  -1  -7  -6   10.34    1.36
   1  -7   6   12.36    1.76
   1   7   6    9.08    1.84
  -1   7  -6    7.35    1.31
  -2  -7  -6    0.27    0.91
  -2  -7  -6    2.08    0.96
   2  -7   6    1.56    1.09
   2   7   6    0.94    0.98
  -2   7  -6    1.42    0.96
   3  -7   6    7.17    1.57
  -3  -7  -6    8.91    1.57
  -3  -7  -6   10.37    1.91
   3   7   6    9.18    2.02
  -4  -7  -6    1.72    0.93
  -4  -7  -6    1.92    1.42
   4   7   6    1.66    1.57
   4   8  -6    7.76    1.96
  -3  -8   6   32.54    3.42
   3   8  -6   35.03    3.25
  -2  -8   6    1.79    1.34
   2   8  -6    0.07    0.75
  -2   8   6    0.29    0.67
  -2   8   6    2.81    1.51
  -1  -8   6   -0.72    1.00
  -1   8   6   -0.12    0.67
  -1   8   6   -0.85    1.24
   1   8  -6    0.64    0.95
   0  -8   6    7.31    1.64
   0  -8  -6    3.55    1.15
   0   8  -6    4.57    1.22
   0   8   6    3.52    1.58
  -1  -8  -6   19.60    2.17
   1  -8   6   20.08    2.46
  -1  -8  -6   20.62    1.97
   1   8   6   21.11    2.59
  -1   8  -6   24.31    2.21
  -2  -8  -6    7.09    1.59
   2  -8   6    9.58    1.76
  -2  -8  -6    9.06    1.49
   2   8   6    6.80    1.62
  -3  -8  -6    0.29    1.21
   3  -8   6    2.25    1.14
  -3  -8  -6    1.53    1.05
   3   8   6   -1.42    1.17
   3   9  -6    2.34    1.40
  -2  -9   6   -0.58    1.18
  -2   9   6   -2.72    1.24
   2   9  -6    0.06    1.06
  -1  -9   6    2.43    1.45
  -1   9   6    1.32    1.59
   1   9  -6    0.66    1.17
   0  -9   6    1.28    1.25
   0   9   6   -0.85    1.29
   0   9  -6   -0.45    0.91
  -1  -9  -6    6.05    1.51
   1  -9   6    3.00    1.35
   1   9   6    4.06    1.48
   2  -9   6    3.80    1.38
  -2  -9  -6    3.65    1.50
  -2  -9  -6    6.10    1.38
   2   9   6    4.12    1.82
   1  10  -6   23.26    2.50
   0 -10   6    0.51    1.34
   0  10   6    1.09    1.60
   6   0  -7   -0.10    0.97
   5   0  -7    0.32    0.85
   4   0  -7    0.46    0.75
  -4   0   7    0.25    0.61
   3   0  -7   -0.08    0.74
  -3   0   7    0.02    0.54
  -3   0   7    0.52    0.41
   2   0  -7   -0.25    0.61
  -2   0   7    0.23    0.43
  -2   0   7   -0.43    0.38
   1   0  -7    0.23    0.62
  -1   0   7   -0.02    0.43
   1   0  -7    0.30    0.42
  -1   0   7    0.16    0.48
   0   0  -7    0.82    0.63
   0   0   7   -0.34    0.48
   1   0   7   -0.28    0.44
  -1   0  -7   -0.32    0.56
   1   0   7    0.19    0.46
   2   0   7    0.20    0.77
  -2   0  -7    0.07    0.65
   2   0   7    0.19    0.54
   3   0   7    0.61    0.97
  -3   0  -7   -1.02    0.70
   4   0   7   -0.50    0.87
  -4   0  -7    0.68    0.86
   5   0   7    1.80    1.10
  -5   0  -7    1.09    0.94
   6   1  -7   -0.11    0.98
  -5  -1   7   12.13    1.62
   5  -1  -7   13.33    1.66
   5   1  -7   13.04    1.87
  -4  -1   7    1.89    0.84
   4  -1  -7    2.27    0.94
  -4   1   7    1.10    0.85
  -4   1   7    2.18    0.74
   4   1  -7    1.41    0.76
   3  -1  -7    4.26    0.94
  -3  -1   7    3.74    0.89
   3  -1  -7    3.86    0.58
  -3   1   7    2.99    0.74
  -3   1   7    3.31    0.56
   3   1  -7    4.55    1.14
   2  -1  -7    0.85    0.66
  -2  -1   7    0.50    0.32
  -2  -1   7    0.86    0.59
   2  -1  -7    0.46    0.43
   2   1  -7    1.21    0.79
  -2   1   7    1.02    0.38
  -2   1   7   -0.15    0.45
   1  -1  -7   71.77    3.16
  -1  -1   7   72.15    2.91
  -1  -1   7   65.31    3.02
   1   1  -7   64.76    3.22
   1   1  -7   73.92    2.94
  -1   1   7   75.53    3.22
   0  -1   7   41.69    2.11
   0  -1   7   36.56    2.05
   0  -1  -7   41.10    2.13
   0   1   7   42.25    2.23
   0   1  -7   38.13    2.14
  -1  -1  -7    1.77    0.74
   1  -1   7    2.70    0.69
   1  -1   7    2.41    0.80
   1   1   7    1.24    0.77
   1   1   7    3.05    0.80
  -1   1  -7    2.43    0.70
  -2  -1  -7    0.29    0.52
   2  -1   7    0.57    0.78
   2  -1   7    0.51    0.51
   2   1   7    0.23    0.62
  -2   1  -7    1.22    0.78
  -3  -1  -7    0.94    0.87
   3  -1   7   -0.47    0.80
   3   1   7    0.41    0.73
  -3   1  -7    0.18    0.55
  -4  -1  -7    0.54    0.84
   4  -1   7    0.76    0.89
  -4   1  -7    0.82    0.83
   4   1   7    0.14    1.03
  -5  -1  -7   -0.45    0.86
   5  -1   7    0.57    1.33
  -5   1  -7    0.62    0.98
   5   1   7   -0.41    1.14
   6   2  -7    1.41    1.30
  -5  -2   7    1.18    1.14
   5  -2  -7    4.06    1.07
   5   2  -7    2.68    1.21
   4  -2  -7    1.24    0.68
  -4  -2   7    1.50    0.91
   4   2  -7    0.68    0.87
  -3  -2   7    0.14    0.87
   3  -2  -7    0.32    0.59
  -3   2   7    0.81    0.76
   3   2  -7    0.21    0.80
   2  -2  -7  170.16    6.32
  -2  -2   7  174.93    6.49
   2  -2  -7  169.33    5.72
  -2   2   7  169.62    6.50
   2   2  -7  169.38    6.71
   1  -2  -7   14.33    1.36
  -1  -2   7   15.28    1.48
  -1  -2   7   13.63    1.02
  -1   2   7   13.31    1.43
   1   2  -7   12.60    1.42
   1   2  -7   13.25    1.01
   0  -2   7   78.31    3.55
   0  -2  -7   83.98    3.54
   0  -2   7   83.44    3.50
   0   2  -7   76.71    3.55
   0   2   7   79.61    3.73
  -1  -2  -7  103.79    4.37
   1  -2   7  104.80    4.45
   1  -2   7   86.20    4.25
   1  -2   7  107.85    4.11
  -1   2  -7  107.12    4.42
   1   2   7  101.76    4.38
   1   2   7  104.09    4.64
  -2  -2  -7   23.49    1.76
   2  -2   7   22.01    2.13
   2  -2   7   24.96    1.52
  -2   2  -7   22.59    2.06
   2   2   7   25.06    2.29
   3  -2   7    0.23    0.97
  -3  -2  -7    1.31    0.71
  -3   2  -7    0.78    0.71
   3   2   7    0.95    1.00
   4  -2   7    6.77    1.67
  -4  -2  -7    6.34    1.41
  -4   2  -7    8.45    1.49
   4   2   7    7.11    1.48
   5  -2   7    7.08    1.68
  -5  -2  -7   10.01    1.78
   5   2   7    8.33    1.91
  -5   2  -7   10.66    1.72
   6   3  -7   -0.04    1.18
  -5  -3   7   22.77    2.43
   5   3  -7   16.22    2.27
   4  -3  -7    2.98    0.82
  -4  -3   7    5.15    1.33
   4   3  -7    3.18    1.01
  -3  -3   7   11.85    1.56
   3  -3  -7   19.29    1.54
  -3   3   7   18.98    1.85
   3   3  -7   13.85    1.75
   2  -3  -7    0.37    0.45
  -2  -3   7    0.23    0.75
   2   3  -7   -0.01    0.18
  -2   3   7    0.09    0.74
   2   3  -7   -0.38    0.52
   1  -3  -7   20.29    1.40
   1  -3  -7   20.63    1.11
  -1  -3   7   20.86    1.85
  -1   3   7   21.52    1.91
   1   3  -7   20.70    1.26
   1   3  -7   17.29    1.80
   0  -3   7   91.28    3.91
   0  -3   7   89.93    3.72
   0  -3  -7   85.76    3.69
   0   3   7   83.18    3.85
   0   3  -7   78.75    3.82
   0   3   7   87.40    4.04
  -1  -3  -7    7.51    1.16
   1  -3   7    3.23    0.95
   1  -3   7    6.27    1.18
  -1   3  -7    6.36    1.17
   1   3   7    5.17    1.10
   1   3   7    4.52    1.01
  -2  -3  -7    5.07    1.15
   2  -3   7    3.70    1.16
   2   3   7    2.92    1.20
  -2   3  -7    5.82    1.18
   3  -3   7    0.39    0.96
  -3  -3  -7    0.64    0.67
  -3   3  -7    0.65    0.83
   3   3   7    2.31    1.18
   4  -3   7    4.42    1.54
  -4  -3  -7    6.71    1.50
   4   3   7    5.50    1.60
  -4   3  -7    5.51    1.23
   5  -3   7   -1.27    1.25
  -5  -3  -7    0.43    0.87
  -5  -3  -7   -0.30    0.87
  -5   3  -7    0.71    0.95
   5   3   7   -1.42    1.09
  -5  -4   7    1.74    1.34
   5   4  -7    1.05    1.24
  -4  -4   7    6.24    1.52
   4   4  -7    6.92    1.40
   3  -4  -7    1.37    0.55
  -3  -4   7    0.70    1.03
  -3   4   7    1.11    0.97
   3   4  -7    1.38    0.99
  -2  -4   7   22.48    2.15
   2  -4  -7   22.73    1.47
   2   4  -7   25.79    1.16
  -2   4   7   25.54    2.35
   2   4  -7   24.76    2.30
   1  -4  -7   23.43    1.20
  -1  -4   7   21.34    2.01
   1  -4  -7   19.60    1.36
   1  -4  -7   19.23    1.20
   1   4  -7   22.96    1.46
  -1   4   7   24.92    2.29
   1   4  -7   21.35    2.09
   0  -4   7    0.21    0.79
   0  -4  -7    0.33    0.55
   0  -4  -7   -0.28    0.59
   0   4   7    0.30    0.47
   0   4   7   -1.36    0.72
   0   4  -7   -0.02    0.56
   1  -4   7   36.24    2.41
  -1  -4  -7   39.87    2.31
   1   4   7   36.68    2.67
  -1   4  -7   40.90    2.41
   1   4   7   39.13    2.46
   2  -4   7    1.63    0.78
  -2  -4  -7    3.26    0.90
   2   4   7    2.74    1.02
  -2   4  -7    3.16    1.03
  -3  -4  -7    2.23    1.02
  -3  -4  -7    0.74    0.92
  -3   4  -7    0.20    0.79
   3   4   7    0.33    1.04
  -4  -4  -7    4.17    1.39
  -4  -4  -7    4.56    1.34
   4   4   7   -0.14    1.24
  -4   4  -7    2.96    1.07
  -5  -4  -7   13.95    2.25
  -5  -4  -7    9.82    2.06
  -5   4  -7   11.22    1.79
   5   4   7   12.25    2.19
  -5  -5   7    3.35    1.56
   5   5  -7    4.56    1.53
  -4  -5   7    2.31    1.33
   4   5  -7    0.38    0.83
  -3  -5   7   19.34    2.23
  -3   5   7   17.56    2.15
   3   5  -7   20.48    2.27
  -2  -5   7    0.93    1.05
   2  -5  -7    0.31    0.50
   2   5  -7   -0.23    0.60
  -2   5   7    0.45    1.02
  -1  -5   7   -0.18    0.67
   1  -5  -7    0.44    0.48
   1  -5  -7    0.15    0.54
  -1   5   7    0.80    1.05
  -1   5   7    1.27    0.77
   1   5  -7   -0.03    0.92
   0  -5  -7   14.13    1.40
   0  -5   7   14.31    1.75
   0  -5  -7   13.89    1.45
   0   5   7   14.71    2.01
   0   5   7   14.95    1.74
   0   5  -7   13.41    1.68
  -1  -5  -7    3.49    0.89
  -1  -5  -7    4.70    1.04
   1  -5   7    3.72    0.98
   1   5   7    4.28    1.18
  -1   5  -7    3.79    1.14
   1   5   7    3.90    0.99
  -2  -5  -7    8.31    1.49
   2  -5   7    9.23    1.59
  -2  -5  -7   11.24    1.56
  -2   5  -7    8.52    1.46
   2   5   7    9.32    1.81
  -3  -5  -7    0.50    0.91
  -3  -5  -7    1.57    0.97
   3   5   7    0.59    1.22
  -3   5  -7    0.75    0.99
  -4  -5  -7    2.42    1.23
  -4  -5  -7    3.98    1.46
  -4   5  -7    3.67    1.16
   4   5   7    1.09    1.04
   5   6  -7    2.38    1.49
  -4  -6   7   -0.26    1.33
   4   6  -7   -1.02    1.02
  -3  -6   7    2.14    1.33
  -3   6   7    5.40    1.52
   3   6  -7    2.80    1.24
  -2  -6   7    6.36    1.48
  -2   6   7    3.85    1.01
   2   6  -7    5.68    1.40
  -2   6   7    6.99    1.46
  -1  -6   7    1.28    1.07
   1  -6  -7    0.03    0.52
   1  -6  -7   -0.04    0.47
  -1   6   7    1.77    1.24
  -1   6   7    0.12    0.72
   1   6  -7   -0.35    0.90
   0  -6  -7    3.78    0.86
   0  -6   7    2.22    0.92
   0  -6  -7    3.04    0.84
   0   6   7    2.38    1.10
   0   6  -7    2.44    1.05
   0   6   7    1.21    0.85
  -1  -6  -7    2.24    0.82
  -1  -6  -7    0.82    0.85
   1  -6   7    1.58    1.00
   1   6   7    1.46    0.98
  -1   6  -7    2.17    0.96
   2  -6   7    0.05    0.64
  -2  -6  -7    1.21    0.78
  -2  -6  -7    0.11    0.89
   2   6   7    0.70    1.11
  -2   6  -7   -0.51    0.81
  -3  -6  -7   -0.97    0.59
  -3  -6  -7   -0.99    0.76
  -3   6  -7   -0.43    0.85
   3   6   7   -0.17    1.17
  -4  -6  -7   -0.27    1.10
  -4  -6  -7   -0.05    0.86
   4   6   7   -0.87    1.23
  -4  -7   7   -1.67    1.32
   4   7  -7   -0.27    0.77
  -3  -7   7   -1.03    1.28
  -3   7   7   -0.19    1.18
   3   7  -7    2.49    1.31
  -2  -7   7    1.81    1.07
  -2   7   7    1.62    1.31
   2   7  -7    0.01    0.94
  -2   7   7    1.00    0.80
  -1  -7   7    1.54    1.15
  -1   7   7    0.75    1.26
  -1   7   7    1.88    0.88
   1   7  -7    2.02    0.93
   0  -7  -7    0.61    0.68
   0  -7   7   -1.03    0.85
   0  -7  -7    1.22    0.44
   0   7  -7    1.01    0.94
   0   7   7    0.92    1.22
   0   7   7    0.38    0.76
  -1  -7  -7    1.13    0.78
   1  -7   7    0.02    0.62
  -1  -7  -7   -0.13    0.73
  -1   7  -7   -0.17    0.83
   1   7   7    0.42    0.89
   2  -7   7    2.47    1.15
  -2  -7  -7    0.51    0.77
  -2  -7  -7    2.00    1.06
  -2   7  -7   -0.30    0.97
   2   7   7    1.24    1.35
  -3  -7  -7    3.04    1.11
  -3  -7  -7   -0.57    1.03
   3  -7   7    2.18    1.05
   3   7   7    0.80    1.30
  -3  -8   7    0.21    1.44
   3   8  -7    0.28    1.18
  -3   8   7   -1.13    1.30
  -2  -8   7    0.93    1.32
  -2   8   7   -0.41    0.79
   2   8  -7   -0.17    0.77
  -2   8   7   -0.98    1.31
  -1  -8   7    1.93    1.08
  -1   8   7    4.67    1.15
  -1   8   7    3.86    1.68
   1   8  -7    3.08    1.22
   0  -8  -7    5.54    1.23
   0  -8   7    4.53    1.45
   0   8  -7    4.89    1.37
   0   8   7    6.86    1.65
  -1  -8  -7    1.73    0.84
  -1  -8  -7    1.31    1.01
   1  -8   7    0.67    1.08
   1   8   7    1.58    1.10
  -1   8  -7    0.47    1.02
  -2  -8  -7    2.52    1.05
   2  -8   7    2.18    1.04
  -2  -8  -7    0.82    1.10
   2   8   7    3.47    1.57
  -3  -8  -7   -0.04    0.85
   3  -8   7    0.90    1.00
  -3  -8  -7    2.39    1.42
   3   8   7   -1.35    1.43
  -2  -9   7    1.27    1.43
   2   9  -7    0.75    1.22
  -2   9   7    1.22    1.68
  -1  -9   7    1.07    1.28
  -1   9   7    2.85    1.68
   1   9  -7    1.38    1.16
   0  -9   7    1.91    1.39
   0   9   7    3.54    1.44
   0   9  -7    6.22    1.52
   1  -9   7    1.10    1.24
  -1  -9  -7   -0.87    0.95
   1   9   7   -0.41    0.97
  -2  -9  -7    1.97    1.38
   2  -9   7    0.33    1.12
  -2  -9  -7    2.99    1.00
   2   9   7    1.11    1.63
   6   0  -8    4.30    1.50
   5   0  -8   -0.76    0.82
   4   0  -8   39.98    2.52
  -4   0   8   35.75    1.96
   3   0  -8    0.19    0.80
  -3   0   8    0.91    0.57
  -3   0   8    0.19    0.43
  -2   0   8   17.33    1.23
  -2   0   8   17.80    1.24
   2   0  -8   18.06    1.72
  -1   0   8  192.76    6.91
  -1   0   8  188.98    6.96
   1   0  -8  186.43    7.16
   0   0  -8   50.35    2.67
   0   0   8   53.48    2.72
   1   0   8   95.91    4.38
   1   0   8   92.84    4.11
  -1   0  -8   99.51    4.31
   2   0   8   24.16    1.82
  -2   0  -8   29.00    2.00
   2   0   8   26.40    2.41
   3   0   8  124.28    5.79
  -3   0  -8  121.10    5.43
   4   0   8    1.34    1.20
  -4   0  -8    0.59    0.69
   5   0   8   22.87    2.94
  -5   0  -8   22.78    2.60
   6   1  -8   -1.88    1.06
   5  -1  -8   -0.02    0.99
   5   1  -8    2.09    1.13
  -4  -1   8   13.36    1.48
   4  -1  -8   12.79    1.61
   4   1  -8   11.17    1.70
  -3  -1   8   16.15    1.53
   3  -1  -8   16.62    1.73
  -3   1   8   17.34    1.32
   3   1  -8   13.23    1.73
  -3   1   8   16.70    1.02
  -2  -1   8   16.69    1.02
   2  -1  -8   15.27    1.60
  -2  -1   8   16.09    1.53
   2   1  -8   15.25    1.68
  -2   1   8   15.86    1.04
  -2   1   8   16.69    1.49
   1  -1  -8    0.49    0.67
  -1  -1   8   -0.09    0.50
  -1  -1   8    0.08    0.46
   1   1  -8    0.20    0.58
  -1   1   8    0.32    0.58
   1   1  -8   -0.17    0.48
   0  -1  -8   18.73    1.69
   0  -1   8   16.57    1.58
   0  -1   8   18.89    1.46
   0   1   8   19.13    1.78
   0   1  -8   15.43    1.66
  -1  -1  -8    9.95    1.37
   1  -1   8    8.86    1.32
   1  -1   8    7.72    1.08
   1   1   8    8.33    1.21
  -1   1  -8    7.06    1.25
   1   1   8    7.76    1.32
   2  -1   8   18.97    2.13
  -2  -1  -8   23.22    2.13
   2  -1   8   21.50    1.61
   2   1   8   21.23    2.01
  -2   1  -8   23.47    2.17
   2   1   8   18.82    2.14
  -3  -1  -8    4.41    1.16
   3  -1   8    1.78    1.07
  -3   1  -8    2.80    1.07
   3   1   8    2.35    1.20
  -4  -1  -8    8.29    1.61
   4  -1   8    7.95    1.77
   4   1   8    7.94    1.76
  -4   1  -8   11.62    1.70
  -5  -1  -8    2.09    1.04
   5  -1   8    1.57    1.16
  -5   1  -8    1.07    0.99
   5   1   8    1.35    1.46
  -5  -2   8    1.15    1.02
   5  -2  -8    0.65    0.86
   5   2  -8    1.16    1.05
   4  -2  -8   20.19    1.85
  -4  -2   8   22.08    2.05
  -4   2   8   23.12    2.00
   4   2  -8   24.57    2.42
  -3  -2   8    0.69    0.80
   3  -2  -8    0.30    0.77
  -3   2   8    0.91    0.80
   3   2  -8   -0.33    0.89
  -2  -2   8    0.37    0.67
   2  -2  -8    0.05    0.63
   2  -2  -8    1.47    0.48
   2   2  -8    0.36    0.68
  -2   2   8    0.41    0.70
  -1  -2   8    4.82    0.98
  -1  -2   8    4.64    0.78
   1  -2  -8    4.28    0.94
   1   2  -8    4.00    0.74
   1   2  -8    3.84    0.95
  -1   2   8    5.25    1.05
   0  -2  -8    3.91    0.94
   0  -2   8    5.79    1.04
   0  -2   8    4.73    0.92
   0   2  -8    4.76    1.09
   0   2   8    3.91    1.05
   1  -2   8    0.26    0.73
   1  -2   8   -0.49    0.60
  -1  -2  -8    0.62    0.74
   1  -2   8    0.83    0.55
   1   2   8   -0.41    0.59
   1   2   8    0.32    0.81
  -1   2  -8    0.01    0.79
  -2  -2  -8   25.11    2.33
   2  -2   8   31.22    1.86
   2  -2   8   26.78    2.49
   2   2   8   26.81    2.51
  -2   2  -8   27.09    2.35
  -3  -2  -8    1.49    0.81
   3  -2   8    1.67    0.88
  -3   2  -8    4.03    1.18
   3   2   8    2.94    1.26
  -4  -2  -8   -0.55    0.81
   4  -2   8    0.69    1.22
  -4   2  -8    0.14    0.90
   4   2   8   -0.24    1.15
   5  -2   8    0.48    1.40
  -5  -2  -8    0.85    0.72
   5   2   8   -1.26    1.22
  -5   2  -8    0.16    0.95
  -5  -3   8    3.76    1.52
   5   3  -8    0.20    1.13
   4  -3  -8    8.50    1.15
  -4  -3   8   10.06    1.60
   4   3  -8   11.41    1.73
  -4   3   8    9.75    1.54
  -3  -3   8    0.29    0.82
   3  -3  -8   -0.68    0.28
   3   3  -8    1.29    0.80
  -3   3   8    1.76    0.93
  -2  -3   8   17.51    1.84
   2  -3  -8   14.61    1.50
   2   3  -8   18.51    2.05
  -2   3   8   15.08    1.76
   2   3  -8   16.34    0.87
   1  -3  -8    6.11    0.99
  -1  -3   8    8.39    1.30
   1   3  -8    6.72    0.91
   1   3  -8    6.57    1.30
  -1   3   8    5.38    1.17
   0  -3   8    9.93    1.26
   0  -3  -8   10.19    1.30
   0  -3   8    9.23    1.41
   0   3   8    8.75    1.41
   0   3   8   12.56    1.55
   0   3  -8   12.20    1.60
   1  -3   8   22.04    2.08
   1  -3   8   21.80    1.43
   1  -3   8   23.95    2.16
  -1  -3  -8   24.28    2.12
  -1   3  -8   25.52    1.83
   1   3   8   22.03    2.04
   1   3   8   16.01    1.97
  -2  -3  -8    4.80    1.09
   2  -3   8    6.13    0.87
   2  -3   8    2.95    1.16
  -2   3  -8    5.69    1.27
   2   3   8    4.06    1.19
   3  -3   8   -0.57    0.68
  -3  -3  -8    0.13    0.59
  -3   3  -8    0.87    0.93
   3   3   8    0.88    1.12
   4  -3   8    8.13    1.89
  -4  -3  -8    6.97    1.53
  -4   3  -8    6.69    1.45
   4   3   8    7.59    1.61
  -5  -3  -8    2.52    1.32
  -5  -3  -8    2.89    1.39
   5  -3   8    0.24    1.04
   5   3   8    0.21    1.43
  -5   3  -8    2.48    1.18
  -5  -4   8    2.64    1.44
   5   4  -8    4.41    1.37
  -4  -4   8    2.41    1.22
  -4   4   8   -0.21    0.96
   4   4  -8    1.12    0.91
   3  -4  -8   -0.42    0.56
  -3  -4   8    1.87    1.09
  -3   4   8   -1.64    0.84
   3   4  -8   -0.32    0.94
   2  -4  -8   20.75    1.54
  -2  -4   8   24.75    2.32
   2   4  -8   24.49    2.39
  -2   4   8   24.15    2.34
   1  -4  -8   52.32    2.59
  -1  -4   8   45.30    2.85
   1  -4  -8   50.16    2.17
   1   4  -8   50.55    3.02
  -1   4   8   52.27    3.04
   0  -4   8   16.78    1.88
   0  -4  -8   14.71    1.56
   0   4  -8   17.67    1.91
   0   4   8   14.76    1.90
   0   4   8   17.22    1.87
   1  -4   8    6.25    1.33
   1  -4   8    9.66    1.45
  -1  -4  -8    7.36    1.27
   1   4   8    7.46    1.39
   1   4   8    4.68    1.36
  -1   4  -8    8.28    1.47
  -2  -4  -8    9.17    1.47
   2  -4   8   11.67    1.81
   2  -4   8    8.46    1.45
   2   4   8   10.35    1.80
  -2   4  -8   12.78    1.69
   3  -4   8   14.07    2.16
  -3  -4  -8   14.18    1.96
  -3   4  -8   16.43    1.90
   3   4   8   13.92    2.19
  -4  -4  -8    6.22    1.47
  -4  -4  -8    4.22    1.43
   4   4   8    4.52    1.62
  -4   4  -8    4.57    1.29
  -5   4  -8    2.23    1.14
  -5  -5   8    1.31    1.40
   5   5  -8    0.88    1.31
  -4  -5   8   -0.14    1.18
   4   5  -8    1.25    1.16
  -4   5   8   -0.76    1.01
  -3  -5   8    1.83    1.20
   3   5  -8    0.65    1.10
  -3   5   8    2.07    1.21
   2  -5  -8    5.18    0.85
  -2  -5   8    3.83    1.26
   2   5  -8    6.98    1.50
  -2   5   8    3.87    1.35
   1  -5  -8    0.21    0.47
   1  -5  -8    0.36    0.30
  -1  -5   8   -0.46    0.59
   1   5  -8    0.38    1.01
  -1   5   8   -0.22    0.70
  -1   5   8   -0.48    0.70
   0  -5  -8    3.14    0.84
   0  -5   8    3.46    1.20
   0  -5  -8    3.63    0.89
   0   5   8    3.56    1.30
   0   5   8    2.80    0.88
   0   5  -8    3.81    1.22
  -1  -5  -8    2.99    0.88
  -1  -5  -8    2.40    0.97
   1  -5   8    1.25    0.77
  -1   5  -8    1.82    1.03
   1   5   8    1.80    0.81
   1   5   8    0.98    0.86
   2  -5   8    2.14    0.88
  -2  -5  -8    6.05    1.25
  -2  -5  -8    2.51    1.05
  -2   5  -8    1.98    1.01
   2   5   8    2.56    1.10
  -3  -5  -8    1.49    1.05
  -3  -5  -8    2.57    1.07
  -3   5  -8    1.84    1.05
   3   5   8    1.96    1.20
  -4  -5  -8   -0.35    0.75
  -4  -5  -8    1.22    1.26
   4   5   8    2.16    1.44
  -4   5  -8   -1.04    0.85
  -4  -6   8    3.82    1.62
  -4   6   8    3.17    1.54
   4   6  -8    1.91    1.33
  -3  -6   8    2.44    1.36
  -3   6   8    1.46    1.09
   3   6  -8   -0.17    1.09
  -2  -6   8    0.34    1.13
   2   6  -8    1.00    0.82
  -2   6   8    0.30    0.75
  -2   6   8   -0.20    1.20
   1  -6  -8   51.00    2.43
  -1  -6   8   47.45    3.13
   1   6  -8   45.66    2.89
  -1   6   8   48.74    2.92
  -1   6   8   44.75    3.28
   0  -6  -8    5.11    0.98
   0  -6   8    4.30    1.28
   0  -6  -8    6.39    1.08
   0   6   8    5.25    1.28
   0   6   8    2.78    1.30
   0   6  -8    9.95    1.61
  -1  -6  -8   -0.30    0.65
   1  -6   8    0.42    0.90
  -1  -6  -8    1.29    0.85
   1   6   8    0.96    1.21
  -1   6  -8   -0.25    0.90
  -2  -6  -8    2.24    0.97
  -2  -6  -8    2.84    1.12
   2  -6   8    3.17    1.22
   2   6   8    2.83    1.19
  -2   6  -8    1.99    1.06
  -3  -6  -8    0.31    0.93
  -3  -6  -8   -1.59    0.63
   3   6   8    1.36    1.38
  -3   6  -8   -0.10    1.05
  -4  -6  -8    4.22    1.54
  -4  -6  -8    3.17    1.29
   4   6   8    2.32    1.72
  -4  -7   8    4.16    1.86
  -4   7   8   10.22    2.17
   4   7  -8   10.58    2.15
  -3  -7   8    7.11    1.62
   3   7  -8    6.67    1.69
  -3   7   8    6.18    1.32
  -3   7   8    6.14    1.74
  -2  -7   8    2.40    1.36
  -2   7   8    2.23    0.99
  -2   7   8   -0.48    1.27
   2   7  -8   -0.45    1.05
  -1  -7   8   10.71    1.85
  -1   7   8    7.11    1.42
  -1   7   8    6.46    1.76
   1   7  -8    8.10    1.65
   0  -7  -8    1.58    0.88
   0  -7  -8    2.01    0.81
   0  -7   8    2.05    1.17
   0   7   8    2.00    1.11
   0   7  -8    1.90    1.11
   0   7   8    2.62    1.09
  -1  -7  -8    1.31    0.87
  -1  -7  -8    2.77    0.91
   1  -7   8    3.69    1.31
   1   7   8    2.82    1.19
  -1   7  -8    0.48    1.14
   2  -7   8    3.19    1.12
  -2  -7  -8    2.99    1.14
  -2  -7  -8    2.53    1.07
   2   7   8    3.77    1.68
  -2   7  -8    2.93    1.15
  -3  -7  -8   -0.30    0.79
  -3  -7  -8    2.36    1.09
   3   7   8    0.39    1.33
  -3   7  -8    0.41    1.14
  -3  -8   8    3.63    1.42
   3   8  -8    4.32    1.60
  -3   8   8    4.69    1.89
  -2  -8   8    9.52    1.99
  -2   8   8   10.32    2.28
  -2   8   8   13.77    1.80
   2   8  -8   11.49    1.99
  -1  -8   8    8.43    1.88
  -1   8   8    6.43    1.65
  -1   8   8    7.54    1.46
   1   8  -8    7.92    1.67
   0  -8   8    4.41    1.52
   0   8  -8    3.26    1.32
   0   8   8    4.11    1.79
   1  -8   8    3.11    1.37
  -1  -8  -8    4.34    1.37
  -1  -8  -8    4.23    1.07
  -1   8  -8    2.31    1.19
   1   8   8    4.41    1.68
  -2  -8  -8    7.39    1.42
   2  -8   8    8.46    1.86
  -2  -8  -8    5.04    1.49
   2   8   8    4.51    1.88
  -2   8  -8    3.43    1.34
  -1  -9   8    2.04    1.19
   1   9  -8    1.14    1.16
  -1   9   8    1.49    1.68
   0  -9   8    2.85    1.41
   0   9  -8    0.58    1.32
   0   9   8    1.32    1.60
   1  -9   8    2.84    1.22
   1   9   8    4.55    1.53
   5   0  -9    0.32    0.91
   4   0  -9    0.08    0.88
  -3   0   9   -0.13    0.43
   3   0  -9    3.23    1.04
  -3   0   9    1.81    0.65
  -2   0   9   -0.17    0.43
  -2   0   9    0.31    0.57
   2   0  -9   -0.02    0.59
   1   0  -9   -0.55    0.53
  -1   0   9   -0.14    0.57
  -1   0   9    0.03    0.45
   0   0   9    0.94    0.73
   0   0  -9   -0.87    0.48
   1   0   9   -0.42    0.81
  -1   0  -9   -0.01    0.82
   1   0   9    0.66    0.69
   2   0   9    1.29    0.77
  -2   0  -9   -0.70    0.77
   2   0   9    0.46    0.93
  -3   0  -9    1.72    1.03
   3   0   9   -0.83    0.62
  -4   0  -9    0.45    0.97
   4   0   9    1.93    1.35
   5   0   9    0.44    1.43
  -5   0  -9    0.39    1.02
   5  -1  -9   -0.66    0.84
   5   1  -9    0.17    0.99
   4  -1  -9   11.89    1.70
  -4  -1   9   10.66    1.37
   4   1  -9   10.37    1.67
   3  -1  -9   10.52    1.53
  -3  -1   9   10.35    1.29
  -3   1   9    9.25    0.88
   3   1  -9    6.09    1.39
  -3   1   9    7.84    1.09
  -2  -1   9    7.17    0.84
   2  -1  -9    7.46    1.30
  -2  -1   9    7.52    1.10
   2   1  -9    7.83    1.43
  -2   1   9    8.50    1.17
  -1  -1   9    0.83    0.55
  -1  -1   9    1.09    0.66
   1  -1  -9   -0.30    0.73
  -1   1   9    0.12    0.60
   1   1  -9    1.14    0.92
   0  -1   9   44.83    2.45
   0  -1   9   43.92    2.49
   0  -1  -9   44.69    2.61
   0   1  -9   45.61    2.70
   0   1   9   43.92    2.64
   1  -1   9    2.52    0.80
  -1  -1  -9    4.66    1.16
   1  -1   9    2.84    1.02
  -1   1  -9    2.27    0.85
   1   1   9    2.43    0.90
   1   1   9    3.94    1.02
   2  -1   9   -0.05    0.89
   2  -1   9    1.50    0.74
  -2  -1  -9    2.46    1.00
   2   1   9    2.14    1.10
  -2   1  -9    0.48    0.91
   2   1   9    1.30    0.80
  -3  -1  -9    0.70    0.74
   3  -1   9   -0.41    0.88
  -3   1  -9   -0.36    0.83
   3   1   9    1.25    1.10
   4  -1   9   -1.15    1.02
  -4  -1  -9    3.98    1.34
  -4   1  -9    1.85    1.08
   4   1   9    0.37    0.94
  -5  -1  -9    3.27    1.32
   5  -1   9    3.04    1.60
  -5   1  -9    4.96    1.52
   5   1   9    2.66    1.71
   5   2  -9   -0.12    1.02
  -4  -2   9    0.82    1.02
   4  -2  -9    0.12    0.83
   4   2  -9    2.87    1.23
  -3  -2   9    6.66    1.21
   3  -2  -9    7.78    1.26
   3   2  -9    7.61    1.41
  -3   2   9    8.68    1.31
  -2  -2   9   23.38    1.27
  -2  -2   9   24.28    2.08
   2  -2  -9   23.73    2.10
  -2   2   9   23.77    2.06
   2   2  -9   21.19    2.14
  -1  -2   9   32.57    1.84
   1  -2  -9   30.23    2.05
  -1  -2   9   29.29    2.03
  -1   2   9   34.19    2.24
   1   2  -9   26.49    2.42
   0  -2  -9    5.76    1.18
   0  -2   9    6.13    1.20
   0  -2   9    4.94    1.04
   0   2  -9    4.48    1.17
   0   2   9    4.55    1.06
   1  -2   9    4.18    1.00
   1  -2   9    3.79    0.89
   1  -2   9    2.70    1.03
  -1  -2  -9    5.99    1.23
   1   2   9    3.46    1.20
   1   2   9    4.83    1.08
  -1   2  -9    2.27    1.12
   2  -2   9    1.54    0.72
  -2  -2  -9    1.90    0.83
   2  -2   9    2.43    1.08
   2   2   9    2.59    1.05
   2   2   9    2.47    0.99
  -2   2  -9    2.88    1.11
  -3  -2  -9   14.51    1.90
   3  -2   9   13.40    1.95
  -3   2  -9   12.49    1.83
   3   2   9   11.01    1.85
   4  -2   9    3.85    1.52
  -4  -2  -9    0.92    1.08
  -4   2  -9    2.25    1.13
   4   2   9    1.36    1.34
   5  -2   9   -0.82    1.28
  -5  -2  -9    1.45    1.23
  -5   2  -9    2.82    1.25
   5   2   9    2.28    1.68
  -5  -3   9   -1.03    1.10
   5   3  -9    2.12    1.32
  -4  -3   9    4.38    1.24
   4   3  -9    5.12    1.48
  -4   3   9    3.07    1.17
   3  -3  -9   14.60    1.54
  -3  -3   9   13.37    1.73
  -3   3   9   13.70    1.81
   3   3  -9   11.98    1.88
   2  -3  -9    9.73    1.35
  -2  -3   9    9.48    1.50
  -2   3   9    5.79    1.23
   2   3  -9    6.01    1.29
  -1  -3   9    0.23    0.82
  -1  -3   9    0.96    0.65
   1  -3  -9    0.71    0.76
  -1   3   9    0.14    0.90
   1   3  -9    0.86    1.02
   0  -3  -9   13.15    1.58
   0  -3   9   17.83    1.85
   0  -3   9   15.12    1.63
   0   3   9   16.17    1.83
   0   3   9   14.05    1.89
   0   3  -9   14.96    1.87
   1  -3   9   11.43    1.62
  -1  -3  -9   11.16    1.51
   1  -3   9   11.68    1.34
   1  -3   9    9.07    1.53
   1   3   9   12.67    1.71
  -1   3  -9   11.70    1.69
   1   3   9   11.89    1.70
  -2  -3  -9    9.18    1.53
   2  -3   9   10.29    1.70
   2  -3   9    6.15    1.00
   2   3   9    7.45    1.60
  -2   3  -9    6.12    1.23
  -3  -3  -9    2.49    1.04
   3  -3   9    3.15    1.35
   3   3   9    1.36    1.24
  -3   3  -9    2.32    0.96
  -4  -3  -9    2.53    1.08
   4  -3   9   -1.81    1.05
   4   3   9    1.45    1.40
  -4   3  -9    2.74    1.16
  -5  -4   9    3.32    1.38
   5   4  -9    1.08    1.31
  -4  -4   9   13.25    1.92
  -4   4   9   15.50    2.10
   4   4  -9   14.51    2.13
  -3  -4   9   73.65    3.91
   3  -4  -9   76.75    3.40
   3   4  -9   69.91    3.96
  -3   4   9   75.02    4.00
   2  -4  -9    3.46    0.85
  -2  -4   9    3.38    1.14
   2   4  -9    3.28    1.31
  -2   4   9    4.35    1.33
   1  -4  -9    7.38    1.24
  -1  -4   9    6.08    1.33
   1  -4  -9    7.36    0.87
   1   4  -9    4.95    1.35
  -1   4   9    9.02    1.63
   0  -4   9    5.79    1.30
   0  -4  -9    5.66    1.11
   0   4   9    7.17    1.56
   0   4   9    7.25    1.36
   0   4  -9    5.00    1.37
   1  -4   9   76.07    3.25
  -1  -4  -9   72.25    3.66
   1  -4   9   72.98    3.76
   1  -4   9   77.47    3.90
  -1   4  -9   66.02    3.70
   1   4   9   69.17    4.00
   1   4   9   69.00    3.81
   2  -4   9    5.79    1.49
  -2  -4  -9    8.47    1.50
   2   4   9    4.94    1.52
  -2   4  -9    4.54    1.28
  -3  -4  -9    1.93    1.07
   3  -4   9    0.03    0.92
   3   4   9    1.36    1.36
  -3   4  -9   -0.59    0.93
  -4  -4  -9    5.29    1.66
  -4  -4  -9    4.97    1.47
  -4   4  -9    3.90    1.33
   4   4   9    2.85    1.27
  -4  -5   9    0.48    1.18
  -4   5   9   -1.07    1.06
   4   5  -9   -0.07    1.07
  -3  -5   9   -0.38    1.00
   3   5  -9    0.16    0.78
  -3   5   9   -0.06    1.08
   2  -5  -9   35.83    2.02
  -2  -5   9   32.96    2.95
  -2   5   9   36.82    2.85
   2   5  -9   33.92    2.54
  -1  -5   9    5.19    1.22
   1  -5  -9    3.95    0.99
  -1   5   9    3.24    1.31
   1   5  -9    3.13    1.27
  -1   5   9    2.72    1.01
   0  -5   9    7.32    1.49
   0  -5  -9    5.17    0.97
   0  -5  -9    3.80    0.95
   0   5  -9    5.02    1.39
   0   5   9    7.17    1.51
   0   5   9    6.15    1.35
   1  -5   9    0.02    0.52
   1  -5   9    0.49    0.71
  -1  -5  -9   -0.63    0.66
  -1  -5  -9    0.03    0.69
   1   5   9    0.75    1.13
   1   5   9    0.88    0.92
  -1   5  -9   -0.09    0.92
  -2  -5  -9   14.84    1.83
   2  -5   9   17.85    2.23
  -2  -5  -9   16.29    1.97
   2   5   9    8.95    1.94
  -2   5  -9   13.50    1.85
  -3  -5  -9   10.33    1.80
  -3  -5  -9    9.94    1.78
   3   5   9    8.71    2.03
  -3   5  -9   10.18    1.79
  -4  -5  -9    1.01    1.28
  -4  -5  -9    0.06    1.01
   4   5   9    1.83    1.66
  -4   5  -9   -0.21    1.00
  -4  -6   9    4.91    1.64
   4   6  -9    7.64    1.88
  -4   6   9    7.73    1.90
  -3  -6   9    1.48    1.34
   3   6  -9    3.05    1.17
  -3   6   9    0.50    1.34
  -2  -6   9   -0.42    1.15
  -2   6   9    0.94    1.26
   2   6  -9    0.42    1.20
  -2   6   9    0.57    0.89
   1  -6  -9   -0.10    0.64
  -1  -6   9   -0.93    0.61
  -1   6   9    0.64    1.18
   1   6  -9   -0.18    1.09
  -1   6   9    0.87    0.76
   0  -6  -9    1.56    0.79
   0  -6  -9    0.96    0.72
   0  -6   9    1.92    1.13
   0   6   9    1.15    0.95
   0   6   9   -0.82    1.09
   0   6  -9    1.32    1.10
  -1  -6  -9    9.38    1.42
  -1  -6  -9    8.44    1.41
   1  -6   9    5.60    1.45
   1   6   9    5.52    1.66
  -1   6  -9    4.15    1.34
  -2  -6  -9    4.51    1.18
   2  -6   9    3.64    1.26
  -2  -6  -9    4.16    1.28
   2   6   9    4.06    1.66
  -2   6  -9    2.80    1.21
  -3  -6  -9    1.99    1.03
  -3  -6  -9    1.18    1.19
  -3   6  -9    0.92    1.09
   3   6   9    2.23    1.52
  -3  -7   9   -0.38    1.18
  -3   7   9   -2.47    1.23
  -3   7   9    0.01    0.92
   3   7  -9    0.67    0.95
  -2  -7   9   -1.17    1.15
  -2   7   9   -0.51    0.78
  -2   7   9   -0.20    1.26
   2   7  -9   -0.87    0.71
  -1  -7   9    0.47    1.18
  -1   7   9    0.83    0.88
  -1   7   9    1.35    1.11
   1   7  -9   -0.48    0.73
   0  -7   9    0.55    0.74
   0  -7  -9    0.30    0.69
   0   7   9   -0.35    0.62
   0   7  -9    0.83    0.88
   0   7   9   -2.00    1.02
  -1  -7  -9    1.17    0.86
   1  -7   9    2.61    1.21
  -1  -7  -9    2.82    1.05
   1   7   9    1.29    1.01
  -1   7  -9    2.01    1.20
  -2  -7  -9    1.09    1.23
  -2  -7  -9    0.24    0.78
   2  -7   9    2.06    1.23
  -2   7  -9    0.04    1.04
   2   7   9    0.16    1.42
  -3  -7  -9    0.42    1.19
  -3  -7  -9    1.21    0.85
   3   7   9    1.71    1.69
  -3   7  -9    1.01    1.43
  -2  -8   9   -1.38    1.26
   2   8  -9   -0.68    1.09
  -2   8   9    0.03    1.47
  -2   8   9    0.07    0.97
  -1  -8   9    7.11    1.78
  -1   8   9    6.63    2.03
   1   8  -9    7.02    1.70
  -1   8   9    5.24    1.45
   0  -8   9    1.82    1.25
   0   8  -9   -0.06    1.11
   0   8   9    1.00    1.46
  -1  -8  -9    6.23    1.51
   1  -8   9    7.93    1.66
   1   8   9    6.70    2.02
  -1   8  -9    5.30    1.57
   2  -8   9    5.76    1.67
  -2  -8  -9    5.44    1.50
  -2  -8  -9    7.77    1.50
  -2   8  -9    4.31    1.45
   2   8   9    4.24    1.95
   5   0 -10   14.55    2.09
   4   0 -10    3.36    1.26
   3   0 -10   20.01    2.15
  -3   0  10   21.13    1.48
   2   0 -10    5.86    1.30
  -2   0  10    4.92    0.94
  -2   0  10    3.21    0.82
   1   0 -10    1.12    1.00
  -1   0  10    0.82    0.86
  -1   0  10    3.10    0.78
   0   0  10   11.19    1.55
   0   0 -10   15.87    1.85
   1   0  10    8.71    1.36
  -1   0 -10    9.49    1.56
   1   0  10    9.99    1.62
   2   0  10   22.04    2.13
   2   0  10   18.91    2.18
  -2   0 -10   16.00    2.11
   3   0  10   -1.00    0.91
  -3   0 -10   -0.37    0.64
  -4   0 -10    1.49    0.97
   4   0  10    3.15    1.25
   5  -1 -10    0.66    1.05
   5   1 -10    1.25    1.14
   4  -1 -10   10.74    1.74
   4   1 -10    7.06    1.54
   3  -1 -10   28.37    2.45
  -3  -1  10   29.79    1.87
  -3   1  10   24.02    1.78
   3   1 -10   30.19    2.69
  -2  -1  10    0.88    0.57
  -2  -1  10    1.06    0.76
   2  -1 -10    1.81    0.93
  -2   1  10    0.55    0.72
   2   1 -10    0.39    0.74
  -1  -1  10   11.96    1.34
  -1  -1  10   11.27    1.42
   1  -1 -10   13.70    1.72
   1   1 -10   13.20    1.78
  -1   1  10   10.99    1.47
   0  -1  10   17.44    1.79
   0  -1  10   14.74    1.71
   0  -1 -10   12.76    1.74
   0   1 -10   13.95    1.73
   0   1  10   11.70    1.65
   1  -1  10    1.10    0.75
   1  -1  10    0.85    0.96
  -1  -1 -10    1.11    0.77
  -1   1 -10    1.89    1.07
   1   1  10    1.90    1.08
   1   1  10    0.97    0.81
  -2  -1 -10    4.49    1.19
   2  -1  10    5.14    1.44
   2  -1  10    3.70    0.99
   2   1  10    3.61    0.99
   2   1  10    6.13    1.52
  -2   1 -10    4.71    1.31
  -3  -1 -10    5.83    1.46
   3  -1  10    4.21    1.48
   3   1  10    4.78    1.55
  -3   1 -10    4.21    1.19
  -4  -1 -10    1.55    1.13
   4  -1  10    1.25    1.30
   4   1  10    1.47    1.33
  -4   1 -10    1.24    1.12
   5   2 -10   -0.93    1.03
  -4  -2  10    1.44    0.93
   4  -2 -10   -0.70    0.72
   4   2 -10    0.78    0.85
  -3  -2  10    1.78    0.84
   3  -2 -10    0.42    0.82
   3   2 -10    1.85    1.17
  -3   2  10    0.52    0.83
  -2  -2  10    1.68    0.90
   2  -2 -10    1.02    0.90
  -2  -2  10    1.56    0.58
   2   2 -10    0.84    0.84
  -2   2  10    1.70    0.93
  -1  -2  10    0.52    0.67
   1  -2 -10   -0.03    0.79
  -1  -2  10    0.65    0.76
  -1   2  10    0.46    0.95
   1   2 -10    0.76    1.06
   0  -2  10   15.97    1.69
   0  -2 -10   13.39    1.74
   0  -2  10   11.36    1.62
   0   2 -10   15.69    1.93
   0   2  10   16.15    1.95
   0   2  10   11.68    1.66
  -1  -2 -10    3.08    1.08
   1  -2  10    1.86    0.78
   1  -2  10    2.13    1.06
  -1   2 -10    1.77    0.94
   1   2  10    2.28    0.94
   1   2  10    2.19    0.91
  -2  -2 -10   25.46    2.52
   2  -2  10   24.64    1.82
   2  -2  10   20.04    2.33
   2   2  10   25.91    2.55
   2   2  10   18.36    2.44
  -2   2 -10   26.82    2.59
   3  -2  10    3.80    1.49
  -3  -2 -10    4.61    1.36
   3   2  10    4.10    1.31
  -3   2 -10    4.40    1.23
  -4  -2 -10    0.19    0.80
   4  -2  10   -0.33    1.27
   4   2  10   -0.89    1.16
  -4   2 -10    1.42    1.20
   5   3 -10   -0.15    1.22
  -4  -3  10    3.28    1.16
   4   3 -10    1.71    0.99
  -3  -3  10    8.29    1.46
   3  -3 -10    7.26    1.25
   3   3 -10    7.36    1.61
  -3   3  10   10.54    1.62
  -2  -3  10    5.26    1.26
   2  -3 -10    2.77    0.95
   2   3 -10    3.53    1.33
  -2   3  10    4.85    1.24
   1  -3 -10    9.12    1.45
  -1  -3  10   10.11    1.21
  -1  -3  10    6.92    1.34
  -1   3  10   10.22    1.63
   1   3 -10    8.47    1.48
   0  -3  10    3.01    1.04
   0  -3 -10    2.70    1.01
   0  -3  10    3.36    0.99
   0   3  10    1.61    1.12
   0   3 -10    2.66    1.19
   0   3  10    2.17    0.87
   1  -3  10    0.89    0.68
  -1  -3 -10    0.23    0.81
   1  -3  10    2.71    1.03
   1  -3  10    0.85    0.95
   1   3  10    1.53    0.94
  -1   3 -10    0.41    1.06
   1   3  10    1.36    0.92
   2  -3  10    4.46    1.42
  -2  -3 -10    4.15    1.09
   2  -3  10    4.75    0.97
  -2   3 -10    3.47    1.35
   2   3  10    2.92    1.13
   3  -3  10    7.18    1.74
  -3  -3 -10    4.50    1.26
  -3   3 -10    6.55    1.51
   3   3  10    4.36    1.64
   4  -3  10    0.98    1.12
  -4  -3 -10   -0.13    1.04
   4   3  10    1.69    1.32
  -4   3 -10    0.55    0.83
  -4  -4  10    4.90    1.43
   4   4 -10    4.11    1.34
  -4   4  10    5.77    2.03
  -3  -4  10    3.96    1.33
   3   4 -10    2.41    1.09
  -3   4  10    1.88    1.21
   2  -4 -10    2.55    1.01
  -2  -4  10    2.63    0.95
  -2   4  10    3.67    1.33
   2   4 -10    1.65    1.27
   1  -4 -10   11.16    1.47
  -1  -4  10    7.47    1.50
   1   4 -10   10.15    1.64
  -1   4  10    8.92    1.71
   0  -4  10    0.54    0.88
   0  -4 -10    1.01    0.86
   0   4  10    0.34    0.85
   0   4 -10    1.68    1.17
   0   4  10    0.46    0.82
   1  -4  10    1.11    0.97
   1  -4  10   -0.26    0.62
  -1  -4 -10    1.64    0.94
   1  -4  10   -0.22    0.82
   1   4  10    1.33    0.96
   1   4  10   -0.77    0.66
  -1   4 -10    0.99    0.87
   2  -4  10    0.66    1.12
  -2  -4 -10    1.49    1.02
   2   4  10    2.30    1.12
  -2   4 -10   -0.81    1.00
   3  -4  10    4.53    1.64
  -3  -4 -10    4.28    1.35
  -3   4 -10    6.64    1.57
   3   4  10    4.56    1.41
  -4  -4 -10    1.93    1.17
   4  -4  10    0.09    1.09
  -4  -4 -10    2.28    1.29
  -4   4 -10   -0.93    1.00
   4   4  10   -1.01    1.32
  -4  -5  10   -1.85    1.04
   4   5 -10   -1.56    1.13
  -4   5  10   -0.80    1.14
  -3  -5  10   -0.50    0.99
   3   5 -10    1.01    1.23
  -3   5  10   -1.24    1.30
  -2  -5  10   -0.67    0.88
   2   5 -10   -0.38    0.78
  -2   5  10   -0.70    1.10
   1  -5 -10    0.16    0.70
  -1  -5  10    1.09    1.06
  -1   5  10    0.56    1.17
  -1   5  10    0.84    0.93
   1   5 -10   -0.46    0.72
   0  -5 -10   32.93    2.03
   0  -5  10   34.36    2.50
   0  -5 -10   30.31    2.19
   0   5  10   30.78    2.83
   0   5 -10   29.95    2.86
   0   5  10   27.42    2.94
  -1  -5 -10    1.51    0.92
  -1  -5 -10    0.27    0.73
   1  -5  10    0.89    1.03
   1   5  10   -0.24    1.12
   1   5  10    2.28    1.07
  -1   5 -10    0.52    1.12
  -2  -5 -10    1.93    0.99
   2  -5  10    0.42    0.91
  -2  -5 -10    0.96    0.91
  -2   5 -10   -0.24    1.06
   2   5  10   -0.51    1.10
  -3  -5 -10    3.46    1.27
  -3  -5 -10    5.10    1.45
  -3   5 -10    2.88    1.33
   3   5  10    2.23    1.52
  -3  -6  10    2.10    1.39
  -3   6  10    1.32    1.37
   3   6 -10   -0.53    1.15
  -2  -6  10    3.09    1.39
   2   6 -10    3.87    1.52
  -2   6  10    3.30    1.37
  -2   6  10    4.04    1.18
  -1  -6  10    8.70    1.81
   1   6 -10   12.78    1.93
  -1   6  10    7.44    1.88
  -1   6  10    8.59    1.54
   0  -6 -10    3.07    1.04
   0  -6  10    3.07    1.22
   0   6 -10    3.04    1.35
   0   6  10    2.49    1.20
   0   6  10    3.15    1.28
  -1  -6 -10    0.13    0.79
   1  -6  10    1.91    1.13
  -1  -6 -10   -0.16    0.71
   1   6  10   -0.38    1.28
  -1   6 -10   -0.02    1.09
  -2  -6 -10    9.12    1.64
   2  -6  10    7.07    1.56
  -2  -6 -10    8.45    1.63
   2   6  10    3.96    1.64
  -2   6 -10    7.44    1.67
  -3  -6 -10    1.15    0.99
  -3  -6 -10    0.88    1.07
   3   6  10    0.54    1.49
  -3   6 -10    0.40    1.20
  -3  -7  10    1.76    1.51
   3   7 -10    5.45    1.54
  -3   7  10    5.41    1.88
  -3   7  10    2.41    1.23
  -2  -7  10    2.38    1.15
  -2   7  10    0.84    1.07
   2   7 -10    1.60    1.11
  -2   7  10    2.49    1.66
  -1  -7  10    0.27    1.20
  -1   7  10    0.75    0.96
  -1   7  10   -1.06    1.24
   1   7 -10    1.15    1.03
   0  -7  10    8.58    1.73
   0   7 -10   10.19    1.93
   0   7  10    9.25    1.71
   0   7  10    6.14    1.95
   1  -7  10    5.72    1.57
  -1  -7 -10    5.65    1.36
  -1  -7 -10    3.32    1.10
   1   7  10    4.60    1.75
  -1   7 -10    3.58    1.49
  -2  -7 -10    2.44    1.33
  -2  -7 -10    1.25    0.98
   2  -7  10    2.07    1.25
   2   7  10    1.26    1.23
  -2   7 -10    0.68    1.22
  -1  -8  10    0.81    1.05
  -1   8  10    1.42    1.64
  -1   8  10    2.47    1.18
   1   8 -10    1.36    1.39
   0  -8  10    0.69    1.21
   0   8  10   -1.47    0.89
   0   8 -10   -1.62    1.07
  -1   8 -10    2.96    1.56
   5   0 -11   -0.30    1.07
   4   0 -11   -1.48    0.94
   3   0 -11    1.64    1.05
   2   0 -11   -0.78    0.63
  -2   0  11   -0.02    0.56
  -2   0  11   -0.05    0.59
   1   0 -11   -1.88    0.81
  -1   0  11   -0.32    0.79
   0   0  11   -0.45    0.71
   0   0 -11   -0.01    1.02
  -1   0 -11    1.85    1.12
   1   0  11   -0.51    0.93
   1   0  11   -0.46    0.70
   2   0  11   -0.53    0.99
   2   0  11    0.13    0.56
  -2   0 -11    0.42    1.06
   3   0  11   -0.77    0.82
  -3   0 -11    0.43    1.05
  -4   0 -11    1.60    1.27
   4   0  11   -1.66    1.14
   5  -1 -11    0.75    1.24
   5   1 -11    1.62    1.31
   4  -1 -11    1.36    1.05
   4   1 -11   -0.51    0.99
   3  -1 -11    6.29    1.46
  -3  -1  11    6.07    1.10
   3   1 -11    2.68    1.26
  -2  -1  11   26.52    1.70
  -2  -1  11   26.16    1.87
   2  -1 -11   23.81    2.34
  -2   1  11   25.92    1.90
   2   1 -11   30.20    2.73
  -1  -1  11   22.24    1.96
  -1  -1  11   26.75    2.23
   1  -1 -11   21.54    2.24
  -1   1  11   24.18    2.18
   1   1 -11   24.77    2.46
   0  -1 -11   -0.78    0.87
   0  -1  11    0.43    0.79
   0   1  11   -0.88    0.78
   0   1 -11    0.08    0.80
   1  -1  11   26.18    2.36
  -1  -1 -11   21.71    2.28
   1  -1  11   24.19    2.36
   1   1  11   24.56    2.40
   1   1  11   20.44    2.28
  -1   1 -11   21.01    2.27
   2  -1  11   -0.66    0.94
   2  -1  11    1.86    0.85
  -2  -1 -11    0.04    1.05
   2   1  11    1.31    0.86
  -2   1 -11    0.93    1.14
   2   1  11   -0.21    1.06
  -3  -1 -11    3.95    1.21
   3  -1  11    5.44    1.64
   3   1  11    5.90    1.69
  -3   1 -11    5.72    1.43
  -4  -1 -11    1.65    1.04
   4  -1  11    2.00    1.57
   4   1  11    1.51    1.13
  -4   1 -11    0.43    1.14
  -4  -2  11    5.47    1.42
   4  -2 -11    6.14    1.47
   4   2 -11    3.85    1.44
  -3  -2  11    1.85    0.92
   3  -2 -11    0.03    0.87
  -3   2  11    0.72    0.91
   3   2 -11   -0.20    1.05
   2  -2 -11   17.74    2.01
  -2  -2  11   20.62    2.00
   2   2 -11   15.42    2.11
  -2   2  11   19.86    2.03
   1  -2 -11    3.54    1.12
  -1  -2  11    3.06    1.04
  -1  -2  11    2.91    0.87
  -1   2  11    4.10    1.19
   1   2 -11    3.05    1.29
   0  -2  11   49.71    3.06
   0  -2  11   55.86    3.05
   0  -2 -11   53.98    3.18
   0   2 -11   55.95    3.24
   0   2  11   56.74    3.40
   0   2  11   47.24    3.00
   1  -2  11   10.70    1.71
  -1  -2 -11   10.86    1.67
   1  -2  11   13.93    1.63
   1   2  11   11.21    1.91
   1   2  11   12.62    1.79
  -1   2 -11   13.17    1.81
   2  -2  11   -0.14    0.75
  -2  -2 -11    1.22    1.03
   2  -2  11    0.51    0.70
  -2   2 -11   -1.82    0.84
   2   2  11    1.05    0.78
   2   2  11    0.58    1.10
  -3  -2 -11   -0.32    0.69
   3  -2  11    0.86    0.97
  -3   2 -11    1.43    0.97
   3   2  11    0.87    1.25
  -4  -2 -11    5.03    1.58
   4  -2  11    1.74    1.49
  -4   2 -11    6.51    1.65
   4   2  11    4.43    1.49
  -4  -3  11   -0.64    0.82
   4   3 -11    1.01    1.26
  -3  -3  11    2.29    1.00
   3  -3 -11    1.01    0.91
  -3   3  11   -0.20    1.04
   3   3 -11    2.14    1.33
  -2  -3  11   44.58    2.82
   2   3 -11   43.65    3.15
  -2   3  11   43.78    3.01
  -1  -3  11    6.17    1.12
  -1  -3  11    9.45    1.58
   1  -3 -11    8.86    1.47
   1   3 -11    7.93    1.53
  -1   3  11    7.74    1.53
   0  -3  11    6.91    1.37
   0  -3  11    7.68    1.50
   0  -3 -11    8.24    1.47
   0   3 -11    3.40    1.32
   0   3  11    7.76    1.59
   0   3  11    8.10    1.56
  -1  -3 -11   13.84    1.78
   1  -3  11   17.74    2.09
   1  -3  11   17.28    1.75
   1  -3  11   15.75    1.98
   1   3  11   13.83    1.95
   1   3  11   14.70    2.09
  -1   3 -11   14.50    2.05
   2  -3  11    0.09    0.66
  -2  -3 -11   -0.51    0.94
   2  -3  11   -0.68    0.98
   2   3  11    0.20    1.25
  -2   3 -11   -0.70    1.13
   3  -3  11    3.56    1.25
  -3  -3 -11    5.27    1.47
  -3   3 -11    2.62    1.29
   3   3  11    1.37    1.33
  -4  -3 -11    3.81    1.43
  -4   3 -11    6.87    1.78
  -4  -4  11    0.46    1.17
   4   4 -11   -0.61    0.85
  -3  -4  11   15.19    2.09
  -3   4  11   11.54    1.89
   3   4 -11   10.96    1.92
   2  -4 -11   -1.67    0.64
  -2  -4  11   -1.39    0.83
   2   4 -11   -0.09    0.88
  -2   4  11    0.49    1.08
   1  -4 -11   -1.24    0.70
  -1  -4  11    1.09    1.01
   1   4 -11    1.07    1.27
  -1   4  11    0.37    1.13
  -1   4  11   -0.22    0.58
   0  -4  11    1.86    0.92
   0  -4 -11    2.03    1.01
   0   4  11    1.90    0.91
   0   4 -11    1.17    1.00
   0   4  11    0.37    1.20
   1  -4  11   15.56    2.04
   1  -4  11   13.65    1.56
   1  -4  11   15.62    2.10
  -1  -4 -11   14.23    1.88
  -1   4 -11   12.99    2.07
   1   4  11   12.43    1.93
   1   4  11   12.69    2.02
   2  -4  11   16.29    2.30
  -2  -4 -11   14.72    2.02
   2   4  11   15.19    2.44
  -2   4 -11   13.78    2.05
   3  -4  11   -1.03    1.17
  -3  -4 -11    1.91    1.21
  -3   4 -11    0.55    1.20
   3   4  11   -0.67    0.80
  -3  -5  11    1.26    1.17
   3   5 -11    0.21    1.25
  -3   5  11   -0.73    1.17
  -2  -5  11    4.22    1.40
   2   5 -11    4.01    1.32
  -2   5  11    5.76    1.64
  -1  -5  11    2.94    1.30
   1  -5 -11    3.27    1.16
  -1   5  11    3.24    1.20
   1   5 -11    1.40    1.33
  -1   5  11    2.50    1.34
   0  -5 -11    2.40    1.01
   0  -5  11    4.29    1.33
   0  -5 -11    3.64    0.95
   0   5 -11    4.70    1.33
   0   5  11    1.73    1.09
   0   5  11    3.99    1.53
  -1  -5 -11    0.35    0.86
   1  -5  11    0.83    1.13
  -1  -5 -11    1.39    0.87
   1   5  11    2.48    1.46
   1   5  11    1.58    1.22
  -1   5 -11    0.69    0.93
  -2  -5 -11    3.78    1.24
  -2  -5 -11    1.45    1.06
   2   5  11    1.76    1.45
  -2   5 -11   -0.34    1.20
  -3  -5 -11    2.26    1.31
  -3  -5 -11    2.33    1.32
  -3   5 -11    0.30    1.27
   3   5  11    0.34    1.39
  -3  -6  11    3.45    1.47
   3   6 -11    4.88    1.67
  -3   6  11    4.98    1.81
  -2  -6  11    0.66    0.90
  -2   6  11    0.07    1.30
  -2   6  11    1.53    1.23
   2   6 -11    0.04    1.30
  -1  -6  11    0.29    0.83
  -1   6  11    0.08    1.34
  -1   6  11   -0.96    0.91
   1   6 -11    0.42    1.30
   0  -6 -11    0.25    0.83
   0  -6  11    0.12    0.74
   0   6  11   -0.44    1.29
   0   6 -11   -0.02    1.22
   0   6  11    0.49    1.07
  -1  -6 -11    2.36    1.15
  -1  -6 -11    1.62    0.94
   1  -6  11    0.89    0.94
   1   6  11    1.94    1.57
   1   6  11    1.73    0.96
  -1   6 -11    0.94    1.28
  -2  -6 -11    3.34    1.24
   2  -6  11    5.42    1.56
  -2  -6 -11    3.69    1.35
   2   6  11   -0.06    1.38
  -2   6 -11    3.12    1.55
  -2  -7  11    0.77    1.38
  -2   7  11    0.32    1.49
   2   7 -11   -1.69    0.80
  -2   7  11   -0.55    1.00
  -1  -7  11    1.47    1.35
  -1   7  11   -0.33    1.36
  -1   7  11    0.49    1.01
   1   7 -11    1.28    1.37
   0  -7  11    1.53    1.04
   0   7  11    0.77    1.40
   0   7  11   -0.40    0.96
   0   7 -11    0.85    1.40
  -1  -7 -11    1.16    1.07
   1  -7  11   -0.43    0.78
   1   7  11   -1.01    1.32
  -1   7 -11   -1.06    1.23
   4   0 -12    3.62    1.42
   3   0 -12    1.39    1.18
  -2   0  12   24.30    1.92
   2   0 -12   29.09    2.71
  -1   0  12    7.23    1.38
   1   0 -12    7.32    1.61
   0   0 -12   -1.70    0.88
   0   0  12    0.03    0.90
   1   0  12    0.27    0.61
  -1   0 -12    0.31    0.81
   1   0  12    0.53    1.06
   2   0  12    7.35    1.35
  -2   0 -12    3.00    1.34
   2   0  12    6.88    1.74
   3   0  12    1.93    1.49
  -3   0 -12    5.24    1.62
   4  -1 -12    5.57    1.45
   4   1 -12    3.77    1.43
  -3  -1  12    1.67    0.76
   3  -1 -12   -0.92    0.93
   3   1 -12    1.42    0.96
  -2  -1  12    9.49    1.39
   2  -1 -12    6.62    1.50
  -2   1  12    6.28    1.25
   2   1 -12    5.65    1.55
  -1  -1  12    5.18    1.19
   1  -1 -12    2.17    1.20
  -1  -1  12    3.73    1.07
  -1   1  12    3.44    1.13
   1   1 -12    4.35    1.39
   0  -1 -12    1.76    1.21
   0  -1  12    2.81    1.10
   0   1  12    1.62    1.10
   0   1 -12    1.37    0.97
   0   1  12    2.36    0.91
   1  -1  12    4.77    1.24
   1  -1  12    7.58    1.55
  -1  -1 -12    5.13    1.26
  -1   1 -12    6.71    1.62
   1   1  12    5.19    1.42
   1   1  12    6.81    1.43
  -2  -1 -12    3.96    1.41
   2  -1  12    3.53    1.12
   2  -1  12    4.08    1.45
  -2   1 -12    4.58    1.47
   2   1  12    6.36    1.41
   2   1  12    3.67    1.48
  -3  -1 -12    3.18    1.37
   3  -1  12    3.91    1.76
  -3   1 -12    4.38    1.36
   3   1  12    1.88    1.13
   4  -2 -12    2.80    1.37
   4   2 -12    2.81    1.23
   3  -2 -12   -1.50    0.81
  -3  -2  12    0.63    0.78
   3   2 -12   -1.87    0.99
  -2  -2  12    2.59    1.04
   2  -2 -12    2.01    1.17
   2   2 -12    1.83    1.36
  -2   2  12    3.71    1.24
   1  -2 -12    3.13    1.21
  -1  -2  12    2.24    0.91
  -1  -2  12    3.99    1.15
   1   2 -12    1.78    1.24
  -1   2  12    2.25    1.17
   0  -2  12    2.20    0.97
   0  -2  12    3.17    1.10
   0  -2 -12    3.16    1.29
   0   2  12    1.99    0.87
   0   2  12    2.33    1.22
   0   2 -12    2.07    1.34
  -1  -2 -12    0.29    0.73
   1  -2  12    0.65    0.81
   1  -2  12    0.27    0.98
   1   2  12   -0.68    0.74
   1   2  12    1.16    1.19
  -1   2 -12   -0.46    1.05
   2  -2  12   -0.39    0.69
  -2  -2 -12    1.06    1.20
   2  -2  12    0.99    1.20
   2   2  12    0.74    0.99
   2   2  12    0.02    0.86
  -2   2 -12   -1.29    0.70
  -3  -2 -12    4.37    1.46
   3  -2  12    4.33    1.59
   3   2  12    1.25    1.40
  -3   2 -12    3.64    1.43
  -4  -3  12    3.38    1.27
   4   3 -12    0.23    0.96
   3  -3 -12    2.88    1.29
  -3  -3  12    4.29    1.24
   3   3 -12    3.58    1.55
  -2  -3  12    3.86    1.19
   2  -3 -12    5.95    1.48
  -2   3  12    3.01    1.25
   2   3 -12    1.52    1.33
  -1  -3  12    4.85    1.33
   1  -3 -12    3.81    1.30
  -1  -3  12    3.06    1.17
  -1   3  12    5.46    1.50
   1   3 -12    3.11    1.23
   0  -3 -12    0.93    1.06
   0  -3  12    1.90    1.10
   0  -3  12    1.02    1.02
   0   3 -12    1.13    1.22
   0   3  12    2.30    1.32
   0   3  12    2.67    1.16
   1  -3  12    2.47    0.97
   1  -3  12    3.37    1.27
  -1  -3 -12    1.18    1.09
   1   3  12    2.56    1.13
  -1   3 -12    2.35    1.33
   1   3  12    2.45    1.16
   2  -3  12    2.32    0.99
  -2  -3 -12    3.80    1.19
   2  -3  12    0.99    0.96
   2   3  12    2.41    1.05
  -2   3 -12    2.37    1.15
   2   3  12    3.02    1.27
   3  -3  12    2.29    1.52
  -3  -3 -12    4.48    1.37
   3   3  12    3.17    1.50
  -3   3 -12    4.37    1.69
  -3  -4  12    0.49    1.08
  -3   4  12    0.42    1.14
   3   4 -12    2.11    1.42
  -2  -4  12    0.03    0.94
   2  -4 -12    0.50    1.00
   2   4 -12   -0.33    1.23
  -2   4  12   -1.92    0.91
   1  -4 -12    0.08    1.09
  -1  -4  12    2.51    1.13
   1   4 -12    2.27    1.40
  -1   4  12    1.56    0.93
  -1   4  12    2.34    1.37
   0  -4  12    8.26    1.52
   0  -4  12    6.05    1.58
   0  -4 -12    7.53    1.55
   0   4  12    6.85    1.52
   0   4 -12   10.66    1.89
   0   4  12    5.76    1.54
  -1  -4 -12   10.32    1.77
   1  -4  12   11.47    1.92
   1  -4  12   13.96    1.67
   1  -4  12    8.51    1.63
   1   4  12   10.12    1.86
  -1   4 -12   11.54    2.05
   1   4  12    8.74    1.78
   2  -4  12   -0.34    1.16
  -2  -4 -12    0.60    1.11
  -2   4 -12   -0.27    1.19
   2   4  12    0.64    1.03
  -3  -4 -12   -0.18    0.74
  -3   4 -12   -0.05    1.28
  -3  -5  12    6.41    1.65
   3   5 -12    7.12    1.79
  -3   5  12    8.36    1.91
  -2  -5  12    2.13    1.25
  -2   5  12    3.54    1.55
   2   5 -12    1.17    1.41
  -1  -5  12    2.93    1.32
   1  -5 -12    2.25    1.08
   1   5 -12    0.50    1.30
  -1   5  12    1.61    1.15
  -1   5  12    1.97    1.20
   0  -5  12    9.86    1.92
   0  -5 -12    7.39    1.49
   0   5 -12    8.95    1.92
   0   5  12    5.06    1.32
   0   5  12    8.22    2.03
   1  -5  12    0.35    1.00
  -1  -5 -12    2.41    0.99
  -1  -5 -12    1.40    1.10
  -1   5 -12    1.44    1.36
   1   5  12    0.18    1.39
   1   5  12   -0.41    1.00
  -2  -5 -12    0.02    0.96
  -2  -5 -12   -0.71    0.97
  -2   5 -12   -1.42    1.22
   2   5  12    0.67    1.42
  -2  -6  12    0.71    1.27
  -2   6  12    2.57    1.61
   2   6 -12    1.43    1.16
  -2   6  12    3.25    1.44
  -1  -6  12   -0.85    1.04
  -1   6  12    1.08    1.21
   1   6 -12   -0.96    0.86
  -1   6  12    0.05    1.44
   0  -6  12   -0.02    0.81
   0  -6 -12    3.11    1.29
   0   6  12   -1.26    0.96
   0   6  12    0.00    1.40
   0   6 -12   -1.01    1.25
   1  -6  12    2.28    1.32
  -1  -6 -12    0.29    0.94
   1   6  12    1.58    1.26
   1   6  12   -0.54    1.28
  -1   6 -12   -1.66    1.15
   4   0 -13    1.66    1.34
   3   0 -13    0.28    1.21
   2   0 -13    0.39    1.13
  -1   0  13    1.29    1.02
   1   0 -13    1.58    1.21
   0   0 -13    0.19    0.90
   0   0  13    0.25    0.92
  -1   0 -13   -0.47    1.04
   1   0  13   -0.44    1.08
   1   0  13   -1.51    0.71
  -2   0 -13   -0.13    1.10
   2   0  13    0.58    1.31
   2   0  13    1.04    1.02
  -3   0 -13    0.43    1.23
   3   0  13    1.01    1.46
   4  -1 -13   -1.44    1.26
   4   1 -13    2.30    1.45
   3  -1 -13    1.98    1.31
   3   1 -13    1.32    1.32
   2  -1 -13   -0.22    1.02
  -2  -1  13    0.07    0.67
   2   1 -13   -0.12    1.22
   1  -1 -13    1.66    1.22
  -1  -1  13    3.30    1.02
   1   1 -13    0.94    0.97
  -1   1  13    3.17    1.24
   0  -1  13    0.11    0.86
   0  -1 -13   -1.09    0.68
   0   1  13    0.70    1.10
   0   1 -13    1.22    0.94
   0   1  13   -0.23    0.66
   1  -1  13   -0.43    0.89
  -1  -1 -13    0.45    1.22
   1  -1  13   -0.70    0.77
   1   1  13    0.90    1.21
   1   1  13    0.69    0.76
  -1   1 -13   -0.33    0.88
  -2  -1 -13    3.83    1.45
   2  -1  13    3.23    1.15
   2  -1  13    4.40    1.55
   2   1  13    3.60    1.55
   2   1  13    2.92    1.04
  -2   1 -13    1.26    1.03
  -3  -1 -13    3.26    1.53
   3  -1  13    4.96    1.75
   3   1  13    2.41    1.36
  -3   1 -13    5.14    1.70
  -3  -2  13    4.82    1.20
   3  -2 -13    5.48    1.51
   3   2 -13    5.62    1.72
  -2  -2  13    1.20    0.85
   2  -2 -13   -0.22    1.20
  -2   2  13   -0.10    1.06
   2   2 -13   -0.01    1.23
  -1  -2  13    3.19    1.09
   1  -2 -13    3.76    1.40
   1   2 -13    2.45    1.23
  -1   2  13    4.31    1.29
   0  -2 -13   -0.90    1.01
   0  -2  13    0.63    0.89
   0   2 -13    0.49    1.34
   0   2  13    0.71    0.79
   0   2  13    0.55    1.12
   1  -2  13   -0.65    0.74
   1  -2  13   -0.13    1.00
  -1  -2 -13    0.76    0.96
  -1   2 -13    1.86    1.40
   1   2  13    1.00    1.00
   1   2  13   -0.91    0.77
   2  -2  13    0.62    1.30
   2  -2  13    0.18    0.94
  -2  -2 -13    0.89    1.13
   2   2  13    0.55    1.34
  -2   2 -13   -0.11    1.24
   2   2  13   -0.48    0.65
  -3  -2 -13    2.08    1.15
  -3   2 -13    0.89    1.47
  -3  -3  13   12.61    1.81
   3   3 -13   11.54    2.25
  -2  -3  13   12.29    1.81
   2  -3 -13    9.86    1.72
   2   3 -13   11.60    2.13
  -2   3  13   10.47    1.81
   1  -3 -13   -0.93    0.96
  -1  -3  13    0.34    0.95
  -1   3  13    0.85    1.09
   1   3 -13   -0.91    1.14
   0  -3  13    9.65    1.77
   0  -3  13    6.37    1.42
   0  -3 -13    5.47    1.50
   0   3  13    4.53    1.32
   0   3  13    5.39    1.63
   0   3 -13    7.21    1.64
   1  -3  13   12.57    1.76
  -1  -3 -13   11.79    1.92
   1  -3  13    9.17    1.77
  -1   3 -13    9.43    1.83
   1   3  13    6.09    1.41
   1   3  13    7.71    1.91
  -2  -3 -13   14.03    2.24
   2  -3  13   12.58    2.13
  -2   3 -13   12.12    2.16
   2   3  13   13.61    2.44
  -3  -4  13    8.12    1.72
   3   4 -13    5.65    1.89
   2  -4 -13    3.53    1.62
  -2  -4  13    3.51    1.32
  -2   4  13    2.65    1.39
   2   4 -13    3.73    1.68
  -1  -4  13    0.79    1.10
   1  -4 -13   -0.49    1.01
   1   4 -13    1.65    1.42
  -1   4  13    1.25    0.98
  -1   4  13   -0.58    1.16
   0  -4 -13    2.47    1.25
   0  -4  13    1.99    1.17
   0  -4  13    1.60    1.13
   0   4 -13   -0.09    1.36
   0   4  13    0.68    1.34
   0   4  13    1.92    1.06
  -1  -4 -13    2.78    1.35
   1  -4  13    2.56    1.52
   1   4  13    3.86    1.42
  -1   4 -13    3.00    1.32
   1   4  13    2.23    1.22
   2  -4  13    3.49    1.57
  -2  -4 -13    3.81    1.49
  -2   4 -13    1.78    1.50
   2   4  13   -0.85    1.22
  -2  -5  13    3.16    1.39
  -2   5  13    4.86    1.47
   2   5 -13    2.92    1.60
  -2   5  13    3.05    1.58
  -1  -5  13    1.17    1.15
   1  -5 -13   -1.15    1.84
   1   5 -13    1.35    1.42
  -1   5  13    0.54    1.18
  -1   5  13    0.58    1.42
   0  -5 -13    1.99    1.25
   0  -5  13    1.37    1.28
   0   5  13    1.26    1.13
   0   5 -13   -0.79    1.23
   0   5  13    1.79    1.31
  -1  -5 -13    5.21    1.52
   1  -5  13    3.86    1.32
  -1  -5 -13    6.29    2.20
  -1   5 -13    4.40    1.45
   1   5  13    3.01    1.46
   1   5  13    4.87    1.85
   3   0 -14    0.80    1.36
   2   0 -14    0.86    1.32
  -1   0  14   37.65    2.71
   1   0 -14   29.13    3.04
   0   0  14   -0.12    0.91
   0   0 -14    0.68    1.25
   0   0  14    0.01    1.05
   1   0  14    0.71    1.02
  -1   0 -14    1.00    1.37
   1   0  14   -0.45    1.16
   2   0  14    1.31    1.43
  -2   0 -14   -0.57    1.21
   2   0  14    1.00    1.00
   3  -1 -14   -1.19    1.18
   3   1 -14    2.23    1.53
   2  -1 -14    6.43    1.74
   2   1 -14   11.75    2.15
   1  -1 -14   -1.26    1.14
  -1   1  14    1.57    1.04
   1   1 -14    2.44    1.51
   0  -1  14    9.02    1.66
   0  -1 -14    6.00    1.65
   0   1 -14    5.04    1.49
   0   1  14    5.15    1.50
   0   1  14    7.84    1.72
  -1  -1 -14    6.06    1.78
   1  -1  14    4.64    1.52
   1  -1  14    4.99    1.38
  -1   1 -14    5.83    1.78
   1   1  14    4.30    1.58
   1   1  14    7.23    1.55
  -2  -1 -14    0.82    1.34
   2  -1  14   -0.47    0.89
   2  -1  14   -0.40    1.29
  -2   1 -14   -0.84    1.38
   2   1  14   -0.57    0.96
   2   1  14   -0.64    0.89
   3  -2 -14    3.47    1.51
   3   2 -14    4.01    1.79
   2  -2 -14   -1.43    1.01
  -2  -2  14    4.52    1.30
   2   2 -14    0.39    1.38
  -1  -2  14   12.07    1.78
   1  -2 -14    9.11    1.87
   1   2 -14    9.39    2.02
  -1   2  14   10.37    1.83
   0  -2 -14   -1.49    0.65
   0  -2  14   -0.91    0.82
   0   2  14    0.81    1.11
   0   2  14   -0.54    0.58
   0   2 -14    0.70    1.34
  -1  -2 -14    0.58    1.24
   1  -2  14   -0.22    0.83
   1  -2  14   -1.36    1.02
   1   2  14    1.01    0.91
  -1   2 -14   -2.04    1.14
   1   2  14    2.99    1.49
   2  -2  14    2.28    1.06
  -2  -2 -14    3.20    1.34
  -2   2 -14   -0.68    0.91
   2   2  14    0.17    1.11
   2  -3 -14   -1.11    1.27
  -2  -3  14    0.57    1.08
  -2   3  14    1.11    1.98
   2   3 -14    1.35    1.53
  -1  -3  14    1.89    1.11
   1  -3 -14   -0.61    1.15
  -1   3  14    4.08    1.48
  -1   3  14   -0.08    1.12
   1   3 -14    0.01    1.33
   0  -3  14    2.02    2.01
   0  -3 -14   -0.39    1.17
   0   3 -14    0.14    1.40
   0   3  14   -1.06    0.94
   0   3  14   -1.01    1.17
  -1  -3 -14    2.42    1.48
   1  -3  14    2.14    1.21
   1  -3  14    2.39    1.38
   1   3  14    1.46    1.26
   1   3  14    5.31    1.82
  -1   3 -14    3.46    1.65
   1  -4 -14   -1.48    1.02
  -1  -4  14    1.71    1.19
  -1   4  14    1.12    1.38
  -1   4  14   -0.89    0.82
   1   4 -14   -1.63    0.94
   0  -4  14    4.39    1.46
   0  -4 -14    0.53    1.21
   0   4 -14    0.48    1.12
   0   4  14    0.61    1.12
   0   4  14    1.39    1.45
   2   0 -15   -1.50    0.92
   1   0 -15    1.26    1.50
   0   0  15    0.32    1.20
   0   0 -15    0.03    1.53
   0   0  15   -0.45    0.98
  -1   0 -15   -0.63    1.44
   1  -1 -15    0.14    1.37
   1   1 -15   -1.07    1.44
   0  -1 -15    2.00    1.54
   0  -1  15    3.27    1.20
   0  -1  15    3.56    1.42
   0   1  15    1.25    1.39
   0   1  15   -0.76    0.94
   0   1 -15    2.74    1.68
   1  -2 -15    3.96    1.71
   1   2 -15    2.29    1.64
   0  -2  15   -1.77    0.90
   0  -2 -15   -0.87    1.28
   0   2  15   -0.52    0.78
   0   2 -15    1.13    1.59
   0   0   0    0.00    0.00
;
_shelx_hkl_checksum              32390
loop_
_space_group_symop_operation_xyz
'x, y, z'
'-x, y+1/2, -z+1/2'
'-x, -y, -z'
'x, -y-1/2, z-1/2'
loop_
_atom_site_label
_atom_site_type_symbol
_atom_site_fract_x
_atom_site_fract_y
_atom_site_fract_z
_atom_site_U_iso_or_equiv
_atom_site_adp_type
_atom_site_occupancy
_atom_site_site_symmetry_order
_atom_site_calc_flag
_atom_site_refinement_flags_posn
_atom_site_refinement_flags_adp
_atom_site_refinement_flags_occupancy
_atom_site_disorder_assembly
_atom_site_disorder_group
F1 F 0.2189(2) 0.17021(14) 0.65871(10) 0.0431(4) Uani 1 1 d . . . . .
F2 F 0.5459(2) 0.31507(14) 0.68409(10) 0.0441(4) Uani 1 1 d . . . . .
O1 O 0.1953(2) 0.10256(15) 0.93816(10) 0.0288(4) Uani 1 1 d . . . . .
O2 O -0.1986(3) 0.16777(17) 0.96040(12) 0.0313(4) Uani 1 1 d . . . . .
C1 C 0.3587(4) 0.2511(2) 0.73826(16) 0.0305(5) Uani 1 1 d . . . . .
H1 H 0.426146 0.181286 0.798563 0.037 Uiso 1 1 calc R U . . .
C2 C 0.2091(4) 0.3747(2) 0.78245(16) 0.0266(5) Uani 1 1 d . . . . .
H2 H 0.147993 0.453647 0.727178 0.032 Uiso 1 1 calc R U . . .
C3 C 0.0405(4) 0.3466(2) 0.87475(16) 0.0256(5) Uani 1 1 d . . . . .
H3 H -0.114453 0.409275 0.871246 0.031 Uiso 1 1 calc R U . . .
C4 C 0.2791(4) 0.4361(2) 0.89518(16) 0.0283(5) Uani 1 1 d . . . . .
H4A H 0.266721 0.548481 0.906408 0.034 Uiso 1 1 calc R U . . .
H4B H 0.417689 0.385692 0.938939 0.034 Uiso 1 1 calc R U . . .
C5 C 0.0241(4) 0.1941(2) 0.92654(15) 0.0239(5) Uani 1 1 d . . . . .
H2O H -0.201(5) 0.077(3) 0.998(2) 0.072(9) Uiso 1 1 d . . . . .
loop_
_atom_site_aniso_label
_atom_site_aniso_U_11
_atom_site_aniso_U_22
_atom_site_aniso_U_33
_atom_site_aniso_U_23
_atom_site_aniso_U_13
_atom_site_aniso_U_12
F1 0.0561(9) 0.0358(7) 0.0369(7) -0.0089(6) 0.0001(6) -0.0097(6)
F2 0.0453(8) 0.0463(8) 0.0434(8) -0.0013(6) 0.0208(6) -0.0095(6)
O1 0.0244(8) 0.0261(8) 0.0364(8) 0.0077(6) 0.0058(6) 0.0038(7)
O2 0.0231(8) 0.0288(9) 0.0426(9) 0.0110(7) 0.0072(7) 0.0010(7)
C1 0.0326(13) 0.0349(13) 0.0246(10) -0.0007(9) 0.0064(10) -0.0067(11)
C2 0.0312(12) 0.0225(11) 0.0258(11) 0.0064(8) 0.0017(9) -0.0017(9)
C3 0.0246(11) 0.0225(11) 0.0299(11) 0.0020(8) 0.0041(9) 0.0007(9)
C4 0.0311(12) 0.0244(11) 0.0293(11) -0.0016(9) 0.0020(9) -0.0043(9)
C5 0.0237(11) 0.0256(11) 0.0226(10) -0.0020(8) 0.0031(9) -0.0025(9)
loop_
_atom_type_symbol
_atom_type_description
_atom_type_scat_dispersion_real
_atom_type_scat_dispersion_imag
_atom_type_scat_source
C C 0.0033 0.0016 'International Tables Vol C Tables 4.2.6.8 and 6.1.1.4'
H H 0.0000 0.0000 'International Tables Vol C Tables 4.2.6.8 and 6.1.1.4'
O O 0.0106 0.0060 'International Tables Vol C Tables 4.2.6.8 and 6.1.1.4'
F F 0.0171 0.0103 'International Tables Vol C Tables 4.2.6.8 and 6.1.1.4'
loop_
_geom_angle_atom_site_label_1
_geom_angle_atom_site_label_2
_geom_angle_atom_site_label_3
_geom_angle
_geom_angle_site_symmetry_1
_geom_angle_site_symmetry_3
_geom_angle_publ_flag
F2 C1 F1 104.97(14) . . ?
F2 C1 C2 109.13(17) . . ?
F1 C1 C2 109.91(17) . . ?
C1 C2 C4 119.19(18) . . ?
C1 C2 C3 122.06(17) . . ?
C4 C2 C3 60.30(13) . . ?
C5 C3 C4 118.13(17) . . ?
C5 C3 C2 121.30(17) . . ?
C4 C3 C2 58.97(12) . . ?
C2 C4 C3 60.73(13) . . ?
O1 C5 O2 123.59(17) . . ?
O1 C5 C3 124.41(18) . . ?
O2 C5 C3 112.00(18) . . ?
loop_
_geom_bond_atom_site_label_1
_geom_bond_atom_site_label_2
_geom_bond_distance
_geom_bond_site_symmetry_2
_geom_bond_publ_flag
F1 C1 1.377(2) . ?
F2 C1 1.369(2) . ?
O1 C5 1.223(2) . ?
O2 C5 1.325(2) . ?
C1 C2 1.473(3) . ?
C2 C4 1.494(3) . ?
C2 C3 1.520(3) . ?
C3 C5 1.474(3) . ?
C3 C4 1.514(3) . ?
