#------------------------------------------------------------------------------
#$Date: 2020-08-11 01:50:20 +0300 (Tue, 11 Aug 2020) $
#$Revision: 255221 $
#$URL: file:///home/coder/svn-repositories/cod/cif/4/03/86/4038670.cif $
#------------------------------------------------------------------------------
#
# This file is available in the Crystallography Open Database (COD),
# http://www.crystallography.net/
#
# All data on this site have been placed in the public domain by the
# contributors.
#
data_4038670
loop_
_publ_author_name
'Langhals, Heinz'
'Dietl, Christian'
'Dahl, Jeremy E. P.'
'Carlson, Robert M. K.'
'Chern, Yaw-Terng'
'Mayer, Peter'
_publ_section_title
;
 FRET in Orthogonal Stiff Dyads; Diamond-restriction for Frozen
 Vibrations.
;
_journal_name_full               'The Journal of organic chemistry'
_journal_paper_doi               10.1021/acs.joc.0c01184
_journal_year                    2020
_chemical_formula_moiety         'C18 H20'
_chemical_formula_sum            'C18 H20'
_chemical_formula_weight         236.34
_space_group_crystal_system      monoclinic
_space_group_IT_number           14
_space_group_name_Hall           '-P 2ybc'
_space_group_name_H-M_alt        'P 1 21/c 1'
_atom_sites_solution_hydrogens   geom
_audit_block_code                C18H20_po053_langhals
_audit_creation_date
;
'Tue Mar 29 08:13:20 2011'
;
_audit_creation_method           SHELXL-2018/3
_audit_update_record             08-Jan-20
_cell_angle_alpha                90
_cell_angle_beta                 94.077(8)
_cell_angle_gamma                90
_cell_formula_units_Z            2
_cell_length_a                   7.1566(6)
_cell_length_b                   6.7942(6)
_cell_length_c                   13.6647(11)
_cell_measurement_reflns_used    1024
_cell_measurement_temperature    173(2)
_cell_measurement_theta_max      26.2464
_cell_measurement_theta_min      4.2296
_cell_volume                     662.74(10)
_computing_cell_refinement
;
CrysAlisPro, Oxford Diffraction Ltd.,
Version 1.171.33.41 (release 06-05-2009 CrysAlis171 .NET)
(compiled May  6 2009,17:20:42)
;
_computing_data_collection
;
CrysAlisPro, Oxford Diffraction Ltd.,
Version 1.171.33.41 (release 06-05-2009 CrysAlis171 .NET)
(compiled May  6 2009,17:20:42)
;
_computing_data_reduction
;
CrysAlisPro, Oxford Diffraction Ltd.,
Version 1.171.33.41 (release 06-05-2009 CrysAlis171 .NET)
(compiled May  6 2009,17:20:42)
;
_computing_structure_refinement
;
Sheldrick, G. M. (2008).
<i>Acta Cryst.</i> A<b>64</b>, 112--122.
;
_computing_structure_solution
;
A. Altomare, M. C. Burla, M. Camalli, G. L. Cascarano, C. Giacovazzo, A.
Guagliardi, A. G. G. Moliterni, G. Polidori, R. Spagna: SIR97: a new tool for
crystal structure determination and refinement; J. Appl. Crystallogr. 1999,
32, 115-119.
;
_diffrn_ambient_temperature      173(2)
_diffrn_detector_area_resol_mean 15.9809
_diffrn_measured_fraction_theta_full 0.995
_diffrn_measured_fraction_theta_max 0.993
_diffrn_measurement_details
;
#__ type_ start__ end____ width___ exp.time_
  1 omega  -81.00  -23.00   1.0000   30.0000
omega____ theta____ kappa____ phi______ frames
    -      -20.2931  -77.0000  -90.0000 58

#__ type_ start__ end____ width___ exp.time_
  2 omega   34.00   87.00   1.0000   30.0000
omega____ theta____ kappa____ phi______ frames
    -       21.2306  179.0000 -150.0000 53

#__ type_ start__ end____ width___ exp.time_
  3 omega   26.00   95.00   1.0000   30.0000
omega____ theta____ kappa____ phi______ frames
    -       21.2306   38.0000 -150.0000 69

#__ type_ start__ end____ width___ exp.time_
  4 omega   34.00  101.00   1.0000   30.0000
omega____ theta____ kappa____ phi______ frames
    -       21.2306  179.0000   60.0000 67

;
_diffrn_measurement_device       'CCD camera on \k-goniostat'
_diffrn_measurement_device_type  'Oxford XCalibur'
_diffrn_measurement_method       '\w scans'
_diffrn_orient_matrix_UB_11      0.0056049258
_diffrn_orient_matrix_UB_12      0.0747250480
_diffrn_orient_matrix_UB_13      -0.0677113212
_diffrn_orient_matrix_UB_21      -0.0516998822
_diffrn_orient_matrix_UB_22      0.0047439087
_diffrn_orient_matrix_UB_23      -0.0181020504
_diffrn_orient_matrix_UB_31      -0.0024354505
_diffrn_orient_matrix_UB_32      0.0727734698
_diffrn_orient_matrix_UB_33      0.0704541319
_diffrn_radiation_collimation    '0.5 mm collimator'
_diffrn_radiation_monochromator  graphite
_diffrn_radiation_type           MoK\a
_diffrn_radiation_wavelength     0.71073
_diffrn_reflns_av_R_equivalents  0.0177
_diffrn_reflns_av_unetI/netI     0.0439
_diffrn_reflns_Laue_measured_fraction_full 0.995
_diffrn_reflns_Laue_measured_fraction_max 0.993
_diffrn_reflns_limit_h_max       16
_diffrn_reflns_limit_h_min       -17
_diffrn_reflns_limit_k_max       8
_diffrn_reflns_limit_k_min       -6
_diffrn_reflns_limit_l_max       8
_diffrn_reflns_limit_l_min       -8
_diffrn_reflns_number            2669
_diffrn_reflns_point_group_measured_fraction_full 0.995
_diffrn_reflns_point_group_measured_fraction_max 0.993
_diffrn_reflns_theta_full        25.240
_diffrn_reflns_theta_max         26.328
_diffrn_reflns_theta_min         4.235
_diffrn_source                   'fine-focus sealed tube'
_diffrn_source_current           40_mA
_diffrn_source_power             2.00_kW
_diffrn_source_type              'Spellman generator'
_diffrn_source_voltage           50_kV
_exptl_absorpt_coefficient_mu    0.066
_exptl_absorpt_correction_T_max  1.00000
_exptl_absorpt_correction_T_min  0.74914
_exptl_absorpt_correction_type   multi-scan
_exptl_absorpt_process_details
;
CrysAlisPro, Oxford Diffraction Ltd.,
Version 1.171.33.41 (release 06-05-2009 CrysAlis171 .NET)
(compiled May  6 2009,17:20:42)
Empirical absorption correction using spherical harmonics,
 implemented in SCALE3 ABSPACK scaling algorithm.
;
_exptl_crystal_colour            colourless
_exptl_crystal_density_diffrn    1.184
_exptl_crystal_description       block
_exptl_crystal_F_000             256
_exptl_crystal_size_max          0.210
_exptl_crystal_size_mid          0.190
_exptl_crystal_size_min          0.160
_refine_diff_density_max         0.515
_refine_diff_density_min         -0.170
_refine_diff_density_rms         0.036
_refine_ls_extinction_method     none
_refine_ls_goodness_of_fit_ref   1.053
_refine_ls_hydrogen_treatment    constr
_refine_ls_matrix_type           full
_refine_ls_number_parameters     82
_refine_ls_number_reflns         1336
_refine_ls_number_restraints     0
_refine_ls_restrained_S_all      1.053
_refine_ls_R_factor_all          0.0803
_refine_ls_R_factor_gt           0.0505
_refine_ls_shift/su_max          0.000
_refine_ls_shift/su_mean         0.000
_refine_ls_structure_factor_coef Fsqd
_refine_ls_weighting_details
'w=1/[\s^2^(Fo^2^)+(0.0684P)^2^] where P=(Fo^2^+2Fc^2^)/3'
_refine_ls_weighting_scheme      calc
_refine_ls_wR_factor_gt          0.1285
_refine_ls_wR_factor_ref         0.1359
_reflns_Friedel_coverage         0.000
_reflns_number_gt                794
_reflns_number_total             1336
_reflns_threshold_expression     'I > 2\s(I)'
_cod_data_source_file            jo0c01184_si_002.cif
_cod_data_source_block           po053
_cod_original_sg_symbol_H-M      'P 21/c'
_cod_database_code               4038670
_shelx_estimated_absorpt_t_min   0.986
_shelx_estimated_absorpt_t_max   0.989
_shelx_space_group_comment
;
The symmetry employed for this shelxl refinement is uniquely defined
by the following loop, which should always be used as a source of
symmetry information in preference to the above space-group names.
They are only intended as comments.
;
_shelx_res_file
;
TITL po053 in P21/c (14) sir97
    po053.res
    created by SHELXL-2018/3 at 09:06:32 on 08-Jan-2020
CELL  0.71069    7.1566    6.7942   13.6647    90.000    94.077    90.000
ZERR  2          0.0006    0.0006    0.0011     0.000     0.008     0.000
LATT   1
SYMM             - X ,    0.50000 + Y ,    0.50000 - Z
SFAC  C  H
UNIT    36   40
LIST 4 ! automatically inserted. Change 6 to 4 for CHECKCIF!!
MERG 2

L.S. 7
FMAP 2
PLAN -20
ACTA
BOND $H
CONF
SIZE 0.16 0.19 0.21
TEMP  -100
WGHT    0.068400
FVAR      11.38780
C1    1    0.408817    0.432828    0.309355    11.00000    0.05589    0.06272 =
         0.04674    0.00344    0.00246    0.00528
AFIX 163
H1    2    0.486472    0.519449    0.275741    11.00000   -1.20000
AFIX   0
C2    1    0.310511    0.323172    0.351908    11.00000    0.04096    0.04599 =
         0.03660    0.00383    0.00364    0.00602
C3    1    0.190300    0.197115    0.407865    11.00000    0.03656    0.03904 =
         0.03112   -0.00002    0.00162    0.00694
C4    1   -0.018278    0.223887    0.372544    11.00000    0.04137    0.03878 =
         0.03450    0.00345   -0.00014    0.00992
AFIX  23
H4A   2   -0.053921    0.363902    0.378683    11.00000   -1.20000
H4B   2   -0.037426    0.186271    0.302556    11.00000   -1.20000
AFIX   0
C5    1   -0.141548    0.096948    0.433361    11.00000    0.03248    0.04003 =
         0.03298    0.00420   -0.00361    0.00942
AFIX  13
H5    2   -0.275668    0.117850    0.409972    11.00000   -1.20000
AFIX   0
C6    1   -0.092806   -0.120901    0.422050    11.00000    0.04241    0.04111 =
         0.02488   -0.00473   -0.00138    0.00402
AFIX  13
H6    2   -0.112045   -0.158280    0.351269    11.00000   -1.20000
AFIX   0
C7    1   -0.115291    0.150099    0.543448    11.00000    0.03894    0.03033 =
         0.03651   -0.00124    0.00461    0.01101
AFIX  13
H7    2   -0.149371    0.291461    0.552097    11.00000   -1.20000
AFIX   0
C8    1    0.239233   -0.022801    0.396386    11.00000    0.03748    0.04302 =
         0.03546   -0.00442    0.00407    0.01085
AFIX  23
H8A   2    0.221452   -0.060641    0.326380    11.00000   -1.20000
H8B   2    0.372340   -0.044743    0.418509    11.00000   -1.20000
AFIX   0
C9    1    0.217133    0.249924    0.518144    11.00000    0.03984    0.03724 =
         0.03539   -0.00431   -0.00128    0.00514
AFIX  23
H9A   2    0.349987    0.230812    0.541579    11.00000   -1.20000
H9B   2    0.185086    0.390108    0.527459    11.00000   -1.20000
AFIX   0
HKLF 4 1  0.0000  0.0000 -1.0000  0.0000 -1.0000  0.0000 -1.0000  0.0000  0.0000




REM  po053 in P21/c (14) sir97
REM wR2 = 0.1359, GooF = S = 1.053, Restrained GooF = 1.053 for all data
REM R1 = 0.0505 for 794 Fo > 4sig(Fo) and 0.0803 for all 1336 data
REM 82 parameters refined using 0 restraints

END

WGHT      0.0684      0.0000

REM Highest difference peak  0.515,  deepest hole -0.170,  1-sigma level  0.036
Q1    1   0.2117  0.2146  0.4563  11.00000  0.05    0.16
Q2    1   0.2157  0.1066  0.4010  11.00000  0.05    0.14
Q3    1   0.4179  0.3839  0.3712  11.00000  0.05    0.14
Q4    1  -0.0992  0.0000  0.4229  11.00000  0.05    0.14
Q5    1  -0.1384  0.1229  0.4837  11.00000  0.05    0.14
Q6    1   0.4445  0.3719  0.3255  11.00000  0.05    0.13
Q7    1  -0.0120  0.1286  0.5595  11.00000  0.05    0.12
Q8    1   0.0923  0.2182  0.3972  11.00000  0.05    0.12
Q9    1  -0.0885 -0.1141  0.3698  11.00000  0.05    0.12
Q10   1   0.3618  0.4637  0.3625  11.00000  0.05    0.11
Q11   1  -0.0795  0.1934  0.4191  11.00000  0.05    0.11
Q12   1  -0.1317  0.2289  0.5440  11.00000  0.05    0.10
Q13   1   0.2887  0.5006  0.3435  11.00000  0.05    0.10
Q14   1   0.1340 -0.0670  0.4186  11.00000  0.05    0.09
Q15   1   0.1917  0.1298  0.5385  11.00000  0.05    0.09
Q16   1   0.3978  0.1778  0.5082  11.00000  0.05    0.09
Q17   1   0.4861  0.4686  0.4501  11.00000  0.05    0.09
Q18   1   0.0429  0.1909  0.5240  11.00000  0.05    0.08
Q19   1  -0.1125 -0.2874  0.4581  11.00000  0.05    0.08
Q20   1  -0.1911  0.1201  0.4228  11.00000  0.05    0.08
;
_shelx_res_checksum              76681
_shelx_hkl_file
;
   0   0   2 101512. 621.030   1
   0   0  -2 101565. 638.246   0
   0   0  -2 102637. 811.031   2
   0   0  -2 102321. 587.674   1
   0   0  -3 41624.6 657.263   2
   0   0  -3 42395.7 484.872   1
   0   0  -3 42519.6 511.925   0
   0   0  -4 3411.30 234.281   0
   0   0  -4 3214.61 329.029   2
   0   0  -5 2806.91 261.969   0
   0   0  -5 2640.71 370.843   2
   0   0  -6 475.646 340.787   2
   0   0  -6 326.384 269.776   0
   0   0  -7 299.358 394.092   2
   0   0  -8 881.165 408.355   2
   0  -1  -2 40126.9 453.978   2
   0  -1   2 40689.8 305.563   1
   0  -1   2 40776.1 448.627   0
   0  -1  -2 40595.1 502.183   1
   0   1  -2 39502.4 595.853   2
   0  -1   3 46344.0 555.944   0
   0   1  -3 47466.9 765.287   2
   0  -1  -3 47525.1 638.967   2
   0  -1   3 46596.9 422.355   1
   0  -1  -4 9964.69 399.646   2
   0   1  -4 9868.16 457.214   2
   0  -1  -4 10300.6 367.135   0
   0   1  -4 10649.7 334.123   0
   0   1  -5 427.118 324.402   2
   0  -1  -5 226.425 269.478   2
   0  -1  -5 180.102 241.822   0
   0   1  -5 270.523 237.060   0
   0  -1  -6 4224.53 413.950   2
   0  -1  -6 4863.80 365.677   0
   0   1  -6 4713.25 505.758   2
   0  -1  -7 741.311 355.329   2
   0   1  -7 898.079 446.568   2
   0   1  -8 4051.52 562.651   2
   0  -1  -8 3481.01 481.926   2
   0  -2   0 97316.2 733.916   3
   0  -2   0 93840.9 627.555   2
   0   2   0 96104.5 756.068   3
   0   2   0 96970.3 619.728   2
   0   2  -1 133426. 961.683   2
   0  -2   1 135980. 967.228   2
   0   2   1 134887. 992.983   3
   0   2  -2 769.483 262.524   2
   0   2   2 732.597 254.693   3
   0  -2   3 4372.80 145.829   1
   0   2  -3 4621.60 383.731   2
   0  -2  -3 4586.89 230.385   2
   0  -2  -4 4311.66 272.171   2
   0  -2   4 4121.65 155.950   1
   0   2  -4 4744.44 422.426   2
   0  -2  -5 1972.77 281.223   2
   0   2  -5 2198.23 374.217   2
   0   2  -6 9425.70 607.662   2
   0  -2  -6 8678.66 478.042   0
   0  -2  -6 9318.73 461.309   2
   0  -2  -7 55.7863 294.715   2
   0   2  -7 268.677 428.923   2
   0   2  -8 2221.18 519.997   2
   0   3   0 28.4296 142.422   2
   0   3   0-17.0241 228.470   3
   0  -3   0-28.6326 131.500   2
   0  -3  -1 82811.1 567.068   2
   0   3   1 81482.0 927.402   3
   0   3  -1 82847.7 870.170   2
   0   3  -1 81430.2 844.136   3
   0   3  -2 26719.1 608.022   2
   0   3   2 26110.6 627.600   3
   0   3   3 56422.0 938.696   3
   0   3  -3 57372.2 964.154   2
   0   3  -4 14000.8 589.547   2
   0  -3   4 13387.2 246.385   1
   0  -3  -4 14440.8 376.331   2
   0  -3  -5 3906.20 291.565   2
   0   3  -5 4274.46 516.880   2
   0   3  -6 19.1304 449.432   2
   0   3  -7 157.221 470.732   2
   0   3  -8 724.430 533.094   2
   0   4   0 423.918 241.320   3
   0   4   0 588.564 188.503   2
   0   4   1 8304.53 426.953   3
   0   4  -1 8198.36 377.098   3
   0   4  -1 8138.29 361.458   2
   0  -4  -1 7861.63 237.938   2
   0  -4  -2 8883.92 199.584   2
   0   4  -2 9887.97 456.021   2
   0   4   2 9505.83 474.470   3
   0   4  -2 10035.5 414.233   3
   0   4  -3 3398.03 382.491   2
   0   4   3 3311.96 421.595   3
   0   4  -4 62273.9 1197.51   2
   0   4  -5 27937.4 900.784   2
   0   4  -6 60.7937 464.009   2
   0   4  -7 2426.60 530.816   2
   0   5   0 71.1663 295.152   3
   0   5  -1 150.770 243.579   2
   0   5  -1 308.016 276.026   3
   0   5   1 132.746 308.296   3
   0   5  -2 193.621 283.898   3
   0   5   2 279.986 317.740   3
   0   5  -2 212.003 303.189   2
   0   5   3 1559.37 435.424   3
   0   5  -3 1730.46 313.575   3
   0   5  -3 1484.21 370.782   2
   0   5  -4 3596.09 484.749   2
   0   5  -5 309.228 410.137   2
   0   5  -6 312.925 411.193   2
   0   5  -7 1854.02 569.742   2
   0   6   0 290.326 330.701   3
   0   6  -1 149.838 297.199   3
   0   6  -1 94.5407 271.747   2
   0   6   1 133.060 334.796   3
   0   6  -2 979.139 312.817   3
   0   6  -2 937.778 330.516   2
   0   6   2 940.446 381.305   3
   0   6  -3 664.964 307.855   3
   0   6   3 470.834 367.568   3
   0   6  -3 642.600 350.328   2
   0   6  -4-114.183 413.661   2
   0   6  -4 241.102 293.463   3
   0   6   4 370.075 366.547   3
   0   6  -5 7537.68 614.989   2
   0   6  -6 239.077 500.073   2
   0   7   0 139.561 320.550   3
   0   7  -1 129.687 298.494   3
   0   7   1 15.0578 363.219   3
   0   7   2 748.549 388.346   3
   0   7  -2 908.033 316.780   3
   0   7  -2 644.907 331.092   2
   0   7   3 60.9333 387.434   3
   0   7  -3 95.8058 298.658   3
   0   7  -3 446.993 384.321   2
   0   7   4 11.6207 369.301   3
   0   7  -4-109.153 394.687   2
   0   7  -5 4548.30 602.332   2
   0   8   0 790.338 368.736   3
   0   8   1 2066.12 450.259   3
   0   8  -1 2360.98 408.115   3
   0   8   2-28.1941 416.151   3
   1   0  -8-155.026 396.396   2
   1   0  -7 206.683 376.729   2
   1   0  -6 207.266 368.323   2
   1   0  -6 185.579 202.876   0
   1   0  -5 26.8714 198.196   0
   1   0  -5 9.06015 292.531   2
  -1   0   4 65.8281 207.718   1
   1   0  -4 121.954 141.491   0
   1   0  -4-24.5765 275.648   2
   1   0  -3-7.99178 245.246   2
  -1   0   3-58.1732 174.044   1
   1   0  -3 38.1168 117.861   0
   1   0  -2 28.5475 153.319   1
  -1   0   2 119.867 160.698   1
   1   0  -2-7.83176 98.8863   0
   1   0   2 27.7887 150.996   0
   1   0   2 36.3846 155.719   2
  -1   0  -2 73.4825 172.737   0
  -1   0  -2 102.398 203.716   2
  -1   0  -3-60.5155 230.142   2
  -1   0  -3 232.244 194.478   0
  -1   0  -3 123.917 123.478   1
  -1   0  -4 58.1210 246.019   2
  -1   0  -4 69.8733 202.509   0
  -1   0  -5 36.2456 314.479   2
  -1   0  -5 188.307 242.737   0
  -1   0  -6 24.2883 321.676   2
  -1   0  -6-28.4959 288.400   0
  -1   0  -7 69.4425 373.210   2
  -1   0  -8-155.910 396.503   2
   1  -1  -8 6239.16 554.114   2
   1   1  -8 6852.57 656.218   2
   1  -1  -7 145.229 335.648   2
   1   1  -7-25.0650 374.870   2
   1   1  -6 5399.35 535.085   2
   1  -1  -6 4546.30 336.308   0
   1  -1  -6 4504.04 429.892   2
  -1  -1   5 7377.60 317.728   1
   1  -1  -5 7235.40 337.855   0
   1  -1  -5 6748.96 429.810   2
   1   1  -5 7311.12 502.521   2
  -1  -1   4 878.939 159.474   0
   1   1  -4 1013.56 317.303   2
  -1  -1   4 1060.31 179.883   1
   1  -1  -4 1120.58 260.318   2
  -1  -1   3 1319.24 166.956   1
  -1  -1   3 1604.94 148.100   0
   1   1  -3 1107.86 304.139   2
  -1   1   2 67163.3 680.396   1
  -1  -1   2 66885.5 475.305   0
   1   1  -2 66419.8 756.113   2
   1  -1  -1 243266. 4071.20   3
   1   1  -1 235925. 4262.93   2
  -1   1  -1 118062. 811.676   2
  -1  -1  -1 125228. 3063.15   3
   1  -1   1 123415. 815.815   2
   1   1   1 119945. 776.461   3
   1  -1   1 119593. 732.664   0
  -1  -1  -2 1028.06 148.474   2
  -1   1  -2 950.113 219.065   0
  -1   1  -2 943.459 259.695   2
   1   1   2 877.474 235.495   3
   1  -1   2 920.519 194.671   0
  -1  -1  -3 174865. 1143.08   2
  -1   1  -3 173956. 1415.91   2
  -1   1  -3 174784. 1143.81   0
  -1  -1  -4 10305.4 400.217   0
  -1  -1  -4 10079.8 397.567   2
  -1   1  -4 9725.69 367.109   0
  -1   1  -4 10077.1 483.202   2
  -1  -1  -5 110.561 258.175   0
  -1  -1  -5 120.367 267.826   2
  -1   1  -5 105.690 346.314   2
  -1   1  -5 127.097 260.144   0
  -1   1  -6-36.1013 336.457   2
  -1  -1  -6 20.5965 288.837   0
  -1  -1  -6-34.7381 297.175   2
  -1   1  -6-20.7507 274.138   0
  -1  -1  -7 44.2822 320.413   2
  -1   1  -7-109.978 381.270   2
  -1  -1  -8 223.124 367.455   2
  -1   1  -8 448.918 435.929   2
   1   2  -8 911.319 442.383   2
   1  -2  -7 501.982 321.399   2
   1   2  -7 199.724 380.491   2
   1   2  -6 19535.6 794.956   2
   1  -2  -6 19819.4 600.518   0
   1  -2  -6 19629.8 642.704   2
   1  -2  -5 12094.8 478.534   2
   1   2  -5 12105.6 622.116   2
  -1  -2   5 12435.3 318.193   1
   1   2  -4 5667.72 460.950   2
   1  -2  -4 5375.46 313.157   2
  -1  -2   4 5523.03 237.075   1
   1   2  -3 12078.0 459.737   2
   1   2  -2 330.433 256.375   2
  -1  -2   1 14772.5 357.989   2
   1   2  -1 14344.4 355.941   2
  -1   2   1 14354.2 362.316   3
  -1   2   0 59703.5 565.076   3
  -1  -2   0 59340.7 473.211   2
   1  -2   0 60316.4 538.429   3
   1   2   0 60380.5 657.592   3
   1   2   0 60437.3 457.493   2
   1  -2   0 60019.1 564.785   2
   1   2   1 114518. 950.887   3
  -1   2  -1 114763. 934.185   2
  -1  -2  -2 118.429 74.4917   2
  -1   2  -2 59.0976 210.408   2
   1   2   2 147.671 224.450   3
  -1  -2  -3 4983.18 208.504   2
  -1   2  -3 5069.42 393.648   2
  -1  -2  -4 4443.18 261.343   2
  -1   2  -4 4078.11 410.197   2
  -1   2  -5 136.675 405.639   2
  -1  -2  -5 107.112 236.214   2
  -1   2  -6 164.077 427.108   2
  -1  -2  -6 140.574 267.905   2
  -1  -2  -6-18.9392 329.871   0
  -1   2  -7 224.571 457.692   2
  -1  -2  -7 158.119 276.408   2
  -1  -2  -7-6.04146 330.514   0
  -1   2  -8 2646.38 573.344   2
   1   3  -8 103.697 427.006   2
   1   3  -7-149.421 489.195   2
   1   3  -6 242.002 441.118   2
   1  -3  -6 33.4376 233.163   2
   1  -3  -5 238.753 241.709   2
   1   3  -5-63.3174 434.212   2
   1   3  -4 669.035 400.550   2
   1   3  -3 30386.3 732.856   2
   1   3  -2 10909.9 429.358   2
  -1   3   2 12111.3 455.855   3
   1   3  -1 139855. 1161.15   3
   1  -3  -1 139581. 887.981   2
  -1   3   1 141435. 1163.52   3
   1   3  -1 139831. 1084.34   2
  -1   3   0 39433.0 583.867   3
   1   3   0 39362.0 460.134   2
  -1  -3   0 39622.9 474.723   2
   1   3   0 39925.5 659.897   3
  -1   3  -1 13002.6 351.675   3
   1   3   1 12666.2 441.172   3
  -1  -3  -1 12178.0 175.715   2
  -1   3  -1 12093.5 389.743   2
   1   3   2 26537.3 617.269   3
  -1   3  -2 26952.4 636.243   2
  -1   3  -3 7376.67 465.308   2
  -1  -3  -3 6885.59 176.967   2
   1   3   3 7565.51 429.401   3
  -1  -3  -4 51317.7 600.145   2
  -1   3  -4 53112.7 1065.90   2
  -1   3  -5 2765.63 465.804   2
  -1  -3  -5 2827.29 256.966   2
  -1   3  -6 485.615 397.358   2
  -1  -3  -7 91.5418 392.731   0
  -1   3  -7 79.9794 433.291   2
  -1   3  -8 93.0683 439.761   2
   1   4  -7 98.7464 503.682   2
   1   4  -6 119.667 436.769   2
   1   4  -5 7964.54 620.903   2
   1   4  -4 13929.1 666.653   2
   1   4  -3 3689.18 404.047   2
  -1   4   3 3513.42 378.145   3
  -1   4   2 7763.00 433.747   3
   1  -4  -2 7338.89 244.250   2
   1   4  -2 7337.93 406.705   2
  -1   4   1 16340.2 517.114   3
   1   4  -1 15296.9 502.612   3
   1   4  -1 15056.8 442.022   2
  -1   4   0 8274.54 375.454   3
   1   4   0 8115.30 280.832   2
   1   4   0 7987.75 425.687   3
   1   4   1 7671.95 427.348   3
  -1  -4  -1 6866.51 184.751   2
  -1   4  -1 7267.64 339.807   3
  -1   4  -1 7267.25 371.857   2
  -1   4  -2 264.700 272.885   2
  -1   4  -2 324.421 223.276   3
   1   4   2 72.9396 278.354   3
   1   4   3 1153.86 364.530   3
  -1   4  -3 938.378 376.083   2
   1   4   4 28983.0 857.030   3
  -1   4  -4 29530.0 886.198   2
  -1   4  -5 21285.6 853.328   2
  -1   4  -6 6299.12 637.435   2
  -1   4  -7 518.564 524.514   2
   1   5  -7 0.96774 545.290   2
   1   5  -6 320.334 483.622   2
   1   5  -5 8220.18 596.853   2
   1   5  -4 25489.2 848.967   2
  -1   5   3 48.2125 337.925   3
   1   5  -3 114.341 327.868   2
   1   5  -2 3682.11 378.634   2
  -1   5   2 3083.41 395.254   3
   1   5  -2 4093.90 383.225   3
   1   5  -1 5095.53 396.252   3
  -1   5   1 5086.67 401.954   3
   1   5  -1 5330.57 333.398   2
   1   5   0 127.849 185.871   2
   1   5   0 221.334 327.968   3
  -1   5   0 14.5567 277.290   3
  -1   5  -1 1799.01 302.181   3
  -1   5  -1 1982.89 301.663   2
   1   5   1 2097.42 396.441   3
   1   5   2 664.875 314.365   3
  -1   5  -2 992.346 268.386   3
  -1   5  -2 938.107 333.023   2
  -1   5  -3 737.825 354.391   2
   1   5   3 864.266 406.661   3
  -1   5  -3 708.676 268.051   3
  -1   5  -4 580.285 365.973   2
   1   5   4 370.830 397.729   3
  -1   5  -5 8415.37 634.680   2
  -1   5  -6 84.0780 494.399   2
  -1   5  -7 4586.30 592.651   2
   1   6  -6-88.1108 498.095   2
   1   6  -5 4686.87 584.337   2
   1   6  -4 3140.37 478.340   2
   1   6  -4 2835.35 396.706   3
   1   6  -3 380.680 318.286   3
   1   6  -3 309.650 332.227   2
  -1   6   3 64.8037 347.961   3
   1   6  -2 7903.19 484.095   3
   1   6  -2 7629.90 462.008   2
  -1   6   2 7768.49 507.349   3
  -1   6   1 5494.22 447.053   3
   1   6  -1 5818.76 375.833   2
   1   6  -1 5693.02 449.800   3
   1   6   0 683.578 362.320   3
  -1   6   0 710.778 295.206   3
  -1   6  -1 2931.51 352.712   3
   1   6   1 3173.27 416.618   3
  -1   6  -2 93.9258 324.171   2
   1   6   2 102.740 336.014   3
  -1   6  -2 138.569 270.300   3
  -1   6  -3 6.33153 366.033   2
   1   6   3-218.270 410.575   3
  -1   6  -3-89.1636 270.669   3
  -1   6  -4 3500.91 493.127   2
   1   6   4 4183.21 559.727   3
  -1   6  -5 4911.52 614.751   2
  -1   6  -6 1518.13 510.843   2
   1   7  -5 5552.92 614.344   2
   1   7  -4 1182.58 414.522   2
   1   7  -4 1064.55 349.088   3
   1   7  -3 821.086 366.029   2
  -1   7   3 969.296 445.281   3
   1   7  -3 1141.36 360.513   3
  -1   7   2 268.658 344.354   3
   1   7  -2 249.840 346.557   3
   1   7  -1 255.547 339.862   3
  -1   7   1 141.496 339.056   3
   1   7   0 204.621 373.615   3
  -1   7   0 350.753 320.019   3
   1   7   1 416.698 390.327   3
  -1   7  -1 241.421 292.001   3
   1   7   2 106.803 402.195   3
  -1   7  -2 288.550 295.783   3
   1   7   3 236.596 428.268   3
  -1   7  -3 236.331 367.078   2
  -1   7  -4 1178.70 476.573   2
   1   7   4 1434.77 485.390   3
   1   8  -2 186.506 369.084   3
  -1   8   2 255.739 382.276   3
   1   8  -1 3971.23 501.263   3
  -1   8   1 3805.56 471.630   3
  -1   8   0 2834.18 418.959   3
   1   8   0 3505.12 498.609   3
   1   8   1 35.0561 398.553   3
   1   8   2 452.718 378.334   3
   2   0  -8 3133.62 512.148   2
   2   0  -7 450.056 351.013   2
   2   0  -6 724.629 394.961   2
  -2   0   5 714.649 263.758   1
   2   0  -5 610.227 165.403   0
   2   0  -5 548.665 303.853   2
   2   0  -4 2898.09 151.906   0
  -2   0   4 2495.90 261.673   1
   2   0  -4 3106.77 318.333   2
  -2   0   3 1738.02 224.439   1
   2   0  -3 1436.97 98.1683   0
   2   0  -2 1230.78 184.843   1
  -2   0   2 1075.46 224.144   1
  -2   0  -1 981379. 8143.39   2
   2   0   1 985601. 8078.90   2
   2   0   1 995094. 8765.22   0
  -2   0  -1 994514. 8778.28   0
  -2   0  -1 999999. 6627.51   3
   2   0   2 468193. 7043.48   2
  -2   0  -2 454305. 6918.14   2
  -2   0  -2 457419. 7079.60   0
  -2   0  -2 457919. 6292.46   3
  -2   0  -3 358008. 7083.13   0
  -2   0  -3 349406. 1826.96   2
  -2   0  -4 53072.5 862.684   2
  -2   0  -4 53218.4 790.717   0
  -2   0  -5 696.020 294.506   0
  -2   0  -5 346.795 316.473   2
  -2   0  -6 59.6228 323.493   2
  -2   0  -6 71.5498 318.281   0
  -2   0  -7 1952.23 397.264   2
  -2   0  -8 292.804 396.436   2
   2  -1  -8 5951.98 538.162   2
   2   1  -8 7251.84 642.716   2
   2   1  -7 6990.72 577.894   2
   2  -1  -7 7472.18 544.396   2
   2   1  -6 55453.7 1175.35   2
  -2  -1   6 56892.2 827.195   1
   2  -1  -6 57185.0 1104.71   2
   2   1  -5 32351.7 867.798   2
  -2  -1   5 32027.1 589.089   1
   2  -1  -5 33454.9 556.357   0
   2  -1  -5 32535.3 776.164   2
   2   1  -4 1598.09 334.124   2
  -2  -1   4 1629.17 217.146   1
  -2   1   4 1497.12 298.528   1
  -2  -1   3 307.995 88.6787   0
   2   1  -3 279.490 247.438   2
  -2  -1   3 344.068 180.349   1
  -2   1   3 248.071 234.175   1
  -2   1   2 1096.81 231.539   1
  -2   1   1 16299.4 350.881   1
   2  -1  -1 16934.2 337.614   1
   2  -1   0 189758. 2225.36   3
  -2  -1  -1 931.053 184.328   3
   2  -1   1 832.610 205.937   2
   2   1   1 1055.26 94.6817   2
  -2   1  -1 777.859 193.970   2
   2  -1   1 953.049 196.513   0
   2   1   1 776.283 194.401   3
  -2   1  -1 938.806 98.0648   1
   2   1   2 2416.53 160.247   2
   2   1   2 2040.90 234.059   3
  -2  -1  -2 2339.62 174.425   2
  -2   1  -2 2335.81 252.512   0
  -2   1  -2 2401.51 263.427   2
  -2   1  -3 112927. 1174.10   2
  -2  -1  -3 113391. 930.671   2
  -2   1  -3 111539. 465.600   1
  -2   1  -3 112878. 1025.96   0
  -2  -1  -3 114193. 1092.10   0
  -2   1  -4 34084.5 646.260   0
  -2   1  -4 33529.1 342.759   1
  -2  -1  -4 32996.8 684.230   0
  -2  -1  -4 34001.2 631.953   2
  -2   1  -4 34036.5 770.063   2
  -2  -1  -5 713.701 269.560   2
  -2  -1  -5 834.204 301.390   0
  -2   1  -5 917.868 304.344   0
  -2   1  -5 932.452 374.482   2
  -2   1  -6 35.3551 386.979   2
  -2  -1  -6 16.8356 292.066   2
  -2  -1  -6 133.930 303.709   0
  -2   1  -6 142.460 301.712   0
  -2  -1  -7 1060.56 355.294   2
  -2  -1  -7 1111.77 359.123   0
  -2   1  -7 1135.25 394.422   2
  -2   1  -8 157.811 403.528   2
  -2  -1  -8 102.701 365.525   2
   2   2  -8 80.5777 494.772   2
   2   2  -7 8420.55 636.205   2
   2  -2  -7 8363.45 526.672   2
   2  -2  -6 2126.20 351.455   2
   2   2  -6 1644.23 424.688   2
   2   2  -5 40658.4 992.853   2
  -2  -2   5 39569.0 597.599   1
   2  -2  -5 39261.6 801.058   2
   2   2  -4 227.054 356.919   2
  -2  -2   4 235.447 189.392   1
  -2  -2   4 38.2583 161.633   0
   2   2  -3 12399.1 503.794   2
   2   2  -2 25261.1 539.207   2
   2  -2  -1 114.297 136.779   3
   2   2  -1 196.781 185.552   2
  -2   2   1 177.837 181.328   3
   2   2   0 77129.0 535.370   2
   2  -2   0 78067.6 567.889   3
   2  -2   0 77644.5 656.865   1
  -2   2   0 76460.3 584.238   3
   2  -2   0 77439.9 726.308   2
   2   2   0 75766.3 781.028   3
  -2   2  -1 3412.63 155.403   3
  -2   2  -1 3291.91 297.691   2
   2   2   1 3404.25 298.327   3
   2  -2   1 3684.79 161.654   1
  -2   2  -2 455.516 224.244   2
  -2  -2  -2 562.935 71.2421   2
   2   2   2 518.773 239.222   3
  -2  -2  -3 11777.5 282.001   2
   2   2   3 12088.3 470.378   3
  -2   2  -3 12072.0 502.119   2
  -2   2  -4 147.399 363.048   2
  -2  -2  -4 100.279 175.378   2
  -2  -2  -5 2845.40 276.270   2
  -2  -2  -5 2995.62 400.760   0
  -2   2  -5 2666.94 404.112   2
  -2   2  -6 8867.20 631.598   2
  -2  -2  -6 7777.52 427.592   2
  -2  -2  -6 8421.88 530.520   0
  -2   2  -7 238.375 442.848   2
  -2  -2  -7-3.02353 368.123   0
  -2   2  -8 203.915 515.576   2
   2   3  -8 149.502 512.172   2
   2   3  -7 2003.58 483.805   2
   2  -3  -6 1463.51 301.954   2
   2   3  -6 1066.49 446.172   2
   2   3  -5 84.3930 342.332   2
  -2  -3   5 91.1344 210.006   1
   2  -3  -5 438.959 243.206   2
   2   3  -4 57.7222 314.423   2
   2   3  -3 2052.61 322.163   2
  -2   3   2 4213.38 325.794   3
   2   3  -2 3203.55 301.038   2
   2   3  -1 181759. 1227.60   2
  -2   3   1 180961. 1281.79   3
  -2   3   0 23347.0 437.297   3
   2   3   0 22257.8 347.302   2
   2   3   0 22585.7 561.566   3
  -2   3  -1 2044.94 184.961   3
   2   3   1 1950.56 314.236   3
  -2   3  -1 1960.91 262.233   2
   2  -3   2 205.871 143.867   1
   2   3   2 190.983 245.776   3
  -2   3  -2 77.9180 274.149   2
  -2   3  -3 5986.09 460.340   2
  -2  -3  -3 4823.09 119.014   2
   2   3   3 5677.05 449.286   3
  -2   3  -4 48840.5 1022.70   2
  -2  -3  -4 48664.4 558.292   2
  -2   3  -5 302.798 378.224   2
  -2   3  -6 361.262 444.074   2
  -2  -3  -6 15.1783 388.825   0
  -2   3  -7 313.439 444.835   2
  -2  -3  -7 267.418 396.995   0
  -2   3  -8-2.26123 520.214   2
   2   4  -7-266.216 413.834   2
   2   4  -6 23.6558 385.563   2
   2   4  -5 5798.04 574.709   2
   2   4  -4 15610.7 681.022   2
   2   4  -3 2677.18 377.241   2
  -2   4   2 40086.4 803.254   3
   2   4  -2 39159.7 769.776   2
   2   4  -1 43367.7 678.057   2
   2   4  -1 42829.9 796.650   3
  -2   4   1 41928.3 743.612   3
   2   4   0 1390.06 167.789   2
  -2   4   0 1597.43 240.153   3
   2   4   0 1613.95 350.999   3
  -2   4  -1 107.566 262.443   2
   2   4   1 45.5836 324.686   3
  -2   4  -1 76.8069 193.275   3
   2   4   2-66.7388 307.357   3
  -2   4  -2-2.09480 280.669   2
  -2   4  -2 237.249 193.455   3
   2   4   3 477.811 346.732   3
  -2   4  -3 707.267 352.521   2
   2   4   4 10274.0 602.238   3
  -2   4  -4 10411.6 589.600   2
  -2   4  -5 13866.9 729.859   2
  -2   4  -6 823.557 498.390   2
  -2   4  -7 9916.22 702.948   2
  -2  -4  -7 8002.55 670.579   0
   2   5  -7 561.608 546.876   2
   2   5  -6 147.550 392.096   2
   2   5  -5 10.2126 405.636   2
   2   5  -4 2569.53 427.631   2
  -2   5   3 1074.69 389.573   3
   2   5  -3 1121.35 361.993   2
   2   5  -2 35998.6 791.114   2
  -2   5   2 33097.9 827.365   3
   2   5  -2 34744.0 824.162   3
  -2   5   1 19651.5 607.347   3
   2   5  -1 19419.9 644.025   3
   2   5  -1 20463.6 538.617   2
   2   5   0 841.735 335.336   3
  -2   5   0 668.843 263.822   3
   2   5   0 792.260 184.430   2
   2   5   1 355.073 348.491   3
  -2   5  -1 286.791 242.321   3
   2   5   2 3580.56 448.214   3
  -2   5  -2 3161.90 293.719   3
  -2   5  -2 3748.60 423.602   2
  -2   5  -3 1164.68 407.927   2
  -2   5  -3 1369.66 268.019   3
   2   5   3 1176.51 370.244   3
  -2   5  -4 3024.36 484.947   2
   2   5   4 2186.14 431.538   3
  -2   5  -5 24.5543 463.299   2
  -2   5  -6-45.2925 437.376   2
  -2   5  -7 1134.09 589.538   2
   2   6  -5-79.4841 395.682   2
   2   6  -4 2750.56 443.666   2
   2   6  -4 2754.79 397.888   3
   2   6  -3 1907.95 380.416   2
  -2   6   3 1846.73 432.039   3
   2   6  -3 1753.02 357.600   3
  -2   6   2-46.1553 347.488   3
   2   6  -2-35.5472 285.955   2
   2   6  -2 9.56852 312.374   3
   2   6  -1 13180.6 603.091   3
   2   6  -1 12693.1 460.122   2
  -2   6   1 12956.6 565.792   3
  -2   6   0 371.357 285.636   3
   2   6   0 203.115 335.024   3
   2   6   1 9124.26 592.807   3
  -2   6  -1 9189.11 454.570   3
  -2   6  -2 11257.0 486.053   3
   2   6   2 9955.07 630.242   3
  -2   6  -2 10654.5 573.271   2
  -2   6  -3 232.149 383.380   2
   2   6   3 344.448 378.790   3
  -2   6  -4 230.249 368.112   2
   2   6   4 194.399 439.199   3
  -2   6  -5 778.853 444.111   2
  -2   6  -6 1768.45 517.360   2
   2   7  -4 1004.98 431.053   2
   2   7  -4 982.215 370.982   3
   2   7  -3 527.218 353.020   2
  -2   7   3 938.144 419.076   3
   2   7  -3 762.506 380.797   3
   2   7  -2 312.733 362.018   3
  -2   7   2 276.058 362.746   3
   2   7  -1 3113.50 448.912   3
  -2   7   1 2668.98 392.738   3
  -2   7   0-74.1045 290.021   3
   2   7   0 116.058 375.570   3
   2   7   1 445.916 422.907   3
  -2   7  -1 481.929 296.914   3
   2   7   2 249.716 441.497   3
  -2   7  -3-157.957 405.246   2
   2   7   3 95.5647 422.567   3
   2   7   4 58.8199 458.480   3
  -2   7  -4 38.4112 403.355   2
   2   8  -2-175.446 385.962   3
  -2   8   2 116.736 370.432   3
   2   8  -1 3408.26 504.291   3
  -2   8   1 3309.81 467.729   3
   2   8   0 4219.31 545.900   3
   2   8   1 796.094 448.724   3
   2   8   2 641.754 426.234   3
   3   0  -8-152.179 411.423   2
   3   0  -7 271.744 390.810   2
  -3   0   6 164.883 303.226   1
   3   0  -6-142.472 399.203   2
  -3   0   5 96.1766 264.802   1
   3   0  -5 96.7879 361.165   2
   3   0  -5 88.4278 93.0277   0
   3   0  -4-8.06969 56.6575   0
  -3   0   4 97.3865 223.184   1
  -3   0   3 13.8820 212.824   1
  -3   0   2 278.052 253.395   1
  -3   0   1 33.8533 118.360   0
   3   0  -1 52.7045 111.858   0
  -3   0   0 126.047 152.950   0
   3   0   0 118.509 158.202   0
   3   0   1 15.8245 111.180   3
   3   0   1 18.9696 198.539   0
   3   0   1 74.9275 166.052   2
  -3   0  -1 0.16718 114.324   3
  -3   0  -1 118.814 213.976   0
  -3   0  -2-8.99783 215.515   2
  -3   0  -2 118.489 226.131   0
  -3   0  -2 5.57977 129.012   3
  -3   0  -3 66.1346 229.958   2
  -3   0  -3 296.551 245.279   0
  -3   0  -4 231.111 253.635   0
  -3   0  -4-37.0891 257.511   2
  -3   0  -5 16.6217 297.206   0
  -3   0  -5 5.78135 317.591   2
  -3   0  -6 142.976 327.971   2
  -3   0  -6-80.7320 331.837   0
  -3   0  -7 64.6421 358.564   2
  -3   0  -7-51.2567 373.358   0
  -3   0  -8 105.801 381.896   2
   3  -1  -8 195.696 383.645   2
   3   1  -8 119.740 425.940   2
   3  -1  -7 4687.33 501.549   2
   3   1  -7 4149.79 517.300   2
  -3  -1   6 4448.49 345.069   1
   3  -1  -6 3911.32 444.520   2
   3   1  -6 4119.13 537.817   2
  -3  -1   5 13490.0 443.370   1
   3   1  -5 12853.4 645.470   2
  -3   1   5 12384.5 533.770   1
   3  -1  -5 12826.7 337.873   0
  -3  -1   4 978.092 248.712   1
  -3   1   4 1005.36 286.561   1
   3   1  -4 973.673 310.054   2
  -3  -1   3 21492.6 441.578   1
  -3   1   3 21099.3 521.288   1
  -3   1   2 63968.6 756.619   1
  -3   1   1 56702.6 647.968   1
   3  -1   0 54770.9 584.599   0
   3  -1   0 53930.2 512.367   1
  -3   1   0 53937.4 535.082   1
  -3   1  -1 1250.12 244.966   0
  -3   1  -1 1383.27 139.589   1
  -3  -1  -1 1308.07 163.964   3
   3   1   1 1183.19 206.269   3
  -3  -1  -2 2517.67 277.342   0
  -3   1  -2 3009.40 284.118   0
   3   1   2 2793.28 235.406   3
   3   1   2 2833.32 169.802   2
  -3  -1  -2 2758.04 187.307   2
  -3   1  -2 2575.18 277.138   2
  -3  -1  -3 13841.4 376.556   2
  -3   1  -3 12874.5 443.249   0
  -3   1  -3 12404.6 464.729   2
  -3  -1  -3 13727.8 472.066   0
  -3  -1  -4 50215.2 771.969   2
  -3   1  -4 49329.5 911.861   2
  -3   1  -4 48084.5 819.684   0
  -3   1  -4 49064.0 393.818   1
  -3  -1  -4 48065.2 859.428   0
  -3   1  -5 1420.29 344.634   0
  -3   1  -5 1697.73 407.161   2
  -3  -1  -5 998.841 337.490   0
  -3  -1  -5 1419.08 296.155   2
  -3  -1  -6 4366.92 412.292   2
  -3   1  -6 4265.66 431.226   0
  -3   1  -6 4022.37 476.778   2
  -3  -1  -6 4403.80 447.213   0
  -3  -1  -7 486.929 366.127   0
  -3   1  -7 278.085 362.099   0
  -3   1  -7 50.4528 402.317   2
  -3  -1  -7 31.0426 319.525   2
  -3   1  -8-116.228 462.481   2
   3  -2  -8-89.9395 360.378   2
   3   2  -8 0.59722 447.054   2
   3   2  -7 6671.35 638.638   2
   3  -2  -7 5940.50 494.925   2
   3   2  -6 13028.9 718.924   2
   3  -2  -6 13227.1 598.020   2
  -3  -2   5 35656.4 651.728   1
   3   2  -5 33859.3 920.488   2
   3   2  -4 3929.66 390.552   2
  -3  -2   4 3205.19 185.909   0
  -3  -2   4 3983.14 280.512   1
  -3   2   4 3467.67 397.367   1
  -3   2   3 14198.0 505.795   1
   3   2  -3 14314.1 523.966   2
  -3   2   2 135693. 1211.36   1
   3   2  -2 138384. 1210.30   2
   3  -2  -1 691.187 142.392   3
  -3   2   1 625.632 232.274   1
  -3   2   0 1783.86 214.135   1
   3   2   0 2145.08 285.621   3
   3  -2   0 2304.57 129.849   3
  -3   2   0 1999.62 138.945   3
  -3   2  -1 20777.7 313.526   1
   3  -2   1 21486.2 324.919   1
  -3   2  -1 20305.3 233.004   3
   3   2   1 20234.5 494.778   3
   3   2   2 25681.2 284.021   2
   3   2   2 25532.8 567.039   3
  -3   2  -2 25309.8 596.632   2
   3   2   3 2172.47 161.236   2
  -3   2  -3 2449.08 328.519   2
   3   2   3 2132.25 311.730   3
  -3  -2  -3 2280.07 170.976   2
  -3  -2  -4 218.008 185.331   2
  -3   2  -4 182.843 352.177   2
  -3  -2  -5 6356.93 348.350   2
  -3  -2  -5 5711.79 473.881   0
  -3   2  -5 6195.43 535.623   2
  -3  -2  -6 2234.64 315.601   2
  -3  -2  -6 1923.80 414.525   0
  -3   2  -6 2726.52 482.389   2
  -3   2  -7 421.780 392.458   2
  -3  -2  -7 373.590 383.109   0
  -3   2  -8 876.349 516.148   2
   3   3  -8 143.640 533.319   2
   3   3  -7 585.794 499.924   2
   3   3  -6 338.242 444.199   2
   3  -3  -6 546.784 305.014   2
  -3  -3   5 854.774 250.531   1
   3   3  -5 754.364 435.961   2
   3   3  -4 1636.85 361.205   2
   3   3  -3-95.5755 302.774   2
   3   3  -2 36906.7 700.351   2
   3   3  -1 6721.47 305.635   2
  -3   3   1 7493.33 312.047   3
   3  -3   0 15276.5 327.126   3
   3   3   0 16147.9 313.197   2
  -3   3   0 16087.3 350.467   3
   3   3   0 16070.4 513.372   3
  -3   3  -1 6317.69 216.971   3
   3   3   1 6329.17 394.884   3
  -3   3  -2 3285.08 376.036   2
   3   3   2 3358.80 353.048   3
   3  -3   2 3364.69 175.032   1
   3   3   3 668.823 354.233   3
  -3   3  -3 881.959 371.545   2
  -3   3  -4 12636.9 643.713   2
   3   3   4 12257.5 596.266   3
  -3  -3  -4 12366.5 289.433   2
  -3   3  -5 22625.4 807.337   2
  -3  -3  -6 164.804 423.583   0
  -3   3  -6 66.6628 454.090   2
  -3  -3  -7 2238.85 478.222   0
  -3   3  -7 2328.96 488.834   2
  -3   3  -8 9.14081 530.749   2
   3   4  -7 19.6343 484.651   2
   3   4  -6 9.35000 473.468   2
   3   4  -5 3162.31 505.231   2
   3   4  -4 30420.9 854.141   2
   3   4  -3 5600.17 436.072   2
   3   4  -2 1937.42 292.545   2
  -3   4   2 2230.50 333.178   3
   3   4  -1 985.782 230.391   2
  -3   4   1 1113.81 258.642   3
   3   4  -1 1106.08 340.636   3
   3   4   0 750.092 153.547   2
   3   4   0 512.499 336.775   3
  -3   4   0 694.375 204.451   3
  -3   4  -1 948.771 192.314   3
   3   4   1 1081.79 316.956   3
   3   4   2 423.166 351.436   3
  -3   4  -2 698.898 363.041   2
  -3   4  -2 522.237 182.205   3
   3   4   3 772.925 380.444   3
  -3   4  -3 874.863 339.027   2
  -3   4  -4 447.992 415.911   2
   3   4   4 498.777 390.879   3
  -3   4  -5 7407.35 568.723   2
  -3   4  -6 455.583 488.084   2
  -3   4  -7 12574.2 830.299   2
  -3  -4  -7 11114.0 746.067   0
   3   5  -7 46.8821 538.913   2
   3   5  -6-43.2128 455.024   2
   3   5  -5 1122.46 458.152   2
   3   5  -4 1075.50 373.897   2
   3   5  -3 1373.60 365.513   2
   3   5  -2 27497.6 795.464   3
   3   5  -2 26771.9 695.556   2
  -3   5   2 27604.3 745.194   3
   3   5  -1 30667.3 632.548   2
  -3   5   1 29819.1 709.437   3
   3   5  -1 31519.8 826.437   3
   3   5   0 3606.69 225.505   2
  -3   5   0 3859.56 323.912   3
   3   5   0 3340.48 427.053   3
  -3   5  -1 5675.99 328.775   3
   3   5   1 5478.06 498.835   3
   3   5   2 6618.72 507.905   3
  -3   5  -2 6896.98 345.279   3
  -3   5  -2 7009.60 503.583   2
  -3   5  -3 239.089 362.774   2
   3   5   3-0.97194 397.917   3
  -3   5  -3 201.461 197.317   3
  -3   5  -4 2782.96 510.110   2
   3   5   4 2003.60 460.303   3
  -3   5  -5 4370.88 581.970   2
  -3   5  -6 50.3768 497.546   2
   3   6  -6 231.846 462.088   2
   3   6  -5 182.429 409.855   2
   3   6  -4 718.048 371.136   2
   3   6  -3 73.3400 317.208   2
   3   6  -3 62.1505 316.847   3
   3   6  -2 2894.49 345.639   2
   3   6  -2 2826.91 424.960   3
  -3   6   2 2601.28 372.776   3
   3   6  -1 17937.3 525.415   2
   3   6  -1 16942.7 704.784   3
  -3   6   1 16885.2 611.236   3
  -3   6   0 4687.05 371.605   3
   3   6   0 5311.84 500.419   3
   3   6   1 336.502 400.243   3
  -3   6  -1 693.550 262.429   3
   3   6   2 1204.90 460.272   3
  -3   6  -3 1157.90 404.793   2
   3   6   3 790.595 398.510   3
   3   6   4 1647.54 507.285   3
  -3   6  -4 2095.33 512.411   2
   3   6   5-59.3964 453.446   3
  -3   6  -5-40.1982 522.406   2
   3   7  -4 353.758 376.024   2
   3   7  -4 178.506 383.199   3
   3   7  -3 261.927 318.294   2
   3   7  -3 157.828 382.986   3
  -3   7   2 31.3712 341.730   3
   3   7  -2 13.6843 357.850   3
  -3   7   1 2734.56 381.092   3
   3   7  -1 3135.78 467.704   3
  -3   7   0 829.825 303.581   3
   3   7   0 656.235 431.770   3
   3   7   1 3540.52 523.445   3
   3   7   2 1075.18 476.833   3
   3   7   3 43.8609 442.355   3
  -3   7  -4 171.657 431.443   2
   3   7   4-98.9513 401.232   3
   3   8  -2 63.9500 398.459   3
  -3   8   2-94.9371 384.046   3
   3   8  -1 931.901 417.761   3
   3   8   0 9847.23 680.564   3
   3   8   1 2520.30 481.809   3
   3   8   2 859.386 420.933   3
   4   0  -8 1547.55 450.163   2
   4   0  -7 1718.47 452.337   2
  -4   0   7 1932.73 377.804   1
  -4   0   6 6611.64 459.866   1
   4   0  -6 5845.41 501.793   2
  -4   0   5 538.746 286.575   1
  -4   0   4 5246.50 354.042   1
  -4   0   3 2761.24 303.873   1
  -4   0   2 12510.9 394.248   1
   4   0  -2 11858.6 188.535   0
  -4   0   1 20.8027 156.190   0
   4   0  -1 103.091 136.891   0
  -4   0   0 217375. 4565.34   0
   4   0   0 230972. 4684.79   0
  -4   0  -1 163481. 1160.00   0
  -4   0  -1 164177. 3112.94   3
   4   0   1 162702. 788.125   3
  -4   0  -2 20303.6 513.370   0
  -4   0  -2 20608.7 357.809   3
   4   0   2 20462.2 368.527   3
  -4   0  -3 108777. 1119.45   2
  -4   0  -3 109614. 1177.18   0
  -4   0  -4 16764.5 551.114   2
  -4   0  -4 17745.8 579.171   0
  -4   0  -5 393.620 345.982   0
  -4   0  -5 394.010 329.265   2
  -4   0  -6 193.994 327.386   2
  -4   0  -6-17.3593 343.236   0
  -4   0  -7 291.969 370.771   2
  -4   0  -7 111.714 395.274   0
  -4   0  -8 169.052 380.708   2
   4  -1  -8 94.3331 393.076   2
   4   1  -7 34.6268 398.805   2
   4  -1  -7 34.4577 356.501   2
   4   1  -6 27389.3 903.046   2
   4  -1  -6 28576.5 856.071   2
  -4  -1   6 28563.8 691.291   1
  -4   1   6 28489.7 795.504   1
   4   1  -5 29228.6 862.672   2
   4  -1  -5 27377.9 407.777   0
  -4   1   5 27543.1 729.915   1
  -4  -1   5 28868.9 647.787   1
  -4   1   4 210.143 285.852   1
  -4  -1   4 55.5782 247.734   1
  -4   1   3 26335.8 599.300   1
  -4  -1   3 28229.8 550.721   1
  -4   1   2 4933.77 319.759   1
   4  -1  -1 9460.66 291.660   0
  -4   1   1 9245.44 356.703   1
  -4   1   0 103044. 804.800   1
  -4   1  -1 678.317 272.658   0
   4   1   1 378.319 181.796   3
  -4  -1  -1 417.304 234.055   0
   4   1   2 2387.32 179.527   2
  -4   1  -2 2103.03 295.333   0
  -4   1  -2 2443.48 125.685   3
   4   1   2 2216.22 235.553   3
  -4  -1  -2 2368.64 288.088   0
  -4   1  -2 2414.17 312.281   2
  -4   1  -3 2520.63 328.041   0
  -4  -1  -3 2565.34 337.278   0
   4   1   3 2773.64 273.406   3
  -4   1  -3 2771.52 314.563   2
  -4  -1  -3 2520.18 244.394   2
  -4  -1  -4 9074.17 389.193   2
  -4   1  -4 9458.22 506.652   2
  -4   1  -4 8315.52 466.839   0
  -4  -1  -4 8477.34 474.333   0
  -4   1  -4 8691.10 201.099   1
  -4  -1  -5 636.179 283.260   2
  -4   1  -5 411.625 378.709   2
  -4  -1  -5 403.458 361.349   0
  -4   1  -5 334.461 346.250   0
  -4  -1  -6 575.799 309.068   2
  -4   1  -6 435.531 340.291   2
  -4   1  -6 680.121 379.532   0
  -4  -1  -6 741.996 388.433   0
  -4  -1  -7 136.238 369.853   0
  -4  -1  -7 100.591 312.767   2
  -4   1  -7 175.321 419.868   2
  -4   1  -7 3.20810 384.751   0
  -4   1  -8 807.640 439.934   2
   4  -2  -8 82.0646 372.153   2
   4   2  -8-44.7356 413.883   2
   4   2  -7 3799.70 527.806   2
   4  -2  -7 3642.89 476.272   2
   4   2  -6 10731.0 674.687   2
  -4  -2   6 10423.9 448.537   1
  -4   2   5 2557.06 424.078   1
   4   2  -5 2768.30 492.523   2
  -4  -2   5 2540.04 317.303   1
  -4   2   4 5964.17 457.959   1
   4   2  -4 6352.02 468.840   2
  -4  -2   4 6169.40 349.708   1
   4   2  -3 74876.5 1073.00   2
  -4   2   3 74891.0 1057.56   1
  -4   2   2 113851. 1156.75   1
  -4   2   1 9621.18 374.925   1
   4  -2  -1 9188.53 272.996   3
   4   2   0 147.809 227.175   3
  -4   2   0 200.670 199.123   1
   4  -2   0 86.7148 85.9865   3
   4   2   1 1312.58 279.979   3
  -4   2  -1 1219.63 167.044   1
   4   2   2 12498.7 243.048   2
  -4   2  -2 12026.9 497.021   2
  -4   2  -2 12706.8 223.247   1
   4   2   2 11936.2 438.292   3
   4   2   3 195.044 246.359   3
  -4   2  -3 333.294 347.168   2
   4   2   3 479.407 136.016   2
  -4  -2  -4 2818.56 249.485   2
  -4  -2  -4 3265.84 425.184   0
  -4   2  -4 3270.04 441.897   2
  -4  -2  -5 1382.02 257.310   2
  -4   2  -5 1547.68 431.715   2
  -4  -2  -5 1433.09 398.607   0
  -4   2  -6 10538.9 644.108   2
  -4  -2  -6 10055.1 612.434   0
  -4  -2  -6 10079.4 470.411   2
  -4   2  -7 2478.10 526.367   2
  -4  -2  -7 3306.83 509.436   0
  -4   2  -8 3269.87 584.813   2
   4   3  -8 630.081 542.597   2
   4   3  -7 779.377 458.534   2
   4  -3  -7 641.333 344.568   2
   4   3  -6 2341.76 501.642   2
   4   3  -5 2532.16 491.213   2
  -4  -3   5 2825.79 311.646   1
   4   3  -4 352.997 363.958   2
   4   3  -3 4832.84 392.373   2
   4   3  -2 14009.8 486.101   2
  -4   3   2 13166.7 534.968   1
   4   3  -1 1268.55 221.743   2
  -4   3   1 1208.81 285.724   1
  -4   3   0 2832.19 182.592   3
   4   3   0 2913.62 182.945   2
   4  -3   0 2843.93 169.670   3
   4   3   0 3024.66 360.246   3
  -4   3   0 2852.71 263.530   1
  -4   3  -1 2742.93 148.489   3
   4   3   1 2692.70 106.391   2
   4   3   1 2713.77 330.069   3
  -4   3  -2 359.145 338.249   2
   4  -3   2 476.189 133.634   1
   4   3   2 434.415 302.693   3
  -4   3  -2 411.994 109.247   3
   4   3   3 70.7914 280.244   3
  -4   3  -3 10.9626 371.717   2
  -4   3  -4 2839.07 464.526   2
   4   3   4 2770.43 383.450   3
  -4  -3  -5 90.4628 386.235   0
  -4   3  -5 86.7366 438.194   2
  -4  -3  -6 9708.18 641.902   0
  -4   3  -6 9439.68 642.867   2
  -4   3  -7 1138.81 456.928   2
  -4  -3  -7 995.987 443.899   0
   4   4  -7 752.158 517.391   2
   4   4  -6-113.854 388.692   2
   4   4  -5 962.200 443.119   2
   4   4  -4 2690.49 445.847   2
   4   4  -3 4596.15 409.892   2
   4   4  -2 7219.61 413.054   2
   4   4  -1 16183.6 445.230   2
  -4   4   1 16641.1 478.439   3
   4   4  -1 16888.0 597.176   3
   4   4   0 498.252 150.761   2
  -4   4   0 342.100 183.386   3
   4   4   0 377.840 346.262   3
  -4   4  -1 478.549 159.582   3
   4   4   1 655.638 326.772   3
   4   4   2 97.9030 296.105   3
  -4   4  -2-57.6082 147.849   3
  -4   4  -2-144.386 363.890   2
  -4   4  -3 231.176 345.347   2
   4   4   3 100.468 331.507   3
  -4   4  -3 147.130 161.117   3
  -4   4  -4 569.643 447.146   2
   4   4   4 511.037 383.077   3
  -4   4  -5 617.163 453.851   2
  -4   4  -6 1176.45 519.393   2
  -4  -4  -6 1195.19 463.138   0
  -4   4  -7 2367.24 603.346   2
  -4  -4  -7 2424.01 548.852   0
   4   5  -6 569.170 475.551   2
   4   5  -5 4470.39 501.704   2
   4   5  -4 1816.08 397.191   2
   4   5  -3 1709.94 349.420   2
   4   5  -2 6170.55 408.759   2
   4   5  -2 5828.51 484.530   3
   4   5  -1 48520.4 775.011   2
  -4   5   1 47515.4 851.375   3
   4   5  -1 50107.8 1036.07   3
   4   5   0 744.320 170.276   2
  -4   5   0 638.192 233.078   3
   4   5   0 567.845 415.848   3
  -4   5  -1 3385.26 262.300   3
   4   5   1 3179.33 459.202   3
  -4   5  -2 128.825 191.413   3
   4   5   2 518.979 354.372   3
  -4   5  -3 69.0386 377.253   2
   4   5   3 71.9343 394.180   3
  -4   5  -4 2045.82 518.233   2
   4   5   4 1980.05 414.647   3
  -4   5  -5 12101.5 785.182   2
   4   5   5 11681.0 725.247   3
  -4   5  -6 96.4988 521.387   2
   4   6  -6 255.362 474.411   2
   4   6  -5 30.6604 433.574   2
   4   6  -4 140.941 373.242   2
   4   6  -3 584.126 330.437   2
   4   6  -3 477.397 396.892   3
   4   6  -2 1210.82 290.908   2
   4   6  -2 1100.43 389.111   3
   4   6  -1 2401.78 396.351   3
  -4   6   1 2448.79 335.375   3
  -4   6   0 3296.97 321.220   3
   4   6   0 3792.16 481.815   3
   4   6   1 15813.6 743.289   3
   4   6   2 32109.3 998.721   3
   4   6   3 3397.19 531.923   3
   4   6   4 6047.45 612.205   3
  -4   6  -4 6720.79 645.167   2
  -4   6  -5 558.372 460.637   2
   4   6   5 540.938 475.434   3
   4   7  -4 443.225 384.251   2
   4   7  -4 567.585 418.217   3
   4   7  -3-100.007 391.010   3
   4   7  -2 47.3112 352.281   3
  -4   7   1 1310.87 330.769   3
   4   7  -1 1137.08 436.386   3
   4   7   0 69.3155 362.680   3
   4   7   1 1582.04 421.128   3
   4   7   2-54.3409 374.349   3
   4   7   3 824.190 444.691   3
   4   7   4 146.486 513.265   3
   4   8  -2 82.6842 382.980   3
   4   8  -1-183.033 450.783   3
   4   8   0 728.686 474.282   3
   4   8   1 384.170 492.949   3
   5   0  -8-76.6806 426.394   2
  -5   0   7-99.2488 348.185   1
   5   0  -7-65.6097 411.500   2
  -5   0   6 189.353 304.481   1
   5   0  -6-35.8313 348.064   2
  -5   0   5 96.1946 314.972   1
  -5   0   4 189.765 300.010   1
  -5   0   3 88.7756 270.021   1
   5   0  -2 29.6176 110.917   0
  -5   0   2 105.152 246.655   1
  -5   0   1 60.7251 168.221   0
   5   0  -1 78.6683 147.286   0
  -5   0   0 206.376 208.888   0
   5   0   1 34.2207 122.524   3
  -5   0  -1 135.787 244.370   0
  -5   0  -2 68.7274 277.162   0
   5   0   2 17.7010 152.107   3
  -5   0  -2 32.8723 126.684   3
  -5   0  -3 278.009 295.561   0
  -5   0  -3-112.431 251.221   2
  -5   0  -4 241.437 320.877   0
  -5   0  -4-67.5702 300.307   2
  -5   0  -5 271.211 302.031   2
  -5   0  -5 59.8195 350.359   0
  -5   0  -6 12.1214 328.305   2
  -5   0  -6-164.413 415.702   0
  -5   0  -7 261.744 365.232   2
  -5   0  -7-65.0024 427.505   0
  -5   0  -8 56.1672 410.081   2
   5  -1  -8 528.497 463.474   2
   5   1  -8 64.2396 484.503   2
  -5  -1   7 89.2948 309.006   1
   5   1  -7-85.6950 466.491   2
   5  -1  -7 61.4903 409.343   2
  -5   1   7 74.3784 376.173   1
   5   1  -6 3694.51 537.241   2
  -5  -1   6 4344.65 386.979   1
  -5   1   6 3764.23 427.565   1
  -5   1   5 1511.15 366.164   1
  -5  -1   5 1602.36 339.190   1
   5   1  -5 1456.49 463.332   2
  -5  -1   4 552.563 294.433   1
  -5   1   4 691.185 315.922   1
  -5   1   3 5764.99 378.838   1
   5  -1  -2 42979.1 533.375   0
  -5  -1   2 42950.3 435.314   0
  -5   1   2 42820.2 741.868   1
  -5  -1   1 93.4296 159.710   0
  -5   1   1 89.2592 253.955   1
  -5   1   0 240241. 1476.73   0
  -5  -1   0 239594. 1429.57   0
  -5   1   0 238748. 1334.12   1
  -5  -1  -1 372.762 262.146   0
   5   1   1 329.322 186.751   3
  -5   1  -1 687.722 274.446   0
   5   1   2 1846.49 235.719   3
  -5   1  -2 2191.92 332.639   0
  -5  -1  -2 1929.15 306.957   0
  -5   1  -2 1964.16 113.369   3
  -5   1  -3 5177.02 410.156   0
   5   1   3 5346.53 331.570   3
  -5  -1  -3 4623.49 398.221   0
  -5   1  -3 4640.01 205.948   3
  -5   1  -3 4578.71 370.811   2
  -5  -1  -4 1187.36 280.094   2
  -5   1  -4 1139.64 324.678   2
  -5   1  -4 1227.59 372.698   0
  -5  -1  -4 1125.31 379.135   0
  -5  -1  -5 870.108 300.423   2
  -5   1  -5 896.667 391.631   2
  -5   1  -5 1008.26 405.101   0
  -5  -1  -5 670.148 386.477   0
  -5  -1  -6 3759.62 403.019   2
  -5   1  -6 3297.18 467.048   2
  -5   1  -6 3653.58 484.864   0
  -5  -1  -6 3667.60 457.463   0
  -5  -1  -7 447.683 415.165   0
  -5   1  -7 338.477 416.766   0
  -5   1  -7 311.407 416.198   2
  -5  -1  -7 449.440 339.026   2
  -5   1  -8 88.8329 400.950   2
   5  -2  -8 532.633 423.401   2
   5   2  -8 331.836 433.830   2
   5   2  -7 1971.56 539.208   2
   5  -2  -7 1773.73 408.818   2
   5   2  -6 2663.27 482.206   2
  -5  -2   6 2442.63 353.718   1
  -5   2   6 2306.31 454.647   1
  -5   2   5 503.769 390.677   1
  -5  -2   5 277.131 299.583   1
   5   2  -5 589.989 452.234   2
  -5   2   4 1940.95 382.546   1
  -5  -2   4 1248.35 91.4663   0
   5   2  -4 2073.69 423.242   2
  -5   2   3 11987.9 519.977   1
  -5   2   2 40318.0 754.536   1
   5  -2  -1 52328.3 604.903   3
  -5   2   1 52115.0 769.392   1
   5   2   0 5909.61 348.275   3
   5  -2   0 5157.03 145.694   3
  -5   2   0 5459.04 297.048   1
  -5   2  -1 985.726 186.929   1
   5   2   1 977.724 292.037   3
   5   2   2 8175.27 241.637   2
   5   2   2 8003.07 391.362   3
  -5   2  -2 8610.53 237.010   1
  -5  -2  -3 10852.4 545.507   0
   5   2   3 11669.5 487.810   3
  -5   2  -3 11285.6 253.404   3
  -5   2  -3 11506.7 181.660   1
  -5   2  -3 13623.6 598.068   2
  -5   2  -4 127.420 396.184   2
  -5  -2  -4-31.6350 362.605   0
   5   2   4 133.241 315.726   3
  -5   2  -4 141.534 343.174   0
  -5  -2  -5 1293.32 268.889   2
  -5   2  -5 1491.91 393.662   2
  -5  -2  -5 1282.59 414.490   0
  -5   2  -6 5706.89 542.832   2
  -5  -2  -6 5366.29 533.170   0
  -5   2  -7-52.3798 417.124   2
  -5  -2  -7 223.300 434.038   0
  -5   2  -8 2633.76 591.151   2
   5   3  -8 2387.39 608.014   2
   5   3  -7 151.899 410.731   2
   5  -3  -7 366.835 362.537   2
   5   3  -6 433.735 462.064   2
   5   3  -5 13.3733 422.705   2
  -5  -3   5 309.240 280.631   1
   5   3  -4 167.234 354.197   2
  -5   3   4 207.497 408.968   1
  -5   3   3 3042.97 435.483   1
   5   3  -3 3426.13 372.304   2
  -5   3   2 1065.64 352.965   1
   5   3  -2 1137.30 279.595   2
  -5   3   1 51181.8 857.837   1
  -5   3   0 130.903 250.417   1
   5  -3   0 94.3216 106.050   3
   5   3   0 147.771 311.235   3
   5   3   1 548.635 321.752   3
  -5   3  -1 444.851 201.894   1
   5   3   2 184.269 66.3751   2
   5   3   2 180.156 295.996   3
  -5   3  -2 151.835 57.2068   3
  -5   3  -3 271.075 407.075   2
   5   3   3 275.198 325.498   3
   5   3   3 191.212 83.9642   2
  -5   3  -4 8166.36 597.305   2
   5   3   4 7130.35 482.929   3
  -5  -3  -5 282.016 408.995   0
  -5   3  -5 342.139 453.089   2
  -5   3  -6 4735.68 580.033   2
  -5  -3  -6 3690.91 557.401   0
  -5   3  -7 895.056 468.376   2
  -5  -3  -7 672.030 479.561   0
   5   4  -7 1349.87 527.884   2
   5   4  -6 48.7322 424.393   2
   5   4  -5-14.9415 350.730   2
   5   4  -4 5934.11 526.575   2
   5   4  -3 18700.8 665.612   2
   5   4  -2 34779.2 755.532   2
   5   4  -1 25715.5 573.601   2
   5   4  -1 25399.9 729.966   3
   5   4   0 2490.34 205.178   2
  -5   4   0 2091.14 201.625   3
   5   4   0 2597.13 419.650   3
   5   4   1 5.74167 68.2324   2
  -5   4  -1 64.9151 122.769   3
  -5   4  -2 890.604 127.929   3
   5   4   2 621.546 384.984   3
  -5   4  -3 849.954 462.719   2
   5   4   3 693.877 394.173   3
  -5   4  -4 154.204 418.437   2
   5   4   4 548.901 402.565   3
  -5   4  -5 2616.94 544.609   2
   5   4   5 2398.12 448.061   3
  -5  -4  -6 261.813 491.830   0
  -5   4  -6 372.902 506.497   2
  -5   4  -7 3.28497 460.722   2
  -5  -4  -7 341.468 540.829   0
   5   5  -6 28.8199 477.627   2
   5   5  -5 1392.77 447.798   2
   5   5  -4 16001.0 703.532   2
   5   5  -3 511.376 323.540   2
   5   5  -2 122.402 269.814   2
   5   5  -2-83.8851 400.041   3
   5   5  -1 8629.31 386.703   2
   5   5  -1 8647.29 584.873   3
   5   5   0 708.979 168.725   2
  -5   5   0 647.556 210.657   3
   5   5   0 536.477 404.739   3
  -5   5  -1 4651.55 261.728   3
   5   5   1 5166.37 532.126   3
   5   5   2 12712.9 680.035   3
   5   5   3 1715.84 421.074   3
   5   5   4 2076.36 481.243   3
  -5   5  -4 2306.36 535.402   2
  -5   5  -5 6687.35 664.686   2
   5   5   5 4602.64 515.617   3
  -5   5  -6 1720.27 514.015   2
   5   6  -5-213.137 424.844   2
   5   6  -4 433.551 362.531   2
   5   6  -3 53.6415 311.410   2
   5   6  -3 342.646 353.780   3
   5   6  -2 93.7802 272.272   2
   5   6  -2-48.4936 341.069   3
   5   6  -1 100.146 337.162   3
   5   6   0 1563.91 469.136   3
   5   6   1 173.292 446.058   3
   5   6   2 3045.92 523.377   3
   5   6   3 1446.05 417.285   3
   5   6   4 6889.25 662.346   3
  -5   6  -5 4566.20 646.490   2
   5   6   5 4018.35 614.984   3
   5   7  -4-181.671 361.709   3
   5   7  -3 303.646 384.636   3
   5   7  -2 147.440 391.378   3
   5   7  -1-85.7475 446.517   3
   5   7   0 1972.04 443.544   3
   5   7   1 420.776 415.622   3
   5   7   2 742.760 499.629   3
   5   7   3 8.61554 487.503   3
   5   7   4 269.280 431.312   3
   5   8   0 179.688 432.331   3
   5   8   1 1406.43 506.719   3
   6   0  -8 5100.88 600.134   2
  -6   0   7 1531.32 413.154   1
   6   0  -7 1881.78 441.627   2
  -6   0   6 764.780 368.005   1
  -6   0   5 608.582 339.355   1
  -6   0   4 640.468 355.812   1
  -6   0   3 5939.16 401.542   1
  -6   0   2 1096.95 170.009   0
   6   0  -2 886.526 148.500   0
  -6   0   2 912.244 290.548   1
  -6   0   1 2961.87 246.787   0
  -6   0   0 37019.1 625.491   0
   6   0   1 197798. 4099.00   3
  -6   0  -1 200571. 1518.27   0
  -6   0  -2 122.694 307.067   0
   6   0   2-9.69036 146.966   3
  -6   0  -3 186872. 1723.06   0
  -6   0  -4 13477.6 556.648   2
  -6   0  -4 13386.1 605.259   0
  -6   0  -5 2743.06 412.626   2
  -6   0  -5 2104.56 445.727   0
  -6   0  -6-83.0014 408.717   0
  -6   0  -6 350.774 365.028   2
  -6   0  -7-68.5711 369.139   2
  -6   0  -7-34.0597 443.514   0
  -6   0  -8 151.905 416.745   2
   6   1  -8 271.511 474.834   2
   6  -1  -8-171.533 467.095   2
  -6   1   7-24.4121 400.423   1
  -6  -1   7 108.528 327.995   1
   6   1  -7-280.294 483.345   2
   6  -1  -7 248.015 380.822   2
   6   1  -6 4690.20 490.821   2
  -6  -1   6 4722.64 432.343   1
  -6   1   6 4322.52 471.678   1
  -6   1   5 64.8645 350.649   1
  -6  -1   5-48.3199 344.727   1
   6  -1  -4 1351.85 157.322   0
  -6   1   4 1543.16 359.623   1
  -6  -1   4 1780.13 338.026   1
  -6  -1   3 9545.26 188.591   0
   6  -1  -3 10736.8 303.214   0
  -6   1   3 11730.1 496.787   1
  -6  -1   2 8114.19 252.278   0
  -6   1   2 8283.82 446.453   1
  -6  -1   1 6869.45 295.746   0
  -6   1   1 7169.32 387.173   1
  -6   1   0 145935. 1255.47   0
  -6  -1   0 146706. 1212.42   0
  -6   1   0 146942. 1158.06   1
   6   1   1 97608.0 929.147   3
  -6   1  -1 96877.0 1113.50   0
   6  -1   1 96912.4 456.651   3
  -6  -1  -1 98256.4 1106.57   0
  -6   1  -2 13711.4 533.267   0
   6   1   2 14415.4 414.712   3
  -6  -1  -2 14391.6 538.030   0
  -6   1  -2 13485.2 218.092   3
  -6   1  -3 513.929 366.181   0
  -6  -1  -3 263.241 341.004   0
   6   1   3 370.503 238.542   3
  -6   1  -3 315.845 124.056   3
  -6   1  -4 4043.80 460.913   0
  -6  -1  -4 4008.83 460.895   0
  -6   1  -4 4411.02 434.954   2
  -6   1  -5-71.8693 345.389   2
  -6   1  -5 276.717 402.791   0
  -6  -1  -5-69.0789 401.212   0
  -6  -1  -5-50.5990 287.494   2
  -6  -1  -6 169.070 412.443   0
  -6  -1  -6 23.1693 313.965   2
  -6   1  -6 116.487 414.052   2
  -6   1  -6 15.8044 441.733   0
  -6   1  -7 33.6345 457.687   0
  -6  -1  -7 424.374 413.746   0
  -6   1  -7 317.468 388.170   2
  -6   1  -8 442.508 483.506   2
  -6  -1  -8 343.551 509.229   0
   6   2  -8 259.634 512.794   2
   6  -2  -8 111.762 443.447   2
   6   2  -7-227.377 490.245   2
  -6  -2   6 81.7252 328.782   1
   6   2  -6-7.34826 391.337   2
  -6   2   5 3148.14 453.756   1
   6   2  -5 3736.11 483.839   2
  -6  -2   5 3565.72 382.868   1
  -6   2   4 449.905 356.585   1
  -6   2   3 92.9698 316.755   1
  -6   2   2 42433.5 802.179   1
  -6   2   1 3514.79 329.030   1
   6   2   0 19503.7 523.742   3
   6  -2   0 19215.9 255.757   3
  -6   2   0 18022.3 481.157   1
  -6   2  -1 342.077 208.663   1
   6   2   1 77.0158 247.749   3
  -6  -2  -2 76.9149 331.422   0
  -6   2  -2 80.0263 169.041   1
   6   2   2 155.126 258.868   3
  -6   2  -3 2559.27 424.076   0
  -6  -2  -3 2294.91 413.287   0
   6   2   3 2834.81 341.691   3
  -6   2  -3 2243.41 116.616   3
  -6   2  -3 2584.69 164.481   1
  -6   2  -4 10749.7 595.119   0
   6   2   4 10916.0 519.988   3
  -6  -2  -4 10743.8 623.129   0
  -6   2  -4 11524.1 629.135   2
  -6   2  -5 88.8589 364.978   2
  -6  -2  -5-37.1371 405.237   0
  -6   2  -5 251.118 428.637   0
  -6   2  -6 1223.06 492.221   2
  -6  -2  -6 418.981 424.783   0
  -6   2  -7 347.917 430.142   2
  -6  -2  -7-92.4614 428.081   0
   6   3  -7 901.607 504.483   2
   6   3  -6-159.879 445.207   2
   6   3  -5 2375.38 461.390   2
  -6  -3   5 2659.96 362.501   1
  -6   3   5 1932.91 453.631   1
  -6   3   4 1005.90 426.718   1
   6   3  -4 1177.56 371.563   2
  -6   3   3 1615.65 403.148   1
   6   3  -3 1571.71 369.967   2
  -6   3   2 1723.68 379.999   1
  -6   3   1 6645.30 418.279   1
   6  -3   0 47400.7 463.755   3
   6   3   0 47924.0 890.661   3
  -6   3   0 48240.5 774.772   1
  -6   3  -1-20.9193 210.204   1
   6   3   1 33.6593 293.231   3
  -6   3  -2-11.6602 183.355   1
   6   3   2 39.4716 101.841   2
   6   3   2 66.0695 332.400   3
   6   3   3 119.333 301.245   3
   6   3   4 10172.2 573.267   3
  -6  -3  -4 11184.7 648.112   0
  -6   3  -4 10944.5 680.711   2
  -6   3  -5 21552.3 859.200   2
  -6  -3  -5 19208.4 831.870   0
  -6   3  -6 287.531 514.496   2
  -6  -3  -6 342.229 452.980   0
  -6   3  -7 208.919 417.777   2
  -6  -3  -7 38.3190 471.196   0
   6   4  -7 2805.79 534.454   2
   6   4  -6-32.2162 419.622   2
   6   4  -5 52.2039 404.734   2
   6   4  -4 7162.28 540.194   2
   6   4  -3 7831.44 500.908   2
   6   4  -2 1882.04 331.979   2
   6   4  -1 28683.0 618.140   2
   6   4  -1 28584.7 783.368   3
   6   4   0 7708.30 303.574   2
   6   4   0 6867.50 468.424   3
   6   4   1 346.420 109.117   2
   6   4   1 339.351 397.353   3
   6   4   2 146.647 310.324   3
   6   4   3 0.54026 346.179   3
   6   4   4 367.910 325.747   3
  -6   4  -4 310.571 384.319   2
  -6   4  -5 3172.41 576.439   2
   6   4   5 2556.08 483.650   3
  -6  -4  -5 2262.20 534.140   0
  -6   4  -6 795.083 496.066   2
  -6  -4  -6 591.653 525.616   0
   6   5  -6-179.932 457.529   2
   6   5  -5 509.848 426.307   2
   6   5  -4 17683.0 735.980   2
   6   5  -3 586.335 339.621   2
   6   5  -2 108.073 277.956   2
   6   5  -2 431.225 403.442   3
   6   5  -1 3277.48 289.590   2
   6   5  -1 3742.48 424.506   3
   6   5   0 2566.16 491.779   3
   6   5   1 6571.82 569.938   3
   6   5   2 4739.56 521.410   3
   6   5   3 639.403 374.277   3
   6   5   4 1066.32 414.762   3
   6   5   5 5607.95 575.468   3
  -6   5  -5 5352.81 605.434   2
  -6  -5  -6 3684.14 629.557   0
  -6   5  -6 3947.18 651.092   2
   6   6  -5 213.517 433.280   2
   6   6  -4 482.987 368.228   2
   6   6  -3 51.4455 313.452   2
   6   6  -3-9.69142 388.181   3
   6   6  -2 2681.38 466.801   3
   6   6  -1-11.4509 427.537   3
   6   6   0 202.612 404.510   3
   6   6   1 51.8348 455.898   3
   6   6   2 10696.4 693.846   3
   6   6   3 1650.19 455.119   3
   6   6   4 3120.56 533.755   3
   6   6   5 5543.40 639.930   3
   6   7  -4 12043.4 752.561   3
   6   7  -3 758.182 458.031   3
   6   7  -2 1820.48 477.576   3
   6   7  -1-141.774 447.868   3
   6   7   0 118.596 378.140   3
   6   7   1 17.5336 457.465   3
   6   7   2 647.255 471.730   3
   6   7   3 103.257 498.954   3
   7   0  -8 135.877 432.246   2
  -7   0   7-99.5704 383.511   1
   7   0  -7 77.6134 396.353   2
  -7   0   6 5.16685 350.442   1
  -7   0   5 33.4034 367.318   1
  -7   0   4 114.950 354.982   1
  -7   0   3 146.071 320.364   1
  -7   0   2 217.068 175.303   0
  -7   0   2 155.076 307.486   1
  -7   0   1-5.01753 208.941   0
  -7   0   0 101.590 256.842   0
  -7   0  -1 28.3234 283.457   0
   7   0   1 63.8095 152.011   3
  -7   0  -2 73.1025 324.684   0
   7   0   2 27.7239 153.182   3
  -7   0  -3 142.020 355.845   0
  -7   0  -4 187.582 408.372   0
  -7   0  -5-18.7695 422.457   0
  -7   0  -6-114.573 428.929   0
  -7   0  -6-6.71480 359.573   2
  -7   0  -7 84.8550 380.727   2
  -7   0  -7-18.8617 470.679   0
   7   1  -8-81.1135 453.823   2
   7  -1  -8 150.942 499.660   2
  -7   1   8 91.8877 466.357   1
  -7   1   7 777.733 436.947   1
   7   1  -7 538.094 472.151   2
  -7  -1   7 682.556 360.269   1
  -7   1   6 1165.54 416.847   1
  -7  -1   6 1216.91 375.937   1
  -7   1   5 11026.4 584.624   1
  -7  -1   5 13470.0 613.134   1
  -7   1   4 87.5156 339.864   1
  -7  -1   4-47.3120 327.053   1
  -7  -1   3 193.611 119.633   0
  -7   1   3 155.730 349.793   1
  -7   1   2 54.6005 303.352   1
  -7  -1   2 129.100 171.004   0
  -7  -1   1 1317.48 231.112   0
  -7   1   1 1628.82 305.953   1
  -7   1   0 45147.8 781.292   0
  -7  -1   0 44697.8 753.365   0
  -7   1   0 45077.8 724.763   1
  -7   1  -1 72798.0 1038.35   0
   7  -1   1 73350.1 465.536   3
   7   1   1 71764.7 842.434   3
  -7  -1  -1 73490.8 1039.51   0
  -7   1  -2 27160.6 733.045   0
   7   1   2 27347.3 557.729   3
  -7  -1  -2 26750.2 728.081   0
  -7   1  -3 10853.4 582.272   0
   7   1   3 11019.3 428.341   3
  -7   1  -3 9988.38 262.723   3
  -7  -1  -3 10389.0 572.864   0
  -7   1  -4 19455.8 749.013   0
  -7  -1  -4 18642.7 729.136   0
  -7   1  -5 793.204 463.862   0
  -7  -1  -5 860.463 413.177   0
  -7   1  -5 1104.16 395.071   2
  -7  -1  -6 2148.11 466.930   0
  -7   1  -6 2757.79 492.061   2
  -7   1  -6 2220.28 525.846   0
  -7   1  -7 217.375 468.567   0
  -7   1  -7-10.7255 435.440   2
  -7  -1  -7 48.6098 441.009   0
   7   2  -8 1217.31 550.360   2
   7  -2  -8 1396.42 510.677   2
   7   2  -7 2990.90 516.690   2
  -7   2   7 3108.95 511.108   1
  -7   2   6 676.980 419.329   1
  -7  -2   6 748.630 353.246   1
   7   2  -6 372.509 395.681   2
  -7   2   5 2310.60 454.333   1
  -7  -2   5 2333.93 394.234   1
  -7   2   4 958.488 400.194   1
  -7   2   3 2214.95 382.251   1
  -7  -2   3 2585.43 202.275   0
  -7  -2   2 148.345 199.194   0
  -7   2   2 120.261 316.807   1
  -7   2   1 732.563 305.334   1
  -7  -2   1 565.600 226.192   0
   7  -2   0 17975.2 267.591   3
  -7  -2   0 18089.3 555.054   0
  -7   2   0 18856.7 533.367   1
   7   2   0 18275.7 551.806   3
  -7  -2  -1 1147.86 341.124   0
  -7   2  -1 987.515 241.177   1
   7   2   1 1813.06 319.741   3
  -7  -2  -2 218.381 346.426   0
  -7   2  -2 199.965 201.058   1
   7   2   2 335.312 262.249   3
  -7   2  -3 102.877 419.744   0
  -7   2  -3 307.552 173.853   1
  -7  -2  -3 185.339 408.351   0
   7   2   3 122.591 279.607   3
  -7   2  -4 15863.3 718.621   0
   7   2   4 15142.3 591.088   3
  -7  -2  -4 13731.8 698.778   0
  -7   2  -5 965.644 448.517   2
  -7  -2  -5 702.581 433.235   0
  -7   2  -5 1155.37 440.370   0
  -7   2  -6 183.025 395.864   2
  -7  -2  -6 525.237 438.557   0
  -7   2  -7 145.308 481.292   2
  -7  -2  -7 242.242 516.159   0
   7   3  -7 7051.42 729.366   2
  -7  -3   6 79.8474 337.632   1
   7   3  -6 229.607 486.008   2
  -7   3   6 46.5259 469.407   1
  -7   3   5 228.230 422.351   1
  -7  -3   5 309.169 349.103   1
   7   3  -5 276.405 378.967   2
  -7   3   4 460.273 408.245   1
   7   3  -4 53.8191 409.391   2
  -7   3   3 136.308 380.587   1
  -7   3   2 432.327 340.479   1
  -7   3   1 5378.82 409.462   1
   7   3   0 31648.5 771.545   3
   7  -3   0 30374.5 357.295   3
  -7   3   0 31731.4 677.686   1
  -7   3  -1 1335.47 259.647   1
   7   3   1 1050.52 376.946   3
   7   3   2 6229.80 462.400   3
  -7   3  -2 6420.98 302.404   1
   7   3   3 3018.51 389.263   3
  -7  -3  -3 2968.28 489.930   0
   7   3   4 7067.35 486.286   3
  -7  -3  -4 7130.79 622.206   0
  -7  -3  -5 9729.76 691.132   0
   7   3   5 10344.7 602.820   3
  -7   3  -5 10810.4 711.388   2
  -7   3  -6 380.931 494.877   2
  -7  -3  -6 169.256 508.809   0
  -7   3  -7 3495.88 562.548   2
  -7  -3  -7 3313.40 614.721   0
   7   4  -7 469.122 566.305   2
   7   4  -6 399.996 440.693   2
   7   4  -5 1134.99 461.318   2
   7   4  -4 21.0073 396.403   2
  -7   4   4 16.8249 444.526   1
   7   4  -3 2779.21 391.372   2
  -7   4   3 2831.35 489.717   1
   7   4  -2 3815.02 377.635   2
  -7   4   2 3681.14 472.732   1
  -7   4   1 48539.7 989.473   1
   7   4  -1 46166.6 1010.23   3
   7   4   0 11582.6 600.503   3
  -7   4   0 11897.2 529.359   1
   7   4   1 709.128 380.166   3
   7   4   2 2209.84 385.760   3
   7   4   3 525.702 387.784   3
   7   4   4 972.318 353.465   3
  -7  -4  -5 292.217 484.902   0
   7   4   5 583.270 414.948   3
  -7  -4  -6-12.0961 515.586   0
  -7   4  -6 379.979 434.277   2
   7   5  -6 143.422 448.497   2
   7   5  -5 144.388 419.228   2
   7   5  -4 2689.74 464.361   2
   7   5  -3 7544.40 508.476   2
   7   5  -2 9848.01 489.361   2
   7   5  -2 9473.01 622.848   3
   7   5  -1 25572.8 624.927   2
   7   5  -1 24733.8 822.129   3
   7   5   0 903.989 371.124   3
   7   5   1 431.798 421.161   3
   7   5   2 1864.48 481.960   3
   7   5   3 974.291 386.950   3
   7   5   4 254.491 373.627   3
   7   5   5 922.636 421.654   3
   7   6  -5 445.670 423.734   2
   7   6  -4 506.809 385.648   2
   7   6  -3 132.242 314.505   2
   7   6  -3-9.50472 368.567   3
   7   6  -2 1573.41 462.484   3
   7   6  -1 1499.67 435.337   3
   7   6   0 863.076 446.704   3
   7   6   1 164.702 437.107   3
   7   6   2 70.2659 469.016   3
   7   6   3 930.786 426.210   3
   7   6   4-134.975 482.254   3
   7   7  -3 5789.27 621.033   3
   7   7  -2 5053.22 598.336   3
   7   7  -1 2600.84 512.755   3
   7   7   0 1520.21 506.432   3
   7   7   1 226.546 364.309   3
   7   7   2 573.048 460.296   3
   7   7   3-187.593 523.096   3
  -8   0   8 301.451 411.993   1
   8   0  -8 314.721 518.932   2
  -8   0   7 426.564 398.268   1
  -8   0   6 34758.7 944.179   1
  -8   0   5 20999.1 764.029   1
  -8   0   4 1809.93 416.409   1
  -8   0   3 1498.47 383.149   1
  -8   0   2 4483.62 287.640   0
  -8   0   2 4581.94 405.867   1
  -8   0   1 7279.04 372.407   0
  -8   0   0 10984.3 468.653   0
   8   0   1 5081.25 239.088   3
  -8   0  -1 4697.40 415.933   0
  -8   0  -2 1677.27 382.846   0
   8   0   2 1553.07 189.905   3
   8   0   3 96524.2 945.391   3
  -8   0  -3 94873.9 1418.34   0
  -8   0  -4 165277. 1939.55   0
  -8   0  -5 173.418 451.464   0
  -8   0  -6 9608.66 679.949   0
  -8   0  -7 2687.13 562.976   0
  -8   1   8 416.648 472.503   1
   8   1  -8 284.998 520.197   2
   8  -1  -8 986.954 479.840   2
  -8   1   7 141.452 406.180   1
  -8  -1   7 501.255 400.850   1
   8   1  -7 448.872 505.800   2
  -8   1   6 1746.44 428.462   1
  -8  -1   6 1754.82 427.654   1
  -8   1   5 21048.7 764.976   1
  -8  -1   5 22174.3 746.012   1
  -8   1   4 120.913 379.387   1
  -8  -1   4 528.742 363.523   1
  -8  -1   3 9239.24 275.866   0
  -8   1   3 8602.01 561.277   1
  -8   1   2 19967.6 661.949   1
  -8  -1   2 21405.2 463.706   0
  -8   1   1 67.6735 306.368   1
  -8  -1   1 105.027 211.419   0
  -8   1   0 19399.0 592.826   0
   8   1   0 19378.4 515.613   3
  -8  -1   0 20162.9 575.589   0
  -8   1   0 19697.7 551.481   1
  -8   1  -1 30290.0 762.328   0
   8  -1   1 31089.8 350.967   3
   8   1   1 31678.4 606.616   3
  -8  -1  -1 29797.8 748.411   0
  -8   1  -2 585.611 390.711   0
  -8  -1  -2 659.182 360.994   0
   8   1   2 553.846 220.207   3
  -8   1  -3 45805.7 1038.09   0
   8   1   3 48228.6 810.949   3
  -8  -1  -3 46132.2 1039.19   0
  -8   1  -4 1727.23 489.235   0
  -8  -1  -4 2185.21 487.379   0
  -8  -1  -5 943.203 446.621   0
  -8   1  -5 656.110 448.030   0
  -8  -1  -6 1577.30 502.780   0
  -8   1  -6 1743.55 511.599   0
  -8   1  -7 1907.49 574.057   0
  -8  -1  -7 1438.75 566.037   0
  -8   2   7 3555.96 557.230   1
   8   2  -7 4885.87 679.345   2
   8   2  -6 8058.00 687.411   2
  -8   2   6 7271.58 608.241   1
  -8  -2   6 8497.58 576.747   1
  -8   2   5 2143.91 453.678   1
  -8  -2   5 2235.12 415.041   1
  -8   2   4 3461.31 462.552   1
  -8   2   3 1288.92 403.563   1
  -8  -2   3 995.629 195.844   0
  -8  -2   2 15883.2 457.770   0
  -8   2   2 14559.4 604.097   1
  -8   2   1 1438.42 355.327   1
  -8  -2   1 1257.19 281.448   0
   8   2   0 22990.8 617.666   3
  -8  -2   0 24751.5 667.031   0
  -8   2   0 25687.7 652.797   1
  -8  -2  -1 569.253 355.939   0
  -8   2  -1 583.702 262.729   1
   8   2   1 594.190 280.612   3
  -8  -2  -2 258.482 370.310   0
  -8   2  -2 448.098 227.086   1
   8   2   2 403.347 285.962   3
  -8  -2  -3 2128.72 463.725   0
   8   2   3 2125.79 334.013   3
  -8   2  -3 2368.70 489.469   0
  -8   2  -3 2673.59 242.479   1
  -8   2  -4 9742.08 640.368   0
   8   2   4 9813.24 511.003   3
  -8  -2  -4 9110.90 636.768   0
  -8   2  -5 4918.43 572.064   0
  -8  -2  -5 5312.66 582.479   0
  -8   2  -6 706.480 466.549   0
  -8  -2  -6 362.778 455.430   0
  -8  -2  -7 280.072 507.862   0
   8   3  -7 904.119 526.935   2
   8   3  -6 2897.03 563.954   2
  -8  -3   6 3864.89 468.739   1
  -8   3   6 3553.52 557.681   1
  -8   3   5 994.839 459.611   1
  -8  -3   5 1021.47 359.473   1
   8   3  -5 992.418 469.394   2
  -8   3   4 2906.73 486.710   1
  -8   3   3 1782.43 423.979   1
  -8   3   2-100.287 361.511   1
  -8   3   1-36.7125 315.207   1
   8   3   0 9287.89 530.896   3
  -8   3   0 8391.28 444.630   1
   8   3   1 3517.30 390.737   3
  -8   3  -1 3212.71 317.055   1
   8   3   2 13283.9 580.463   3
  -8  -3  -2 13206.0 669.408   0
  -8   3  -2 14747.4 432.117   1
   8   3   3 3310.36 396.006   3
  -8  -3  -3 3413.03 509.884   0
  -8  -3  -4 242.413 463.890   0
   8   3   4 781.507 329.994   3
   8   3   5 7342.79 549.508   3
  -8  -3  -5 7208.01 680.030   0
  -8  -3  -6-57.4965 519.138   0
   8   4  -6 40.4657 500.719   2
   8   4  -5 1062.03 430.997   2
   8   4  -4 150.980 375.160   2
  -8   4   4-152.056 444.784   1
  -8   4   3 2329.17 481.909   1
   8   4  -3 2865.20 418.373   2
  -8   4   2 5387.15 517.958   1
  -8   4   1 69883.5 1191.84   1
   8   4  -1 69788.0 1234.57   3
   8   4   0 35128.4 929.509   3
  -8   4   0 36998.6 831.740   1
  -8   4  -1 710.364 297.894   1
   8   4   1 899.452 433.192   3
   8   4   2 5069.39 502.793   3
   8   4   3 463.375 339.502   3
  -8  -4  -4-14.7225 465.265   0
   8   4   4 19.4620 331.970   3
  -8  -4  -5 470.262 487.052   0
   8   4   5 355.440 416.765   3
  -8  -4  -6-83.8088 562.029   0
   8   5  -6-110.930 445.732   2
   8   5  -5 157.327 395.050   2
   8   5  -4 348.921 397.165   2
   8   5  -3 4655.46 468.161   2
   8   5  -2 2825.57 357.473   2
   8   5  -2 2534.02 431.305   3
   8   5  -1 158.991 247.560   2
   8   5  -1 82.8755 342.036   3
   8   5   0-80.8921 370.756   3
   8   5   1 858.456 433.288   3
   8   5   2-10.2312 395.279   3
   8   5   3-185.384 420.574   3
   8   5   4-155.084 438.707   3
  -8  -5  -5-166.798 537.265   0
   8   5   5 231.397 386.605   3
   8   6  -5-142.752 442.238   2
   8   6  -4 2928.50 473.260   2
   8   6  -3 622.927 446.317   3
   8   6  -2 45.1991 410.073   3
   8   6  -1 4495.12 520.553   3
   8   6   0 89.5977 370.557   3
   8   6   1 165.134 447.326   3
   8   6   2 931.076 469.327   3
   8   6   3 156.656 465.539   3
   8   6   4 318.928 471.490   3
   8   7  -3 1794.22 537.588   3
   8   7  -2 3752.55 588.724   3
   8   7  -1 3883.82 526.561   3
   8   7   0 862.032 425.286   3
   8   7   1-148.984 484.480   3
   8   7   2 741.691 496.898   3
  -9   0   7 227.182 409.795   1
  -9   0   6-94.8652 406.739   1
  -9   0   5 48.7224 412.096   1
  -9   0   4-33.4960 414.498   1
  -9   0   3-62.0837 396.701   1
  -9   0   2 85.5801 245.577   0
  -9   0   2-37.5423 351.378   1
  -9   0   1 97.1843 290.945   0
  -9   0   0-116.256 308.473   0
  -9   0  -1-73.9504 362.856   0
   9   0   1 65.9641 173.821   3
  -9   0  -2-19.3240 403.532   0
   9   0   2 27.3396 168.296   3
  -9   0  -3 68.0281 443.291   0
   9   0   3 9.22160 172.158   3
  -9   0  -4-68.5989 455.645   0
  -9   0  -5-41.1229 487.483   0
  -9   0  -6 33.2189 482.936   0
  -9   0  -7 402.606 518.927   0
  -9   1   7 232.091 430.962   1
  -9  -1   7 839.483 434.794   1
   9   1  -7 515.068 470.134   2
  -9   1   6-189.612 401.775   1
  -9  -1   6-9.11298 418.988   1
  -9   1   5 4585.34 507.679   1
  -9  -1   5 4419.42 489.729   1
  -9   1   4 9911.09 625.890   1
  -9  -1   4 10432.8 596.937   1
  -9  -1   3 8203.14 306.976   0
  -9   1   3 7364.95 553.511   1
  -9   1   2 17681.2 675.087   1
  -9  -1   2 19297.7 492.580   0
  -9  -1   1 8698.94 416.570   0
  -9   1   1 7964.67 492.030   1
  -9   1   0 386.244 332.080   0
  -9   1   0 167.756 306.475   1
  -9  -1   0 170.449 320.844   0
   9   1   0 373.316 261.256   3
   9  -1   1 1028.91 119.112   3
  -9   1  -1 1264.79 396.799   0
  -9  -1  -1 1079.29 370.368   0
   9   1   1 1679.78 267.540   3
  -9   1  -2 308.611 417.174   0
   9   1   2 143.404 216.472   3
  -9  -1  -2 287.246 384.690   0
  -9   1  -3 36546.6 994.415   0
   9   1   3 38008.4 747.767   3
  -9  -1  -3 36329.5 980.244   0
  -9   1  -4 6559.65 617.334   0
   9   1   4 7609.93 414.285   3
  -9  -1  -4 7613.84 615.668   0
  -9  -1  -5 909.794 455.564   0
  -9   1  -5 611.461 502.475   0
  -9  -1  -6 3483.87 560.894   0
  -9   1  -6 3216.20 600.662   0
  -9   1  -7 4783.11 650.047   0
  -9  -1  -7 4027.01 689.333   0
  -9   2   7 354.203 513.694   1
  -9  -2   7-50.3201 454.682   1
   9   2  -7 302.762 543.544   2
   9   2  -6 15438.6 838.400   2
  -9   2   6 15288.9 781.215   1
  -9  -2   6 16476.7 741.619   1
  -9   2   5 269.025 420.351   1
  -9  -2   5 905.433 386.119   1
  -9   2   4-69.2567 400.523   1
  -9   2   3 5978.49 529.609   1
  -9  -2   3 5452.16 302.003   0
  -9  -2   2 22239.4 560.589   0
  -9   2   2 21104.9 729.547   1
  -9  -2   1 3934.20 373.175   0
  -9   2   1 3872.12 437.446   1
  -9   2   0 1419.44 335.180   1
  -9  -2   0 1184.17 343.731   0
   9   2   0 1265.61 308.142   3
   9   2   1 9805.14 481.237   3
  -9  -2  -1 9191.55 543.532   0
  -9   2  -1 9787.71 452.353   1
  -9   2  -2 1529.70 283.610   1
  -9   2  -2 1365.30 459.442   0
  -9  -2  -2 1038.63 424.318   0
   9   2   2 989.960 288.457   3
  -9   2  -3 262.504 225.815   1
  -9  -2  -3 137.765 447.470   0
  -9   2  -3 107.939 456.858   0
   9   2   3 37.2500 277.910   3
  -9   2  -4 968.882 463.119   0
  -9  -2  -4 797.958 482.150   0
   9   2   4 748.671 306.542   3
  -9   2  -5 6309.87 624.200   0
  -9  -2  -5 7488.94 673.166   0
  -9  -2  -6 903.747 510.884   0
  -9   2  -6 902.591 504.566   0
   9   3  -7 5139.65 644.467   2
  -9   3   7 6244.15 672.044   1
   9   3  -6 11006.1 797.385   2
  -9   3   6 10959.2 739.405   1
  -9  -3   6 10813.0 631.815   1
  -9   3   5 167.712 442.076   1
  -9  -3   5 42.1941 369.613   1
   9   3  -5 108.939 392.574   2
  -9   3   4 147.761 410.659   1
  -9   3   3 158.469 398.105   1
  -9  -3   3 172.148 227.898   0
  -9  -3   2 3371.83 352.169   0
  -9   3   2 3329.93 446.666   1
  -9   3   1 485.614 361.444   1
  -9  -3   1 564.355 348.249   0
   9   3  -1 791.758 358.630   3
  -9  -3   0 2753.82 414.579   0
  -9   3   0 2895.70 359.243   1
   9   3   0 2391.46 378.478   3
  -9  -3  -1 3822.81 467.123   0
   9   3   1 4379.94 426.306   3
  -9   3  -1 3830.17 352.351   1
   9   3   2 7343.47 503.760   3
  -9  -3  -2 6742.96 575.120   0
  -9   3  -2 7306.83 369.987   1
   9   3   3 7842.82 508.699   3
  -9  -3  -3 7482.32 610.980   0
  -9  -3  -4 2385.13 504.010   0
   9   3   4 1683.08 389.969   3
  -9  -3  -5 1808.63 531.886   0
   9   3   5 1439.78 395.128   3
  -9  -3  -6 277.926 518.301   0
   9   4  -6 463.155 504.694   2
   9   4  -5 233.822 441.887   2
  -9   4   5 231.985 481.103   1
  -9   4   4 1909.03 512.422   1
   9   4  -4 1644.97 448.941   2
  -9   4   3 344.021 442.714   1
  -9   4   2 3685.03 491.355   1
   9   4  -1 5446.17 528.524   3
  -9   4   1 5033.63 485.460   1
   9   4   0 12243.3 614.204   3
  -9   4   0 13527.6 576.837   1
  -9   4  -1 140.345 300.910   1
   9   4   1-47.2281 416.763   3
   9   4   2 2874.28 414.272   3
  -9  -4  -3 1253.25 496.027   0
   9   4   3 915.823 429.597   3
  -9  -4  -4 14.3310 518.954   0
   9   4   4 368.265 394.585   3
  -9  -4  -5 612.426 534.547   0
   9   4   5 180.826 369.956   3
   9   5  -5-180.554 440.672   2
   9   5  -4-26.6378 374.233   2
   9   5  -3 211.654 353.284   2
   9   5  -2 100.479 286.673   2
   9   5  -2 183.330 434.226   3
   9   5  -1 23465.9 874.222   3
   9   5   0 11384.9 645.007   3
   9   5   1 4026.67 496.206   3
   9   5   2 7245.27 621.829   3
   9   5   3 1970.27 481.599   3
  -9  -5  -4 30.0545 528.040   0
   9   5   4-56.2501 389.601   3
  -9  -5  -5-77.8276 557.875   0
   9   5   5-28.1740 462.702   3
   9   6  -4 142.244 386.166   2
   9   6  -4 509.045 459.002   3
   9   6  -3 1074.11 474.490   3
   9   6  -2-64.8812 394.939   3
   9   6  -1 650.060 458.246   3
   9   6   0-144.685 381.346   3
   9   6   1 104.831 408.351   3
   9   6   2 2153.97 543.061   3
   9   6   3 657.477 448.562   3
   9   7  -2 5842.50 681.860   3
   9   7  -1 2049.82 475.733   3
   9   7   0 618.095 391.269   3
   9   7   1 56.1459 490.087   3
 -10   0   7-95.6590 443.906   1
 -10   0   6 1238.53 459.568   1
 -10   0   5 42488.6 1112.49   1
 -10   0   4 383.771 426.856   1
 -10   0   3 21965.3 773.512   1
 -10   0   2 23439.0 602.368   0
 -10   0   2 24334.9 765.879   1
 -10   0   1 2364.70 343.891   0
  10   0   0 2825.38 256.150   3
 -10   0   0 2098.84 377.356   0
  10   0   1 3510.93 245.371   3
 -10   0  -1 3128.01 457.438   0
  10   0   2 2113.53 219.391   3
 -10   0  -2 1419.15 436.323   0
 -10   0  -3 1002.76 478.596   0
  10   0   3 1133.15 199.422   3
 -10   0  -4 21896.3 890.308   0
 -10   0  -5 3698.24 590.790   0
 -10   0  -6 27325.9 1060.58   0
 -10   1   7 1.03037 445.440   1
 -10  -1   7 195.832 432.445   1
 -10   1   6 620.061 456.984   1
 -10  -1   6 628.203 446.796   1
 -10   1   5 1767.58 466.051   1
 -10  -1   5 1930.85 469.816   1
 -10   1   4 3768.72 531.074   1
 -10  -1   4 4154.02 491.832   1
 -10  -1   3 32261.3 581.421   0
 -10   1   3 31818.9 930.018   1
 -10   1   2 71610.4 1228.85   1
 -10  -1   2 72114.4 948.574   0
 -10  -1   1 15159.6 535.097   0
 -10   1   1 14383.4 611.922   1
 -10  -1   0 1415.72 362.226   0
 -10   1   0 1284.21 359.791   1
 -10   1   0 988.745 392.121   0
  10   1   0 1292.36 294.803   3
  10  -1   1 98.1797 113.921   3
  10   1   1 85.2519 247.738   3
 -10   1  -1 184.278 403.506   0
 -10  -1  -1 64.9604 356.969   0
  10   1   2 149.621 221.127   3
 -10   1  -2 353.624 448.160   0
 -10  -1  -2 217.008 403.240   0
 -10   1  -3 6313.81 596.716   0
  10   1   3 5944.80 364.538   3
 -10  -1  -3 6141.74 571.767   0
 -10   1  -4 11901.7 738.751   0
  10   1   4 11516.7 479.754   3
 -10  -1  -4 11747.7 694.548   0
 -10  -1  -5 239.177 466.418   0
 -10   1  -5 397.806 522.740   0
 -10  -1  -6 503.476 550.011   0
 -10   1  -6-90.9039 545.237   0
 -10   2   7 49.7446 492.754   1
 -10  -2   7-66.5614 432.514   1
  10   2  -7-239.896 571.027   2
 -10   2   6 8080.28 646.420   1
 -10  -2   6 7945.86 625.732   1
 -10   2   5 4216.87 542.466   1
 -10  -2   5 4931.15 516.385   1
 -10   2   4 1567.67 459.492   1
 -10   2   3 12492.3 655.133   1
 -10  -2   3 12331.0 406.106   0
 -10  -2   2 5560.68 378.126   0
 -10   2   2 4984.72 532.631   1
 -10  -2   1 14613.0 560.656   0
 -10   2   1 13832.7 642.463   1
  10   2   0 6778.07 432.756   3
 -10  -2   0 6870.82 495.067   0
 -10   2   0 6700.15 472.624   1
 -10   2  -1 2088.76 348.426   1
 -10  -2  -1 1961.11 430.697   0
  10   2   1 2139.13 340.430   3
 -10   2  -2 5252.92 552.360   0
  10   2   2 4813.02 386.093   3
 -10  -2  -2 4810.08 520.619   0
 -10   2  -2 4908.84 373.754   1
 -10  -2  -3 312.419 445.163   0
  10   2   3 82.5593 286.656   3
 -10   2  -3 394.627 460.073   0
 -10   2  -4 390.298 519.042   0
  10   2   4 471.624 309.207   3
 -10  -2  -4 513.939 461.877   0
 -10  -2  -5 783.548 505.661   0
 -10   2  -5 240.270 477.377   0
 -10  -2  -6 307.289 518.641   0
  10   3  -6 9863.77 784.506   2
 -10   3   6 10244.7 756.572   1
 -10  -3   6 9934.62 670.064   1
 -10   3   5 2397.87 523.847   1
 -10  -3   5 3438.52 491.944   1
 -10   3   4 1213.13 468.946   1
 -10   3   3 2770.02 476.779   1
 -10  -3   2 8607.10 463.034   0
 -10   3   2 7646.90 547.241   1
 -10   3   1 124.660 353.967   1
 -10  -3   1-18.8907 339.797   0
  10   3  -1 102.935 328.369   3
 -10   3   0 315.111 319.694   1
 -10  -3   0 144.043 382.935   0
  10   3   0 74.7698 344.591   3
 -10   3  -1 124.967 293.013   1
 -10  -3  -1-187.687 394.356   0
  10   3   1 88.7297 363.896   3
 -10  -3  -2 2400.38 487.278   0
 -10   3  -2 2437.55 301.180   1
  10   3   2 2409.57 394.559   3
  10   3   3 10889.7 572.622   3
 -10  -3  -3 11327.8 723.257   0
 -10  -3  -4-2.41903 493.565   0
  10   3   4 235.043 315.461   3
 -10  -3  -5 188.858 504.339   0
  10   3   5 257.123 346.936   3
 -10  -3  -6 63.7305 580.091   0
  10   4  -6 198.962 528.705   2
 -10   4   6-23.2518 559.445   1
 -10   4   5-99.5505 539.390   1
  10   4  -5 80.7266 455.983   2
 -10   4   4-7.04515 474.256   1
  10   4  -4 510.360 423.993   2
 -10   4   3-130.645 444.627   1
 -10   4   2 420.026 398.687   1
  10   4  -1 14963.1 683.274   3
 -10   4   1 14136.6 656.224   1
  10   4   0 10797.8 638.823   3
 -10   4   0 9937.17 539.963   1
  10   4   1 3947.55 493.014   3
 -10  -4  -1 3737.89 518.947   0
 -10   4  -1 3690.77 381.787   1
  10   4   2 21913.0 804.767   3
 -10  -4  -2 22189.3 903.564   0
  10   4   3 8234.77 587.838   3
 -10  -4  -3 6856.55 680.374   0
 -10  -4  -4-2.07729 532.089   0
  10   4   4-46.5759 354.651   3
 -10  -4  -5 231.209 549.344   0
  10   4   5-88.8859 412.860   3
  10   5  -5 174.801 459.624   2
  10   5  -4 151.300 410.773   2
  10   5  -3 530.326 356.960   2
 -10   5   3 400.373 489.341   1
  10   5  -2 303.134 324.132   2
  10   5  -2 679.364 457.215   3
 -10   5   2 544.532 443.571   1
  10   5  -1 151.818 351.389   3
 -10   5   1 305.746 410.878   1
 -10   5   0 1260.35 416.124   1
  10   5   0 1171.49 455.514   3
  10   5   1 594.478 430.358   3
  10   5   2 11104.0 708.941   3
 -10  -5  -3 3008.13 624.903   0
  10   5   3 2457.93 531.229   3
 -10  -5  -4 323.426 563.157   0
  10   5   4 90.8699 447.118   3
  10   6  -3-199.596 482.950   3
  10   6  -2-136.071 467.371   3
  10   6  -1-59.0512 470.495   3
  10   6   0 1447.91 474.863   3
  10   6   1 927.176 442.114   3
  10   6   2 204.573 481.436   3
  10   6   3 1442.80 535.701   3
 -11   0   7 69.2128 492.873   1
 -11   0   6-103.790 455.129   1
 -11   0   5 319.836 465.334   1
 -11   0   4-45.6714 444.551   1
 -11   0   3 15.3199 434.162   1
 -11   0   2 132.384 410.113   1
 -11   0   2 99.8986 299.099   0
 -11   0   1 9.61265 340.792   0
 -11   0   0-26.8794 363.122   0
  11   0   0 84.8813 215.806   3
 -11   0  -1 125.677 404.533   0
  11   0   1-24.6590 195.231   3
 -11   0  -2 206.760 439.881   0
  11   0   2-31.1100 173.873   3
 -11   0  -3-71.5074 471.385   0
 -11   0  -4-92.2099 486.880   0
 -11   0  -5 100.343 524.660   0
 -11   0  -6 111.153 580.165   0
 -11   1   7 202.016 488.799   1
 -11  -1   7 954.000 448.785   1
 -11   1   6 627.516 500.732   1
 -11  -1   6 814.088 511.251   1
 -11  -1   5 57.9265 432.985   1
 -11   1   4 1092.30 490.717   1
 -11  -1   4 1735.77 469.102   1
 -11   1   3 400.484 452.465   1
 -11   1   2 26894.6 862.977   1
 -11  -1   2 27081.0 665.402   0
 -11   1   1 6806.14 527.005   1
 -11  -1   1 6839.49 451.464   0
 -11  -1   0 1616.44 391.588   0
 -11   1   0 1626.66 379.995   1
  11  -1   0 1579.29 200.818   3
 -11   1   0 1497.35 406.053   0
  11   1   0 1111.34 289.115   3
 -11   1  -1 12382.2 655.168   0
  11   1   1 13405.2 492.175   3
 -11  -1  -1 13465.6 647.955   0
 -11  -1  -2 1132.93 426.750   0
 -11   1  -2 968.779 461.813   0
  11   1   2 1085.94 248.165   3
 -11  -1  -3 165.832 462.691   0
 -11   1  -3 130.391 463.396   0
  11   1   3 199.066 238.884   3
 -11  -1  -4 3676.02 549.024   0
 -11   1  -4 3725.08 585.311   0
 -11  -1  -5 603.506 507.658   0
 -11   1  -5 642.016 526.314   0
 -11   1  -6 1689.88 595.916   0
 -11  -1  -6 1091.74 627.460   0
 -11   2   6 1333.28 540.280   1
 -11  -2   6 1122.72 479.379   1
 -11   2   5 5805.55 604.033   1
 -11  -2   5 6412.65 584.343   1
 -11   2   4 4444.87 557.628   1
 -11   2   3 7508.11 602.613   1
 -11   2   2 13258.7 689.488   1
 -11  -2   2 12085.7 501.029   0
 -11  -2   1 8028.14 492.512   0
 -11   2   1 8282.65 572.097   1
 -11   2   0 231.035 351.869   1
 -11  -2   0 255.236 382.599   0
  11   2   0 300.798 329.826   3
  11   2   1 3026.93 376.000   3
 -11  -2  -1 3234.98 467.932   0
 -11   2  -1 3004.10 392.774   1
  11   2   2 6975.66 442.933   3
 -11  -2  -2 7154.81 611.390   0
 -11   2  -2 7209.39 435.486   1
 -11   2  -3 106.859 484.525   0
  11   2   3 118.949 272.434   3
 -11  -2  -3 219.798 454.274   0
 -11   2  -4 85.4429 499.395   0
  11   2   4-62.2145 295.693   3
 -11  -2  -4 51.4059 488.135   0
 -11   2  -5 9.24799 556.326   0
 -11  -2  -5-228.855 493.507   0
 -11  -2  -6 270.198 546.271   0
  11   3  -6 4136.93 596.587   2
 -11   3   6 4772.24 649.347   1
 -11  -3   6 4123.29 577.998   1
 -11   3   5 3710.35 588.768   1
 -11  -3   5 3637.89 533.383   1
 -11   3   4 1702.15 496.878   1
 -11   3   3 1562.64 467.352   1
 -11   3   2 2275.72 446.580   1
 -11  -3   2 2275.40 361.677   0
  11   3  -1 4808.94 497.203   3
 -11  -3   1 4772.82 457.200   0
 -11   3   1 4463.03 486.778   1
 -11   3   0 14.2331 328.237   1
 -11  -3   0 34.9864 378.704   0
  11   3   0 104.615 338.138   3
 -11   3  -1 83.8308 304.582   1
 -11  -3  -1-197.242 416.102   0
  11   3   1-6.42557 320.662   3
 -11   3  -2 319.894 276.842   1
 -11  -3  -2 291.518 459.571   0
  11   3   2 219.182 350.849   3
 -11  -3  -3 1753.05 512.718   0
  11   3   3 1874.77 372.995   3
 -11  -3  -4 632.182 543.963   0
  11   3   4 170.925 320.109   3
  11   3   5 194.489 347.659   3
 -11  -3  -5 365.572 569.277   0
 -11   4   5 121.660 521.725   1
  11   4  -5-16.5172 468.571   2
 -11   4   4 416.810 486.784   1
 -11   4   3 178.635 444.920   1
 -11   4   2 305.672 401.631   1
 -11  -4   2 347.455 334.998   0
  11   4  -2 217.261 356.044   3
  11   4  -1 9323.42 598.762   3
 -11  -4   1 10045.3 603.166   0
 -11   4   1 9531.89 576.208   1
  11   4   0 7772.22 589.688   3
 -11  -4   0 7467.04 576.281   0
 -11   4   0 6588.12 497.227   1
  11   4   1 7522.80 555.649   3
 -11  -4  -1 7489.41 620.909   0
 -11   4  -1 7468.23 475.048   1
 -11  -4  -2 1903.20 528.857   0
  11   4   2 1840.18 430.974   3
 -11  -4  -3-101.622 495.377   0
  11   4   3-180.581 398.069   3
 -11  -4  -4 62.0069 550.808   0
  11   4   4-53.5279 356.420   3
  11   5  -4 123.187 380.972   2
 -11   5   4 95.4339 540.220   1
  11   5  -3 87.7531 366.161   2
  11   5  -3 740.129 474.449   3
 -11   5   3 233.282 472.060   1
  11   5  -2 296.618 423.509   3
 -11   5   2 56.1935 408.813   1
  11   5  -1 1426.93 461.326   3
 -11   5   1 1528.84 429.169   1
  11   5   0 807.739 409.121   3
 -11   5   0 959.403 407.038   1
 -11  -5  -1 868.879 523.352   0
  11   5   1 419.955 461.396   3
  11   5   2 16708.9 841.534   3
 -11  -5  -2 17042.1 940.264   0
  11   5   3 6818.16 660.961   3
 -11  -5  -3 7696.81 748.912   0
  11   6  -2-32.6519 481.418   3
  11   6  -1 138.572 421.648   3
  11   6   0-77.4294 497.446   3
  11   6   1 0.29731 482.899   3
  11   6   2-84.4167 497.364   3
 -12   0   6 891.917 512.363   1
 -12   0   5 112.276 480.802   1
 -12   0   4 2446.88 528.378   1
 -12   0   3 14338.5 724.527   1
 -12   0   2 24030.5 682.416   0
 -12   0   2 23386.2 827.065   1
 -12   0   1 3171.00 410.626   0
 -12   0   0 134.702 401.826   0
  12   0   0 53.8525 219.215   3
  12   0   1 1800.09 225.957   3
 -12   0  -1 1403.66 440.951   0
 -12   0  -2 636.882 459.578   0
 -12   0  -3-26.7178 478.751   0
 -12   0  -4 6762.43 705.977   0
 -12   0  -5 890.759 555.604   0
 -12   1   6 215.134 497.661   1
 -12  -1   6 198.011 503.673   1
 -12   1   5 115.104 490.876   1
 -12  -1   5 347.533 461.794   1
 -12   1   4 253.528 484.018   1
 -12  -1   4 46.5623 442.419   1
 -12   1   3 161.691 465.830   1
 -12  -1   3 643.977 437.325   1
 -12  -1   2 28034.5 711.984   0
 -12   1   2 28292.7 914.273   1
 -12   1   1 6831.71 549.833   1
 -12  -1   1 6873.12 484.136   0
 -12   1   0 2672.67 445.647   0
 -12  -1   0 2430.43 438.639   0
 -12   1   0 2780.80 429.338   1
  12   1   0 2681.39 331.779   3
 -12   1  -1 5840.85 549.421   0
  12   1   1 6234.12 382.247   3
 -12  -1  -1 6294.14 539.178   0
 -12   1  -2 1041.93 491.338   0
 -12  -1  -2 1216.42 440.896   0
  12   1   2 476.334 234.361   3
 -12  -1  -3 3239.72 535.131   0
 -12   1  -3 2569.69 548.466   0
 -12  -1  -4 3059.33 587.114   0
 -12   1  -4 2628.87 605.908   0
 -12   1  -5-189.604 557.419   0
 -12  -1  -5 160.364 539.328   0
 -12   2   6 640.572 555.398   1
 -12  -2   6 130.157 466.365   1
 -12   2   5 1552.23 527.744   1
 -12  -2   5 2676.37 516.183   1
 -12   2   4-75.3004 462.931   1
 -12   2   3 8838.89 659.139   1
 -12   2   2 5694.88 571.534   1
 -12  -2   2 5822.30 415.063   0
 -12   2   1 2262.78 482.665   1
  12   2  -1 3034.70 420.551   3
 -12  -2   1 2790.30 392.516   0
 -12   2   0 993.304 391.047   1
 -12  -2   0 752.098 371.232   0
  12   2   0 793.270 316.696   3
  12   2   1 29520.3 790.174   3
 -12  -2  -1 30062.7 935.941   0
 -12   2  -1 29307.5 806.639   1
 -12   2  -2 2362.77 377.294   1
  12   2   2 2574.95 337.713   3
 -12  -2  -2 2296.19 528.137   0
 -12   2  -3-140.360 495.890   0
  12   2   3 252.530 294.000   3
 -12  -2  -3 88.4958 495.331   0
 -12   2  -4 414.808 564.258   0
 -12  -2  -4 269.498 501.256   0
 -12  -2  -5 538.277 577.422   0
 -12   2  -5 751.614 556.575   0
 -12   3   5 236.941 500.893   1
 -12  -3   5 87.2447 465.251   1
 -12   3   4 2845.90 576.676   1
 -12   3   3 4729.26 573.935   1
 -12   3   2 1007.91 437.130   1
 -12  -3   2 1192.76 343.360   0
 -12   3   1 2724.62 456.630   1
  12   3  -1 3339.24 424.097   3
 -12  -3   1 3555.28 440.053   0
 -12   3   0 796.964 363.672   1
 -12  -3   0 855.911 404.350   0
  12   3   0 747.462 344.998   3
 -12   3  -1 56.1157 337.038   1
 -12  -3  -1-19.9388 423.502   0
  12   3   1 33.7271 340.564   3
 -12  -3  -2-158.730 479.351   0
  12   3   2-12.6326 314.978   3
 -12  -3  -3-89.3343 498.976   0
  12   3   3-101.283 327.946   3
  12   3   4 72.6093 318.171   3
 -12  -3  -4 296.200 554.970   0
 -12  -3  -5 317.378 565.549   0
 -12   4   5 356.561 553.459   1
  12   4  -5 42.3054 418.879   2
 -12   4   4 1441.04 550.096   1
 -12   4   3 129.248 466.960   1
 -12   4   2 80.7000 412.253   1
  12   4  -2 259.867 430.444   3
 -12   4   1 598.885 402.982   1
 -12  -4   1 295.303 402.504   0
  12   4  -1 342.561 422.145   3
 -12   4   0 950.167 405.611   1
 -12  -4   0 1120.71 475.920   0
  12   4   0 388.593 401.035   3
 -12  -4  -1 2972.09 524.236   0
  12   4   1 3843.87 498.691   3
  12   4   2 8703.46 619.962   3
 -12  -4  -2 9474.85 733.860   0
 -12  -4  -3 2924.66 593.231   0
  12   4   3 3438.82 529.249   3
 -12  -4  -4 213.596 612.843   0
  12   4   4-9.89798 381.047   3
 -12   5   3 125.770 506.030   1
  12   5  -3 182.913 368.249   2
  12   5  -3-74.4909 408.526   3
 -12   5   2 151.285 465.189   1
  12   5  -2 52.5926 441.964   3
  12   5  -1 6051.84 622.353   3
 -12  -5   1 6316.24 592.126   0
 -12   5   1 5803.57 584.120   1
 -12   5   0 1101.42 406.956   1
 -12  -5   0 495.308 491.897   0
  12   5   0 1139.02 484.834   3
 -12  -5  -1 158.756 520.265   0
  12   5   1-34.1728 396.690   3
  12   5   2 5137.82 563.404   3
 -12  -5  -2 5352.11 669.746   0
  12   5   3 6587.38 634.832   3
 -12  -5  -3 6453.66 742.270   0
 -12  -6   0 30.1705 497.351   0
  12   6   0 116.631 424.179   3
 -13   0   6 273.260 520.983   1
 -13   0   5 111.116 509.335   1
 -13   0   4 131.419 488.659   1
 -13   0   3-58.5357 449.585   1
 -13   0   2 62.2711 336.750   0
 -13   0   2-141.192 437.628   1
 -13   0   1 22.0443 366.052   0
 -13   0   0 227.830 420.040   0
 -13   0  -1-88.5838 429.028   0
 -13   0  -2 124.529 473.411   0
 -13   0  -3 72.8646 516.269   0
 -13   0  -4 236.411 547.813   0
 -13   0  -5-134.307 601.411   0
 -13   1   6 201.853 521.726   1
 -13  -1   6 311.301 527.765   1
 -13   1   5 137.021 508.239   1
 -13  -1   5 15.9446 487.266   1
 -13   1   4 1035.77 543.825   1
 -13  -1   4 932.177 486.031   1
 -13   1   3 150.681 481.379   1
 -13  -1   3 577.342 459.771   1
 -13  -1   2 531.964 338.254   0
 -13   1   2 262.437 453.800   1
 -13   1   1 4014.69 513.223   1
 -13  -1   1 3819.42 450.717   0
 -13   1   0 1404.39 427.879   0
 -13   1   0 877.196 397.224   1
 -13  -1   0 1170.94 400.259   0
  13   1   0 974.418 290.663   3
 -13   1  -1 4990.02 563.792   0
  13   1   1 6146.81 393.863   3
 -13   1  -1 5735.44 481.371   1
 -13  -1  -1 5464.75 579.090   0
 -13   1  -2 4430.80 590.144   0
 -13  -1  -2 4310.26 585.174   0
 -13   1  -3 2487.42 597.354   0
 -13  -1  -3 2419.61 561.006   0
 -13   1  -4 5125.47 691.450   0
 -13  -1  -4 4512.34 648.652   0
 -13   1  -5-79.9284 594.982   0
 -13  -1  -5-61.8355 608.153   0
 -13   2   5 589.698 533.282   1
 -13  -2   5 485.949 495.256   1
 -13   2   4 6.61289 492.437   1
 -13  -2   4 153.302 460.048   1
 -13   2   3 6308.26 648.274   1
 -13   2   2 931.760 509.992   1
 -13  -2   2 794.358 348.889   0
 -13  -2   1 396.224 358.012   0
 -13   2   1 314.577 447.510   1
  13   2  -1 495.111 350.470   3
 -13  -2   0 253.785 378.260   0
 -13   2   0 50.9582 382.398   1
  13   2   0-56.0502 309.249   3
 -13   2  -1 1197.59 392.941   1
  13   2   1 1284.27 340.791   3
 -13  -2  -1 1042.74 464.835   0
  13   2   2 6442.08 444.346   3
 -13  -2  -2 5781.08 620.376   0
 -13   2  -2 5909.68 473.239   1
 -13  -2  -3 4808.97 608.386   0
 -13  -2  -4 11.7330 548.489   0
 -13   3   5 2379.18 613.230   1
 -13  -3   5 2519.18 558.270   1
 -13   3   4 815.668 511.634   1
 -13   3   3 1658.14 500.428   1
 -13   3   2 119.748 442.249   1
 -13   3   1 95.1012 397.481   1
 -13  -3   1 32.4192 364.511   0
  13   3  -1-73.8486 370.775   3
 -13   3   0 390.921 389.861   1
 -13  -3   0 111.598 430.285   0
  13   3   0 352.595 386.601   3
 -13   3  -1 1151.12 363.414   1
 -13  -3  -1 1371.51 489.492   0
  13   3   1 1237.38 368.007   3
 -13  -3  -2-118.388 487.767   0
  13   3   2 85.7499 309.088   3
 -13  -3  -3 596.488 523.141   0
  13   3   3 452.035 330.829   3
 -13  -3  -4 32.9736 551.218   0
 -13   4   4 180.587 527.266   1
 -13   4   3 1018.41 488.042   1
 -13   4   2 267.089 439.106   1
  13   4  -2 320.395 377.993   3
 -13   4   1 179.039 401.121   1
 -13  -4   1-83.2449 410.053   0
  13   4  -1-160.239 431.478   3
  13   4   0 4306.68 537.738   3
 -13  -4   0 4435.10 574.923   0
 -13   4   0 5025.82 521.007   1
 -13  -4  -1-78.8018 503.217   0
  13   4   1 120.435 426.744   3
  13   4   2 14694.9 747.928   3
 -13  -4  -2 14636.0 880.760   0
 -13  -4  -3 4868.89 700.868   0
  13   4   3 4794.36 511.898   3
  13   5  -2 118.650 470.664   3
 -13   5   1 2712.96 528.459   1
 -13  -5   1 3283.62 540.343   0
  13   5  -1 3752.49 568.425   3
  13   5   0 6287.45 652.572   3
 -13  -5   0 6014.30 658.687   0
 -13  -5  -1 108.092 518.225   0
  13   5   1 184.666 446.131   3
 -14   0   5 1488.19 605.472   1
 -14   0   4 2156.72 574.109   1
 -14   0   3 5373.22 621.891   1
 -14   0   2 1302.25 480.774   1
 -14   0   1 642.610 412.770   0
 -14   0   1 915.211 447.021   1
 -14   0   0 1087.08 451.904   0
 -14   0  -1 557.421 457.823   0
 -14   0  -2 1010.33 537.760   0
 -14   0  -3 527.468 545.064   0
 -14   0  -4 1034.33 612.850   0
 -14   1   5 1228.09 574.438   1
 -14  -1   5 1012.81 555.597   1
 -14   1   4 215.437 542.352   1
 -14  -1   4 344.313 493.088   1
 -14   1   3 526.483 520.171   1
 -14  -1   3 368.423 459.136   1
 -14   1   2 972.210 494.400   1
 -14   1   1-34.8004 441.202   1
  14   1  -1 159.347 300.037   3
 -14  -1   1 65.2166 381.301   0
 -14   1   0 1472.60 486.143   0
 -14   1   0 1598.82 432.011   1
 -14  -1   0 1731.75 460.669   0
  14   1   0 2050.37 332.861   3
 -14   1  -1 3600.29 566.182   0
 -14  -1  -1 3777.78 550.421   0
 -14   1  -1 3385.07 475.288   1
 -14   1  -2 1825.34 559.668   0
 -14  -1  -2 1790.07 524.076   0
 -14   1  -2 1574.50 399.204   1
 -14   1  -3 2190.59 582.390   0
 -14  -1  -3 2015.18 570.627   0
 -14   1  -4 8279.46 777.312   0
 -14  -1  -4 6761.38 764.321   0
 -14   2   5 671.303 544.463   1
 -14  -2   5 395.247 543.733   1
 -14   2   4 1706.27 545.504   1
 -14  -2   4 1235.10 529.826   1
 -14   2   3-14.4241 499.969   1
 -14   2   2 218.263 491.135   1
 -14  -2   1 228.572 367.353   0
 -14   2   1-62.3566 441.865   1
  14   2  -1 347.602 336.158   3
 -14  -2   0 742.492 433.685   0
 -14   2   0 905.562 458.631   1
  14   2   0 272.913 329.682   3
 -14  -2  -1 453.688 472.451   0
 -14   2  -1 541.873 381.126   1
  14   2   1 575.931 309.145   3
 -14  -2  -2 1846.90 515.437   0
 -14  -2  -3 5213.57 649.786   0
 -14  -2  -4 2876.87 634.130   0
 -14   3   4 5181.15 691.320   1
 -14   3   3 301.209 521.960   1
 -14   3   2 650.619 475.458   1
  14   3  -2 433.510 372.529   3
 -14   3   1 1174.97 436.608   1
 -14  -3   1 906.800 418.513   0
  14   3  -1 1428.23 432.725   3
 -14   3   0 256.892 407.281   1
 -14  -3   0 285.588 456.114   0
  14   3   0-68.7817 352.262   3
 -14   3  -1 453.724 370.966   1
 -14  -3  -1 691.084 495.866   0
  14   3   1 823.521 352.135   3
  14   3   2 54.9912 322.857   3
 -14  -3  -2 293.848 494.223   0
 -14  -3  -3 871.499 562.042   0
 -14   4   3 294.156 526.909   1
 -14   4   2 76.0393 493.819   1
  14   4  -2 205.700 456.438   3
 -14   4   1 251.821 446.887   1
 -14  -4   1 234.383 435.888   0
  14   4  -1 170.132 418.215   3
 -14   4   0 3106.13 466.713   1
 -14  -4   0 3820.30 597.505   0
  14   4   0 2985.44 520.613   3
 -14  -4  -1 552.869 515.024   0
  14   4   1 352.721 420.959   3
 -14  -4  -2 887.248 563.142   0
  14   4   2 1250.20 419.588   3
 -15   0   4 28.4427 539.334   1
 -15   0   3 180.812 524.977   1
 -15   0   1-188.999 461.683   1
 -15   0   1 14.7234 391.176   0
 -15   0   0-100.423 454.319   0
 -15   0  -1 280.498 473.181   0
 -15   0  -2 62.5586 543.725   0
 -15   0  -3 259.779 547.485   0
 -15   1   4-108.840 565.015   1
 -15  -1   4-219.345 521.829   1
 -15   1   3 64.1186 516.927   1
 -15  -1   3 54.6746 477.929   1
 -15   1   2 4921.91 610.310   1
 -15  -1   1 4486.29 527.480   0
 -15   1   1 4377.24 557.262   1
 -15   1   0 446.490 450.303   1
 -15  -1   0 574.012 446.522   0
 -15   1  -1 120.035 483.550   0
 -15   1  -1 80.5602 390.693   1
 -15  -1  -1 70.6012 494.875   0
 -15   1  -2 237.837 338.685   1
 -15  -1  -2 41.1594 543.313   0
 -15   1  -2-29.3151 498.492   0
 -15   1  -3 469.474 586.723   0
 -15  -1  -3 256.411 598.351   0
 -15   2   4 977.317 565.046   1
 -15  -2   4 1138.35 542.791   1
 -15   2   3 977.013 570.316   1
 -15   2   1 783.442 510.771   1
 -15  -2   1 439.289 424.396   0
  15   2  -1 951.438 365.205   3
 -15   2   0-97.0583 466.710   1
 -15  -2   0 162.876 475.579   0
  15   2   0-54.2054 326.655   3
 -15  -2  -1 472.051 481.568   0
 -15   2  -1 225.330 400.704   1
 -15  -2  -2 240.670 491.230   0
 -15  -2  -3 1366.92 616.280   0
 -15   3   3 4205.68 646.285   1
 -15   3   2-62.1461 477.438   1
  15   3  -2-58.4397 410.968   3
 -15  -3   1 942.127 453.215   0
 -15   3   1 1192.00 472.057   1
  15   3  -1 507.599 401.902   3
 -15   3   0 25.0850 423.081   1
  15   3   0 51.3418 393.844   3
 -15  -3   0 519.151 473.835   0
  15   3   1 234.227 352.300   3
 -15  -3  -1 226.862 461.569   0
 -15  -3  -2 82.6915 511.742   0
  15   4  -1 532.266 461.808   3
 -15  -4   0-65.5323 490.609   0
 -16   0   3 2027.44 580.742   1
 -16   0   2 36060.3 1173.70   1
 -16   0   1 7500.65 607.096   0
 -16   0   1 9302.24 686.507   1
 -16   0   0 148.198 478.503   0
 -16   0   0 365.018 450.144   1
 -16   0  -1 2771.86 580.772   0
 -16   0  -2 580.250 586.570   0
 -16   1   3 1892.98 613.662   1
 -16  -1   3 1696.46 577.157   1
 -16   1   2 221.542 520.455   1
 -16  -1   2 766.244 514.357   1
 -16   1   1 3282.83 563.627   1
 -16  -1   1 3182.34 510.961   0
 -16  -1   0 235.643 499.242   0
 -16   1   0-38.4678 470.688   1
 -16  -1  -1 2128.56 581.900   0
 -16   1  -1 2457.76 580.880   0
 -16   1  -1 2350.44 488.280   1
 -16   1  -2 1449.73 615.522   0
 -16  -1  -2 1279.10 584.718   0
 -16   2   2 2349.84 630.883   1
  16   2  -2 2250.49 440.167   3
 -16   2   1 569.619 522.420   1
 -16   2   0 637.270 482.865   1
 -16  -2   0 320.260 512.165   0
 -16   2  -1 335.914 444.307   1
 -16  -2  -1 471.318 509.676   0
 -17   0   1 209.047 541.504   1
 -17   0   0 81.2593 490.342   0
;
_shelx_hkl_checksum              80748
loop_
_space_group_symop_operation_xyz
'x, y, z'
'-x, y+1/2, -z+1/2'
'-x, -y, -z'
'x, -y-1/2, z-1/2'
loop_
_atom_site_label
_atom_site_type_symbol
_atom_site_fract_x
_atom_site_fract_y
_atom_site_fract_z
_atom_site_U_iso_or_equiv
_atom_site_adp_type
_atom_site_occupancy
_atom_site_site_symmetry_order
_atom_site_calc_flag
_atom_site_refinement_flags_posn
_atom_site_refinement_flags_adp
_atom_site_refinement_flags_occupancy
_atom_site_disorder_assembly
_atom_site_disorder_group
C1 C 0.4088(3) 0.4328(4) 0.30935(15) 0.0552(6) Uani 1 1 d . . . . .
H1 H 0.486472 0.519449 0.275741 0.066 Uiso 1 1 calc R U . . .
C2 C 0.3105(3) 0.3232(3) 0.35191(13) 0.0411(5) Uani 1 1 d . . . . .
C3 C 0.1903(2) 0.1971(3) 0.40786(12) 0.0356(5) Uani 1 1 d . . . . .
C4 C -0.0183(2) 0.2239(3) 0.37254(12) 0.0384(5) Uani 1 1 d . . . . .
H4A H -0.053921 0.363902 0.378683 0.046 Uiso 1 1 calc R U . . .
H4B H -0.037426 0.186271 0.302556 0.046 Uiso 1 1 calc R U . . .
C5 C -0.1415(2) 0.0969(3) 0.43336(12) 0.0354(5) Uani 1 1 d . . . . .
H5 H -0.275668 0.117850 0.409972 0.043 Uiso 1 1 calc R U . . .
C6 C -0.0928(2) -0.1209(3) 0.42205(12) 0.0363(5) Uani 1 1 d . . . . .
H6 H -0.112045 -0.158280 0.351269 0.044 Uiso 1 1 calc R U . . .
C7 C -0.1153(2) 0.1501(3) 0.54345(12) 0.0352(5) Uani 1 1 d . . . . .
H7 H -0.149371 0.291461 0.552097 0.042 Uiso 1 1 calc R U . . .
C8 C 0.2392(2) -0.0228(3) 0.39639(13) 0.0386(5) Uani 1 1 d . . . . .
H8A H 0.221452 -0.060641 0.326380 0.046 Uiso 1 1 calc R U . . .
H8B H 0.372340 -0.044743 0.418509 0.046 Uiso 1 1 calc R U . . .
C9 C 0.2171(2) 0.2499(3) 0.51814(12) 0.0377(5) Uani 1 1 d . . . . .
H9A H 0.349987 0.230812 0.541579 0.045 Uiso 1 1 calc R U . . .
H9B H 0.185086 0.390108 0.527459 0.045 Uiso 1 1 calc R U . . .
loop_
_atom_site_aniso_label
_atom_site_aniso_U_11
_atom_site_aniso_U_22
_atom_site_aniso_U_33
_atom_site_aniso_U_23
_atom_site_aniso_U_13
_atom_site_aniso_U_12
C1 0.0559(13) 0.0627(15) 0.0467(12) 0.0034(11) 0.0025(10) 0.0053(12)
C2 0.0410(11) 0.0460(12) 0.0366(10) 0.0038(9) 0.0036(8) 0.0060(10)
C3 0.0366(10) 0.0390(11) 0.0311(9) 0.0000(8) 0.0016(7) 0.0069(9)
C4 0.0414(11) 0.0388(11) 0.0345(9) 0.0035(8) -0.0001(8) 0.0099(9)
C5 0.0325(9) 0.0400(11) 0.0330(10) 0.0042(8) -0.0036(8) 0.0094(8)
C6 0.0424(11) 0.0411(11) 0.0249(8) -0.0047(8) -0.0014(8) 0.0040(9)
C7 0.0389(10) 0.0303(10) 0.0365(9) -0.0012(8) 0.0046(8) 0.0110(8)
C8 0.0375(9) 0.0430(11) 0.0355(9) -0.0044(8) 0.0041(8) 0.0108(9)
C9 0.0398(10) 0.0372(11) 0.0354(9) -0.0043(8) -0.0013(8) 0.0051(9)
loop_
_atom_type_symbol
_atom_type_description
_atom_type_scat_dispersion_real
_atom_type_scat_dispersion_imag
_atom_type_scat_source
C C 0.0033 0.0016 'International Tables Vol C Tables 4.2.6.8 and 6.1.1.4'
H H 0.0000 0.0000 'International Tables Vol C Tables 4.2.6.8 and 6.1.1.4'
loop_
_geom_angle_atom_site_label_1
_geom_angle_atom_site_label_2
_geom_angle_atom_site_label_3
_geom_angle
_geom_angle_site_symmetry_1
_geom_angle_site_symmetry_3
_geom_angle_publ_flag
C2 C1 H1 180.0 . . ?
C1 C2 C3 177.0(2) . . ?
C2 C3 C8 111.48(15) . . ?
C2 C3 C4 110.95(13) . . ?
C8 C3 C4 107.62(14) . . ?
C2 C3 C9 109.60(15) . . ?
C8 C3 C9 108.04(13) . . ?
C4 C3 C9 109.07(14) . . ?
C5 C4 C3 110.30(13) . . ?
C5 C4 H4A 109.6 . . ?
C3 C4 H4A 109.6 . . ?
C5 C4 H4B 109.6 . . ?
C3 C4 H4B 109.6 . . ?
H4A C4 H4B 108.1 . . ?
C4 C5 C6 110.34(14) . . ?
C4 C5 C7 111.34(14) . . ?
C6 C5 C7 108.14(13) . . ?
C4 C5 H5 109.0 . . ?
C6 C5 H5 109.0 . . ?
C7 C5 H5 109.0 . . ?
C9 C6 C5 110.82(14) 3_556 . ?
C9 C6 C7 110.44(13) 3_556 3_556 ?
C5 C6 C7 108.39(14) . 3_556 ?
C9 C6 H6 109.1 3_556 . ?
C5 C6 H6 109.1 . . ?
C7 C6 H6 109.1 3_556 . ?
C8 C7 C6 110.43(13) 3_556 3_556 ?
C8 C7 C5 110.98(14) 3_556 . ?
C6 C7 C5 108.38(14) 3_556 . ?
C8 C7 H7 109.0 3_556 . ?
C6 C7 H7 109.0 3_556 . ?
C5 C7 H7 109.0 . . ?
C7 C8 C3 110.48(14) 3_556 . ?
C7 C8 H8A 109.6 3_556 . ?
C3 C8 H8A 109.6 . . ?
C7 C8 H8B 109.6 3_556 . ?
C3 C8 H8B 109.6 . . ?
H8A C8 H8B 108.1 . . ?
C6 C9 C3 110.57(14) 3_556 . ?
C6 C9 H9A 109.5 3_556 . ?
C3 C9 H9A 109.5 . . ?
C6 C9 H9B 109.5 3_556 . ?
C3 C9 H9B 109.5 . . ?
H9A C9 H9B 108.1 . . ?
loop_
_geom_bond_atom_site_label_1
_geom_bond_atom_site_label_2
_geom_bond_distance
_geom_bond_site_symmetry_2
_geom_bond_publ_flag
C1 C2 1.203(3) . ?
C1 H1 0.9500 . ?
C2 C3 1.467(3) . ?
C3 C8 1.545(2) . ?
C3 C4 1.547(2) . ?
C3 C9 1.548(2) . ?
C4 C5 1.522(2) . ?
C4 H4A 0.9900 . ?
C4 H4B 0.9900 . ?
C5 C6 1.531(3) . ?
C5 C7 1.545(2) . ?
C5 H5 1.0000 . ?
C6 C9 1.527(2) 3_556 ?
C6 C7 1.543(2) 3_556 ?
C6 H6 1.0000 . ?
C7 C8 1.521(2) 3_556 ?
C7 H7 1.0000 . ?
C8 H8A 0.9900 . ?
C8 H8B 0.9900 . ?
C9 H9A 0.9900 . ?
C9 H9B 0.9900 . ?
loop_
_geom_torsion_atom_site_label_1
_geom_torsion_atom_site_label_2
_geom_torsion_atom_site_label_3
_geom_torsion_atom_site_label_4
_geom_torsion
_geom_torsion_site_symmetry_1
_geom_torsion_site_symmetry_2
_geom_torsion_site_symmetry_3
_geom_torsion_site_symmetry_4
_geom_torsion_publ_flag
C2 C3 C4 C5 -178.26(14) . . . . ?
C8 C3 C4 C5 59.54(18) . . . . ?
C9 C3 C4 C5 -57.44(18) . . . . ?
C3 C4 C5 C6 -61.13(18) . . . . ?
C3 C4 C5 C7 58.96(18) . . . . ?
C4 C5 C6 C9 -179.36(13) . . . 3_556 ?
C7 C5 C6 C9 58.64(17) . . . 3_556 ?
C4 C5 C6 C7 59.30(16) . . . 3_556 ?
C7 C5 C6 C7 -62.70(19) . . . 3_556 ?
C4 C5 C7 C8 179.90(13) . . . 3_556 ?
C6 C5 C7 C8 -58.72(18) . . . 3_556 ?
C4 C5 C7 C6 -58.68(17) . . . 3_556 ?
C6 C5 C7 C6 62.70(19) . . . 3_556 ?
C2 C3 C8 C7 178.94(13) . . . 3_556 ?
C4 C3 C8 C7 -59.19(17) . . . 3_556 ?
C9 C3 C8 C7 58.46(18) . . . 3_556 ?
C2 C3 C9 C6 179.82(14) . . . 3_556 ?
C8 C3 C9 C6 -58.53(18) . . . 3_556 ?
C4 C3 C9 C6 58.18(17) . . . 3_556 ?
