#------------------------------------------------------------------------------
#$Date: 2020-04-07 02:28:49 +0300 (Tue, 07 Apr 2020) $
#$Revision: 250425 $
#$URL: file:///home/coder/svn-repositories/cod/cif/4/03/82/4038200.cif $
#------------------------------------------------------------------------------
#
# This file is available in the Crystallography Open Database (COD),
# http://www.crystallography.net/
#
# All data on this site have been placed in the public domain by the
# contributors.
#
data_4038200
loop_
_publ_author_name
'Rahman, Md Mahbubur'
'Liu, Chengwei'
'Bisz, Elwira'
'Dziuk, B\/la\.zej'
'Lalancette, Roger A.'
'Wang, Qi'
'Chen, Hao'
'Szostak, Roman'
'Szostak, Michal'
_publ_section_title
;
 N-Acyl-Glutarimides: Effect of Glutarimide Ring on the Structures of
 Fully Perpendicular Twisted Amides and N-C Bond Cross-Coupling.
;
_journal_name_full               'The Journal of organic chemistry'
_journal_paper_doi               10.1021/acs.joc.0c00227
_journal_year                    2020
_chemical_formula_sum            'C19 H11 N O3'
_chemical_formula_weight         301.29
_space_group_crystal_system      triclinic
_space_group_IT_number           2
_space_group_name_Hall           '-P 1'
_space_group_name_H-M_alt        'P -1'
_atom_sites_solution_hydrogens   geom
_audit_creation_method           SHELXL-2014/7
_cell_angle_alpha                77.524(5)
_cell_angle_beta                 79.007(6)
_cell_angle_gamma                69.240(6)
_cell_formula_units_Z            2
_cell_length_a                   7.2903(5)
_cell_length_b                   9.2896(5)
_cell_length_c                   11.4353(7)
_cell_measurement_reflns_used    4802
_cell_measurement_temperature    293(2)
_cell_measurement_theta_max      25.994
_cell_measurement_theta_min      3.012
_cell_volume                     701.52(8)
_computing_cell_refinement       'CrysAlisCCD (Oxford Diffraction Ltd., 2008)'
_computing_data_collection       'CrysAlisCCD (Oxford Diffraction Ltd., 2008)'
_computing_data_reduction        'CrysAlisCCD (Oxford Diffraction Ltd., 2008)'
_computing_molecular_graphics    'SHELXTL (Sheldrick, 2008)'
_computing_publication_material  'SHELXL-2014/7 (Sheldrick, 2014)'
_computing_structure_refinement  'SHELXL-2014/7 (Sheldrick, 2014)'
_computing_structure_solution    'SHELXS-2014/7 (Sheldrick, 2014)'
_diffrn_ambient_temperature      293(2)
_diffrn_detector_area_resol_mean '1024 x 1024 with blocks 2 x 2'
_diffrn_measured_fraction_theta_full 0.989
_diffrn_measured_fraction_theta_max 0.987
_diffrn_measurement_device_type  Xcalibur
_diffrn_measurement_method       \w--scan
_diffrn_radiation_type           MoK\a
_diffrn_radiation_wavelength     0.71073
_diffrn_reflns_av_R_equivalents  0.0127
_diffrn_reflns_av_unetI/netI     0.0320
_diffrn_reflns_Laue_measured_fraction_full 0.989
_diffrn_reflns_Laue_measured_fraction_max 0.987
_diffrn_reflns_limit_h_max       8
_diffrn_reflns_limit_h_min       -5
_diffrn_reflns_limit_k_max       11
_diffrn_reflns_limit_k_min       -10
_diffrn_reflns_limit_l_max       14
_diffrn_reflns_limit_l_min       -13
_diffrn_reflns_number            4802
_diffrn_reflns_point_group_measured_fraction_full 0.989
_diffrn_reflns_point_group_measured_fraction_max 0.987
_diffrn_reflns_theta_full        25.242
_diffrn_reflns_theta_max         25.994
_diffrn_reflns_theta_min         3.012
_diffrn_source                   'fine-focus sealed tube'
_exptl_absorpt_coefficient_mu    0.098
_exptl_absorpt_correction_T_max  1.00000
_exptl_absorpt_correction_T_min  0.99542
_exptl_absorpt_correction_type   multi-scan
_exptl_crystal_colour            pink
_exptl_crystal_density_diffrn    1.426
_exptl_crystal_density_method    'not measured'
_exptl_crystal_description       plate
_exptl_crystal_F_000             312
_exptl_crystal_size_max          0.5
_exptl_crystal_size_mid          0.35
_exptl_crystal_size_min          0.2
_refine_diff_density_max         0.116
_refine_diff_density_min         -0.181
_refine_diff_density_rms         0.036
_refine_ls_extinction_method     none
_refine_ls_goodness_of_fit_ref   0.881
_refine_ls_hydrogen_treatment    constr
_refine_ls_matrix_type           full
_refine_ls_number_parameters     208
_refine_ls_number_reflns         2705
_refine_ls_number_restraints     0
_refine_ls_restrained_S_all      0.881
_refine_ls_R_factor_all          0.0619
_refine_ls_R_factor_gt           0.0361
_refine_ls_shift/su_max          0.000
_refine_ls_shift/su_mean         0.000
_refine_ls_structure_factor_coef Fsqd
_refine_ls_weighting_details
'w=1/[\s^2^(Fo^2^)+(0.0485P)^2^] where P=(Fo^2^+2Fc^2^)/3'
_refine_ls_weighting_scheme      calc
_refine_ls_wR_factor_gt          0.0816
_refine_ls_wR_factor_ref         0.0870
_reflns_Friedel_coverage         0.000
_reflns_number_gt                1700
_reflns_number_total             2705
_reflns_threshold_expression     'I > 2\s(I)'
_cod_data_source_file            jo0c00227_si_002.cif
_cod_data_source_block           BD362_a
_cod_database_code               4038200
_shelx_shelxl_version_number     2014/7
_shelx_space_group_comment
;
The symmetry employed for this shelxl refinement is uniquely defined
by the following loop, which should always be used as a source of
symmetry information in preference to the above space-group names.
They are only intended as comments.
;
_exptl_absorpt_special_details
;
CrysAlis RED, Oxford Diffraction Ltd.,
Version 1.171.33.57 (release 26-01-2010 CrysAlis171 .NET)
(compiled Jan 26 2010,14:36:55)
Empirical absorption correction using spherical harmonics,
 implemented in SCALE3 ABSPACK scaling algorithm.
;
_shelx_res_file
;

    BD362_a.res created by SHELXL-2014/7


TITL BD362_a.res in P-1
REM Old TITL BD362 in P-1

REM SHELXT solution in P-1
REM R1 0.163,  Rweak 0.007,  Alpha 0.041,  Orientation as input
REM Formula found by SHELXT:  C19 O3 N

CELL  0.71073   7.2903   9.2896  11.4353   77.524   79.007   69.240
ZERR    2.000   0.0005   0.0005   0.0007    0.005    0.006    0.006
LATT  1
SFAC C H O N
UNIT 38 22 6 2
OMIT 0 52
OMIT     0   1   1
OMIT    -4  -1   1
ACTA
HTAB
CONF
L.S. 10
BOND $H
LIST 6
FMAP 2
PLAN 20
WGHT    0.048500
FVAR       0.87145
O1    3    0.726743    0.438920    0.435316    11.00000    0.07176    0.03650 =
         0.06253   -0.01622   -0.00028   -0.01807
N1    4    0.836487    0.292943    0.286682    11.00000    0.04724    0.03177 =
         0.04309   -0.00453   -0.00142   -0.01459
C1    1    0.759085    0.313177    0.406478    11.00000    0.03912    0.03691 =
         0.04594   -0.00671   -0.00565   -0.01142
C2    1    0.725028    0.176512    0.486755    11.00000    0.03301    0.03648 =
         0.04403   -0.00411   -0.00791   -0.01043
O2    3    0.959087    0.156100    0.132694    11.00000    0.06825    0.06176 =
         0.04838   -0.01722    0.00553   -0.02776
O3    3    1.043188    0.435109    0.200823    11.00000    0.04680    0.05342 =
         0.07520    0.00155   -0.00765   -0.02245
C3    1    0.780816    0.033076    0.443445    11.00000    0.02845    0.03442 =
         0.05059   -0.00447   -0.00982   -0.01108
C4    1    0.862529    0.019939    0.322422    11.00000    0.03375    0.03440 =
         0.05460   -0.01030   -0.00727   -0.01255
C5    1    0.891894    0.155670    0.238507    11.00000    0.03675    0.04175 =
         0.04756   -0.01207   -0.00358   -0.01346
C8    1    0.670840   -0.082790    0.643899    11.00000    0.04929    0.05555 =
         0.05902    0.01285   -0.01668   -0.02427
AFIX  43
H8    2    0.654130   -0.169047    0.697893    11.00000   -1.20000
AFIX   0
C7    1    0.614680    0.056973    0.682317    11.00000    0.05885    0.06628 =
         0.04472    0.00333   -0.00835   -0.02440
AFIX  43
H7    2    0.557474    0.065827    0.761524    11.00000   -1.20000
AFIX   0
C6    1    0.642312    0.187407    0.603623    11.00000    0.05182    0.04958 =
         0.04683   -0.00660   -0.00830   -0.01513
AFIX  43
H6    2    0.604146    0.282345    0.630957    11.00000   -1.20000
AFIX   0
C9    1    0.754130   -0.099460    0.523466    11.00000    0.03580    0.03853 =
         0.06258    0.00164   -0.01647   -0.01501
C10   1    0.812714   -0.241734    0.479070    11.00000    0.05203    0.03879 =
         0.08837    0.00233   -0.01936   -0.02125
AFIX  43
H10   2    0.796663   -0.329926    0.530567    11.00000   -1.20000
AFIX   0
C11   1    0.892003   -0.251918    0.362575    11.00000    0.06393    0.03623 =
         0.09651   -0.01925   -0.01178   -0.01835
AFIX  43
H11   2    0.930387   -0.346874    0.335241    11.00000   -1.20000
AFIX   0
C12   1    0.916404   -0.120886    0.283415    11.00000    0.05273    0.04605 =
         0.07189   -0.02157   -0.00111   -0.01866
AFIX  43
H12   2    0.969641   -0.129042    0.203521    11.00000   -1.20000
AFIX   0
C13   1    0.881167    0.427270    0.207658    11.00000    0.04764    0.03732 =
         0.04470   -0.00854    0.00067   -0.01694
C14   1    0.718647    0.542420    0.145303    11.00000    0.04620    0.03714 =
         0.03725   -0.00775   -0.00067   -0.01396
C15   1    0.530921    0.530361    0.160950    11.00000    0.05032    0.04709 =
         0.05524   -0.00936   -0.00436   -0.01756
AFIX  43
H15   2    0.504216    0.445819    0.212283    11.00000   -1.20000
AFIX   0
C16   1    0.384305    0.643113    0.100735    11.00000    0.05022    0.06491 =
         0.07407   -0.01948   -0.01517   -0.01209
AFIX  43
H16   2    0.258496    0.634841    0.111632    11.00000   -1.20000
AFIX   0
C17   1    0.423169    0.768290    0.024320    11.00000    0.07214    0.05966 =
         0.06473   -0.00965   -0.02820   -0.00415
AFIX  43
H17   2    0.323381    0.844928   -0.015733    11.00000   -1.20000
AFIX   0
C18   1    0.609396    0.779900    0.007286    11.00000    0.08121    0.05128 =
         0.05168    0.00468   -0.01276   -0.01802
AFIX  43
H18   2    0.635863    0.863837   -0.045107    11.00000   -1.20000
AFIX   0
C19   1    0.756645    0.668028    0.067331    11.00000    0.05774    0.04661 =
         0.04703   -0.00254   -0.00295   -0.01913
AFIX  43
H19   2    0.882370    0.676632    0.055600    11.00000   -1.20000
AFIX   0
HKLF 4

REM  BD362_a.res in P-1
REM R1 =  0.0361 for    1700 Fo > 4sig(Fo)  and  0.0619 for all    2705 data
REM    208 parameters refined using      0 restraints

END

WGHT      0.0485      0.0000

REM No hydrogen bonds found for HTAB generation

REM Highest difference peak  0.116,  deepest hole -0.181,  1-sigma level  0.036
Q1    1   0.5000  0.0000  0.5000  10.50000  0.05    0.12
Q2    1   0.7067  0.1163  0.4423  11.00000  0.05    0.10
Q3    1   1.1018  0.3098  0.1857  11.00000  0.05    0.09
Q4    1   0.8141  0.0902  0.4755  11.00000  0.05    0.09
Q5    1   0.7796 -0.1089  0.5832  11.00000  0.05    0.09
Q6    1   0.5557  0.1586  0.4029  11.00000  0.05    0.09
Q7    1   0.5745  0.0667  0.4152  11.00000  0.05    0.09
Q8    1   0.7348  0.5999 -0.0742  11.00000  0.05    0.09
Q9    1   0.8032 -0.2201  0.8028  11.00000  0.05    0.09
Q10   1   0.5177 -0.2007  0.6191  11.00000  0.05    0.08
Q11   1   0.7863  0.2731  0.1164  11.00000  0.05    0.08
Q12   1   0.5038  0.2534  0.4368  11.00000  0.05    0.08
Q13   1   0.9409  0.0148  0.5391  11.00000  0.05    0.08
Q14   1   0.3822  0.0828  0.7668  11.00000  0.05    0.08
Q15   1   0.2029  0.7771  0.1662  11.00000  0.05    0.08
Q16   1   0.8710  0.4344  0.5010  11.00000  0.05    0.08
Q17   1   1.1098  0.3771  0.3205  11.00000  0.05    0.08
Q18   1   0.4756  0.3408  0.3710  11.00000  0.05    0.08
Q19   1   0.8827  0.1386  0.5543  11.00000  0.05    0.08
Q20   1   0.7680  0.0397  0.3738  11.00000  0.05    0.08
;
_shelx_res_checksum              67835
_shelx_hkl_file
;
   0   0  -2   34.05    0.89
   0   0   2   31.19    0.88
   0   0   3   85.89    1.73
   0   0  -3   85.51    1.71
   0   0   4    5.86    0.82
   0   0  -4    6.43    0.89
   0   0   5    0.98    0.81
   0   0  -5    0.89    0.87
   0   0  -6   99.22    2.53
   0   0   6   93.62    2.55
   0   0  -7   43.68    2.00
   0   0   7   40.17    2.00
   0   0  -8    0.31    1.26
   0   0   8   -0.29    1.27
   0   0   9    2.57    1.46
   0   0  -9    4.59    1.59
   0   0  10    5.06    1.58
   0   0 -10    7.00    1.59
   0   0 -11   12.60    1.86
   0   0  11   10.40    1.84
   0   0  12   -1.48    1.61
   0   0  13    2.34    1.73
   0  -1  11    1.09    1.48
   0  -1  10    0.66    1.44
   0   1  -9    9.74    1.55
   0  -1   9    7.20    1.50
   0   1  -8   14.24    1.51
   0  -1   8   12.95    1.54
   0   1  -7    5.63    1.15
   0  -1   7    3.86    1.13
   0  -1   6    4.00    0.92
   0   1  -6    4.48    0.98
   0   1  -5  266.26    3.46
   0  -1   5  267.45    3.62
   0  -1   4  144.15    2.36
   0   1  -4  146.44    2.28
   0   1  -3  212.88    2.35
   0  -1   3  223.47    2.51
   0   1  -2    7.04    0.53
   0  -1   2    7.23    0.56
   0   1  -1  638.74    2.65
   0   1   1 1133.98    3.78
   0   1   2  128.21    1.54
   0   1   2  125.06    1.91
   0   1   3 2830.34   10.08
   0   1   4 1165.12    7.33
   0  -1  -4 1162.97    7.34
   0   1   5  637.52    6.05
   0  -1  -5  620.53    5.96
   0  -1  -6  438.30    5.46
   0   1   6  433.80    5.56
   0  -1  -7    0.32    1.29
   0   1   7    0.88    1.22
   0  -1  -8   65.98    2.83
   0   1   8   63.46    2.77
   0   1   9    9.28    1.80
   0  -1  -9    7.01    1.84
   0   1  10    7.77    1.81
   0  -1 -10   10.52    1.81
   0  -1 -11    3.97    1.75
   0   1  11    2.42    1.69
   0   1  12    1.19    1.63
   0  -1 -12    1.11    1.67
   0   1  13    7.38    1.96
   0   1  14   -3.78    2.05
   0   1  15    0.47    2.11
   0  -2  12    5.20    1.89
   0  -2  11   19.95    2.25
   0  -2   9  326.50    5.50
   0  -2   8  396.72    5.67
   0   2  -8  378.13    5.31
   0   2  -7    0.37    0.81
   0  -2   7    0.75    1.00
   0   2  -6    8.56    0.96
   0  -2   6    8.59    0.98
   0   2  -5   24.88    1.18
   0  -2   5   24.69    1.26
   0   2  -4    0.45    0.55
   0  -2   4    0.45    0.59
   0  -2   3    0.24    0.48
   0   2  -3    0.40    0.44
   0   2  -2    3.58    0.48
   0  -2   2    4.49    0.50
   0   2  -1   84.07    2.14
   0   2  -1   83.83    1.34
   0   2   0   54.20    1.62
   0  -2   0   57.00    1.32
   0   2   1   21.77    1.04
   0  -2  -1   20.96    0.79
   0   2   2 3722.72    9.79
   0  -2  -2 3710.66    7.22
   0  -2  -3 2464.07    5.83
   0   2   3 2465.96    8.43
   0   2   3 2453.27   10.37
   0   2   4  534.30    4.45
   0   2   4  522.69    5.38
   0   2   5  171.65    3.47
   0  -2  -6  212.04    4.20
   0   2   6  212.60    4.18
   0   2   7    9.62    1.53
   0  -2  -7   10.73    1.78
   0   2   8   44.04    2.54
   0  -2  -8   43.75    2.64
   0   2   9   26.25    2.36
   0  -2  -9   26.09    2.47
   0  -2 -10   21.78    2.39
   0   2  10   20.40    2.27
   0   2  11   10.37    2.15
   0  -2 -11   10.20    2.14
   0  -2 -12    7.16    1.91
   0   2  12    5.42    2.00
   0   2  13   -1.01    1.95
   0  -2 -13   -0.03    1.74
   0   2  14   -0.09    2.32
   0   2  15    0.66    2.23
   0   3 -14    5.58    3.55
   0  -3  12    5.51    1.93
   0  -3  11   12.71    2.34
   0  -3  10    5.96    1.96
   0  -3   9   20.45    2.34
   0  -3   7   10.48    1.27
   0   3  -6   15.09    1.10
   0  -3   6   14.88    1.17
   0   3  -5    0.40    0.65
   0  -3   5    0.04    0.70
   0   3  -4  600.35    4.75
   0  -3   4  598.55    4.73
   0  -3   3 1515.07    6.82
   0   3  -3 1513.44   10.41
   0   3  -3 1525.28    7.06
   0   3  -2  152.46    2.17
   0   3  -2  155.80    3.31
   0  -3   2  151.37    2.92
   0   3  -1   24.42    1.56
   0  -3   1   25.76    1.28
   0  -3   0  338.29    3.58
   0   3   0  348.28    4.06
   0  -3  -1  400.71    3.48
   0   3   1  389.54    4.08
   0   3   2  261.97    3.23
   0  -3  -2  253.31    2.56
   0  -3  -3  101.85    1.53
   0   3   3  100.13    2.08
   0   3   3  100.56    2.46
   0   3   4  221.62    3.13
   0  -3  -4  214.11    2.09
   0   3   4  219.23    3.84
   0   3   5  504.61    4.93
   0   3   5  503.25    6.12
   0   3   6  631.32    5.96
   0   3   6  631.59    7.31
   0  -3  -7  139.88    4.06
   0   3   7  139.80    3.96
   0  -3  -8    7.65    2.08
   0   3   8    6.82    1.96
   0  -3  -9    1.66    2.02
   0   3   9    3.23    1.83
   0  -3 -10    0.26    1.94
   0   3  10    0.42    1.77
   0   3  11    0.25    1.97
   0  -3 -11    1.91    2.10
   0  -3 -12    4.16    2.13
   0   3  12    7.79    2.06
   0   3  13    1.27    2.06
   0  -3 -13    0.59    1.86
   0   3  14    0.99    2.25
   0  -3 -14    2.99    2.03
   0   4 -13    1.42    3.10
   0  -4  13    3.05    1.98
   0   4 -12    2.12    3.47
   0  -4  12    2.47    2.01
   0  -4  11    0.72    1.86
   0   4 -11    2.68    2.93
   0  -4  10    5.04    1.90
   0   4 -10    7.24    2.93
   0  -4   9   17.90    2.32
   0   4  -9   20.85    3.16
   0  -4   8   44.85    2.93
   0   4  -8   43.04    3.52
   0   4  -7   19.37    3.01
   0  -4   7   16.95    2.22
   0   4  -6   23.84    3.02
   0  -4   6   19.90    2.16
   0   4  -5    1.39    0.69
   0  -4   5    1.64    1.45
   0   4  -5    2.40    2.30
   0  -4   5    1.62    0.76
   0   4  -4   12.53    2.17
   0  -4   4   12.53    0.97
   0   4  -4   11.79    0.91
   0  -4   4   12.73    1.68
   0   4  -3  277.85    3.41
   0   4  -3  281.02    5.18
   0  -4   3  275.25    4.63
   0  -4   2  115.74    2.92
   0   4  -2  110.97    3.32
   0  -4   1  144.40    2.98
   0   4  -1  144.11    3.43
   0  -4   0    6.66    0.97
   0   4   0    6.72    1.20
   0  -4  -1    0.05    0.66
   0   4   1   -0.09    0.97
   0   4   2  647.38    5.91
   0  -4  -2  641.78    4.86
   0   4   3   13.07    1.16
   0  -4  -3   13.42    0.81
   0   4   4   12.94    1.14
   0  -4  -4   14.60    0.75
   0   4   4   15.38    1.60
   0  -4  -5  257.56    2.56
   0   4   5  266.01    3.94
   0   4   5  260.93    4.75
   0   4   6  206.48    3.64
   0   4   6  206.94    4.63
   0   4   7   40.53    1.92
   0   4   7   38.72    2.70
   0   4   8  200.47    5.37
   0  -4  -8  222.97    5.55
   0   4   9    7.26    2.17
   0  -4  -9    8.04    2.39
   0  -4 -10    6.15    2.20
   0   4  10    5.27    2.03
   0  -4 -11   -0.38    2.16
   0   4  11   -0.71    1.93
   0  -4 -12    0.98    2.16
   0   4  12    1.37    1.93
   0  -4 -13    1.41    2.32
   0   4  13    0.80    2.16
   0   4  14   -0.65    2.21
   0  -4 -14   -1.31    2.31
   0  -4 -15    3.49    2.45
   0   5 -12   20.31    4.09
   0  -5  12   15.66    2.91
   0   5 -11    5.69    3.28
   0  -5  11    2.83    2.34
   0  -5  10    0.46    1.85
   0   5 -10    3.64    2.93
   0   5  -9    7.34    3.09
   0  -5   9    5.60    2.08
   0  -5   8    9.81    2.13
   0   5  -8   12.65    3.13
   0   5  -7    4.47    2.74
   0  -5   7    2.39    1.84
   0  -5   6   25.90    2.50
   0   5  -6   31.10    3.33
   0   5  -5  192.52    5.56
   0  -5   5  192.41    4.90
   0  -5   4    1.88    1.58
   0   5  -4    3.02    2.45
   0  -5   3   10.73    1.67
   0   5  -3   11.33    2.37
   0   5  -2    1.57    1.77
   0  -5   2    1.94    1.24
   0   5  -1   12.98    1.91
   0  -5   1   13.94    1.39
   0  -5   0    2.83    1.12
   0   5   0    4.07    1.48
   0   5   1    1.45    1.24
   0  -5  -1    0.63    0.85
   0  -5  -2  207.20    3.25
   0   5   2  198.49    3.89
   0  -5  -3   24.31    1.14
   0   5   3   24.47    1.60
   0   5   4   28.49    2.02
   0  -5  -4   29.32    1.18
   0   5   4   28.41    1.65
   0   5   5   13.53    1.36
   0   5   5   13.55    1.94
   0   5   6    1.06    1.85
   0   5   6    0.16    1.02
   0   5   7   15.17    2.42
   0   5   7   14.50    1.51
   0   5   8   30.51    3.05
   0   5   8   34.10    2.07
   0   5   9  362.54    7.36
   0  -5  -9  365.81    7.56
   0   5  10   10.72    2.34
   0  -5 -10    8.03    2.46
   0   5  11    1.49    1.93
   0  -5 -11    2.61    2.48
   0   5  12   20.26    2.90
   0  -5 -12   16.35    2.88
   0   5  13    8.21    2.82
   0  -5 -13    6.36    2.49
   0   5  14    2.59    2.24
   0  -5 -14    0.50    2.58
   0   6 -11   39.37    4.53
   0  -6  11   46.58    3.83
   0  -6  10    3.13    2.32
   0   6 -10    2.61    3.13
   0  -6   9    1.41    1.95
   0   6  -9    1.29    2.94
   0  -6   8    0.47    1.98
   0   6  -8    1.17    2.74
   0  -6   7   16.17    2.50
   0   6  -7   15.08    3.07
   0  -6   6   63.71    3.48
   0   6  -6   64.96    4.16
   0  -6   5   99.00    3.85
   0   6  -5   93.03    4.46
   0  -6   4   20.43    2.33
   0   6  -4   17.52    3.01
   0   6  -3    5.04    2.61
   0  -6   3    6.96    1.78
   0   6  -2    7.51    2.36
   0  -6   2    8.51    1.65
   0  -6   1    0.14    1.40
   0   6  -1    0.43    1.75
   0  -6   0    3.11    1.24
   0   6   0    3.70    1.68
   0   6   1  135.59    3.81
   0  -6  -1  140.92    3.29
   0  -6  -2   12.50    1.28
   0   6   2   11.44    1.72
   0   6   3    0.48    1.17
   0  -6  -3    0.83    0.81
   0   6   4   59.01    2.78
   0   6   4   56.86    2.39
   0   6   5    0.03    1.19
   0   6   5    0.74    1.72
   0   6   6    5.26    2.02
   0   6   6    5.32    1.26
   0   6   7    0.29    1.13
   0   6   7    1.11    2.02
   0   6   8    4.24    2.16
   0  -6  -9   35.77    3.36
   0   6   9   33.69    3.12
   0  -6 -10    5.44    2.56
   0   6  10    3.88    2.35
   0   6  11    3.72    2.32
   0  -6 -11    0.86    2.57
   0   6  12    9.29    2.61
   0  -6 -12    7.05    2.59
   0   6  13    5.61    2.48
   0  -6 -13    6.08    2.88
   0   7 -10    1.12    3.70
   0  -7  10    3.52    2.63
   0  -7   9    0.10    2.44
   0   7  -9   -1.21    3.25
   0   7  -8    8.33    2.95
   0  -7   8    7.70    2.50
   0   7  -7    2.90    2.75
   0  -7   7    2.42    1.93
   0  -7   6   23.93    2.66
   0   7  -6   27.70    3.62
   0  -7   5   33.92    2.84
   0   7  -5   33.83    3.54
   0  -7   4   -0.44    1.82
   0   7  -4   -0.04    2.36
   0  -7   3   31.73    2.52
   0   7  -3   28.51    3.13
   0  -7   2  287.53    5.86
   0   7  -2  270.28    6.35
   0   7  -1    1.84    2.21
   0  -7   1    1.78    1.69
   0  -7   0   60.63    2.87
   0   7   0   64.71    3.40
   0   7   1   76.74    3.45
   0  -7  -1   77.49    2.78
   0   7   2    5.13    1.84
   0  -7  -2    5.29    1.20
   0   7   3   41.68    2.50
   0   7   3   34.52    2.36
   0  -7  -3   39.86    1.87
   0   7   4    9.75    1.71
   0   7   4   10.44    1.95
   0   7   5   14.91    1.87
   0   7   5   15.64    2.23
   0   7   6    1.60    1.91
   0   7   6    0.75    1.27
   0   7   7    8.87    2.11
   0   7   8    1.16    2.00
   0   7   9    1.91    2.22
   0  -7 -10    9.30    2.77
   0   7  10    6.40    2.62
   0   7  11   13.49    2.69
   0  -7 -11   12.89    3.25
   0  -7 -12   15.08    3.31
   0   7  12   15.41    2.91
   0  -8   8   17.60    2.76
   0   8  -8   13.53    3.71
   0   8  -7   -1.55    2.98
   0  -8   7   -1.54    2.05
   0   8  -6   -0.63    2.70
   0  -8   6    0.24    2.09
   0  -8   5    2.36    1.84
   0   8  -5    2.39    2.84
   0  -8   4    1.94    1.74
   0   8  -4    2.86    2.70
   0   8  -3    9.08    2.40
   0  -8   3    9.57    2.09
   0  -8   2   37.32    2.78
   0   8  -2   33.91    3.05
   0  -8   1  133.69    4.25
   0   8  -1  134.39    4.86
   0  -8   0   55.82    2.79
   0   8   0   51.67    3.36
   0  -8  -1   56.91    2.67
   0   8   1   49.54    3.19
   0  -8  -2   28.38    1.86
   0   8   2   27.95    2.61
   0   8   3   12.74    1.86
   0   8   3   11.26    1.86
   0   8   4    0.86    1.65
   0   8   4    0.53    1.61
   0   8   5   42.16    3.01
   0   8   5   43.91    2.63
   0   8   6   48.58    3.18
   0   8   7    4.77    2.11
   0   8   8    1.11    2.09
   0   8   9    0.58    2.34
   0   8  10   11.68    2.90
   0  -8 -10   13.73    2.93
   0   8  11   11.91    2.58
   0  -8 -11    7.65    3.09
   0  -8 -12    2.14    2.96
   0   8  12    0.53    2.70
   0  -9   7    2.73    2.26
   0   9  -7   -1.46    3.04
   0  -9   6    0.33    2.06
   0   9  -6   -0.56    2.99
   0   9  -5   13.29    3.29
   0  -9   5   12.98    2.56
   0  -9   4    4.02    2.12
   0   9  -4    5.41    2.65
   0   9  -3    3.46    2.53
   0  -9   3    1.47    1.83
   0   9  -2    8.01    2.68
   0  -9   2    7.61    2.04
   0  -9   1   10.43    2.05
   0   9  -1   10.17    2.57
   0   9   0   31.57    2.99
   0  -9   0   33.99    2.62
   0  -9  -1   42.62    2.52
   0   9   1   47.51    3.31
   0   9   2   15.65    2.14
   0   9   3    1.06    1.80
   0   9   4    0.63    1.62
   0   9   5    2.81    1.85
   0   9   6   -0.27    1.97
   0   9   7    4.86    2.43
   0   9   8    4.45    2.40
   0   9   9    0.64    2.43
   0  -9 -10    9.34    3.31
   0   9  10    6.96    2.71
   0   9  11   14.91    2.89
   0 -10   5    4.93    2.27
   0  10  -4   14.28    3.20
   0 -10   4   13.72    2.68
   0  10  -3   15.90    3.01
   0 -10   3   15.89    2.43
   0 -10   2    1.24    1.68
   0  10  -2    1.86    2.45
   0 -10   1    1.49    1.62
   0  10  -1    1.91    2.23
   0  10   0   12.25    2.62
   0 -10   0   16.03    2.03
   0  10   1   16.31    2.73
   0  10   2    2.17    1.73
   0  10   3    3.79    1.89
   0  10   7   -0.81    2.16
   0  10   8   -0.44    2.26
   0  10   9   -0.53    2.42
   0  10  10    0.18    2.39
   0 -11   2   10.74    2.10
   0  11  -2   10.56    2.93
   0  11  -1    2.39    2.62
   0  11   0   -2.67    2.19
   0  11   1    1.49    2.05
   0  11   2   13.45    2.54
   1 -11  -6    3.14    3.00
  -1  11  -1   -3.80    2.41
   1 -11   2    0.78    2.27
   1 -10  -8   -0.10    2.94
  -1  10   8    2.04    2.32
  -1  10   7    0.12    2.39
   1 -10  -7    2.47    2.83
  -1  10   6    6.03    2.55
  -1  10   1    9.64    2.38
  -1  10   0    5.12    2.35
   1 -10   0    6.87    1.93
  -1  10  -1   -0.75    2.51
   1 -10   1    0.97    1.82
   1 -10   2   -0.19    1.91
  -1  10  -2    1.91    2.53
   1 -10   3    4.30    2.05
  -1  10  -3    4.93    2.77
   1 -10   4   24.79    2.95
  -1  10  -4   25.78    3.55
  -1   9  10   -0.51    2.75
   1  -9  -9   10.36    3.32
  -1   9   9    5.92    2.81
   1  -9  -8    3.43    2.75
  -1   9   8    4.29    2.63
   1  -9  -7    2.45    2.59
  -1   9   7    3.32    2.32
  -1   9   6    3.85    2.30
  -1   9   5    4.84    2.27
  -1   9   4    0.99    1.97
  -1   9   2   18.41    2.35
   1  -9  -1   26.85    2.27
  -1   9   1   26.90    2.70
  -1   9   0    4.73    2.22
   1  -9   0    4.45    1.84
   1  -9   1    6.79    1.80
  -1   9  -1    7.89    2.50
   1  -9   2    0.26    1.66
  -1   9  -2    0.33    2.29
  -1   9  -3    2.81    2.43
   1  -9   3    1.39    1.92
   1  -9   4   -0.29    2.05
  -1   9  -4   -0.24    2.55
   1  -9   5    3.24    2.08
  -1   9  -5    4.18    2.64
  -1   9  -6   -3.64    2.86
   1  -9   6   -0.09    1.92
  -1   8  11    2.03    2.94
   1  -8 -11    0.50    2.92
   1  -8 -10    1.27    2.69
  -1   8  10   -0.50    2.67
  -1   8   9    4.84    2.53
   1  -8  -9    8.50    2.95
   1  -8  -8    9.04    2.77
  -1   8   8   13.66    2.79
  -1   8   7    2.19    2.39
   1  -8  -7    0.20    2.54
  -1   8   6    1.49    2.04
  -1   8   5   12.82    2.39
  -1   8   3  116.25    3.95
  -1   8   2   11.80    2.07
   1  -8  -2   15.93    1.79
   1  -8  -1   15.40    1.89
  -1   8   1   15.45    2.18
   1  -8   0   93.98    3.63
  -1   8   0   87.37    3.98
   1  -8   1    1.98    1.43
  -1   8  -1    3.15    2.06
  -1   8  -2   17.35    2.69
   1  -8   2   14.12    2.20
  -1   8  -3    1.59    2.30
   1  -8   3    0.49    1.83
   1  -8   4   -0.55    1.90
  -1   8  -4    0.08    2.67
   1  -8   5    8.15    2.18
  -1   8  -5    6.59    2.68
   1  -8   6    1.85    2.00
  -1   8  -6    2.06    3.03
  -1   8  -7   -1.24    3.14
   1  -8   7    2.05    2.35
  -1   8  -8    2.86    3.23
   1  -8   8    5.90    2.75
  -1   7  12   -0.15    2.77
   1  -7 -12    1.45    2.73
  -1   7  11   -0.38    2.63
   1  -7 -11   -1.27    2.67
   1  -7 -10    2.53    2.60
  -1   7  10    2.94    2.49
   1  -7  -9   -0.13    2.54
  -1   7   9    1.22    2.40
   1  -7  -8    2.60    2.26
  -1   7   8    0.03    2.19
   1  -7  -7    1.96    2.28
  -1   7   7    2.34    2.17
  -1   7   6   42.42    3.10
  -1   7   5   13.49    2.28
   1  -7  -3    0.10    1.10
  -1   7   3    0.53    1.27
   1  -7  -2   12.04    1.58
  -1   7   2   11.41    1.92
   1  -7  -1    0.99    1.33
  -1   7   1    1.79    1.81
  -1   7   0    2.00    1.98
   1  -7   0    1.01    1.45
  -1   7  -1 1081.41   11.76
   1  -7   1 1101.27   11.07
  -1   7  -2  209.61    5.77
   1  -7   2  218.60    5.32
   1  -7   3    5.24    1.85
  -1   7  -3    4.76    2.39
  -1   7  -4    4.50    2.75
   1  -7   4    4.73    1.83
   1  -7   5   -0.25    2.01
  -1   7  -5   -0.48    2.65
   1  -7   6    3.65    2.09
  -1   7  -6    5.08    2.91
  -1   7  -7   -0.51    2.90
   1  -7   7    1.27    1.91
   1  -7   8   -0.21    2.10
  -1   7  -8    1.72    3.22
   1  -7   9   -0.77    2.25
  -1   7  -9    2.57    3.37
  -1   6  12    4.71    2.81
   1  -6 -12    5.61    2.73
   1  -6 -11    0.53    2.56
  -1   6  11    1.77    2.58
  -1   6  10    3.73    2.33
   1  -6 -10    1.58    2.45
   1  -6  -9    6.98    2.73
  -1   6   9    7.24    2.47
  -1   6   8    1.21    2.25
   1  -6  -8    1.20    2.35
   1  -6  -7    8.67    2.68
  -1   6   7   11.73    2.32
  -1   6   6   11.49    2.32
  -1   6   4   39.52    2.02
   1  -6  -4   39.92    1.88
   1  -6  -3   19.85    1.57
  -1   6   3   19.62    1.66
  -1   6   2   30.09    2.09
   1  -6  -2   28.79    1.81
   1  -6  -1    0.79    1.15
  -1   6   1    1.11    1.60
   1  -6   0    9.64    1.53
  -1   6   0   12.01    1.96
  -1   6  -1   12.67    2.40
   1  -6   1   14.33    1.83
  -1   6  -2   22.29    2.82
   1  -6   2   21.70    2.11
  -1   6  -3  130.18    4.81
   1  -6   3  128.40    4.12
   1  -6   4  118.43    4.14
  -1   6  -4  109.87    4.66
  -1   6  -5    9.21    2.69
   1  -6   5    9.75    2.03
  -1   6  -6    5.92    2.83
   1  -6   6    6.37    1.90
  -1   6  -7   28.87    3.45
   1  -6   7   31.97    2.88
   1  -6   8    0.58    2.06
  -1   6  -8    3.90    3.74
   1  -6   9    4.31    2.32
  -1   6  -9    7.87    3.05
  -1   6 -10    1.81    3.09
   1  -6  10    0.86    2.27
   1  -6  11   -2.04    2.62
  -1   5  13   -0.72    2.23
   1  -5 -13   -3.76    2.46
  -1   5  12    0.78    2.18
   1  -5 -12   -1.22    2.39
  -1   5  11   11.76    2.75
   1  -5 -11   13.28    2.68
  -1   5  10    3.80    2.16
   1  -5 -10    6.05    2.50
  -1   5   9   -1.32    2.18
   1  -5  -9   -0.43    2.21
  -1   5   8  204.11    5.82
   1  -5  -8  200.89    5.88
  -1   5   7  474.18    8.07
   1  -5  -7  447.20    8.10
   1  -5  -6   44.72    3.14
  -1   5   6   50.37    3.19
   1  -5  -5    1.04    0.81
  -1   5   5    1.24    0.89
   1  -5  -4   13.20    1.18
  -1   5   4   11.55    1.21
  -1   5   3   46.57    1.95
   1  -5  -3   48.28    1.86
   1  -5  -2   13.64    1.26
  -1   5   2   11.73    1.39
  -1   5   1    0.84    1.29
   1  -5  -1    0.38    0.97
  -1   5   0    6.23    1.48
   1  -5   0    3.99    1.11
   1  -5   1   12.13    1.44
  -1   5  -1   12.69    1.99
   1  -5   2   42.98    2.32
  -1   5  -2   41.23    2.87
  -1   5  -3  277.39    5.89
   1  -5   3  275.07    5.38
  -1   5  -4  101.23    4.29
   1  -5   4   93.86    3.53
  -1   5  -5    6.79    2.73
   1  -5   5    8.12    2.03
  -1   5  -6   44.07    3.75
   1  -5   6   43.98    2.93
   1  -5   7   33.13    2.67
  -1   5  -7   31.70    3.43
  -1   5  -8    2.08    2.85
   1  -5   8    0.89    1.76
   1  -5   9    0.36    1.90
  -1   5  -9    2.67    3.05
  -1   5 -10    1.65    3.02
   1  -5  10    0.59    2.11
  -1   5 -11    2.33    3.16
   1  -5  11   -0.41    2.21
   1  -5  12    1.29    2.30
  -1   5 -12    5.52    3.94
   1  -4 -14    1.68    2.29
  -1   4  14    1.78    2.41
  -1   4  13    7.38    2.45
   1  -4 -13    5.65    2.42
  -1   4  12    0.35    2.05
   1  -4 -12   -0.21    2.28
  -1   4  11    1.59    2.15
   1  -4 -11    2.75    2.30
   1  -4 -10    3.22    2.16
  -1   4  10    0.48    2.14
  -1   4   9    7.15    2.30
   1  -4  -9    7.42    2.33
  -1   4   8    2.87    2.27
   1  -4  -8    4.67    2.46
   1  -4  -7  378.67    7.15
  -1   4   7  395.76    7.09
  -1   4   6   65.75    1.98
   1  -4  -6   68.23    3.31
  -1   4   6   68.89    3.25
   1  -4  -5    4.17    0.78
  -1   4   5    3.97    0.79
   1  -4  -4   87.10    2.10
  -1   4   4   84.16    2.10
  -1   4   3  104.95    2.32
   1  -4  -3  105.20    2.37
   1  -4  -2 1184.20    7.82
  -1   4   2 1214.77    7.88
   1  -4  -1  217.58    3.53
  -1   4   1  217.98    3.63
  -1   4   0    9.41    1.52
   1  -4   0    8.89    1.10
   1  -4   1  448.93    5.47
  -1   4  -1  449.08    5.90
   1  -4   2   23.74    1.73
  -1   4  -2   25.42    2.14
  -1   4  -3   21.87    2.22
   1  -4   3   22.78    1.82
   1  -4   4   35.66    2.25
  -1   4  -4   37.51    2.91
   1  -4   4   37.00    1.78
   1  -4   5    5.66    1.25
   1  -4   5    6.08    1.64
   1  -4   6  247.93    5.39
   1  -4   6  265.86    4.50
   1  -4   7   81.92    3.51
   1  -4   8    9.00    1.88
   1  -4   9    0.35    1.80
   1  -4  10    6.44    2.17
   1  -4  11    0.28    1.90
   1  -4  12   -1.79    2.04
  -1   4 -13    4.11    3.24
   1  -4  13    2.22    2.06
   1  -3 -14    2.10    1.90
  -1   3  14   -1.40    2.35
   1  -3 -13    3.26    2.13
  -1   3  13    2.80    2.12
  -1   3  12   11.07    2.27
   1  -3 -12    9.48    2.23
  -1   3  11    0.43    1.94
   1  -3 -11    1.08    1.97
   1  -3 -10    1.80    2.19
  -1   3  10    2.30    2.07
   1  -3  -9    9.40    2.31
  -1   3   9   10.10    2.32
   1  -3  -8   15.62    2.50
  -1   3   8   14.62    2.35
  -1   3   7    2.18    1.94
   1  -3  -7   -0.42    1.92
   1  -3  -6    0.42    0.68
   1  -3  -6    1.64    1.70
  -1   3   6    0.09    1.65
  -1   3   5   16.67    0.96
  -1   3   5   14.19    1.84
   1  -3  -5   16.10    1.02
   1  -3  -5   16.79    1.92
   1  -3  -4   17.08    1.68
  -1   3   4   17.49    0.93
   1  -3  -4   17.88    1.02
  -1   3   3   72.46    1.62
   1  -3  -3   76.47    1.84
  -1   3   2   91.88    1.93
   1  -3  -2   92.91    2.04
  -1   3   1  256.92    3.29
   1  -3  -1  261.88    3.38
   1  -3   0   16.94    1.13
  -1   3   0   16.64    1.32
  -1   3  -1  159.99    3.19
   1  -3   1  163.87    3.01
   1  -3   2   17.99    1.37
   1  -3   3  186.82    3.11
   1  -3   3  179.97    3.57
   1  -3   4   29.29    1.51
   1  -3   4   28.18    1.85
   1  -3   5   -0.22    1.26
   1  -3   5    0.24    0.83
   1  -3   6  138.72    3.84
   1  -3   6  141.29    3.24
   1  -3   7   17.53    1.65
   1  -3   7   18.77    2.08
   1  -3   8    1.13    1.67
   1  -3   8   -0.60    1.21
   1  -3   9  289.93    6.15
   1  -3  10    1.09    1.85
   1  -3  11    0.11    1.87
   1  -3  12    2.54    1.80
  -1   2  14    2.98    2.02
   1  -2 -14    4.61    2.09
  -1   2  13    6.39    2.25
   1  -2 -13    3.84    1.92
   1  -2 -12    0.48    1.84
  -1   2  12    0.30    1.68
   1  -2 -11   67.44    3.62
  -1   2  11   67.33    3.63
  -1   2  10    3.63    1.90
   1  -2 -10    3.28    1.95
  -1   2   9    2.83    1.92
   1  -2  -9    2.49    1.99
  -1   2   8   42.39    2.79
   1  -2  -8   44.42    2.87
   1  -2  -7    5.30    1.91
  -1   2   7    5.86    1.82
   1  -2  -6    3.64    1.61
  -1   2   6    3.65    1.47
  -1   2   5  249.22    4.44
   1  -2  -5  254.52    3.27
   1  -2  -5  248.53    4.54
   1  -2  -4  503.93    4.28
  -1   2   4  506.29    3.69
   1  -2  -4  500.24    5.85
  -1   2   3   33.60    0.91
   1  -2  -3   32.12    1.14
   1  -2  -3   33.21    1.69
  -1   2   2   83.83    1.37
   1  -2  -2   91.12    1.77
  -1   2   1   48.35    1.23
   1  -2  -1   48.26    1.37
   1  -2   0   20.41    1.06
  -1   2   0   19.50    1.20
   1  -2   1  134.91    2.41
   1  -2   2  141.86    2.64
   1  -2   2  145.88    2.44
   1  -2   3  656.13    5.86
   1  -2   3  662.81    5.33
  -1   2  -4    0.75    0.29
   1  -2   4    0.81    0.75
   1  -2   4    0.08    0.93
   1  -2   5  105.96    2.88
   1  -2   5  101.18    2.50
  -1   2  -5  102.14    1.59
   1  -2   6   59.32    2.42
   1  -2   6   56.55    2.08
  -1   2  -6   56.05    1.45
   1  -2   7    1.29    1.33
   1  -2   7    1.02    1.07
   1  -2   8   10.35    1.70
   1  -2   8    8.52    1.40
   1  -2   9   51.89    2.85
   1  -2   9   54.85    2.63
   1  -2  10  201.15    5.16
   1  -2  10  208.03    4.90
   1  -2  11   -0.57    1.56
   1  -2  12    5.07    1.81
  -1   1  14   -0.25    1.91
   1  -1 -13   -0.02    1.84
  -1   1  13   -0.71    1.89
   1  -1 -12    0.36    1.84
  -1   1  12   -0.31    1.74
   1  -1 -11    0.36    1.69
  -1   1  11    2.18    1.61
   1  -1 -10  161.81    4.86
  -1   1  10  157.56    4.72
   1  -1  -9    7.49    1.89
  -1   1   9    7.83    1.80
   1  -1  -8    7.19    1.78
  -1   1   8    6.64    1.84
  -1   1   7   35.28    2.24
   1  -1  -7   35.38    2.27
   1  -1  -6  129.77    3.42
  -1   1   6  131.90    3.41
  -1   1   5  308.25    4.60
   1  -1  -5  308.68    4.72
  -1   1   4   84.83    2.36
   1  -1  -4   82.10    2.40
   1  -1  -3   12.29    1.23
   1  -1  -3   13.63    0.84
   1  -1  -2  247.36    2.68
   1  -1  -2  253.59    3.23
   1  -1  -1   82.80    1.71
   1  -1  -1   84.16    1.53
   1  -1   0   87.24    1.58
   1  -1   0   86.49    1.37
   1  -1   1  515.06    3.87
   1  -1   1  520.24    3.89
   1  -1   2 1392.25    6.79
   1  -1   2 1398.76    6.58
   1  -1   3  301.16    3.49
   1  -1   3  285.49    3.33
   1  -1   4   15.18    1.04
   1  -1   4   16.39    1.16
  -1   1  -4   16.59    0.64
   1  -1   5  121.82    2.64
   1  -1   5  123.78    2.72
  -1   1  -5  125.07    1.90
   1  -1   6   32.54    1.65
  -1   1  -6   35.03    1.27
   1  -1   6   33.95    1.74
  -1   1  -7    3.85    0.84
   1  -1   7    4.03    1.25
   1  -1   7    3.99    1.16
   1  -1   8   12.59    1.52
   1  -1   8   13.59    1.64
   1  -1   9    0.62    1.40
   1  -1   9    0.01    1.32
   1  -1  10   15.57    1.84
   1  -1  10   13.26    1.85
   1  -1  11   35.96    2.53
   1  -1  11   33.70    2.44
   1  -1  12    6.86    1.71
   1   0 -12    4.56    1.80
  -1   0  12    4.84    1.81
   1   0 -11    1.30    1.50
  -1   0  11    1.68    1.53
   1   0 -10    1.67    1.63
  -1   0  10    1.54    1.51
   1   0  -9    3.99    1.76
  -1   0   9    3.43    1.59
  -1   0   8   40.14    2.31
   1   0  -8   39.15    2.49
   1   0  -7   53.06    2.50
  -1   0   7   52.14    2.29
   1   0  -6   57.97    2.34
  -1   0   6   54.55    2.19
  -1   0   5  445.83    5.06
   1   0  -5  447.72    5.34
   1   0  -4  362.98    4.41
  -1   0   4  359.33    4.14
   1   0  -3  634.89    5.22
   1   0  -2 1049.52    5.43
   1   0  -2 1045.04    5.87
   1   0  -1 2376.91    7.59
   1   0  -1 2400.53    7.08
   1   0   0  275.07    2.24
   1   0   0  280.05    2.03
   1   0   1  513.21    3.05
   1   0   1  506.85    3.26
   1   0   2 1964.84    7.17
   1   0   2 1955.52    6.46
   1   0   3   93.16    1.65
   1   0   3   93.74    1.90
   1   0   4   59.09    1.52
   1   0   4   56.99    1.73
  -1   0  -4   61.80    1.38
   1   0   5  111.12    2.56
   1   0   5  111.26    2.22
  -1   0  -5  107.60    2.05
   1   0   6  328.80    4.08
   1   0   6  329.06    4.65
  -1   0  -6  333.31    3.91
   1   0   7    0.55    0.90
   1   0   7    0.33    1.05
  -1   0  -7   -0.18    0.88
  -1   0  -8   10.17    1.33
   1   0   8    8.96    1.30
   1   0   8   10.41    1.59
   1   0   9    0.92    1.20
  -1   0  -9   -0.30    1.12
   1   0   9    0.44    1.38
   1   0  10    0.85    1.14
   1   0  10    0.60    1.47
   1   0  11   22.64    2.35
   1   0  12   31.98    2.71
   1   0  13   17.65    2.40
   1   0  14    4.16    1.80
   1   1 -11    4.42    1.71
  -1  -1  11    4.30    1.50
  -1  -1  10   11.37    1.77
   1   1 -10   10.82    1.87
  -1  -1   9    1.84    1.40
   1   1  -9    0.38    1.48
   1   1  -8   93.33    3.24
  -1  -1   8   93.36    3.04
   1   1  -7  258.06    4.66
  -1  -1   7  256.89    4.37
  -1  -1   6   76.06    2.32
   1   1  -6   76.72    2.50
   1   1  -5   86.36    2.44
  -1  -1   5   90.03    2.24
  -1  -1   4  437.39    4.14
   1   1  -4  434.60    4.65
   1   1  -3   14.07    1.02
  -1  -1   3   14.33    0.88
   1   1  -2   49.88    1.43
  -1  -1   2   49.66    1.14
   1   1  -2   48.19    1.40
   1   1  -1  984.30    4.37
   1   1  -1  962.29    4.90
   1   1   0  391.71    2.59
   1   1   0  387.16    2.64
   1   1   0  386.20    2.74
   1   1   1 1797.02    5.40
   1   1   1 1793.91    4.71
   1   1   1 1791.73    6.01
   1   1   1 1794.70    5.47
   1   1   2  634.78    4.05
   1   1   2  642.12    2.63
   1   1   2  628.00    4.18
   1   1   3  880.15    5.56
   1   1   3  871.98    3.60
   1   1   3  872.10    5.59
   1   1   4    8.70    0.58
   1   1   4    8.23    0.94
   1   1   5   45.68    1.85
   1   1   5   45.82    1.23
   1   1   6  235.95    2.98
   1   1   6  232.73    4.13
  -1  -1  -6  240.84    3.74
   1   1   7  411.82    4.33
  -1  -1  -7  417.35    5.29
   1   1   7  406.63    5.79
  -1  -1  -8   11.52    1.52
   1   1   8   11.39    1.75
   1   1   8   11.81    1.15
   1   1   9    7.15    1.77
  -1  -1  -9    9.97    1.72
   1   1   9    6.72    1.12
   1   1  10   17.08    2.13
  -1  -1 -10   18.68    1.95
   1   1  11   26.19    2.43
   1   1  12   14.01    2.24
   1   1  13    0.35    1.77
   1   1  14    2.97    2.03
   1   1  15   10.77    2.30
   1   2 -10    3.07    1.45
   1   2  -9   38.31    2.25
   1   2  -8    2.05    1.37
  -1  -2   8    0.93    1.29
   1   2  -7   85.95    2.77
  -1  -2   7   85.48    2.58
  -1  -2   6    1.17    0.77
   1   2  -6    1.07    0.98
   1   2  -5   98.16    2.55
  -1  -2   5   99.95    2.18
   1   2  -4  656.17    5.75
   1   2  -4  653.92    6.40
  -1  -2   4  653.85    4.56
   1   2  -3   12.57    1.30
   1   2  -3   11.69    0.91
  -1  -2   3   11.68    0.63
   1   2  -2    1.16    0.64
   1   2  -2    1.35    1.01
   1   2  -1  410.75    3.60
   1   2  -1  420.07    3.93
   1   2   0   84.62    1.83
   1   2   0   83.79    1.66
   1   2   1 1171.24    4.56
   1   2   1 1165.15    5.93
   1   2   2  589.46    4.07
   1   2   2  584.79    4.44
   1   2   3    7.26    0.85
   1   2   3    7.96    0.92
   1   2   4   12.60    1.07
   1   2   4   12.90    1.15
   1   2   5  167.14    3.10
   1   2   5  165.01    3.27
   1   2   5  164.76    1.59
   1   2   6   21.56    0.80
   1   2   6   20.12    1.61
   1   2   7    3.06    0.59
   1   2   7    2.08    1.22
  -1  -2  -7    2.92    1.34
   1   2   8    0.72    0.69
  -1  -2  -8   -0.02    1.48
   1   2   8   -0.59    1.47
  -1  -2  -9   25.27    2.30
   1   2   9   20.48    2.17
  -1  -2 -10    5.85    1.82
   1   2  10    6.76    1.91
  -1  -2 -11   21.68    2.21
   1   2  11   19.55    2.31
   1   2  12   30.01    2.74
  -1  -2 -12   29.50    2.56
   1   2  13   -0.36    1.78
   1   2  14    0.60    1.93
   1   2  15    1.84    2.16
   1   3 -12    1.85    2.55
   1   3 -11    2.51    2.52
   1   3 -10   13.04    2.79
   1   3  -9   45.10    3.30
   1   3  -8  236.94    4.65
   1   3  -8  226.61    5.70
   1   3  -7   27.41    1.79
   1   3  -7   30.93    2.79
  -1  -3   6    1.08    0.75
   1   3  -6    0.54    0.98
  -1  -3   5   11.35    0.84
   1   3  -5   12.45    1.19
   1   3  -5   13.12    1.96
   1   3  -4  144.85    3.62
  -1  -3   4  144.51    1.98
   1   3  -4  145.90    2.86
   1   3  -3    3.70    1.51
  -1  -3   3    3.24    0.38
   1   3  -3    3.54    0.80
   1   3  -2 2057.90   10.83
   1   3  -2 2045.41    9.33
   1   3  -1    0.22    0.59
   1   3  -1    0.64    0.92
   1   3   0   10.39    0.48
   1   3   0    9.74    1.19
   1   3   0   10.10    0.85
   1   3   1  859.40    4.46
   1   3   1  853.40    6.12
   1   3   2   68.88    1.87
   1   3   2   69.67    1.65
   1   3   3  524.69    4.80
   1   3   3  515.35    4.95
   1   3   4  684.34    5.93
   1   3   4  678.30    6.10
   1   3   5  627.83    6.45
   1   3   5  637.26    6.10
   1   3   6   40.55    1.90
   1   3   6   42.86    2.14
   1   3   7    0.56    1.33
   1   3   8    4.20    1.60
  -1  -3  -9    0.64    1.87
   1   3   9   -0.96    1.70
  -1  -3 -10    4.09    2.00
   1   3  10    3.97    1.75
  -1  -3 -11    6.33    1.97
   1   3  11    6.74    2.08
   1   3  12   19.55    2.54
  -1  -3 -12   20.40    2.60
   1   3  13    2.60    1.90
  -1  -3 -13    1.85    1.95
   1   3  14    2.85    2.17
   1   3  15   -2.23    2.07
  -1  -4  13   -2.82    2.12
   1   4 -12   -0.26    2.94
  -1  -4  12    1.26    2.00
   1   4 -11    2.21    2.78
   1   4 -10    6.29    2.77
   1   4  -9   11.29    2.67
   1   4  -8    3.63    2.48
   1   4  -7    5.83    1.08
   1   4  -7    7.13    2.54
   1   4  -6    2.24    1.01
   1   4  -6    2.80    2.28
   1   4  -5    1.34    0.97
   1   4  -5    2.69    2.02
   1   4  -4   34.00    2.51
   1   4  -4   31.01    1.60
   1   4  -3   11.20    1.82
   1   4  -3    9.22    1.09
   1   4  -2  253.76    4.59
   1   4  -2  262.08    3.66
   1   4  -1  758.38    6.05
   1   4  -1  749.13    7.19
   1   4   0  249.11    2.32
   1   4   0  244.23    4.02
   1   4   1  244.95    2.80
   1   4   1  242.89    3.87
  -1  -4  -2   20.76    0.93
   1   4   2   20.76    1.44
   1   4   2   23.74    1.23
   1   4   3  669.55    5.83
   1   4   3  665.17    6.21
  -1  -4  -3  657.75    3.73
   1   4   4  894.51    7.40
   1   4   4  891.10    7.41
   1   4   5  315.41    4.60
   1   4   5  330.41    4.96
   1   4   6   20.50    1.55
   1   4   6   20.85    1.80
   1   4   7   38.07    2.05
   1   4   7   37.80    2.40
   1   4   8   46.06    2.77
   1   4   8   43.11    2.32
   1   4   9   32.63    2.69
  -1  -4 -10    9.83    2.28
   1   4  10    8.18    2.05
   1   4  11    5.27    1.91
  -1  -4 -11    6.58    2.07
   1   4  12   -0.23    2.06
  -1  -4 -12    0.51    2.01
   1   4  13   -0.67    2.20
  -1  -4 -13    0.29    2.05
   1   4  14    2.45    2.28
  -1  -4 -14    1.85    2.01
  -1  -5  12    0.88    2.46
   1   5 -12    1.93    3.09
  -1  -5  11    1.57    2.04
   1   5 -11    1.20    2.88
  -1  -5  10    9.53    2.27
   1   5 -10    8.07    2.93
   1   5  -9    8.87    2.83
   1   5  -8    5.42    2.77
   1   5  -7    0.17    2.51
   1   5  -6    3.18    1.03
   1   5  -6    2.39    2.55
   1   5  -5    3.33    1.05
   1   5  -5    1.90    2.48
   1   5  -4   11.07    2.41
   1   5  -4   14.29    1.25
   1   5  -3   76.93    3.39
   1   5  -3   76.80    2.30
   1   5  -2    1.05    0.81
   1   5  -2    0.24    1.62
   1   5  -1   25.11    1.98
   1   5   0    8.45    1.50
   1   5   0    9.62    0.79
   1   5   1  139.51    3.40
  -1  -5  -1  142.93    2.79
   1   5   1  146.46    2.48
   1   5   2  133.48    2.67
  -1  -5  -2  131.84    2.44
   1   5   2  128.09    3.22
   1   5   3  162.92    3.24
  -1  -5  -3  168.96    2.42
   1   5   3  165.09    3.59
   1   5   4   53.01    2.21
  -1  -5  -4   54.53    1.20
   1   5   4   53.36    2.22
   1   5   5    0.90    1.40
   1   5   5    1.64    1.12
   1   5   6   78.14    3.08
   1   5   6   80.56    2.76
   1   5   7   19.14    1.72
   1   5   7   21.10    2.09
   1   5   8  885.57    9.12
   1   5   8  873.29   10.26
   1   5   9  249.71    5.17
   1   5   9  247.75    5.97
  -1  -5 -10    1.24    2.06
   1   5  10    2.43    2.04
  -1  -5 -11    3.88    2.30
   1   5  11    4.52    2.12
  -1  -5 -12    0.00    2.26
   1   5  12    0.88    2.02
   1   5  13   -0.08    2.19
  -1  -5 -13    0.18    2.12
   1   5  14   -0.76    2.45
  -1  -5 -14    1.70    2.29
  -1  -5 -15    2.51    2.46
   1   6 -11    0.23    3.04
  -1  -6  11    1.36    2.37
   1   6 -10    2.12    2.95
  -1  -6  10    2.39    2.13
   1   6  -9    0.12    2.84
  -1  -6   9    1.86    1.91
   1   6  -8    8.31    2.72
  -1  -6   8    8.16    2.24
   1   6  -7    0.50    2.55
   1   6  -6    5.89    2.62
   1   6  -5   18.49    2.91
   1   6  -4    2.33    2.56
   1   6  -4    3.19    1.03
   1   6  -3   13.36    2.60
   1   6  -3   14.21    1.32
   1   6  -2   18.02    2.28
  -1  -6   2   21.70    1.99
   1   6  -1    5.67    1.88
  -1  -6   1    4.79    1.51
  -1  -6   0   22.43    1.72
   1   6   0   22.78    2.23
   1   6   0   22.23    1.15
   1   6   1  132.05    3.78
  -1  -6  -1  133.17    3.04
   1   6   1  131.79    2.65
   1   6   2  118.46    2.79
  -1  -6  -2  120.88    2.72
   1   6   2  118.51    3.49
   1   6   3    5.13    1.40
   1   6   3    9.27    1.39
  -1  -6  -3    7.51    0.89
   1   6   4   32.03    2.07
   1   6   4   32.69    2.09
   1   6   5  150.71    3.97
   1   6   5  153.56    3.84
   1   6   6   40.88    2.68
   1   6   6   42.87    2.33
   1   6   7   37.62    2.79
   1   6   7   40.64    2.30
   1   6   8    4.81    1.90
   1   6   8    3.94    1.48
   1   6   9   32.52    2.87
   1   6   9   37.13    2.37
   1   6  10   37.53    3.09
  -1  -6 -11   28.92    3.18
   1   6  11   28.41    2.96
  -1  -6 -12   13.68    2.76
   1   6  12   10.47    2.44
  -1  -6 -13    7.50    2.42
   1   6  13    6.10    2.55
  -1  -6 -14    6.09    2.62
   1   6  14    9.24    2.75
   1   7 -10    3.97    3.21
  -1  -7  10    4.24    2.07
  -1  -7   9    8.57    2.45
   1   7  -9    7.43    3.18
  -1  -7   8    2.99    2.36
   1   7  -8    3.89    3.09
  -1  -7   7   -0.79    2.10
   1   7  -7   -1.83    2.85
   1   7  -6    9.46    2.75
  -1  -7   6   13.66    2.39
   1   7  -5    3.50    2.68
  -1  -7   5    4.30    2.00
   1   7  -4   14.75    2.69
  -1  -7   4   17.34    2.32
  -1  -7   3    0.45    1.80
   1   7  -3    1.26    2.13
   1   7  -2    5.85    2.25
  -1  -7   2    6.26    1.76
   1   7  -1  174.00    5.09
  -1  -7   1  173.46    4.34
  -1  -7   0  981.82    9.27
   1   7   0  964.39   10.67
  -1  -7  -1  165.81    3.74
   1   7   1  157.16    4.54
  -1  -7  -2   30.76    1.79
   1   7   2   28.45    2.29
   1   7   2   30.11    1.82
   1   7   3    4.97    1.50
  -1  -7  -3    4.57    0.92
   1   7   3    3.79    1.65
   1   7   4   22.58    2.10
   1   7   4   18.76    2.03
   1   7   5   43.12    2.64
   1   7   5   46.22    2.58
   1   7   6   -0.77    1.78
   1   7   6    0.22    1.47
   1   7   7   -0.08    1.84
   1   7   7    1.41    1.39
   1   7   8    2.14    1.68
   1   7   8    0.95    1.34
   1   7   9    0.57    1.91
   1   7   9   -0.07    1.52
   1   7  10   50.86    3.48
   1   7  11    2.82    2.21
  -1  -7 -11    0.50    2.47
  -1  -7 -12   -0.03    2.48
   1   7  12    0.77    2.21
  -1  -7 -13   -0.51    3.09
   1   7  13   -1.64    2.47
   1   8  -9   -0.71    3.05
  -1  -8   8    1.12    2.44
   1   8  -8   -1.91    3.15
  -1  -8   7    0.62    2.21
   1   8  -7   -0.94    3.07
  -1  -8   6    1.36    1.82
   1   8  -6    1.02    2.54
   1   8  -5    4.00    2.50
  -1  -8   5    0.93    1.89
  -1  -8   4    3.95    2.06
   1   8  -4    4.70    2.24
  -1  -8   3    7.16    1.97
   1   8  -3    8.79    2.45
   1   8  -2    6.08    2.17
  -1  -8   2    4.53    1.72
   1   8  -1   14.16    2.40
  -1  -8   1   12.81    1.93
  -1  -8   0  253.68    5.25
   1   8   0  241.81    6.08
  -1  -8  -1  224.83    4.73
   1   8   1  211.47    5.62
  -1  -8  -2    1.77    1.20
   1   8   2    2.12    1.72
   1   8   3    0.32    1.23
   1   8   3    1.19    1.60
   1   8   4   21.61    2.09
   1   8   4   19.40    2.11
   1   8   5  128.04    4.02
   1   8   5  127.50    4.15
   1   8   6   55.68    2.91
   1   8   6   49.70    2.98
   1   8   7   10.22    2.21
   1   8   7   11.16    1.85
   1   8   8    1.67    1.46
   1   8   8    1.70    1.91
   1   8   9    0.77    1.86
   1   8  10   27.74    2.93
   1   8  11    1.31    2.13
  -1  -8 -12    2.36    2.63
   1   8  12    1.73    2.36
  -1  -9   7    6.15    2.50
   1   9  -7    9.07    3.35
  -1  -9   6   -0.53    2.17
   1   9  -6    2.77    2.75
  -1  -9   5    4.18    2.18
   1   9  -5    2.08    2.55
  -1  -9   4   -0.33    1.85
   1   9  -4    1.04    2.56
  -1  -9   3    1.42    1.79
   1   9  -3    1.18    2.48
   1   9  -2   -0.09    2.26
  -1  -9   2    0.50    1.77
  -1  -9   1    7.59    1.82
   1   9  -1    5.06    2.35
  -1  -9   0    9.95    1.87
   1   9   0   11.36    2.52
   1   9   1    3.33    2.18
  -1  -9  -1    5.42    1.45
   1   9   2   35.43    2.80
   1   9   3    7.57    2.03
   1   9   4    0.25    1.52
   1   9   5   -0.24    1.52
   1   9   5    0.84    1.56
   1   9   6    8.38    1.80
   1   9   6    8.07    2.05
   1   9   7   15.96    2.40
   1   9   7   13.31    1.92
   1   9   8    6.16    2.31
   1   9   9    2.31    2.12
   1   9  10    0.55    2.33
   1   9  11    1.61    2.34
   1   9  12   -0.30    2.31
  -1 -10   5    1.26    2.47
   1  10  -5    3.53    3.04
  -1 -10   4   40.38    3.48
   1  10  -4   41.06    3.99
   1  10  -3   15.31    3.02
  -1 -10   3   18.72    2.61
   1  10  -2    2.21    2.33
  -1 -10   2    4.61    1.93
   1  10  -1    0.29    2.09
  -1 -10   1    1.48    1.76
  -1 -10   0   -0.69    1.71
   1  10   0   -0.22    2.26
   1  10   1    4.45    2.26
   1  10   2   -0.53    1.69
   1  10   3    4.49    1.99
   1  10   4    4.58    1.97
   1  10   5    0.50    1.60
   1  10   6   10.06    2.03
   1  10   8   -0.18    1.83
   1  10   9   -0.11    2.18
   1  10  10    7.63    2.52
   1  10  11    3.76    2.61
  -1 -11   3   54.00    3.89
   1  11  -2   13.25    3.22
  -1 -11   2   13.07    2.62
   1  11  -1   -1.21    2.63
  -1 -11   1   -0.16    1.72
   1  11   0   -1.41    2.62
   1  11   1    1.31    2.02
   1  11   2   28.76    3.13
   1  11   3    1.01    2.08
   1  11   4    2.84    2.15
   1  11   5    0.84    1.88
   1  12   2    8.78    2.45
   1  12   3    1.47    2.20
   1  12   4    0.86    2.31
   2 -10  -7    2.54    2.67
  -2  10   7    2.32    2.61
   2 -10  -6    1.63    2.42
  -2  10   6    2.52    2.43
   2 -10   0    1.09    1.71
   2 -10   1    0.91    1.82
   2 -10   2    0.60    2.05
  -2  10  -2    3.83    2.57
  -2  10  -3    6.32    2.64
  -2   9   8    2.31    2.79
   2  -9  -8    1.70    2.94
  -2   9   7    5.81    2.61
   2  -9  -7    1.58    2.59
   2  -9  -6    2.98    2.58
  -2   9   6    2.50    2.45
   2  -9  -5    1.55    2.25
   2  -9  -1    6.15    1.81
   2  -9   0   -0.17    1.76
   2  -9   1   -1.17    1.59
  -2   9  -1   -0.60    2.16
   2  -9   2    7.37    2.29
  -2   9  -2    6.32    2.40
   2  -9   3   11.20    2.37
  -2   9  -3   12.48    2.77
   2  -9   4    9.18    2.55
  -2   9  -4   10.56    2.79
  -2   9  -5   -5.18    3.02
   2  -9   5    6.06    2.13
  -2   8  10    0.82    2.82
   2  -8 -10    1.28    2.88
  -2   8   9   24.57    3.53
   2  -8  -9   25.49    3.56
  -2   8   8    0.65    2.39
   2  -8  -8    2.92    2.81
   2  -8  -7    4.26    2.24
  -2   8   7    4.45    2.50
  -2   8   6    1.98    2.34
   2  -8  -6    1.84    2.21
   2  -8  -5   13.38    2.77
   2  -8  -4    8.44    2.21
   2  -8  -3    0.66    1.78
   2  -8  -2   13.14    1.86
   2  -8  -1    7.84    1.76
  -2   8   0    0.03    1.79
   2  -8   0    1.43    1.76
   2  -8   1    0.75    1.68
  -2   8  -1   -0.11    1.85
   2  -8   2   29.59    2.65
  -2   8  -2   30.69    3.01
  -2   8  -3    1.00    2.52
   2  -8   3    0.82    1.82
   2  -8   4   11.42    2.35
  -2   8  -4    9.38    2.76
  -2   8  -5   -0.43    2.89
   2  -8   5    0.54    2.09
  -2   8  -6   -1.23    2.86
   2  -8   6    1.41    2.18
  -2   8  -7    4.48    3.09
   2  -8   7    5.56    2.38
   2  -7 -11    0.73    2.55
  -2   7  11   -1.21    3.02
   2  -7 -10    0.26    3.01
  -2   7  10    1.84    2.58
  -2   7   9    7.00    2.87
   2  -7  -9    5.61    2.74
  -2   7   8    0.40    2.44
   2  -7  -8    1.17    2.51
  -2   7   7   12.84    2.63
   2  -7  -7   11.55    2.77
   2  -7  -6    1.51    2.32
   2  -7  -5    5.09    2.28
   2  -7  -4   26.73    2.74
   2  -7  -3   20.84    1.90
   2  -7  -3   22.90    2.45
   2  -7  -2   21.12    2.01
  -2   7   1    2.95    1.62
   2  -7  -1    1.62    1.46
  -2   7   0   26.61    2.54
   2  -7   0   20.87    2.16
  -2   7  -1   28.04    2.61
   2  -7   1   23.11    2.31
   2  -7   2   15.75    2.27
  -2   7  -2   17.17    2.81
   2  -7   3   58.69    3.44
  -2   7  -3   63.10    3.97
  -2   7  -4    9.28    2.94
   2  -7   4    7.12    1.99
   2  -7   5    1.60    1.82
  -2   7  -5   -1.37    2.65
   2  -7   6    0.16    1.92
  -2   7  -6   -0.62    2.69
   2  -7   7   26.34    3.01
  -2   7  -7   25.19    3.92
   2  -7   8   -0.38    2.10
  -2   7  -8    4.27    3.33
   2  -7   9    1.75    2.43
  -2   6  12    0.00    2.73
   2  -6 -11    1.54    2.70
  -2   6  11    1.08    2.89
  -2   6  10    1.88    2.38
   2  -6 -10    2.73    2.70
   2  -6  -9    9.37    2.62
  -2   6   9   12.24    2.65
   2  -6  -8    0.01    2.21
  -2   6   8    0.31    2.15
  -2   6   7   41.99    3.39
   2  -6  -7   42.38    3.35
   2  -6  -6   10.88    2.52
   2  -6  -5   41.28    3.10
   2  -6  -4   11.94    1.41
   2  -6  -4    9.09    2.12
   2  -6  -3   41.38    2.79
   2  -6  -3   39.08    2.29
   2  -6  -2    0.66    1.19
  -2   6   2   -0.43    1.44
   2  -6  -1    3.97    1.56
  -2   6   1    4.11    1.66
   2  -6   0    4.09    1.60
  -2   6   0    6.85    1.79
   2  -6   1    0.70    1.52
  -2   6  -1   -0.93    2.16
   2  -6   2   16.60    2.02
  -2   6  -2   13.95    2.60
   2  -6   3   11.78    2.03
  -2   6  -3   10.11    2.63
   2  -6   4   10.22    1.99
  -2   6  -4   10.33    2.68
   2  -6   5    0.63    1.71
  -2   6  -5    2.79    2.63
   2  -6   6    3.95    1.90
  -2   6  -6    3.95    2.88
   2  -6   7    6.77    2.11
  -2   6  -7    5.79    3.08
  -2   6  -8   22.89    3.70
   2  -6   8   21.57    2.70
  -2   6  -9   14.24    3.66
   2  -6   9   13.40    2.48
   2  -6  10    5.30    2.56
  -2   6 -10    3.04    3.48
  -2   5  12    7.02    2.81
   2  -5 -12    5.84    2.59
   2  -5 -11   17.41    3.29
  -2   5  11   18.80    3.14
  -2   5  10    2.53    2.61
   2  -5 -10    2.39    2.41
   2  -5  -9    1.06    2.26
  -2   5   9    0.50    2.21
   2  -5  -8   22.37    2.91
  -2   5   8   19.27    2.74
  -2   5   7    2.37    2.46
   2  -5  -7    1.11    2.24
   2  -5  -6   36.64    3.18
   2  -5  -5   50.37    2.18
   2  -5  -5   46.85    3.24
   2  -5  -4   24.44    2.48
   2  -5  -4   23.57    1.66
   2  -5  -3   38.94    2.07
   2  -5  -3   38.11    2.54
   2  -5  -2   12.62    1.52
  -2   5   2   12.04    1.42
   2  -5  -2   14.48    1.83
   2  -5  -1    6.99    1.42
  -2   5   1    6.31    1.38
  -2   5   0   15.15    2.06
   2  -5   0   16.19    1.71
   2  -5   1    8.02    1.55
  -2   5  -1    7.70    2.06
  -2   5  -2    6.87    2.23
   2  -5   2    9.86    1.71
   2  -5   3    1.47    1.54
  -2   5  -3    3.40    2.43
   2  -5   4   10.71    1.95
  -2   5  -4   12.18    2.83
   2  -5   5    0.18    1.62
  -2   5  -5    0.04    2.64
   2  -5   6    5.87    1.88
  -2   5  -6    4.31    2.68
   2  -5   7    7.29    2.06
  -2   5  -7    8.45    2.99
   2  -5   8    1.79    2.06
  -2   5  -8    3.91    3.09
   2  -5   9    2.52    2.00
  -2   5  -9    0.52    3.18
   2  -5  10    1.14    1.83
  -2   5 -10    2.43    3.06
   2  -5  11    2.06    2.17
  -2   5 -11    4.52    3.57
   2  -5  12    9.81    2.48
   2  -4 -13    0.71    2.30
  -2   4  13    0.08    2.27
   2  -4 -12    0.53    2.49
  -2   4  12   -2.24    2.17
   2  -4 -11    1.01    2.12
  -2   4  11    1.13    2.14
   2  -4 -10    0.99    2.24
  -2   4  10    1.22    2.31
   2  -4  -9    7.90    2.55
  -2   4   9    8.81    2.47
  -2   4   8    8.69    2.34
   2  -4  -8    8.01    2.48
  -2   4   7  169.42    5.20
   2  -4  -7  173.70    5.27
   2  -4  -6    2.15    2.09
   2  -4  -6    1.48    0.97
   2  -4  -5    4.53    1.94
   2  -4  -5    3.99    1.17
   2  -4  -4   14.22    2.01
   2  -4  -4   12.02    1.30
   2  -4  -3   36.72    2.29
   2  -4  -3   35.89    1.80
  -2   4   3   34.63    1.38
   2  -4  -2  121.82    3.33
  -2   4   2  120.84    2.62
   2  -4  -2  117.40    3.05
  -2   4   1  679.96    6.33
   2  -4  -1  688.39    6.83
   2  -4   0    9.06    1.38
  -2   4   0    8.19    1.54
  -2   4  -1    0.70    1.56
   2  -4   1    0.40    1.08
   2  -4   2   39.68    2.18
  -2   4  -2   46.81    2.68
   2  -4   3    9.45    1.57
  -2   4  -3   10.92    2.34
   2  -4   4   76.67    3.08
   2  -4   5   23.55    1.95
   2  -4   5   26.57    2.25
   2  -4   6   15.08    1.81
   2  -4   6   15.04    2.20
   2  -4   7    6.47    1.52
   2  -4   7    6.02    1.89
   2  -4   8   -0.46    1.76
   2  -4   9    0.57    1.78
   2  -4  10    1.92    1.80
   2  -4  11    1.48    1.97
   2  -4  12    1.85    2.04
   2  -4  13    7.83    2.38
  -2   3  13    0.96    2.29
   2  -3 -13    0.79    2.51
  -2   3  12    2.81    2.13
   2  -3 -12    2.22    2.27
  -2   3  11   -0.44    2.11
   2  -3 -11   -0.14    2.10
  -2   3  10    4.10    2.20
   2  -3 -10    7.96    2.41
  -2   3   9    7.38    2.25
   2  -3  -9    6.38    2.28
   2  -3  -8    1.43    2.18
  -2   3   8    1.49    2.11
  -2   3   7    1.66    2.16
   2  -3  -7   -0.34    2.13
   2  -3  -6    0.34    1.93
   2  -3  -6    0.08    0.94
   2  -3  -5   -0.28    1.75
   2  -3  -5    0.10    0.78
   2  -3  -4    1.35    1.54
   2  -3  -4    1.18    0.89
   2  -3  -3   35.41    2.05
   2  -3  -3   35.88    1.62
  -2   3   3   35.34    1.07
   2  -3  -2   73.93    2.48
   2  -3  -2   75.11    2.29
  -2   3   2   72.33    1.70
  -2   3   1   88.42    2.13
   2  -3  -1   89.09    2.44
   2  -3  -1   90.06    2.43
  -2   3   0  372.69    4.54
   2  -3   0  369.69    4.22
   2  -3   0  373.38    4.90
   2  -3   1    4.68    0.78
   2  -3   1    4.18    1.10
  -2   3  -1    4.42    1.37
   2  -3   2  132.88    3.20
   2  -3   2  136.83    1.94
   2  -3   3   16.51    0.54
   2  -3   3   15.66    1.55
   2  -3   3   19.23    1.58
   2  -3   4  389.15    5.39
   2  -3   4  393.79    5.83
   2  -3   5  253.83    4.65
   2  -3   5  256.87    4.99
   2  -3   6   14.13    1.94
   2  -3   6   13.84    1.59
   2  -3   7   33.99    2.48
   2  -3   7   38.07    2.31
   2  -3   8    6.65    1.90
   2  -3   8    6.29    1.57
   2  -3   9   13.46    1.87
   2  -3   9   13.24    2.09
   2  -3  10   31.89    2.67
   2  -3  11    2.44    1.92
   2  -3  12    1.72    1.87
   2  -2 -14    1.16    2.11
  -2   2  14   -0.57    2.41
   2  -2 -13   -0.58    2.22
  -2   2  13    0.48    2.01
  -2   2  12    1.00    1.84
   2  -2 -12    1.69    2.07
   2  -2 -11    2.24    1.87
  -2   2  11   -0.55    2.16
   2  -2 -10    3.68    2.03
  -2   2  10    3.01    2.14
  -2   2   9   54.03    3.25
   2  -2  -9   55.32    3.25
   2  -2  -8   17.24    2.36
  -2   2   8   14.45    2.33
  -2   2   7    5.01    2.00
   2  -2  -7    5.46    2.16
   2  -2  -6   44.23    2.74
   2  -2  -6   48.51    1.99
   2  -2  -5   27.11    2.17
   2  -2  -5   25.86    1.57
   2  -2  -4  103.18    2.49
   2  -2  -4  104.57    3.14
   2  -2  -3    0.72    1.22
   2  -2  -3    0.26    0.74
  -2   2   2   40.15    0.94
   2  -2  -2   41.31    1.80
   2  -2  -2   45.71    1.69
   2  -2  -1   15.48    1.18
  -2   2   1   14.74    0.92
   2  -2  -1   16.45    1.18
   2  -2   0    6.91    0.81
   2  -2   0    6.62    0.99
   2  -2   1  429.93    3.41
   2  -2   1  434.59    4.88
   2  -2   2  396.13    4.85
   2  -2   2  397.94    2.47
   2  -2   2  386.56    4.88
   2  -2   3   13.49    1.33
   2  -2   3   14.04    1.30
   2  -2   4  149.96    3.30
   2  -2   4  143.95    3.32
   2  -2   5   81.77    2.76
   2  -2   5   79.54    2.61
   2  -2   6    4.36    1.29
   2  -2   6    2.91    1.35
   2  -2   7   32.12    2.10
   2  -2   7   29.17    2.19
   2  -2   8    8.33    1.80
   2  -2   8    9.00    1.62
   2  -2   9  231.38    5.26
   2  -2   9  238.41    5.28
   2  -2  10  217.80    5.36
   2  -2  10  216.72    5.34
   2  -2  11   24.07    2.31
   2  -2  11   27.44    2.41
   2  -2  12    0.67    1.50
   2  -1 -14    1.99    2.25
   2  -1 -13    1.32    2.06
  -2   1  13    1.09    1.94
   2  -1 -12   10.39    2.25
  -2   1  12    9.82    2.10
  -2   1  11    1.69    1.87
   2  -1 -11    2.78    2.03
   2  -1 -10   10.43    2.23
  -2   1  10    8.48    2.15
   2  -1  -9   18.71    2.36
  -2   1   9   16.86    2.27
  -2   1   8   -0.68    1.86
   2  -1  -8    0.36    1.78
  -2   1   7    2.75    1.72
   2  -1  -7    2.35    1.80
   2  -1  -6   32.17    2.27
  -2   1   6   29.34    2.19
   2  -1  -5   60.90    2.57
   2  -1  -4  345.87    5.07
   2  -1  -4  347.97    4.43
   2  -1  -3   92.80    2.54
   2  -1  -3   88.28    2.20
   2  -1  -2   26.79    1.32
   2  -1  -2   26.68    1.41
   2  -1  -1  571.40    4.81
   2  -1  -1  573.48    5.02
   2  -1   0   38.06    1.25
   2  -1   0   38.53    1.49
   2  -1   1  367.77    2.80
   2  -1   1  355.31    4.24
   2  -1   1  361.78    4.08
   2  -1   2  654.97    5.71
   2  -1   2  651.85    5.54
   2  -1   3   30.58    1.47
   2  -1   3   27.04    1.47
   2  -1   4  143.55    3.07
   2  -1   4  150.46    3.00
   2  -1   5  280.60    4.45
   2  -1   5  280.17    4.29
   2  -1   6  107.49    3.08
   2  -1   6  110.51    2.95
   2  -1   7   27.19    1.96
   2  -1   7   28.05    1.87
   2  -1   8    1.27    1.37
   2  -1   8    0.62    1.33
   2  -1   9    5.25    1.57
   2  -1   9    4.80    1.51
   2  -1  10   14.66    1.80
   2  -1  10   13.26    1.85
   2  -1  11   59.97    3.15
   2  -1  11   61.82    3.04
   2  -1  12   10.09    2.03
   2  -1  13    0.49    1.69
   2   0 -13   -1.80    2.16
   2   0 -12   -0.27    1.72
  -2   0  12   -0.08    1.68
  -2   0  11    3.86    1.77
   2   0 -11    3.70    1.86
   2   0 -10    0.39    1.77
  -2   0  10    1.74    1.55
   2   0  -9    9.74    2.03
  -2   0   9    8.43    1.88
   2   0  -8   26.09    2.44
  -2   0   8   28.18    2.38
   2   0  -7    4.06    1.70
  -2   0   7    4.37    1.61
  -2   0   6   75.92    2.75
   2   0  -6   71.48    2.87
   2   0  -5   82.32    2.79
  -2   0   5   80.75    2.57
   2   0  -4  538.51    6.16
   2   0  -4  540.78    3.59
   2   0  -3    6.98    0.43
   2   0  -3    6.96    1.12
   2   0  -3    7.24    0.90
   2   0  -2  261.19    3.60
   2   0  -2  259.92    3.44
   2   0  -1   39.03    1.46
   2   0  -1   35.93    1.38
   2   0   0  727.68    5.24
   2   0   0  737.12    4.63
   2   0   1 9999.00   58.10
   2   0   1 9880.51   19.35
   2   0   1 9801.53   19.10
   2   0   2 4391.41   12.85
   2   0   2 4440.70   13.66
   2   0   2 4434.38    8.31
   2   0   3   44.58    1.43
   2   0   3   42.06    1.64
   2   0   4  348.02    4.45
   2   0   4  355.36    3.96
  -2   0  -5  127.93    1.85
   2   0   5  127.64    2.96
   2   0   5  127.13    2.62
  -2   0  -6   31.51    1.18
   2   0   6   29.20    1.49
   2   0   6   30.22    1.79
   2   0   7    3.98    1.12
  -2   0  -7    4.24    0.84
   2   0   7    5.65    1.31
   2   0   8    1.07    1.14
   2   0   8    0.75    1.31
   2   0   9    4.59    1.29
   2   0   9    5.14    1.65
   2   0  10   11.10    1.44
   2   0  10   11.47    1.80
   2   0  11   13.39    1.96
   2   0  12    3.95    1.93
   2   0  13    0.59    1.65
   2   0  14    2.29    1.97
   2   1 -12    0.84    1.60
   2   1 -11    2.15    1.63
   2   1 -10   17.89    2.16
  -2  -1  10   18.72    2.02
  -2  -1   9    4.11    1.39
   2   1  -9    1.56    1.63
  -2  -1   8    1.42    1.38
   2   1  -8    0.96    1.66
   2   1  -7   47.09    2.56
  -2  -1   7   48.89    2.32
   2   1  -6    2.33    1.42
   2   1  -6    2.90    1.32
  -2  -1   6    1.74    1.16
  -2  -1   5    9.61    1.23
   2   1  -5    8.60    1.17
   2   1  -5    7.57    1.28
   2   1  -4    4.46    1.21
   2   1  -4    4.47    0.93
   2   1  -3   35.71    1.66
   2   1  -3   32.81    1.18
   2   1  -2  623.17    5.44
   2   1  -2  619.45    3.91
   2   1  -1   40.73    1.45
   2   1  -1   38.54    1.42
   2   1  -1   40.64    1.03
   2   1   0  225.50    2.77
   2   1   0  231.28    2.37
   2   1   0  223.25    2.85
   2   1   0  226.96    2.72
   2   1   1 3471.75    9.93
   2   1   1 3482.11    9.75
   2   1   1 3448.70   10.71
   2   1   1 3450.97   10.31
   2   1   2 3937.66   12.00
   2   1   2 3897.46   12.25
   2   1   2 3931.61   10.61
   2   1   2 3940.53    9.69
   2   1   3   91.03    1.72
   2   1   3   90.18    2.12
   2   1   4    0.79    0.51
   2   1   4    0.76    0.79
   2   1   5    2.44    0.98
   2   1   5    2.73    0.67
   2   1   6  282.07    4.63
   2   1   6  283.86    3.48
  -2  -1  -7  707.54    6.31
   2   1   7  691.51    7.77
   2   1   7  706.37    5.85
  -2  -1  -8   42.47    2.02
   2   1   8   41.69    1.76
   2   1   8   45.04    2.48
   2   1   9   16.56    1.45
   2   1   9   14.86    1.94
   2   1  10    0.43    1.61
   2   1  11    9.04    1.98
   2   1  12   -0.60    1.69
   2   1  13   14.05    2.27
   2   1  14   19.10    2.46
   2   1  15   -2.59    2.04
   2   2 -11    0.56    1.52
   2   2 -10    3.44    1.45
   2   2  -9    0.24    1.53
   2   2  -9    0.99    1.83
   2   2  -8  162.39    4.41
   2   2  -8  162.28    4.40
  -2  -2   8  159.79    3.72
   2   2  -7  420.54    6.43
   2   2  -7  421.32    6.18
  -2  -2   7  423.83    5.46
  -2  -2   6   32.20    1.66
   2   2  -6   29.32    2.06
   2   2  -6   31.55    2.03
   2   2  -5    5.77    1.18
  -2  -2   5    5.73    0.97
   2   2  -5    6.69    1.34
  -2  -2   4   84.89    1.95
   2   2  -4   89.03    2.48
   2   2  -4   87.11    2.57
   2   2  -3   21.91    1.43
   2   2  -3   21.38    1.35
   2   2  -2    9.81    1.03
   2   2  -2    9.66    0.94
   2   2  -1  295.59    3.65
   2   2  -1  298.02    3.32
   2   2   0   76.34    1.83
   2   2   0   76.94    1.39
   2   2   0   78.21    1.77
   2   2   1   31.30    1.19
   2   2   1   28.79    1.22
   2   2   1   32.26    1.13
   2   2   1   30.90    1.04
   2   2   2   11.90    0.97
   2   2   2   13.05    0.72
   2   2   2   12.96    0.89
   2   2   2   13.14    0.86
   2   2   3  809.23    4.26
   2   2   3  799.67    5.87
   2   2   3  796.73    6.18
   2   2   4  110.00    2.63
   2   2   4  115.86    1.64
   2   2   4  108.28    2.53
   2   2   5    6.46    1.07
   2   2   5    4.98    1.08
   2   2   5    9.88    0.64
   2   2   6    4.58    1.19
   2   2   6    3.56    0.57
   2   2   7    3.76    1.31
   2   2   7    4.84    0.69
   2   2   8  133.20    3.89
   2   2   8  134.91    2.41
   2   2   9   10.10    1.85
  -2  -2  -9   12.11    1.80
  -2  -2 -10    0.29    1.42
   2   2  10    0.28    1.53
   2   2  11   -0.72    1.58
   2   2  12    3.18    1.85
   2   2  13   -0.99    1.92
   2   2  14    2.36    1.86
   2   2  15    2.18    2.04
   2   3 -10   -0.14    1.45
   2   3 -10    0.48    2.19
   2   3  -9    2.83    1.43
   2   3  -9    4.52    2.02
   2   3  -8   99.64    3.53
   2   3  -8   93.92    3.94
   2   3  -7  390.20    6.29
   2   3  -7  383.31    6.50
   2   3  -6  323.06    5.39
   2   3  -6  319.88    5.66
   2   3  -5    0.14    1.10
  -2  -3   5   -0.07    0.62
   2   3  -5    0.24    1.62
   2   3  -4   22.13    1.58
   2   3  -4   22.05    1.81
  -2  -3   4   21.95    0.90
   2   3  -3  337.14    4.72
  -2  -3   3  326.63    2.50
   2   3  -3  336.16    4.62
   2   3  -2  985.46    7.43
   2   3  -2  993.99    7.46
   2   3  -1  534.03    5.26
   2   3  -1  545.04    5.31
   2   3   0  186.28    1.76
   2   3   0  181.70    3.05
   2   3   0  178.59    2.97
   2   3   1  403.97    4.34
   2   3   1  416.11    4.54
   2   3   1  415.33    3.23
   2   3   2   16.18    0.92
   2   3   2   13.50    1.20
   2   3   3  143.03    2.93
   2   3   3  142.91    2.58
   2   3   4    8.84    0.53
   2   3   4    4.51    1.25
   2   3   4   10.58    1.23
   2   3   5  102.59    2.80
   2   3   5  101.35    2.77
   2   3   6   36.92    0.71
   2   3   6   40.17    2.09
   2   3   6   40.54    2.04
   2   3   7    8.26    1.57
   2   3   8    6.07    1.80
   2   3   9   15.62    2.17
  -2  -3 -10   29.36    2.47
   2   3  10   30.11    2.65
  -2  -3 -11   16.93    2.24
   2   3  11   16.93    2.25
   2   3  12    3.84    1.80
   2   3  13    0.02    1.89
   2   3  14    0.05    2.26
   2   3  15    1.38    2.04
   2   4 -10    0.50    2.16
   2   4  -9   18.87    1.96
   2   4  -9   19.14    2.80
   2   4  -8    1.48    1.32
   2   4  -8    1.21    2.06
   2   4  -7   40.28    3.10
   2   4  -7   41.34    2.43
   2   4  -6    0.74    1.30
   2   4  -6    0.96    2.08
   2   4  -5   73.22    3.22
   2   4  -5   78.95    2.74
   2   4  -4   13.82    1.40
   2   4  -4   12.10    1.93
   2   4  -3   79.45    2.82
   2   4  -3   85.31    2.54
   2   4  -2  675.73    6.57
   2   4  -2  678.71    7.08
   2   4  -1  702.72    7.00
   2   4  -1  683.76    6.41
   2   4   0    5.65    0.95
   2   4   0    5.92    0.38
   2   4   0    6.29    1.27
   2   4   1    5.56    1.07
   2   4   1    5.32    0.56
   2   4   1    5.06    0.95
   2   4   2   10.38    1.21
   2   4   2   12.16    0.91
   2   4   3  100.28    2.72
   2   4   3  104.24    2.33
   2   4   4   10.29    1.16
   2   4   4    8.57    1.25
   2   4   5    8.50    1.24
   2   4   5    9.32    1.27
   2   4   6    4.38    1.27
   2   4   6    4.25    1.34
   2   4   7    2.09    1.44
   2   4   7   -0.03    1.28
   2   4   8    3.05    1.67
   2   4   8    3.69    1.50
   2   4   9   32.62    2.66
   2   4  10   13.75    2.19
  -2  -4 -11   35.55    2.81
   2   4  11   39.63    3.01
   2   4  12   -0.73    1.89
  -2  -4 -12    1.91    2.05
   2   4  13    4.34    2.07
   2   4  14    2.93    2.37
   2   4  15   -0.72    2.05
   2   5 -11   19.06    2.98
   2   5 -10    1.30    2.50
   2   5  -9    0.36    2.50
   2   5  -8    0.91    2.40
   2   5  -7   -0.07    1.13
   2   5  -7    0.50    2.23
   2   5  -6    0.40    1.17
   2   5  -6   -0.46    2.32
   2   5  -5    0.12    1.16
   2   5  -5   -0.68    2.23
   2   5  -4    0.86    1.11
   2   5  -4   -0.18    2.06
   2   5  -3   92.88    3.36
   2   5  -3   94.30    2.85
   2   5  -2    0.55    0.97
   2   5  -2    1.07    1.54
   2   5  -1   32.08    2.13
   2   5  -1   33.51    1.75
   2   5   0   28.15    2.08
   2   5   0   26.10    0.72
   2   5   0   27.70    1.69
   2   5   1  102.57    1.79
   2   5   1  103.16    3.02
   2   5   2    3.32    1.19
   2   5   2    8.62    0.90
   2   5   3  518.81    6.36
   2   5   3  529.52    5.25
  -2  -5  -4   85.08    1.43
   2   5   4   84.06    2.50
   2   5   4   87.20    2.85
   2   5   5    0.37    1.13
   2   5   5    0.42    1.06
   2   5   6    3.16    1.26
   2   5   6    2.92    1.39
   2   5   7    0.91    1.38
   2   5   7    1.37    1.45
   2   5   8    2.07    1.82
   2   5   8    2.45    1.58
   2   5   9    4.69    1.80
   2   5   9    3.81    2.13
   2   5  10  125.23    4.60
   2   5  11   10.07    2.25
   2   5  12    0.83    2.05
  -2  -5 -12    0.26    2.05
   2   5  13    0.60    1.88
  -2  -5 -13    0.07    2.05
   2   5  14    7.63    2.79
  -2  -5 -14    9.45    2.37
   2   6 -11   10.28    3.07
   2   6 -10   34.30    3.79
   2   6  -9   12.76    2.92
   2   6  -8    1.00    2.39
   2   6  -7   17.53    2.96
   2   6  -6   13.05    2.64
   2   6  -6   12.32    1.62
   2   6  -5    0.47    1.06
   2   6  -5   -1.48    2.43
   2   6  -4   -0.15    1.21
   2   6  -4    2.57    2.06
   2   6  -3    0.84    1.16
   2   6  -3    2.37    1.99
   2   6  -2   44.31    2.14
   2   6  -2   43.57    2.77
   2   6  -1   30.97    2.47
   2   6  -1   29.53    1.88
   2   6   0   43.86    2.65
   2   6   1   17.38    1.95
   2   6   1   16.12    0.94
   2   6   2  274.57    5.15
   2   6   2  269.09    3.59
  -2  -6  -3    9.26    0.96
   2   6   3    9.30    1.59
   2   6   3    9.43    1.21
   2   6   4    0.24    1.33
   2   6   4    1.09    1.05
   2   6   5    6.82    1.52
   2   6   5    3.84    1.34
   2   6   6    1.65    1.45
   2   6   6    2.46    1.44
   2   6   7    2.94    1.45
   2   6   7    2.63    1.59
   2   6   8    2.22    1.78
   2   6   8    0.84    1.57
   2   6   9   36.50    2.74
   2   6   9   38.76    2.65
   2   6  10   -0.19    1.52
   2   6  10    0.72    2.06
   2   6  11   -0.41    1.91
   2   6  12    7.26    2.36
  -2  -6 -12    8.24    2.49
   2   6  13    0.52    2.05
  -2  -6 -13   -0.10    2.23
   2   6  14   -1.32    2.41
  -2  -6 -14    4.55    2.51
  -2  -7  10    9.00    2.81
   2   7 -10    4.30    3.06
   2   7  -9    2.87    3.18
   2   7  -8   -1.64    2.73
   2   7  -7    6.74    2.74
   2   7  -6   22.86    2.95
   2   7  -5   40.75    3.27
   2   7  -5   37.87    2.24
   2   7  -4   20.00    2.64
   2   7  -4   17.93    1.67
   2   7  -3    0.30    1.21
   2   7  -3    1.16    2.13
   2   7  -2   -0.34    2.10
   2   7  -1    0.09    2.12
   2   7   0   71.00    3.49
   2   7   1   38.33    2.74
   2   7   2  210.79    5.00
   2   7   2  214.32    3.46
  -2  -7  -2  213.45    3.88
   2   7   3   89.65    3.46
  -2  -7  -3   91.27    2.41
   2   7   3   92.89    2.63
   2   7   4   23.99    2.21
   2   7   4   28.86    1.86
   2   7   5    1.40    1.27
   2   7   5   -0.43    1.58
   2   7   6    0.33    1.47
   2   7   6    0.01    1.50
   2   7   7    4.46    1.54
   2   7   7    2.53    1.56
   2   7   8   25.55    2.26
   2   7   8   26.00    2.42
   2   7   9    6.59    1.95
   2   7   9    6.14    1.72
   2   7  10    2.66    1.86
   2   7  10    2.93    1.82
   2   7  11    1.00    1.55
   2   7  11    0.49    2.02
   2   7  12    1.78    2.07
  -2  -7 -13   -1.08    2.39
   2   7  13   -0.26    2.44
  -2  -7 -14   -0.37    2.74
   2   8  -9    2.63    2.97
  -2  -8   8    0.36    2.40
   2   8  -8    3.53    2.56
  -2  -8   7    2.24    2.07
   2   8  -7    1.86    2.39
   2   8  -6    8.62    2.79
   2   8  -5   26.54    3.15
   2   8  -4    1.88    2.42
   2   8  -3    2.09    2.14
   2   8  -2    1.35    2.29
  -2  -8   1   13.76    1.96
   2   8  -1   14.39    2.48
   2   8   0  154.70    4.99
  -2  -8   0  154.39    4.23
   2   8   1   22.81    2.59
  -2  -8  -1   20.14    2.04
   2   8   2    5.00    1.97
  -2  -8  -2    4.60    1.36
   2   8   3   19.53    2.25
   2   8   4    7.25    1.30
   2   8   4    7.06    1.85
   2   8   5    0.28    1.34
   2   8   5    0.04    1.64
   2   8   6   90.75    3.69
   2   8   6   95.84    3.53
   2   8   7   44.00    2.84
   2   8   7   47.06    2.89
   2   8   8    9.76    1.88
   2   8   8   11.24    2.17
   2   8   9   -2.01    1.75
   2   8   9    1.36    1.58
   2   8  10    3.37    1.93
   2   8  10    2.89    1.67
   2   8  11   12.65    2.38
   2   8  12    2.38    2.28
  -2  -8 -13    3.94    2.94
   2   8  13    2.18    2.35
  -2  -9   7   -0.15    2.35
   2   9  -7   -0.61    2.52
  -2  -9   6    1.78    2.15
   2   9  -6    5.00    2.85
  -2  -9   5    0.94    2.15
   2   9  -5    0.27    2.53
  -2  -9   4    4.31    2.07
   2   9  -4    1.22    2.32
  -2  -9   3    1.92    1.90
   2   9  -3   -0.14    2.40
  -2  -9   2   17.88    2.37
   2   9  -2   18.53    2.76
  -2  -9   1   15.62    2.13
   2   9  -1   14.67    2.60
  -2  -9   0   24.08    2.21
   2   9   0   21.96    2.79
  -2  -9  -1    3.48    1.38
   2   9   1    4.19    2.02
   2   9   2    1.05    1.71
   2   9   3    6.67    2.00
   2   9   4   23.86    2.51
   2   9   5    3.25    1.93
   2   9   6   25.30    2.54
   2   9   6   22.98    2.22
   2   9   7    6.28    1.95
   2   9   7    7.83    1.95
   2   9   8    3.03    1.80
   2   9   8    3.35    1.78
   2   9   9    5.57    1.79
   2   9   9    5.94    2.11
   2   9  10    1.83    1.77
   2   9  11    4.22    2.41
   2   9  12   20.94    3.02
   2  10  -5    0.62    2.87
  -2 -10   5    0.37    2.44
  -2 -10   4   -0.25    2.28
   2  10  -4    0.87    2.58
   2  10  -3    0.95    2.85
  -2 -10   3    2.44    1.94
  -2 -10   2   39.90    2.99
   2  10  -2   36.04    3.43
  -2 -10   1   -0.92    1.60
   2  10  -1    0.47    2.53
   2  10   0    1.56    2.20
  -2 -10   0    0.21    1.60
   2  10   1    2.67    1.98
   2  10   2    0.82    1.83
   2  10   3    1.28    1.87
   2  10   4    4.66    1.91
   2  10   5    8.40    1.93
   2  10   6    8.08    1.85
   2  10   7    0.74    1.65
   2  10   8    5.91    1.73
   2  10   9    1.91    1.93
   2  10  10    4.42    2.33
   2  10  11   -1.31    2.44
  -2 -11   4    0.95    2.40
   2  11  -3    2.36    2.65
  -2 -11   3    3.55    2.09
  -2 -11   2   -0.93    2.08
   2  11  -2    1.11    2.86
  -2 -11   1   12.99    2.25
   2  11  -1   14.20    3.12
   2  11   0    1.77    2.42
   2  11   1    0.06    2.13
   2  11   2    4.71    2.17
   2  11   3   16.27    2.50
   2  11   4    2.08    1.92
   2  11   5    0.96    1.71
   2  11   6    0.00    2.03
   2  11   7    0.64    1.91
   2  12   1   -0.15    2.44
   2  12   2    7.20    2.55
   2  12   3   12.76    2.65
   2  12   4   11.12    2.60
   2  12   5   -1.32    2.30
   2  12   6    0.90    2.32
   3  -9  -7    2.00    2.19
  -3   9   6    0.86    2.88
   3  -9  -1   -1.55    1.63
   3  -9   0    0.14    1.97
   3  -9   1   -0.31    1.80
   3  -9   2    7.05    2.40
   3  -9   3    1.17    2.05
  -3   9  -4   -0.33    2.40
   3  -8  -8    5.17    2.84
  -3   8   8    4.76    2.86
   3  -8  -7    4.07    2.71
  -3   8   7    4.16    2.84
   3  -8  -6   -0.32    2.29
   3  -8  -5    2.04    2.21
   3  -8  -2   15.55    2.15
   3  -8  -1    0.34    1.62
   3  -8   0    2.93    1.90
   3  -8   1    2.85    1.91
   3  -8   2    6.91    2.08
   3  -8   3    1.72    2.02
  -3   8  -3    0.40    2.47
   3  -8   4   -0.65    1.95
  -3   8  -4    0.16    2.93
   3  -8   5    1.03    1.67
  -3   8  -5    3.97    2.77
  -3   8  -6    3.89    2.90
  -3   7   9    0.69    2.97
   3  -7  -9   -1.13    2.64
   3  -7  -8   -1.04    2.48
  -3   7   8    1.64    2.71
   3  -7  -7    0.95    2.27
   3  -7  -6   -0.49    2.23
   3  -7  -5    8.75    2.43
   3  -7  -4    0.98    1.87
   3  -7  -3   23.87    2.45
   3  -7  -3   22.48    2.17
   3  -7  -2    7.49    1.75
   3  -7  -1   14.50    1.76
   3  -7   0    2.19    1.64
   3  -7   1   14.84    2.31
   3  -7   2  164.50    5.22
  -3   7  -2  166.69    5.37
  -3   7  -3  116.02    4.96
   3  -7   3  115.53    4.58
   3  -7   4   27.73    2.73
  -3   7  -4   24.77    3.25
   3  -7   5    3.52    2.18
  -3   7  -5    3.41    2.66
   3  -7   6    2.58    1.85
  -3   7  -6    3.46    2.86
   3  -7   7   -0.22    2.20
  -3   7  -7   -1.38    3.35
   3  -7   8   -0.89    1.89
  -3   7  -8   -0.39    3.38
   3  -6 -10    5.89    2.99
  -3   6  10    4.31    2.95
  -3   6   9    2.36    2.58
   3  -6  -9    4.72    2.57
  -3   6   8    6.78    2.82
   3  -6  -8    7.80    2.68
   3  -6  -7    1.53    2.25
   3  -6  -6   16.87    2.68
   3  -6  -5    3.26    2.15
   3  -6  -4   -0.33    1.33
   3  -6  -4   -0.35    1.84
   3  -6  -3    0.93    1.29
   3  -6  -3    0.71    1.74
   3  -6  -2    6.15    1.63
   3  -6  -2    5.62    1.64
   3  -6  -1    1.80    1.39
   3  -6   0    5.05    1.63
   3  -6   1   -0.50    1.62
  -3   6  -1   -0.48    1.89
  -3   6  -2   62.88    3.56
   3  -6   2   63.79    3.36
  -3   6  -3  169.39    5.38
   3  -6   3  178.51    5.23
   3  -6   4   26.14    2.69
  -3   6  -4   19.62    3.07
   3  -6   5    1.92    1.64
  -3   6  -5    3.07    2.60
   3  -6   6   -0.20    2.43
  -3   6  -6    1.55    2.92
   3  -6   7    0.90    2.06
  -3   6  -7    1.16    2.90
  -3   6  -8   34.75    4.34
   3  -6   8   29.67    3.08
   3  -6   9    2.08    2.28
  -3   6  -9    4.37    3.17
  -3   5  11   10.14    3.17
   3  -5 -11   17.61    3.16
   3  -5 -10    3.61    2.32
  -3   5  10    0.39    2.77
   3  -5  -9    1.77    2.50
  -3   5   9    5.56    2.55
  -3   5   8    2.25    2.38
   3  -5  -8    1.25    2.25
   3  -5  -7   29.73    3.08
   3  -5  -6  152.73    5.18
   3  -5  -5   16.75    1.86
   3  -5  -5   16.96    2.49
   3  -5  -4    1.95    1.23
   3  -5  -4    1.97    1.88
   3  -5  -3   16.40    2.01
   3  -5  -3   14.10    1.75
   3  -5  -2    3.82    1.49
   3  -5  -2    3.08    1.66
   3  -5  -1    1.75    1.38
   3  -5  -1    1.42    1.44
  -3   5   0   43.83    2.59
   3  -5   0   47.43    2.67
   3  -5   1    3.24    1.69
  -3   5  -1    2.77    2.03
   3  -5   2    1.28    1.55
  -3   5  -2    3.80    2.17
   3  -5   3    9.04    1.85
  -3   5  -3   11.55    2.56
   3  -5   4    2.89    1.80
  -3   5  -4    2.48    2.45
   3  -5   5    2.03    1.73
  -3   5  -5    2.21    2.54
   3  -5   6    0.24    1.84
  -3   5  -6    4.06    2.85
   3  -5   7    0.98    1.67
   3  -5   8   -0.25    1.80
   3  -5   9    6.83    2.20
   3  -5  10    1.11    2.09
   3  -5  11    0.82    2.18
   3  -4 -12    3.69    2.38
  -3   4  12    1.54    2.52
  -3   4  11    0.45    2.36
   3  -4 -11    0.29    2.26
  -3   4  10    1.04    2.40
   3  -4 -10   -0.62    2.36
  -3   4   9    2.38    2.30
   3  -4  -9    2.96    2.08
   3  -4  -8   37.16    3.32
  -3   4   8   36.01    3.29
   3  -4  -7   30.20    3.00
   3  -4  -6  242.48    6.08
   3  -4  -6  252.75    4.92
   3  -4  -5  196.86    5.35
   3  -4  -5  214.90    4.64
   3  -4  -4   23.02    2.39
   3  -4  -4   18.62    1.78
   3  -4  -3    4.70    1.40
   3  -4  -3    4.22    1.76
   3  -4  -2   18.43    1.89
   3  -4  -2   16.23    1.75
   3  -4  -1  155.64    3.68
   3  -4  -1  162.75    4.07
  -3   4   1  146.51    3.28
   3  -4   0  171.62    3.52
   3  -4   0  174.89    4.26
  -3   4   0  170.99    3.78
   3  -4   1    2.15    1.43
   3  -4   1    3.87    0.99
  -3   4  -1    4.55    1.77
  -3   4  -2   24.45    2.54
   3  -4   2   21.82    1.98
   3  -4   3    6.94    1.72
   3  -4   4    2.23    1.62
   3  -4   5    5.03    1.71
   3  -4   6    4.00    1.63
   3  -4   6    5.89    1.78
   3  -4   7    3.40    1.68
   3  -4   7    2.90    1.63
   3  -4   8    2.05    1.55
   3  -4   8    4.05    1.75
   3  -4   9    0.51    1.63
   3  -4  10    4.03    1.78
   3  -4  11    8.12    2.49
   3  -4  12    1.51    2.01
  -3   3  13    3.32    2.57
   3  -3 -12    2.15    2.55
  -3   3  12    0.48    2.47
   3  -3 -11    5.52    2.39
  -3   3  11    4.05    2.42
  -3   3  10    0.14    2.12
   3  -3 -10    1.68    2.36
  -3   3   9   -0.06    2.27
   3  -3  -9    0.62    1.92
   3  -3  -8   37.14    3.05
  -3   3   8   33.22    3.00
   3  -3  -7   10.31    2.26
   3  -3  -7    7.59    1.44
   3  -3  -6   39.85    3.17
   3  -3  -6   40.77    2.25
   3  -3  -5   58.10    3.13
   3  -3  -5   58.34    2.51
   3  -3  -4   33.96    2.06
   3  -3  -4   34.97    2.49
   3  -3  -3    0.80    1.00
   3  -3  -3   -0.44    1.56
   3  -3  -2   25.48    1.94
   3  -3  -2   22.81    1.73
   3  -3  -1   88.79    2.69
  -3   3   1   87.21    2.20
   3  -3  -1   95.82    3.08
   3  -3   0  191.35    3.39
  -3   3   0  193.23    3.52
   3  -3   0  189.95    4.10
   3  -3   1    3.18    1.30
   3  -3   1    1.17    0.81
   3  -3   2   24.95    1.05
   3  -3   2   23.13    1.90
   3  -3   3   43.06    2.39
   3  -3   4   10.03    1.82
   3  -3   4    8.29    1.63
   3  -3   5    1.72    1.60
   3  -3   5    1.69    1.59
   3  -3   6    1.92    1.63
   3  -3   6    2.02    1.64
   3  -3   7    0.61    1.55
   3  -3   7    0.76    1.55
   3  -3   8    0.86    1.55
   3  -3   8    0.25    1.64
   3  -3   9    1.42    1.64
   3  -3   9    0.63    1.76
   3  -3  10   16.89    2.24
   3  -3  10   15.81    2.24
   3  -3  11   11.96    2.31
   3  -3  12    1.49    1.87
  -3   2  13    1.57    2.26
   3  -2 -13    0.52    2.49
   3  -2 -12    2.09    2.39
  -3   2  12    1.45    2.09
   3  -2 -11   -0.11    2.11
  -3   2  11    1.08    1.97
  -3   2  10    7.08    2.31
   3  -2 -10    6.53    2.49
   3  -2  -9   15.94    2.46
  -3   2   9   13.70    2.47
   3  -2  -8    0.89    1.90
  -3   2   8    1.32    2.01
   3  -2  -7    2.39    1.98
   3  -2  -6    2.32    1.91
   3  -2  -6    0.55    1.31
   3  -2  -5   44.17    2.70
   3  -2  -5   41.45    2.15
   3  -2  -4    4.29    1.60
   3  -2  -4    4.19    1.17
   3  -2  -3    1.98    1.31
   3  -2  -3    1.65    1.00
   3  -2  -2   48.38    2.09
   3  -2  -2   44.96    2.02
   3  -2  -1   36.24    1.74
   3  -2  -1   36.66    1.86
  -3   2   1   37.72    1.32
   3  -2   0   11.77    1.10
   3  -2   0    9.67    1.26
   3  -2   1    6.32    1.17
   3  -2   1    5.82    0.79
   3  -2   2   21.22    1.67
   3  -2   2   20.59    0.87
   3  -2   3   45.21    2.31
   3  -2   3   44.90    2.18
   3  -2   4  193.85    4.26
   3  -2   4  200.26    4.25
   3  -2   5  114.10    3.47
   3  -2   5  115.90    3.56
   3  -2   6   -0.07    1.41
   3  -2   6    0.04    1.39
   3  -2   7   16.90    2.00
   3  -2   7   15.37    1.87
   3  -2   8    0.13    1.45
   3  -2   8   -0.19    1.51
   3  -2   9    0.41    1.50
   3  -2   9    0.21    1.71
   3  -2  10   11.06    2.02
   3  -2  10   10.99    1.99
   3  -2  11   38.36    2.88
   3  -2  11   41.57    3.08
   3  -2  12    5.53    1.95
   3  -1 -13    0.40    2.26
  -3   1  12    2.31    1.81
   3  -1 -12    2.25    2.19
   3  -1 -11   17.93    2.71
  -3   1  11   13.85    2.37
   3  -1 -10    4.85    2.14
  -3   1  10    3.06    2.12
   3  -1  -9   60.06    3.59
  -3   1   9   61.50    3.52
  -3   1   8    9.99    2.14
   3  -1  -8    9.22    2.23
  -3   1   7    3.12    2.02
   3  -1  -7    1.23    1.81
   3  -1  -6   68.69    3.35
   3  -1  -5   53.75    2.79
   3  -1  -5   50.53    2.32
   3  -1  -4    9.04    1.71
   3  -1  -4    8.05    1.28
   3  -1  -3    8.02    1.39
   3  -1  -3    5.63    1.17
   3  -1  -2   93.83    2.71
   3  -1  -2   92.22    2.64
   3  -1  -1  307.78    4.25
   3  -1  -1  289.76    4.39
   3  -1   0    4.23    1.06
   3  -1   0    3.48    0.88
   3  -1   1   17.19    1.00
   3  -1   1   17.83    1.44
   3  -1   2   46.66    1.17
   3  -1   2   43.28    2.10
   3  -1   2   46.03    1.93
   3  -1   3  348.23    4.91
   3  -1   3  326.05    4.99
   3  -1   3  319.49    2.20
   3  -1   4   62.27    2.31
   3  -1   4   59.40    2.43
   3  -1   5   22.32    1.83
   3  -1   5   23.61    1.67
   3  -1   6   11.04    1.66
   3  -1   6   10.76    1.50
   3  -1   7   11.55    1.82
   3  -1   7   10.74    1.54
   3  -1   8    0.44    1.56
   3  -1   8    1.12    1.36
   3  -1   9    1.72    1.39
   3  -1   9    0.94    1.56
   3  -1  10    4.88    1.54
   3  -1  10    5.21    1.76
   3  -1  11    0.93    1.31
   3  -1  11   -0.08    1.82
   3  -1  12   -0.22    1.90
   3  -1  13    3.95    2.01
   3   0 -13   -0.55    2.20
   3   0 -12   -0.48    2.18
  -3   0  11    6.08    2.00
   3   0 -11    3.64    2.10
  -3   0  10   -0.03    1.94
   3   0 -10   -0.29    1.81
   3   0  -9    6.51    2.05
  -3   0   9    7.12    1.96
  -3   0   8   31.76    2.53
   3   0  -8   28.63    2.63
   3   0  -7    6.81    1.95
  -3   0   7    7.37    1.99
   3   0  -6    2.42    1.67
   3   0  -5  140.19    3.95
   3   0  -4  348.08    5.52
   3   0  -4  341.94    5.19
   3   0  -3  383.47    5.24
   3   0  -3  385.48    5.41
   3   0  -2   10.23    1.25
   3   0  -2    9.93    1.21
   3   0  -1   47.44    1.81
   3   0  -1   49.29    1.92
   3   0   0   19.00    1.17
   3   0   0   16.40    1.26
   3   0   1   69.99    1.67
   3   0   1   70.35    2.30
   3   0   1   69.39    2.10
   3   0   2   98.93    2.65
   3   0   2  103.57    2.60
   3   0   2  101.10    1.78
   3   0   3  595.71    6.40
   3   0   3  604.42    5.92
   3   0   3  602.55    3.73
   3   0   4   56.41    2.03
   3   0   4   53.14    2.22
   3   0   5   12.88    1.26
   3   0   5   14.98    1.55
   3   0   6   -0.04    1.21
   3   0   6    0.46    0.99
   3   0   7   13.01    1.81
   3   0   7   11.16    1.37
   3   0   8    6.01    1.42
   3   0   8    5.25    1.66
   3   0   9   52.49    2.89
   3   0   9   52.06    2.47
   3   0  10   -0.06    1.18
   3   0  10    1.05    1.43
   3   0  11    0.22    1.63
   3   0  12   -0.51    1.65
   3   0  13    3.00    2.13
   3   0  14   -2.05    2.04
   3   0  15    0.97    2.22
   3   1 -13    0.69    2.02
   3   1 -12    1.64    1.88
   3   1 -11    4.04    1.88
   3   1 -10    5.02    2.02
   3   1  -9   -0.70    1.82
  -3  -1   9    0.34    1.59
   3   1  -8    0.67    1.74
  -3  -1   8    0.89    1.47
   3   1  -7    1.84    1.78
  -3  -1   7    2.19    1.51
   3   1  -6   20.65    2.16
  -3  -1   6   20.00    1.89
   3   1  -5  116.27    3.53
   3   1  -5  119.94    2.30
   3   1  -4   46.36    2.29
   3   1  -4   45.26    1.33
   3   1  -3    0.43    0.49
   3   1  -3    0.18    1.02
   3   1  -3    0.19    0.97
   3   1  -2   10.96    1.29
   3   1  -2   10.19    0.68
   3   1  -2   10.02    1.20
   3   1  -1    0.19    0.78
   3   1  -1   -0.19    0.44
   3   1  -1   -0.15    0.83
   3   1   0   50.34    1.68
   3   1   0   47.50    1.76
   3   1   0   48.61    1.33
   3   1   1 1415.18    7.38
   3   1   1 1387.42    8.45
   3   1   1 1405.83    8.41
   3   1   1 1386.72    7.59
   3   1   2   10.14    1.01
   3   1   2   11.63    1.20
   3   1   2   10.69    1.03
   3   1   2   10.17    0.79
   3   1   3   11.25    1.04
   3   1   3   10.56    1.23
   3   1   3   10.35    0.79
   3   1   4    7.90    0.94
   3   1   4    7.84    1.20
   3   1   5    6.66    0.95
   3   1   5   -0.05    1.05
   3   1   6    3.76    0.91
   3   1   6    3.62    1.30
   3   1   7  175.95    3.35
   3   1   7  179.96    4.32
   3   1   8   96.16    3.48
   3   1   8   94.92    2.63
   3   1   9   43.67    2.06
   3   1   9   44.27    2.72
   3   1  10    1.83    1.52
   3   1  11    1.61    1.67
   3   1  12    8.99    2.14
   3   1  13    2.62    2.05
   3   1  14   -0.07    2.08
   3   1  15   -0.97    2.13
   3   2 -12    3.65    2.11
   3   2 -11    5.75    1.94
   3   2 -10    1.00    1.70
   3   2  -9   22.91    2.47
   3   2  -8   -0.47    1.63
   3   2  -7   -0.03    1.77
  -3  -2   7    0.64    1.31
   3   2  -6   70.30    3.07
  -3  -2   6   67.58    2.44
   3   2  -6   70.84    2.54
  -3  -2   5   13.20    1.42
   3   2  -5   14.30    1.79
   3   2  -5   14.27    1.33
   3   2  -4    1.93    1.25
   3   2  -4    1.39    0.90
   3   2  -3    3.09    1.09
   3   2  -3    2.58    0.82
   3   2  -2    7.41    1.16
   3   2  -2    9.27    0.85
   3   2  -1   50.80    1.95
   3   2  -1   52.46    1.54
   3   2  -1   51.01    1.94
   3   2   0  184.19    2.90
   3   2   0  180.98    3.17
   3   2   0  184.86    2.82
   3   2   0  183.40    3.18
   3   2   1  920.32    6.69
   3   2   1  934.01    6.43
   3   2   1  926.93    6.47
   3   2   1  935.56    6.69
   3   2   2  113.56    2.34
   3   2   2  110.66    2.46
   3   2   2  111.30    2.47
   3   2   2  107.22    2.28
   3   2   3   18.35    1.40
   3   2   3   17.43    1.03
   3   2   3   17.26    1.32
   3   2   3   17.25    1.05
   3   2   4   -0.09    0.64
   3   2   4    0.04    0.98
   3   2   4    0.16    0.94
   3   2   5  188.23    2.89
   3   2   5  166.45    3.60
   3   2   6   90.29    2.90
   3   2   6   96.15    2.13
   3   2   7   12.25    1.66
   3   2   7   13.41    1.06
   3   2   8   12.79    1.12
   3   2   8   13.97    1.93
   3   2   9   12.81    1.92
   3   2  10   16.79    2.03
   3   2  11    1.21    1.80
   3   2  12   15.02    2.38
   3   2  13   21.97    2.72
   3   2  14    1.14    2.05
   3   2  15    2.03    2.32
   3   3 -11    6.04    1.88
   3   3 -10    1.61    1.60
   3   3  -9    2.60    1.79
   3   3  -8   43.94    2.79
   3   3  -7  143.90    4.34
   3   3  -7  142.65    4.01
   3   3  -6   32.43    2.40
   3   3  -6   25.06    2.23
   3   3  -5    0.34    1.26
   3   3  -5    1.35    1.25
   3   3  -4   -0.14    1.20
  -3  -3   4    0.48    0.76
   3   3  -4    0.12    1.17
   3   3  -3    6.66    1.27
   3   3  -3    8.45    1.24
   3   3  -2   -0.28    1.01
   3   3  -2   -0.13    0.96
   3   3  -1  552.01    5.45
   3   3  -1  553.88    6.08
   3   3   0  294.97    4.03
   3   3   0  290.39    4.25
   3   3   0  300.78    3.26
   3   3   1   90.20    2.37
   3   3   1   89.96    1.94
   3   3   1   89.94    2.37
   3   3   2  108.21    2.66
   3   3   2  109.03    2.33
   3   3   2  109.70    2.29
   3   3   2  105.94    2.47
   3   3   3   14.60    1.36
   3   3   3   14.55    0.94
   3   3   3   12.91    1.13
   3   3   4   19.20    0.98
   3   3   4   18.31    1.55
   3   3   4   18.48    1.37
   3   3   5   43.51    2.15
   3   3   5   42.15    1.26
   3   3   5   43.30    1.98
   3   3   6   22.65    1.85
   3   3   6   21.76    1.75
   3   3   6   21.98    0.95
   3   3   7   12.55    0.82
   3   3   7   13.07    1.71
   3   3   8    1.63    1.52
   3   3   9   18.23    2.25
   3   3  10    0.89    1.76
   3   3  11    4.25    1.81
   3   3  12    0.16    1.92
   3   3  13    8.93    2.26
   3   3  14    1.58    2.32
   3   3  15    2.18    2.12
   3   4 -10    3.50    1.46
   3   4  -9   23.58    2.36
   3   4  -8   15.52    2.00
   3   4  -8   13.69    2.28
   3   4  -7   59.14    3.01
   3   4  -7   57.70    3.10
   3   4  -6   27.54    2.30
   3   4  -6   25.91    2.47
   3   4  -5    1.20    1.52
   3   4  -5    3.85    1.65
   3   4  -4   21.56    2.01
   3   4  -4   26.19    1.93
   3   4  -3    1.07    1.06
   3   4  -3   -0.09    1.30
   3   4  -2   34.82    1.96
   3   4  -2   34.50    1.88
   3   4  -1    0.69    1.02
   3   4  -1    1.44    1.13
   3   4   0  127.41    3.08
   3   4   0  130.51    1.91
   3   4   0  131.12    3.13
   3   4   1   25.47    1.64
   3   4   1   25.30    1.07
   3   4   1   23.79    1.51
   3   4   2   65.03    1.75
   3   4   2   64.14    2.35
   3   4   2   63.76    2.20
   3   4   3   18.53    1.58
   3   4   3   17.80    1.20
   3   4   4  417.53    5.76
   3   4   4  423.54    5.20
   3   4   5   47.54    2.12
   3   4   5   48.03    2.31
   3   4   6   21.04    1.89
   3   4   6   22.58    1.85
   3   4   7    2.39    1.42
   3   4   7    1.18    1.53
   3   4   8   51.38    2.84
   3   4   8   45.96    2.69
   3   4   9   41.03    2.75
   3   4  10    0.58    1.68
   3   4  11    2.72    1.81
   3   4  12   11.58    2.33
   3   4  13    1.76    2.03
   3   4  14   -1.01    2.16
   3   5  -9    9.31    1.87
   3   5  -9    5.58    2.30
   3   5  -8    0.77    1.52
   3   5  -8   -0.48    2.15
   3   5  -7   20.06    2.43
   3   5  -7   22.66    2.12
   3   5  -6   18.57    2.17
   3   5  -6   16.71    1.88
   3   5  -5    0.13    1.27
   3   5  -5    0.57    1.78
   3   5  -4    7.51    1.53
   3   5  -4   10.04    1.93
   3   5  -3   16.47    2.01
   3   5  -3   16.79    1.68
   3   5  -2   55.52    2.70
   3   5  -2   48.86    2.29
   3   5  -1   -0.29    1.01
   3   5  -1   -0.15    1.40
   3   5   0   11.46    0.60
   3   5   0   13.04    1.61
   3   5   0   11.05    1.33
   3   5   1   11.32    1.50
   3   5   1   11.50    0.78
   3   5   1   11.00    1.35
   3   5   2   12.66    1.47
   3   5   2   12.46    0.94
   3   5   3    0.71    0.78
   3   5   3    0.04    1.26
   3   5   4  393.73    6.02
   3   5   4  405.97    5.16
   3   5   5  208.17    4.07
   3   5   5  209.83    4.55
   3   5   6   44.54    2.48
   3   5   6   42.44    2.32
   3   5   7   13.48    1.82
   3   5   7   13.41    1.88
   3   5   8   23.27    2.34
   3   5   8   24.59    2.35
   3   5   9  172.98    4.94
   3   5   9  168.19    4.81
   3   5  10  198.14    5.49
   3   5  11   19.14    2.56
   3   5  12    8.85    3.03
   3   5  13    5.22    2.28
   3   5  14    0.05    2.20
   3   6  -9    3.91    2.16
   3   6  -8    2.77    2.00
   3   6  -7    1.49    1.47
   3   6  -7    2.48    2.10
   3   6  -6    2.39    1.35
   3   6  -6    4.81    2.05
   3   6  -5    4.30    1.99
   3   6  -5    3.60    1.39
   3   6  -4    3.24    1.40
   3   6  -4    2.42    2.02
   3   6  -3   -0.02    1.32
   3   6  -3   -0.12    1.98
   3   6  -2    4.48    1.39
   3   6  -2    4.87    1.86
   3   6  -1   43.10    2.66
   3   6  -1   37.60    2.16
   3   6   0   16.61    1.96
   3   6   0   15.89    1.64
   3   6   1    3.13    1.49
   3   6   2   21.91    2.02
   3   6   2   21.83    1.15
   3   6   3    0.49    0.81
   3   6   3   -0.14    1.43
   3   6   4   55.10    2.76
   3   6   4   59.07    2.20
   3   6   5   35.10    2.43
   3   6   5   34.61    2.00
   3   6   6   35.40    2.44
   3   6   6   36.48    2.26
   3   6   7   17.13    2.11
   3   6   7   18.61    2.02
   3   6   8    2.29    1.72
   3   6   8    1.01    1.74
   3   6   9   13.74    2.14
   3   6   9   14.44    2.15
   3   6  10  198.05    5.68
   3   6  10  184.35    5.43
   3   6  11   19.94    2.61
   3   6  12   -0.56    1.95
   3   6  13    1.82    2.09
  -3  -6 -13    0.91    2.16
   3   6  14    1.78    2.23
   3   7 -10   12.84    2.95
   3   7  -9    0.91    2.33
   3   7  -8    5.93    2.33
   3   7  -7    1.20    2.03
   3   7  -6    0.06    1.27
   3   7  -6   -1.14    2.19
   3   7  -5    0.08    1.35
   3   7  -5   -1.23    2.12
   3   7  -4  110.45    4.41
   3   7  -4  104.96    3.63
   3   7  -3   -0.59    1.27
   3   7  -3   -0.36    1.86
   3   7  -2    0.28    1.26
   3   7  -2    0.10    2.04
   3   7  -1    4.50    1.51
   3   7  -1    6.17    2.16
   3   7   0   22.99    2.42
   3   7   1  365.43    6.65
   3   7   2  114.11    3.95
   3   7   3    6.95    1.98
   3   7   3    7.76    1.16
   3   7   4    6.31    1.22
   3   7   4    4.74    1.75
   3   7   5    2.22    1.26
   3   7   5    1.71    1.63
   3   7   6    0.04    1.37
   3   7   6    0.01    1.62
   3   7   7    2.07    1.51
   3   7   7    1.98    1.53
   3   7   8   -0.19    1.75
   3   7   8    0.76    1.58
   3   7   9    0.15    1.79
   3   7   9   -0.85    1.81
   3   7  10    6.61    1.96
   3   7  10    7.37    2.11
   3   7  11   -0.01    1.90
   3   7  11    0.38    1.58
   3   7  12    7.82    2.34
   3   7  13   -0.53    2.47
  -3  -7 -14    2.20    2.51
   3   8  -9    9.13    3.18
   3   8  -8    1.93    2.33
   3   8  -7    0.74    2.30
   3   8  -6    1.44    2.18
   3   8  -5    0.09    1.29
   3   8  -5   -0.84    2.19
   3   8  -4    0.87    1.38
   3   8  -4    1.34    2.18
   3   8  -3    2.94    1.47
   3   8  -3    2.54    2.13
   3   8  -2    1.14    1.43
   3   8  -2    1.32    2.13
   3   8  -1    9.29    2.21
   3   8   0   56.73    3.40
   3   8   1  438.07    7.85
   3   8   2  515.43    8.41
   3   8   3   27.29    2.51
   3   8   4   -0.73    1.78
   3   8   5   19.83    2.34
   3   8   5   20.79    1.73
   3   8   6   17.60    2.21
   3   8   6   16.61    1.88
   3   8   7   39.15    2.81
   3   8   7   34.52    2.54
   3   8   8    6.03    1.85
   3   8   8    6.15    1.87
   3   8   9    1.27    1.84
   3   8   9    2.34    1.68
   3   8  10   -0.41    1.95
   3   8  10   -1.46    1.83
   3   8  11    3.08    1.95
   3   8  11    4.87    2.23
   3   8  12    1.58    2.02
   3   8  12    1.37    2.38
   3   8  13   -0.88    2.39
   3   9  -7    0.29    2.61
   3   9  -6    1.69    2.75
   3   9  -5    3.40    2.48
   3   9  -4    4.49    2.62
   3   9  -3    4.12    2.47
   3   9  -2    7.54    2.42
   3   9  -1   24.19    3.01
   3   9   0    1.29    1.97
   3   9   1   -0.11    1.94
   3   9   2   19.23    2.45
   3   9   3   21.98    2.55
   3   9   4   27.75    2.79
   3   9   5    0.25    1.90
   3   9   6   23.86    2.47
   3   9   7   44.25    3.17
   3   9   7   42.12    2.74
   3   9   8   10.22    2.00
   3   9   8   13.50    2.31
   3   9   9    0.15    1.60
   3   9   9   -0.43    1.90
   3   9  10    1.69    1.90
   3   9  10    0.64    1.73
   3   9  11    1.22    2.13
   3   9  11   -0.40    2.13
   3   9  12    4.96    2.47
  -3 -10   5   -0.21    2.60
   3  10  -5   -1.34    2.86
  -3 -10   4    2.64    2.12
   3  10  -4    5.89    2.67
  -3 -10   3    5.67    2.16
   3  10  -3    4.94    2.75
  -3 -10   2   11.22    2.32
   3  10  -2   10.30    2.86
  -3 -10   1    4.46    1.91
   3  10  -1    1.54    2.56
  -3 -10   0    7.33    1.72
   3  10   0    7.60    2.38
   3  10   1    1.58    2.03
   3  10   2   13.94    2.54
   3  10   3    1.25    1.88
   3  10   4    2.54    2.09
   3  10   5    2.33    1.85
   3  10   6   -0.15    1.94
   3  10   7    8.52    2.11
   3  10   8   -0.86    1.76
   3  10   9    2.35    2.09
   3  10  10    1.01    1.99
   3  10  10    2.10    1.93
   3  10  11    1.62    2.48
   3  10  12    4.16    2.24
  -3 -11   4    5.74    2.55
   3  11  -3   16.41    3.44
  -3 -11   3   16.87    2.62
   3  11  -2   50.38    4.37
  -3 -11   2   42.11    3.45
   3  11  -1   47.61    3.91
  -3 -11   1   44.73    3.18
   3  11   0    1.99    2.21
   3  11   1    5.56    2.49
   3  11   2    5.25    2.27
   3  11   3    6.03    2.35
   3  11   4    1.06    2.26
   3  11   5    1.90    2.32
   3  11   6    1.03    2.14
   3  11   7   -0.82    1.95
   3  11   8   -0.36    1.87
   3  11   9    1.94    2.14
   3  12   1    5.88    2.61
   3  12   2    1.47    2.34
   3  12   3    8.33    2.42
   3  12   4   10.87    2.84
   3  12   5    9.62    2.64
   3  12   6   -0.26    2.24
   3  12   7    0.96    2.14
   4  -9   0   -0.63    2.18
   4  -8  -7    0.61    2.47
   4  -8  -2    1.83    1.71
   4  -8  -1    0.96    2.23
   4  -8   0    4.99    2.08
   4  -8   1   -0.49    1.90
   4  -8   2    1.89    1.97
   4  -8   3   -0.23    2.04
   4  -7  -8    2.24    2.66
   4  -7  -7   13.40    2.87
   4  -7  -6   -0.44    2.48
   4  -7  -5   -0.70    2.15
   4  -7  -3   18.66    2.26
   4  -7  -2   37.67    2.85
   4  -7  -1    2.12    1.85
   4  -7   0    0.88    1.61
   4  -7   1    4.99    2.03
   4  -7   2    2.37    2.10
   4  -7   3    6.41    1.96
   4  -7   4   23.52    2.91
  -4   7  -4   21.28    3.27
   4  -7   5    1.07    2.16
  -4   7  -5   -0.15    2.91
   4  -7   6   -4.31    2.01
  -4   7  -6    0.73    2.83
  -4   7  -7    1.66    3.25
  -4   6   9    2.44    2.77
   4  -6  -9    0.18    2.65
   4  -6  -8    2.07    2.34
  -4   6   8    3.15    2.72
   4  -6  -7    1.85    2.29
   4  -6  -6    3.11    2.29
   4  -6  -5    9.07    2.29
   4  -6  -4    0.73    1.82
   4  -6  -4    0.80    1.45
   4  -6  -3    0.75    1.41
   4  -6  -2   -1.23    1.62
   4  -6  -1    2.25    1.69
   4  -6   0    0.17    1.72
   4  -6   1   10.27    2.05
   4  -6   2   43.09    3.11
   4  -6   3    2.34    1.91
  -4   6  -3    2.66    2.34
   4  -6   4    4.21    2.12
  -4   6  -4    3.86    2.65
   4  -6   5    1.09    1.98
  -4   6  -5    1.08    2.61
   4  -6   6    0.28    2.20
  -4   6  -6    1.97    2.80
   4  -6   7   -1.15    1.99
  -4   6  -7    1.21    2.87
   4  -6   8    4.75    2.47
  -4   6  -8    7.24    3.45
  -4   5  10    3.47    2.74
   4  -5 -10    3.30    2.48
  -4   5   9    0.33    2.81
   4  -5  -9   -0.82    2.33
   4  -5  -8    4.61    2.26
   4  -5  -7   -0.40    2.10
   4  -5  -6    1.40    1.93
   4  -5  -5   45.85    3.23
   4  -5  -5   43.98    2.82
   4  -5  -4   -0.03    1.89
   4  -5  -4   -0.32    1.47
   4  -5  -3    0.23    1.46
   4  -5  -3    0.48    1.81
   4  -5  -2    1.53    1.40
   4  -5  -2   -0.53    1.49
   4  -5  -1    0.41    1.48
   4  -5   0   -0.71    1.62
   4  -5   1    0.15    1.53
   4  -5   2   34.88    2.76
  -4   5  -2   32.61    2.76
   4  -5   3   -0.17    1.81
  -4   5  -3    1.20    2.20
   4  -5   4    1.96    1.72
  -4   5  -4    2.38    2.32
   4  -5   5    3.71    1.83
  -4   5  -5    4.08    2.68
   4  -5   6    5.84    1.93
  -4   5  -6    6.60    2.74
   4  -5   7    2.44    1.92
   4  -5   8   -0.74    1.99
   4  -5   9    1.35    1.66
   4  -5  10    3.29    2.17
  -4   4  11    1.05    2.43
   4  -4 -10    5.07    2.63
  -4   4  10    5.68    2.84
  -4   4   9    0.81    2.45
   4  -4  -9    0.36    2.31
   4  -4  -8    2.71    2.17
   4  -4  -7   15.02    2.53
   4  -4  -6   76.90    3.90
   4  -4  -6   72.15    3.20
   4  -4  -5    6.13    2.03
   4  -4  -5    5.06    1.61
   4  -4  -4    2.70    1.71
   4  -4  -4    2.14    1.46
   4  -4  -3    5.60    1.56
   4  -4  -3    5.86    1.79
   4  -4  -2   13.74    1.79
   4  -4  -2   11.30    1.78
   4  -4  -1    2.34    1.51
   4  -4  -1    2.57    1.41
   4  -4   0   30.01    2.39
   4  -4   1   30.87    2.39
   4  -4   2    0.97    1.54
  -4   4  -2    1.63    1.86
   4  -4   3    7.83    1.87
   4  -4   4    6.79    1.96
   4  -4   5    8.73    1.89
   4  -4   6    0.33    1.86
   4  -4   7    1.43    1.79
   4  -4   7    2.59    1.94
   4  -4   8    1.77    1.74
   4  -4   8   -0.55    1.59
   4  -4   9   -0.14    1.79
   4  -4  10    1.68    1.97
   4  -4  11    2.72    2.17
  -4   3  11   -1.16    2.53
   4  -3 -11    0.25    2.85
   4  -3 -10    3.02    2.41
  -4   3  10    3.08    2.55
  -4   3   9    4.21    2.50
   4  -3  -9    4.92    2.38
   4  -3  -8    2.38    2.28
   4  -3  -7   17.34    2.53
   4  -3  -7   17.80    2.00
   4  -3  -6   20.14    2.47
   4  -3  -6   17.59    1.99
   4  -3  -5   20.32    2.37
   4  -3  -5   20.12    2.01
   4  -3  -4    8.22    1.94
   4  -3  -4    6.92    1.57
   4  -3  -3    6.31    1.81
   4  -3  -3    3.98    1.42
   4  -3  -2    1.16    1.40
   4  -3  -2    1.67    1.48
   4  -3  -1    8.17    1.55
   4  -3  -1    9.33    1.56
   4  -3   0    3.16    1.46
   4  -3   0    4.01    1.17
   4  -3   1   75.59    3.18
   4  -3   2   -0.12    1.58
   4  -3   3   -0.22    1.55
   4  -3   4   -0.29    1.63
   4  -3   5   89.96    3.67
   4  -3   5   98.31    3.91
   4  -3   6   55.28    3.21
   4  -3   6   59.91    3.16
   4  -3   7    1.57    1.74
   4  -3   7    1.36    1.54
   4  -3   8    2.81    1.75
   4  -3   8    2.98    1.69
   4  -3   9    6.78    2.05
   4  -3   9    4.97    2.05
   4  -3  10    5.65    2.12
   4  -3  10    3.91    2.06
   4  -3  11    1.55    2.00
   4  -3  12    0.51    2.04
  -4   2  12    5.81    2.89
  -4   2  11    1.05    2.33
   4  -2 -11    4.24    2.51
   4  -2 -10   -0.33    2.25
  -4   2  10   -1.98    2.20
   4  -2  -9    0.21    2.03
  -4   2   9    0.72    2.16
   4  -2  -8   18.41    2.75
  -4   2   8   15.36    2.59
   4  -2  -7    6.28    2.03
   4  -2  -7    5.02    1.51
   4  -2  -6   14.61    2.26
   4  -2  -6   14.31    1.92
   4  -2  -5   13.60    1.80
   4  -2  -5   13.11    2.29
   4  -2  -4    1.62    1.79
   4  -2  -4    2.05    1.37
   4  -2  -3   10.29    1.83
   4  -2  -3    9.87    1.62
   4  -2  -2   14.59    1.76
   4  -2  -2   15.04    1.73
   4  -2  -1    3.70    1.37
   4  -2  -1    4.06    1.29
   4  -2   0   12.55    1.39
   4  -2   0   14.94    1.77
   4  -2   1    8.72    1.00
   4  -2   1    8.15    1.60
   4  -2   2    5.72    1.55
   4  -2   3   12.03    1.81
   4  -2   4    5.20    1.82
   4  -2   4    4.02    1.64
   4  -2   5   58.03    2.94
   4  -2   5   49.83    2.93
   4  -2   6   77.92    3.49
   4  -2   6   79.00    3.35
   4  -2   7   53.03    3.09
   4  -2   7   50.30    2.81
   4  -2   8    4.37    1.72
   4  -2   8    3.30    1.88
   4  -2   9    0.09    1.59
   4  -2   9    0.57    1.66
   4  -2  10   52.90    3.39
   4  -2  10   50.35    3.18
   4  -2  11   54.81    3.69
   4  -2  11   56.96    3.32
   4  -2  12   23.20    2.80
   4  -1 -12    3.01    2.53
  -4   1  11   -1.01    2.17
   4  -1 -11   -0.21    2.37
   4  -1 -10    7.36    2.30
  -4   1  10    8.77    2.32
  -4   1   9    1.50    2.15
   4  -1  -9    0.13    1.96
   4  -1  -8    4.74    2.14
  -4   1   8    5.37    2.03
   4  -1  -7   -0.34    1.81
   4  -1  -6    1.93    1.87
   4  -1  -6    0.40    1.39
   4  -1  -5    1.40    1.76
   4  -1  -5    1.03    1.31
   4  -1  -4   65.30    3.08
   4  -1  -4   63.16    2.79
   4  -1  -3    2.15    1.54
   4  -1  -3    2.42    1.39
   4  -1  -2    0.65    1.25
   4  -1  -2    0.55    1.20
   4  -1  -1   21.65    1.75
   4  -1  -1   24.02    1.70
   4  -1   0   70.67    2.28
   4  -1   0   71.38    2.72
   4  -1   1   84.31    2.22
   4  -1   1   85.11    2.91
   4  -1   2    1.97    1.32
   4  -1   2    0.19    0.64
   4  -1   3   43.27    2.54
   4  -1   3   43.20    2.28
   4  -1   3   41.78    1.20
   4  -1   4   -0.18    1.29
   4  -1   4   -0.21    1.56
   4  -1   5    2.38    1.40
   4  -1   5    2.07    1.65
   4  -1   6    7.73    1.59
   4  -1   6    7.08    1.76
   4  -1   7    1.21    1.39
   4  -1   7    1.43    1.67
   4  -1   8    6.83    1.52
   4  -1   8    4.88    1.81
   4  -1   9    0.41    1.36
   4  -1   9   -0.93    1.71
   4  -1  10    0.63    1.36
   4  -1  10    1.06    1.82
   4  -1  11   89.81    3.76
   4  -1  11   92.61    4.31
   4  -1  12   20.05    2.70
   4  -1  13    0.17    1.97
   4  -1  14   -1.08    2.36
   4   0 -12    2.91    2.29
   4   0 -11    0.52    2.11
  -4   0  10   32.59    2.96
   4   0 -10   37.60    3.32
   4   0  -9   39.99    3.30
  -4   0   9   38.84    2.99
   4   0  -8    4.13    1.88
  -4   0   8    6.82    1.95
   4   0  -7   27.10    2.68
   4   0  -6    7.14    1.99
   4   0  -5   -0.49    1.80
   4   0  -5    0.73    1.44
   4   0  -4   21.36    2.18
   4   0  -4   23.16    2.01
   4   0  -3  598.14    7.47
   4   0  -3  596.54    7.44
   4   0  -2  101.66    3.06
   4   0  -2   98.53    3.09
   4   0  -1   11.77    1.30
   4   0  -1   12.71    1.48
   4   0   0    2.73    0.95
   4   0   0    1.83    1.12
   4   0   1   69.00    2.05
   4   0   1   69.48    2.52
   4   0   2  651.35    7.54
   4   0   2  641.64    7.11
   4   0   2  669.47    5.47
   4   0   3  579.89    7.22
   4   0   3  630.96    7.14
   4   0   3  601.60    4.67
   4   0   4    6.14    1.28
   4   0   4    6.93    1.60
   4   0   4    5.62    0.60
   4   0   5    0.10    1.14
   4   0   5    0.84    1.53
   4   0   6   22.01    2.19
   4   0   6   24.46    1.85
   4   0   7    0.93    1.23
   4   0   7   -0.21    1.67
   4   0   8   -0.14    1.31
   4   0   8    0.66    1.65
   4   0   9    0.45    1.18
   4   0   9   -0.67    1.70
   4   0  10    0.88    1.34
   4   0  10    0.54    1.77
   4   0  11    0.23    1.88
   4   0  12    0.21    1.85
   4   0  13    0.90    2.17
   4   0  14    2.02    2.36
   4   1 -12    1.98    2.19
   4   1 -11   -0.06    2.14
   4   1 -10    7.70    2.10
   4   1  -9    6.70    1.98
   4   1  -8   26.11    2.68
  -4  -1   8   27.57    2.38
   4   1  -7   21.52    2.48
  -4  -1   7   25.88    2.33
   4   1  -6    9.26    1.97
   4   1  -5   18.83    2.18
   4   1  -4    0.36    1.36
   4   1  -3    6.01    1.50
   4   1  -3    4.58    1.39
   4   1  -2    1.72    1.20
   4   1  -2    1.90    0.52
   4   1  -2    2.44    1.27
   4   1  -1   49.63    2.16
   4   1  -1   40.76    2.19
   4   1  -1   52.61    1.45
   4   1   0  244.12    4.00
   4   1   0  253.83    3.26
   4   1   0  250.76    4.44
   4   1   1    6.18    0.99
   4   1   1    6.57    1.41
   4   1   1    5.82    1.20
   4   1   2 1648.83   11.07
   4   1   2 1670.68   10.67
   4   1   2 1642.89    8.96
   4   1   3 2423.21   13.97
   4   1   3 2447.57   12.85
   4   1   3 2436.63   10.29
   4   1   4  168.27    3.96
   4   1   4  165.36    3.54
   4   1   4  164.76    2.65
   4   1   5   14.55    1.40
   4   1   5   12.68    1.77
   4   1   6    3.49    1.14
   4   1   6    3.84    1.58
   4   1   7   30.21    1.84
   4   1   7   28.66    2.40
   4   1   8   60.13    3.15
   4   1   8   63.17    2.53
   4   1   9    2.37    1.16
   4   1   9    1.72    1.60
   4   1  10   -1.03    1.84
   4   1  11    0.14    1.88
   4   1  12    3.85    1.99
   4   1  13    7.48    2.33
   4   1  14   -2.86    2.17
   4   2 -12    4.06    2.26
   4   2 -11    5.37    2.28
   4   2 -10    2.85    2.08
   4   2  -9    0.45    1.80
   4   2  -8   14.24    2.21
   4   2  -7  118.11    4.40
   4   2  -6   -0.83    1.81
  -4  -2   6    1.78    1.47
   4   2  -5    4.56    1.72
   4   2  -4   -0.04    1.54
   4   2  -3   96.10    3.26
   4   2  -3   93.28    2.09
   4   2  -2   73.07    2.70
   4   2  -2   72.47    2.75
   4   2  -2   78.35    1.94
   4   2  -1  156.46    3.58
   4   2  -1  151.12    3.59
   4   2  -1  161.44    2.72
   4   2   0  280.82    4.62
   4   2   0  272.89    3.67
   4   2   0  277.30    4.41
   4   2   1    1.36    1.01
   4   2   1    0.46    0.91
   4   2   1    0.46    0.76
   4   2   1    0.46    1.00
   4   2   2   12.63    1.28
   4   2   2   12.45    1.27
   4   2   2   12.90    1.42
   4   2   2   12.25    1.14
   4   2   3  290.60    4.59
   4   2   3  293.31    4.36
   4   2   3  286.76    4.67
   4   2   3  282.97    3.93
   4   2   4    0.88    0.87
   4   2   4   -0.02    1.22
   4   2   4    0.67    1.13
   4   2   4    0.03    0.80
   4   2   5  145.57    3.82
   4   2   5  151.06    3.14
   4   2   6    2.75    0.93
   4   2   6    1.92    1.46
   4   2   7   10.26    1.19
   4   2   7   10.06    1.83
   4   2   8   68.32    2.34
   4   2   8   66.08    3.20
   4   2   9   25.58    2.42
   4   2  10    0.74    1.58
   4   2  11    0.64    1.78
   4   2  12   -0.58    1.96
   4   2  13    2.58    2.15
   4   2  14    3.16    2.33
   4   3 -12    0.78    2.12
   4   3 -11   -0.52    1.78
   4   3 -10    2.48    1.98
   4   3  -9    2.05    1.78
   4   3  -8   -0.64    1.74
   4   3  -7   10.66    2.08
   4   3  -6  615.55    8.80
   4   3  -5  282.89    5.86
   4   3  -5  286.69    4.63
   4   3  -4    7.85    1.78
   4   3  -4    8.40    1.33
   4   3  -3  108.93    3.47
   4   3  -3  107.35    2.71
   4   3  -2    8.04    1.55
   4   3  -2   10.15    1.11
   4   3  -1   89.31    2.42
   4   3  -1   91.52    2.91
   4   3   0  161.05    3.62
   4   3   0  160.67    3.20
   4   3   0  166.31    3.65
   4   3   1    7.87    1.19
   4   3   1    6.33    1.08
   4   3   1    7.78    1.26
   4   3   1    8.52    1.16
   4   3   2   93.51    2.57
   4   3   2   91.21    2.63
   4   3   2   94.23    2.61
   4   3   2   92.65    2.59
   4   3   3  141.17    2.93
   4   3   3  143.78    3.40
   4   3   3  144.70    3.26
   4   3   3  142.66    3.10
   4   3   4    8.48    1.03
   4   3   4    7.38    1.36
   4   3   4    7.61    1.38
   4   3   5    4.62    1.53
   4   3   5    6.04    1.41
   4   3   5    4.83    0.93
   4   3   6   15.76    1.89
   4   3   6   17.17    1.22
   4   3   6   15.89    1.75
   4   3   7    0.10    0.72
   4   3   7    0.04    1.37
   4   3   8    0.94    1.65
   4   3   9    6.06    1.95
   4   3  10    0.38    1.63
   4   3  11    0.86    1.82
   4   3  12   -0.37    1.91
   4   3  13    5.91    2.16
   4   3  14   -0.06    2.09
   4   4 -11    1.79    1.85
   4   4 -10   -0.01    1.90
   4   4  -9    0.06    1.55
   4   4  -8    1.71    1.59
   4   4  -7    1.00    1.64
   4   4  -6   83.43    3.68
   4   4  -5   38.31    2.31
   4   4  -5   36.48    2.70
   4   4  -4   20.72    1.99
   4   4  -4   19.30    2.12
   4   4  -3  157.53    3.70
   4   4  -3  145.19    4.05
   4   4  -2   18.92    1.58
   4   4  -2   19.31    1.85
   4   4  -1  462.58    5.83
   4   4  -1  460.12    6.41
   4   4   0  357.15    5.14
   4   4   0  362.44    5.54
   4   4   1   24.25    1.38
   4   4   1   28.07    1.79
   4   4   1   24.47    1.75
   4   4   2  164.70    3.75
   4   4   2  162.90    3.14
   4   4   2  167.33    3.65
   4   4   3   20.59    1.35
   4   4   3   20.06    1.69
   4   4   3   19.99    1.43
   4   4   3   20.39    1.56
   4   4   4   63.85    1.99
   4   4   4   60.90    2.63
   4   4   4   63.99    2.37
   4   4   5   30.26    1.40
   4   4   5   30.36    1.95
   4   4   5   25.44    2.05
   4   4   6   15.68    1.93
   4   4   6   18.64    1.09
   4   4   6   17.70    1.78
   4   4   7    3.20    1.74
   4   4   7    3.91    1.58
   4   4   8    0.65    1.56
   4   4   9    0.07    1.64
   4   4  10    3.51    1.79
   4   4  11    1.22    1.89
   4   4  12    4.05    1.97
   4   4  13   -0.75    2.05
   4   4  14   -0.06    2.31
   4   5 -10    3.30    1.79
   4   5  -9    7.47    1.87
   4   5  -8   11.62    1.97
   4   5  -7    7.01    1.85
   4   5  -6    2.54    1.63
   4   5  -6    0.58    1.56
   4   5  -5    4.42    1.69
   4   5  -5    5.60    1.68
   4   5  -4   10.65    1.84
   4   5  -4   10.45    1.93
   4   5  -3    0.61    1.41
   4   5  -3   -0.16    1.59
   4   5  -2   22.92    1.99
   4   5  -2   19.91    2.08
   4   5  -1   41.43    2.27
   4   5  -1   37.38    2.28
   4   5   0  266.72    5.02
   4   5   0  278.47    5.14
   4   5   1   22.12    1.23
   4   5   1   20.01    1.79
   4   5   1   21.43    1.80
   4   5   2   72.41    2.82
   4   5   2   75.98    2.15
   4   5   2   70.09    2.68
   4   5   3    2.25    1.03
   4   5   3    2.25    1.36
   4   5   4   82.06    2.63
   4   5   4   81.20    3.07
   4   5   5  369.34    6.33
   4   5   5  375.93    5.60
   4   5   6   56.81    2.90
   4   5   6   57.91    2.64
   4   5   7    0.26    1.41
   4   5   7    0.24    1.63
   4   5   8    0.77    1.63
   4   5   8    1.10    1.67
   4   5   9    0.37    1.63
   4   5   9    0.43    1.66
   4   5  10    6.05    1.94
   4   5  11   63.37    3.67
   4   5  12    2.01    2.10
   4   5  13    1.34    1.87
   4   5  14    0.29    2.31
   4   6  -9   27.87    2.67
   4   6  -8   21.53    2.41
   4   6  -7    3.31    1.64
   4   6  -7    0.82    1.87
   4   6  -6    2.40    1.54
   4   6  -6    3.74    1.98
   4   6  -5    0.25    1.49
   4   6  -5    0.48    1.80
   4   6  -4    2.91    1.43
   4   6  -4    5.15    1.83
   4   6  -3    6.32    1.64
   4   6  -3    5.21    1.91
   4   6  -2    3.92    1.61
   4   6  -2    2.37    1.87
   4   6  -1    9.73    1.67
   4   6  -1   10.31    1.91
   4   6   0   44.36    2.65
   4   6   0   42.38    2.45
   4   6   1    3.52    1.42
   4   6   1    4.09    1.64
   4   6   2   16.94    2.04
   4   6   2   17.35    1.22
   4   6   2   16.84    1.85
   4   6   3    5.26    1.61
   4   6   3    5.61    1.07
   4   6   4   10.40    1.86
   4   6   4   12.82    1.32
   4   6   5    2.26    1.75
   4   6   5    1.51    1.11
   4   6   6   11.46    1.65
   4   6   6   10.43    1.88
   4   6   7    6.01    1.67
   4   6   7    5.46    1.82
   4   6   8    6.01    1.73
   4   6   8    5.74    1.80
   4   6   9   28.47    2.68
   4   6   9   29.96    2.58
   4   6  10   10.12    2.22
   4   6  10   12.90    2.22
   4   6  11    1.41    2.13
   4   6  12    6.35    2.33
   4   6  13    3.35    2.30
   4   6  14    1.93    2.34
   4   7  -8   10.82    2.06
   4   7  -7    1.87    1.66
   4   7  -7    1.44    2.07
   4   7  -6    1.22    1.48
   4   7  -6   -0.02    2.05
   4   7  -5   17.72    2.47
   4   7  -5   17.30    2.15
   4   7  -4   54.20    3.33
   4   7  -4   55.00    3.02
   4   7  -3    1.88    1.54
   4   7  -3    1.69    1.97
   4   7  -2    0.01    1.43
   4   7  -2    0.10    1.81
   4   7  -1    1.15    1.34
   4   7  -1    2.40    1.87
   4   7   0   10.02    1.80
   4   7   0   13.41    2.20
   4   7   1   32.74    2.60
   4   7   1   29.13    2.33
   4   7   2   92.13    3.69
   4   7   3    2.84    1.88
   4   7   4   11.02    2.04
   4   7   4   10.16    1.26
   4   7   5    0.40    1.20
   4   7   5    0.73    1.73
   4   7   6    3.74    1.44
   4   7   6    4.32    1.74
   4   7   7   19.70    2.31
   4   7   7   21.07    1.99
   4   7   8    5.51    1.64
   4   7   8    5.25    1.88
   4   7   9   40.17    2.85
   4   7   9   41.53    3.15
   4   7  10    0.78    1.80
   4   7  10    0.03    1.77
   4   7  11    6.95    2.38
   4   7  11    7.05    2.16
   4   7  12    0.01    2.33
   4   7  13    5.82    2.23
   4   8  -8    6.52    2.67
   4   8  -7    2.81    2.25
   4   8  -6    1.96    1.56
   4   8  -6    1.62    2.27
   4   8  -5    3.76    1.46
   4   8  -5    0.47    2.15
   4   8  -4   11.11    1.94
   4   8  -4   13.26    2.54
   4   8  -3   38.41    3.14
   4   8  -3   32.39    2.55
   4   8  -2    1.20    1.55
   4   8  -2   -0.33    2.11
   4   8  -1    0.41    1.50
   4   8  -1   -0.66    2.14
   4   8   0   37.08    3.00
   4   8   0   35.08    2.60
   4   8   1  113.64    4.42
   4   8   2   59.30    3.48
   4   8   3   64.10    3.49
   4   8   4   18.93    2.53
   4   8   5   14.01    2.29
   4   8   6   31.60    2.67
   4   8   6   32.54    2.17
   4   8   7   21.81    2.54
   4   8   7   21.32    2.12
   4   8   8   14.78    2.11
   4   8   8   17.01    2.42
   4   8   9    2.51    1.77
   4   8   9    4.70    2.01
   4   8  10   -0.38    1.74
   4   8  10    1.23    1.95
   4   8  11    3.71    2.07
   4   8  11    1.67    1.85
   4   8  12   -1.65    2.18
   4   8  12    2.06    2.11
   4   8  13    4.50    2.36
   4   9  -7   -0.33    2.43
   4   9  -6   -0.75    2.31
   4   9  -5    0.58    1.54
   4   9  -5    0.54    2.23
   4   9  -4    0.80    1.59
   4   9  -4   -0.87    2.56
   4   9  -3    4.19    1.55
   4   9  -3    4.48    2.50
   4   9  -2    0.52    2.14
   4   9  -2    0.81    1.72
   4   9  -1    5.98    2.25
   4   9   0   23.92    2.81
   4   9   1    2.60    1.98
   4   9   2   28.41    2.79
   4   9   3    1.21    1.97
   4   9   4    3.83    2.03
   4   9   5    2.44    2.06
   4   9   6   21.39    2.55
   4   9   7    0.88    1.88
   4   9   8   18.17    2.54
   4   9   8   18.94    2.29
   4   9   9    8.78    1.91
   4   9   9    7.93    2.30
   4   9  10   -0.32    2.02
   4   9  10    1.40    2.01
   4   9  11    3.58    2.06
   4   9  11    3.43    2.23
   4   9  12    0.40    2.14
   4   9  12    2.86    2.08
   4  10  -5    4.00    2.79
   4  10  -4    0.56    2.49
   4  10  -3    5.32    2.75
   4  10  -2    3.76    2.60
   4  10  -1    1.34    2.05
   4  10   0    5.25    2.17
   4  10   1   26.48    3.18
   4  10   2    5.52    2.22
   4  10   3    1.16    2.21
   4  10   4    2.21    2.12
   4  10   5   -1.42    2.02
   4  10   6    3.07    2.10
   4  10   7    7.67    2.16
   4  10   8    5.38    2.02
   4  10   9    2.62    1.83
   4  10  10    1.87    2.06
   4  10  11    4.96    2.12
   4  10  11    2.73    2.10
   4  10  12   -0.46    2.31
   4  11  -3    7.95    3.02
   4  11  -2    0.31    2.46
   4  11  -1    4.82    2.61
   4  11   0    6.29    2.55
   4  11   1    7.68    2.54
   4  11   2    2.47    2.47
   4  11   3    0.04    2.39
   4  11   4    1.84    2.39
   4  11   5    0.60    2.35
   4  11   6    4.27    2.27
   4  11   7   -0.60    2.13
   4  11   8   -0.04    2.11
   4  11   9    0.66    2.11
   4  11  10   -0.11    2.06
   4  12   2    6.66    2.57
   4  12   3   -1.01    2.18
   4  12   4   15.39    3.00
   4  12   5   24.43    3.18
   4  12   6    1.60    2.19
   5  -7  -3   -1.05    1.82
   5  -7  -2    9.03    2.18
   5  -7  -1   18.68    2.69
   5  -7   0    6.97    2.19
   5  -7   1    0.66    2.17
   5  -7   2    1.87    1.89
   5  -7   3   23.47    3.08
   5  -6  -7    3.26    2.20
   5  -6  -6   21.43    2.95
   5  -6  -4    0.97    1.75
   5  -6  -3    1.19    1.44
   5  -6  -2    0.94    1.68
   5  -6  -1   -1.75    1.80
   5  -6   0    5.25    2.10
   5  -6   1    2.32    2.05
   5  -6   2    0.78    1.96
   5  -6   3   25.95    2.94
   5  -6   4  111.36    5.07
   5  -6   5   27.82    3.21
   5  -6   6    4.40    2.55
  -5   6  -6    7.84    3.16
  -5   6  -7   -0.29    2.60
   5  -5  -8   -2.12    2.74
   5  -5  -7   13.90    3.16
   5  -5  -6   30.94    3.25
   5  -5  -5    0.53    1.97
   5  -5  -5    1.00    1.65
   5  -5  -4   -1.10    1.87
   5  -5  -4    0.75    1.68
   5  -5  -3    5.30    1.88
   5  -5  -2   10.54    2.07
   5  -5  -1    7.03    1.85
   5  -5   0    0.61    1.64
   5  -5   1    1.93    1.95
   5  -5   2    2.40    1.87
   5  -5   3    0.05    2.00
   5  -5   4   13.00    2.29
   5  -5   5    6.74    2.29
  -5   5  -5    8.06    2.65
   5  -5   6    1.26    1.98
  -5   5  -6    2.34    2.65
   5  -5   7    0.63    2.18
   5  -5   8    1.62    2.26
   5  -4  -9    1.74    2.68
  -5   4   9    1.88    2.93
   5  -4  -8    0.50    2.29
   5  -4  -7    0.70    2.14
   5  -4  -6    2.36    2.22
   5  -4  -6    1.40    1.68
   5  -4  -5  136.57    5.12
   5  -4  -5  131.70    4.72
   5  -4  -4  246.23    6.26
   5  -4  -4  244.93    6.18
   5  -4  -3    4.45    1.86
   5  -4  -3    4.46    1.83
   5  -4  -2   26.90    2.53
   5  -4  -1    0.39    1.66
   5  -4   0    5.39    1.82
   5  -4   1    9.55    2.13
   5  -4   2    5.81    1.93
   5  -4   3    2.38    1.80
   5  -4   4    1.07    1.74
   5  -4   5    0.27    1.78
   5  -4   6    2.95    1.93
   5  -4   7    3.42    1.78
   5  -4   8    1.84    2.13
   5  -4   9    0.98    2.17
   5  -4   9    1.64    2.29
   5  -4  10   -1.01    2.44
   5  -3 -10    1.06    2.66
  -5   3  10    3.30    2.77
  -5   3   9    1.60    2.68
   5  -3  -9    0.69    2.53
   5  -3  -8    0.40    2.20
   5  -3  -7    1.44    2.17
   5  -3  -7    1.44    1.70
   5  -3  -6    0.22    2.05
   5  -3  -6   -1.92    1.69
   5  -3  -5   30.51    3.01
   5  -3  -5   30.62    2.43
   5  -3  -4   28.68    2.60
   5  -3  -4   28.79    2.48
   5  -3  -3   75.21    3.41
   5  -3  -3   72.78    3.47
   5  -3  -2   22.98    2.12
   5  -3  -2   22.56    2.28
   5  -3  -1   25.35    1.98
   5  -3  -1   25.24    2.39
   5  -3   0  142.32    4.51
   5  -3   1   28.37    2.53
   5  -3   2    5.61    2.01
   5  -3   3   13.53    2.21
   5  -3   4    2.53    1.73
   5  -3   5   22.38    2.41
   5  -3   6    5.64    2.03
   5  -3   7    0.06    2.17
   5  -3   7    1.18    1.61
   5  -3   8   -0.66    2.07
   5  -3   8    0.07    1.59
   5  -3   9   -0.07    1.82
   5  -3   9    0.81    1.86
   5  -3  10    0.95    2.19
   5  -3  10   -0.46    2.12
   5  -3  11   -0.62    2.04
   5  -3  11    3.41    2.17
  -5   2  11    1.54    2.51
  -5   2  10    2.66    2.47
   5  -2 -10    1.57    2.24
   5  -2  -9    0.14    2.45
  -5   2   9    1.27    2.40
   5  -2  -8    2.84    2.28
   5  -2  -7    2.39    2.11
   5  -2  -7    1.03    1.75
   5  -2  -6   -0.65    1.90
   5  -2  -6   -0.14    1.52
   5  -2  -5    0.85    1.93
   5  -2  -5    2.05    1.54
   5  -2  -4    0.26    1.75
   5  -2  -4    1.08    1.38
   5  -2  -3    6.58    1.70
   5  -2  -3    7.69    1.81
   5  -2  -2    0.85    1.54
   5  -2  -2    0.56    1.56
   5  -2  -1   75.72    2.92
   5  -2  -1   72.59    3.31
   5  -2   0   73.37    2.67
   5  -2   0   73.80    3.29
   5  -2   1  152.83    4.51
   5  -2   2    7.04    1.73
   5  -2   3   26.15    2.35
   5  -2   4    0.42    1.68
   5  -2   5    4.79    1.98
   5  -2   5    4.27    1.72
   5  -2   6   80.96    3.92
   5  -2   6   81.89    3.68
   5  -2   7    0.93    1.77
   5  -2   7    0.15    1.93
   5  -2   8   -0.04    1.85
   5  -2   8   -0.13    1.94
   5  -2   9   -0.84    1.64
   5  -2   9   -0.55    2.20
   5  -2  10   -0.03    1.94
   5  -2  10   -0.45    2.13
   5  -2  11    4.15    2.15
   5  -2  11    2.31    2.32
   5  -2  12   15.70    2.70
  -5   1  11    1.47    2.49
   5  -1 -10    0.20    2.60
  -5   1  10    0.12    2.26
   5  -1  -9    1.04    1.87
  -5   1   9    1.57    2.07
   5  -1  -8   32.70    3.05
   5  -1  -7    6.11    2.28
   5  -1  -6    0.20    1.93
   5  -1  -6   -0.16    1.34
   5  -1  -5   16.42    2.23
   5  -1  -5   14.91    1.98
   5  -1  -4   -0.47    1.71
   5  -1  -4   -0.26    1.56
   5  -1  -3    1.99    1.66
   5  -1  -3    2.78    1.54
   5  -1  -2    2.92    1.63
   5  -1  -2    4.79    1.63
   5  -1  -1    0.66    1.27
   5  -1  -1    0.01    1.48
   5  -1   0   21.81    1.66
   5  -1   0   19.81    2.07
   5  -1   1    4.05    1.67
   5  -1   1    5.84    1.20
   5  -1   2   39.66    2.51
   5  -1   3   74.27    3.26
   5  -1   4    0.25    1.54
   5  -1   4    0.62    2.01
   5  -1   5   14.56    2.21
   5  -1   5   14.33    2.04
   5  -1   6   -1.07    1.48
   5  -1   6    0.19    1.87
   5  -1   7    0.08    1.56
   5  -1   7    0.16    1.95
   5  -1   8   16.64    2.45
   5  -1   8   15.71    2.09
   5  -1   9    7.77    1.94
   5  -1   9    5.74    1.93
   5  -1  10    0.82    1.72
   5  -1  10    0.53    1.84
   5  -1  11    1.82    2.16
   5  -1  12    0.71    2.34
   5  -1  13    0.78    2.35
   5   0 -11    7.42    2.42
   5   0 -10    3.08    2.47
  -5   0   9    0.23    1.76
   5   0  -9    1.98    2.07
   5   0  -8   20.99    2.79
  -5   0   8   22.12    2.75
   5   0  -7   28.84    2.88
   5   0  -6    3.15    1.82
   5   0  -5    1.07    1.72
   5   0  -5    1.00    1.52
   5   0  -4    7.87    1.77
   5   0  -4    9.30    1.76
   5   0  -3  114.30    3.83
   5   0  -3  117.99    3.98
   5   0  -2   82.63    3.18
   5   0  -2   74.82    3.17
   5   0  -1    4.34    1.38
   5   0  -1    2.87    1.55
   5   0   0    4.03    1.26
   5   0   0    3.47    1.59
   5   0   1   23.95    1.61
   5   0   1   23.31    2.03
   5   0   2   74.10    3.02
   5   0   2   74.58    2.29
   5   0   3  299.75    6.04
   5   0   3  298.41    5.54
   5   0   3  287.69    3.89
   5   0   4    1.98    1.44
   5   0   4    1.78    1.94
   5   0   5   30.44    2.65
   5   0   5   30.81    2.36
   5   0   6   11.22    1.78
   5   0   6   12.92    2.24
   5   0   7    3.17    1.48
   5   0   7    2.50    1.87
   5   0   8    3.93    1.62
   5   0   8    2.60    1.87
   5   0   9    3.54    1.62
   5   0   9    2.82    1.85
   5   0  10    8.56    1.82
   5   0  10    7.05    1.97
   5   0  11    6.89    2.17
   5   0  12    1.52    2.15
   5   0  13    1.92    2.37
   5   1 -11   14.81    3.02
   5   1 -10    4.43    2.25
   5   1  -9    7.02    2.26
   5   1  -8   18.73    2.63
   5   1  -7   19.84    2.63
   5   1  -6    0.38    1.87
   5   1  -5    2.46    1.80
   5   1  -4    4.86    1.77
   5   1  -4    3.97    1.78
   5   1  -3    9.60    1.81
   5   1  -3    9.44    1.85
   5   1  -2   53.25    2.71
   5   1  -2   55.46    2.82
   5   1  -1   34.59    2.14
   5   1  -1   35.46    2.31
   5   1   0    4.57    1.24
   5   1   0    5.16    1.41
   5   1   1    0.29    0.97
   5   1   1    1.30    1.34
   5   1   2  172.68    4.40
   5   1   2  170.77    4.15
   5   1   2  167.65    3.43
   5   1   3   94.47    3.49
   5   1   3   95.10    3.17
   5   1   3   94.77    2.52
   5   1   4   40.73    2.67
   5   1   4   39.78    2.30
   5   1   4   37.10    1.56
   5   1   5  110.79    3.93
   5   1   5  106.70    3.36
   5   1   6  110.10    4.03
   5   1   6  111.92    3.51
   5   1   7   42.00    2.90
   5   1   7   43.94    2.48
   5   1   8   26.56    2.61
   5   1   8   27.75    2.08
   5   1   9   20.57    1.79
   5   1   9   23.74    2.58
   5   1  10    1.54    2.04
   5   1  11    2.26    2.01
   5   1  12    3.22    2.21
   5   1  13   -0.19    2.42
   5   2 -11    9.77    2.66
   5   2 -10    4.89    2.39
   5   2  -9    8.67    2.49
   5   2  -8    7.50    2.21
   5   2  -7   36.05    3.07
   5   2  -6    7.46    2.08
   5   2  -5    1.56    1.74
   5   2  -4    7.91    1.87
   5   2  -3   -0.21    1.62
   5   2  -2    3.68    1.51
   5   2  -2    2.86    1.60
   5   2  -1   19.18    1.81
   5   2  -1   18.21    1.93
   5   2  -1   19.58    1.26
   5   2   0    0.24    1.22
   5   2   0    0.56    0.96
   5   2   0    0.36    1.39
   5   2   1   44.69    1.92
   5   2   1   45.03    2.33
   5   2   1   43.33    2.11
   5   2   2  100.99    2.91
   5   2   2  101.72    3.32
   5   2   2  104.06    3.24
   5   2   2  103.40    2.89
   5   2   3   39.06    2.38
   5   2   3   40.01    2.17
   5   2   3   38.66    1.84
   5   2   4    0.56    0.86
   5   2   4    1.63    1.53
   5   2   4    0.68    1.18
   5   2   5   24.81    1.79
   5   2   5   24.00    2.16
   5   2   6    1.28    1.22
   5   2   6    1.07    1.70
   5   2   7    7.90    1.42
   5   2   7    6.36    1.96
   5   2   8    6.69    1.29
   5   2   8    6.86    2.08
   5   2   9   72.09    3.70
   5   2  10    4.31    2.06
   5   2  11    1.42    1.92
   5   2  12    1.44    2.02
   5   2  13    3.64    2.35
   5   3 -10    9.80    2.50
   5   3  -9   10.63    2.42
   5   3  -8   20.41    2.65
   5   3  -7   17.51    2.41
   5   3  -6  176.85    5.41
   5   3  -5   43.02    3.01
   5   3  -4    9.73    1.93
   5   3  -3    0.56    1.55
   5   3  -2   21.41    1.43
   5   3  -2   18.46    2.02
   5   3  -1   22.23    2.08
   5   3  -1   23.23    1.49
   5   3  -1   23.53    2.03
   5   3   0   12.05    1.26
   5   3   0   10.74    1.71
   5   3   0   11.86    1.56
   5   3   1   66.91    2.65
   5   3   1   61.61    2.65
   5   3   1   65.72    2.37
   5   3   1   69.02    2.66
   5   3   2   40.53    2.10
   5   3   2   40.19    2.16
   5   3   2   38.23    2.13
   5   3   2   41.26    2.07
   5   3   3    4.31    1.09
   5   3   3    4.75    1.38
   5   3   3    3.79    1.35
   5   3   3    4.29    1.22
   5   3   4    1.89    0.99
   5   3   4    2.57    1.40
   5   3   4    1.75    1.39
   5   3   4    2.83    1.16
   5   3   5    0.63    1.52
   5   3   5    0.57    1.49
   5   3   5    0.57    1.02
   5   3   6    0.78    1.65
   5   3   6    0.08    1.14
   5   3   7    0.86    1.05
   5   3   7   -0.05    1.70
   5   3   8   70.07    3.52
   5   3   9   32.99    2.82
   5   3  10    6.67    2.08
   5   3  11    0.26    1.85
   5   3  12    2.83    2.13
   5   3  13    1.66    2.43
   5   3  14    0.16    2.22
   5   4 -10    1.75    2.28
   5   4  -9   -0.15    1.84
   5   4  -8   -0.55    1.83
   5   4  -7    5.52    2.03
   5   4  -6    3.49    2.00
   5   4  -5  295.74    6.62
   5   4  -4   19.78    2.39
   5   4  -3    1.22    1.77
   5   4  -3    0.72    1.16
   5   4  -2   80.38    2.78
   5   4  -2   81.38    3.38
   5   4  -1    3.81    1.42
   5   4  -1    2.49    1.15
   5   4   0   17.14    1.63
   5   4   0   14.73    1.74
   5   4   1   85.20    2.99
   5   4   1   85.92    2.73
   5   4   1   82.12    2.84
   5   4   1   83.05    3.01
   5   4   2    2.94    1.22
   5   4   2    2.04    1.19
   5   4   2    1.57    1.30
   5   4   2    2.42    1.29
   5   4   3    6.05    1.32
   5   4   3    7.02    1.41
   5   4   3    6.17    1.46
   5   4   3    6.61    1.32
   5   4   4    9.35    1.50
   5   4   4   12.18    1.66
   5   4   4   11.75    1.38
   5   4   4    9.95    1.44
   5   4   5   45.81    2.64
   5   4   5   49.89    2.02
   5   4   5   42.43    2.46
   5   4   6   11.03    1.27
   5   4   6   10.70    1.87
   5   4   6   10.89    2.00
   5   4   7   -0.15    1.73
   5   4   7    0.27    1.56
   5   4   8    1.48    1.75
   5   4   9   -1.78    1.87
   5   4  10   -0.96    2.06
   5   4  11    8.21    2.08
   5   4  12    2.53    2.23
   5   4  13   -0.15    2.01
   5   4  14   -0.01    2.55
   5   5 -10    2.97    1.96
   5   5  -9    1.23    2.10
   5   5  -8    0.20    1.70
   5   5  -7    1.50    1.85
   5   5  -6    1.60    1.79
   5   5  -5    4.11    1.99
   5   5  -4    0.79    1.62
   5   5  -4    1.54    1.26
   5   5  -3   37.79    2.31
   5   5  -3   37.98    2.67
   5   5  -2  193.45    4.49
   5   5  -2  194.44    5.04
   5   5  -1   13.18    1.71
   5   5  -1   12.83    1.98
   5   5   0    3.95    1.53
   5   5   0    3.88    1.50
   5   5   1   45.49    2.02
   5   5   1   43.10    2.41
   5   5   1   44.14    2.50
   5   5   2   12.14    1.71
   5   5   2   12.94    1.71
   5   5   2   15.35    1.45
   5   5   3   73.19    3.08
   5   5   3   75.95    2.66
   5   5   3   74.69    2.99
   5   5   4    1.75    1.18
   5   5   4    4.20    1.54
   5   5   5   74.66    3.32
   5   5   5   77.65    3.01
   5   5   5   76.84    2.41
   5   5   6  173.03    4.97
   5   5   6  179.36    4.56
   5   5   7   30.71    2.64
   5   5   7   25.48    2.21
   5   5   8    4.39    1.88
   5   5   8    2.61    1.57
   5   5   9    0.49    1.71
   5   5  10   14.37    2.42
   5   5  11  118.09    4.89
   5   5  12    1.86    2.05
   5   5  13   -0.19    2.04
   5   6  -9    1.27    2.04
   5   6  -8   11.08    2.16
   5   6  -7    0.77    1.73
   5   6  -6    0.66    1.39
   5   6  -5    3.73    1.71
   5   6  -5    6.58    1.85
   5   6  -4    0.32    1.61
   5   6  -4   -0.08    1.43
   5   6  -3   30.85    2.38
   5   6  -3   26.93    2.35
   5   6  -2  106.66    3.75
   5   6  -2  100.51    3.86
   5   6  -1   48.17    2.77
   5   6  -1   52.10    2.96
   5   6   0   25.31    2.24
   5   6   0   23.11    2.25
   5   6   1  145.17    4.25
   5   6   1  144.98    4.27
   5   6   2   14.63    2.01
   5   6   2   14.46    2.00
   5   6   3    0.75    1.12
   5   6   3    2.93    1.65
   5   6   3    0.53    1.44
   5   6   4    3.33    1.31
   5   6   4    2.10    1.63
   5   6   5    1.12    1.23
   5   6   5    0.42    1.63
   5   6   6    6.30    1.76
   5   6   6    5.52    1.45
   5   6   7    3.36    1.92
   5   6   7    2.96    1.57
   5   6   8    4.01    1.89
   5   6   8    4.95    1.78
   5   6   9    0.35    2.00
   5   6   9   -0.67    1.63
   5   6  10   20.09    2.74
   5   6  10   22.10    2.52
   5   6  11  103.26    4.57
   5   6  12   51.23    3.69
   5   6  13    1.54    2.34
   5   7  -9    5.74    2.16
   5   7  -8    2.46    1.97
   5   7  -7    8.03    1.97
   5   7  -6   -0.20    1.53
   5   7  -5    8.09    1.96
   5   7  -5    9.41    2.04
   5   7  -4    2.68    1.62
   5   7  -4    1.76    1.67
   5   7  -3   20.24    2.25
   5   7  -3   19.56    2.29
   5   7  -2   39.75    2.78
   5   7  -2   40.33    2.80
   5   7  -1    0.78    1.55
   5   7  -1    1.67    1.63
   5   7   0   68.06    3.36
   5   7   0   63.15    3.24
   5   7   1  106.36    3.96
   5   7   1  101.38    3.82
   5   7   2    1.93    1.61
   5   7   2    2.27    1.79
   5   7   3    7.12    1.83
   5   7   4    3.96    1.79
   5   7   5    0.52    1.75
   5   7   5    0.71    1.22
   5   7   6   13.36    2.10
   5   7   6   13.29    1.66
   5   7   7    2.98    1.81
   5   7   7    1.89    1.51
   5   7   8    3.50    2.07
   5   7   8    2.49    1.49
   5   7   9    0.67    2.08
   5   7   9   -0.09    1.62
   5   7  10   -0.03    2.09
   5   7  10    0.52    1.86
   5   7  11   -0.05    1.93
   5   7  11   -0.09    2.02
   5   7  12    2.19    2.05
   5   7  13    0.87    2.41
   5   8  -7    0.57    1.76
   5   8  -6    0.21    1.81
   5   8  -6   -0.14    2.06
   5   8  -5    0.02    1.81
   5   8  -5    0.39    1.97
   5   8  -4    2.60    1.69
   5   8  -4    3.22    2.10
   5   8  -3    1.69    1.54
   5   8  -3    2.48    2.02
   5   8  -2   -0.34    1.74
   5   8  -2    2.11    1.91
   5   8  -1    0.13    1.45
   5   8  -1   -0.24    1.90
   5   8   0    9.79    1.91
   5   8   0    9.06    2.05
   5   8   1    7.47    1.79
   5   8   1    6.31    2.00
   5   8   2  328.89    7.09
   5   8   3  768.40   10.72
   5   8   4    1.06    1.79
   5   8   5   10.50    2.08
   5   8   6    6.88    2.01
   5   8   7    0.10    1.92
   5   8   7   -0.09    1.42
   5   8   8    2.01    2.01
   5   8   8    1.55    1.47
   5   8   9   -0.58    2.04
   5   8   9   -0.12    1.72
   5   8  10    5.56    2.32
   5   8  10    5.00    1.88
   5   8  11    0.64    1.85
   5   8  11    1.26    2.01
   5   8  12    2.21    1.98
   5   8  13    0.81    2.20
   5   9  -6   -2.31    1.91
   5   9  -6   -0.18    2.34
   5   9  -5    2.02    1.77
   5   9  -5    1.17    2.29
   5   9  -4    1.21    1.74
   5   9  -4    1.49    2.12
   5   9  -3    0.87    1.73
   5   9  -3    3.08    2.00
   5   9  -2   11.24    2.19
   5   9  -2   11.79    2.39
   5   9  -1   10.72    1.95
   5   9  -1    9.95    2.34
   5   9   0    0.16    1.96
   5   9   1    5.74    2.09
   5   9   2   19.79    2.59
   5   9   3   13.79    2.45
   5   9   4   99.38    4.49
   5   9   5   33.19    3.01
   5   9   6    4.04    1.95
   5   9   7   57.30    3.79
   5   9   8   31.70    3.08
   5   9   9    7.92    1.95
   5   9   9    7.24    2.30
   5   9  10    0.41    1.83
   5   9  10    0.04    1.94
   5   9  11    0.16    1.95
   5   9  11    0.40    2.27
   5   9  12    1.70    1.94
   5   9  12    0.81    2.14
   5  10  -5   16.10    2.41
   5  10  -5   15.70    3.09
   5  10  -4   -0.33    1.78
   5  10  -4    3.82    2.42
   5  10  -3    0.27    1.99
   5  10  -3   -1.23    2.22
   5  10  -2    1.41    1.99
   5  10  -1    1.65    2.18
   5  10   0    0.46    2.18
   5  10   1    4.67    2.31
   5  10   2    1.80    1.83
   5  10   3    1.20    1.93
   5  10   4   14.46    2.66
   5  10   5   11.61    2.49
   5  10   6   11.81    2.59
   5  10   7   15.82    2.74
   5  10   8    1.92    1.91
   5  10   9    3.59    2.25
   5  10  10    0.94    2.39
   5  10  12    1.79    2.21
   5  11  -2    7.73    2.93
   5  11  -1   50.63    4.14
   5  11   0   39.69    3.54
   5  11   1    1.07    2.33
   5  11   2    4.23    2.31
   5  11   3    1.09    2.21
   5  11   4    8.84    2.40
   5  11   5    6.77    2.47
   5  11   6    1.63    2.20
   5  11   7   18.66    3.14
   5  11   8    0.83    2.31
   5  11   9    4.55    2.21
   6  -6  -3    0.17    2.13
   6  -6  -2    0.52    1.84
   6  -6  -1    2.57    2.10
   6  -6   0    0.47    2.18
   6  -6   1    2.45    1.94
   6  -6   2    0.44    2.23
   6  -5  -7    0.10    2.40
   6  -5  -6    2.95    2.31
   6  -5  -5    4.66    2.00
   6  -5  -4    4.13    2.11
   6  -5  -3    1.57    2.02
   6  -5  -2    0.19    1.82
   6  -5  -1    0.91    2.00
   6  -5   0   -0.82    1.90
   6  -5   1    0.25    1.86
   6  -5   2   -2.03    1.91
   6  -5   3   -0.92    2.45
   6  -5   4    1.44    2.37
   6  -5   5    0.41    2.40
   6  -4  -7    3.73    2.14
   6  -4  -6    0.92    2.20
   6  -4  -6    1.60    1.75
   6  -4  -5   48.88    3.55
   6  -4  -5   53.94    3.55
   6  -4  -4    4.90    2.06
   6  -4  -4    2.19    2.05
   6  -4  -3    1.90    1.90
   6  -4  -2    3.05    1.86
   6  -4  -1   -0.29    1.85
   6  -4   0   -0.31    1.94
   6  -4   1    5.48    1.79
   6  -4   2    3.42    1.96
   6  -4   3    3.11    2.13
   6  -4   4   -1.21    2.10
   6  -4   5    2.20    2.08
   6  -4   6    0.16    2.06
   6  -4   7   -0.21    2.05
   6  -4   8    3.26    2.30
   6  -3  -8   -0.92    2.46
   6  -3  -7    2.36    2.38
   6  -3  -7    1.12    1.70
   6  -3  -6    2.72    2.10
   6  -3  -6   -2.55    1.79
   6  -3  -5    1.24    1.96
   6  -3  -5   -0.24    1.88
   6  -3  -4   58.18    3.53
   6  -3  -4   58.71    3.44
   6  -3  -3   -0.90    1.76
   6  -3  -3    1.57    1.86
   6  -3  -2   14.54    2.24
   6  -3  -1   10.30    2.04
   6  -3   0    1.89    1.87
   6  -3   1   -0.90    1.89
   6  -3   2   34.39    2.82
   6  -3   3    0.51    1.81
   6  -3   4   -0.36    1.75
   6  -3   5    0.50    1.82
   6  -3   6    4.33    1.80
   6  -3   7   14.77    2.41
   6  -3   8   -0.24    1.91
   6  -3   9    2.67    2.56
   6  -3   9   -0.30    2.20
   6  -3  10   -0.70    2.77
   6  -3  10   -1.15    2.35
  -6   2   9    1.59    2.53
   6  -2  -8    4.26    2.46
   6  -2  -7   -0.89    2.08
   6  -2  -7    0.61    1.82
   6  -2  -6   -0.86    1.98
   6  -2  -6   -0.02    1.73
   6  -2  -5    0.40    1.89
   6  -2  -5    1.41    1.71
   6  -2  -4   -1.47    2.03
   6  -2  -4    1.31    1.82
   6  -2  -3    0.61    1.92
   6  -2  -3    2.10    1.68
   6  -2  -2   49.06    2.83
   6  -2  -2   47.32    3.17
   6  -2  -1   34.64    2.78
   6  -2   0    1.11    1.70
   6  -2   1    0.44    1.71
   6  -2   2    8.83    1.87
   6  -2   3   11.65    2.06
   6  -2   4    0.48    1.73
   6  -2   5    0.21    1.94
   6  -2   6   11.92    2.17
   6  -2   7   26.92    3.01
   6  -2   7   23.95    2.56
   6  -2   8   26.18    3.02
   6  -2   8   23.34    2.63
   6  -2   9   -0.62    1.79
   6  -2   9    1.12    2.37
   6  -2  10    1.97    1.98
   6  -2  10   -3.15    2.47
   6  -2  11    1.83    2.04
   6  -2  11    2.97    2.45
   6  -1  -9    2.15    2.26
  -6   1   9    2.09    2.29
   6  -1  -8    5.41    2.49
   6  -1  -7   17.22    2.59
   6  -1  -6    2.06    1.97
   6  -1  -6    0.54    1.62
   6  -1  -5   12.09    2.28
   6  -1  -5    9.70    2.17
   6  -1  -4   12.47    2.21
   6  -1  -4   11.06    2.10
   6  -1  -3    0.78    1.56
   6  -1  -3   -0.67    1.84
   6  -1  -2   36.43    2.57
   6  -1  -2   37.76    2.92
   6  -1  -1   23.36    2.11
   6  -1  -1   25.76    2.51
   6  -1   0    1.63    1.34
   6  -1   0    0.95    1.90
   6  -1   1   32.82    2.65
   6  -1   2   67.71    3.36
   6  -1   3    1.12    1.60
   6  -1   4   12.83    2.06
   6  -1   5    1.35    1.56
   6  -1   5   -0.11    1.92
   6  -1   6    3.34    1.96
   6  -1   6    2.58    2.12
   6  -1   7    5.72    2.09
   6  -1   7    4.55    2.21
   6  -1   8    3.73    1.79
   6  -1   8    5.06    2.32
   6  -1   9    0.78    1.67
   6  -1   9    1.76    2.21
   6  -1  10    0.00    1.81
   6  -1  10   -0.79    2.28
   6  -1  11    0.11    2.56
   6   0  -9    3.56    2.32
   6   0  -8    0.25    2.04
   6   0  -7    1.67    1.97
   6   0  -6   13.97    2.35
   6   0  -5    5.86    1.96
   6   0  -5    5.91    1.90
   6   0  -4   16.74    2.28
   6   0  -4   15.09    2.33
   6   0  -3    0.49    1.64
   6   0  -3   -0.20    1.66
   6   0  -2   17.93    2.01
   6   0  -2   14.47    2.11
   6   0  -1  103.95    3.67
   6   0  -1   99.26    3.96
   6   0   0   56.44    2.63
   6   0   0   56.40    3.16
   6   0   1   99.41    3.13
   6   0   1   93.23    3.77
   6   0   2   44.76    2.87
   6   0   3   38.26    2.68
   6   0   4    5.88    1.69
   6   0   4    6.24    2.19
   6   0   5    2.87    1.36
   6   0   5    4.09    2.17
   6   0   6   -0.03    1.49
   6   0   6   -0.91    1.90
   6   0   7    2.14    1.70
   6   0   7    2.77    2.02
   6   0   8    4.53    1.71
   6   0   8    3.54    2.17
   6   0   9    1.41    1.60
   6   0   9    2.01    2.07
   6   0  10    1.52    2.14
   6   0  11    0.80    2.11
   6   0  12    2.61    2.20
   6   1  -9   -0.34    2.34
   6   1  -8    0.49    1.97
   6   1  -7    4.87    2.05
   6   1  -6    1.29    2.04
   6   1  -5    0.61    1.94
   6   1  -4    3.53    1.70
   6   1  -4    4.75    1.87
   6   1  -3   -0.20    1.54
   6   1  -3    1.46    1.67
   6   1  -2   25.57    2.28
   6   1  -2   24.60    2.40
   6   1  -1    1.76    1.59
   6   1  -1    0.88    1.94
   6   1   0    1.52    1.34
   6   1   0    0.68    1.59
   6   1   1   20.00    2.31
   6   1   1   19.56    1.75
   6   1   2   18.16    2.11
   6   1   2   18.85    1.64
   6   1   3  121.74    4.47
   6   1   3  117.29    4.03
   6   1   4 1200.31   12.77
   6   1   4 1220.47   11.81
   6   1   5   20.93    2.66
   6   1   5   21.15    2.13
   6   1   6   16.65    2.42
   6   1   6   21.00    2.11
   6   1   7   -0.07    1.38
   6   1   7    1.66    1.98
   6   1   8    5.98    1.75
   6   1   8    4.76    1.97
   6   1   9    1.12    1.45
   6   1   9    0.14    2.12
   6   1  10    0.39    2.09
   6   1  11    2.47    1.99
   6   1  12   -0.01    2.33
   6   2  -9    1.10    2.47
   6   2  -8   -0.23    2.03
   6   2  -7    0.83    1.93
   6   2  -6   -0.39    1.99
   6   2  -5    0.68    1.94
   6   2  -4   15.03    2.24
   6   2  -3    0.47    1.47
   6   2  -3   -0.38    1.74
   6   2  -2   -0.40    1.47
   6   2  -2   -0.25    1.70
   6   2  -1   76.07    3.26
   6   2  -1   79.47    3.54
   6   2   0    7.74    1.51
   6   2   0    9.01    1.84
   6   2   1   13.32    1.92
   6   2   1   14.19    1.74
   6   2   2    6.50    1.41
   6   2   2    6.87    1.75
   6   2   3   51.38    3.01
   6   2   3   51.49    2.85
   6   2   3   51.94    2.35
   6   2   4   19.57    2.34
   6   2   4   19.24    2.13
   6   2   4   19.74    1.61
   6   2   5  216.96    5.64
   6   2   5  215.56    4.95
   6   2   6    0.07    1.42
   6   2   6    1.16    2.00
   6   2   7   40.34    2.39
   6   2   7   37.76    3.02
   6   2   8   30.32    2.26
   6   2   8   28.89    2.76
   6   2   9   17.03    2.54
   6   2  10   15.73    2.65
   6   2  11   -2.35    2.23
   6   2  12    3.04    2.22
   6   3  -9    1.03    1.91
   6   3  -8    4.39    2.27
   6   3  -7    9.93    2.28
   6   3  -6    9.51    2.22
   6   3  -5  184.72    5.70
   6   3  -4  160.72    5.13
   6   3  -3    0.71    1.56
   6   3  -2    0.59    1.53
   6   3  -1    1.91    1.68
   6   3  -1    3.59    1.78
   6   3   0    0.12    1.51
   6   3   0    0.13    1.00
   6   3   0   -0.04    1.67
   6   3   1    1.59    1.34
   6   3   1    2.31    1.26
   6   3   1    1.39    1.51
   6   3   2    0.92    1.68
   6   3   2    0.92    1.22
   6   3   2    1.93    1.36
   6   3   2    0.74    1.48
   6   3   3    1.73    1.21
   6   3   3    1.50    1.66
   6   3   3    1.74    1.38
   6   3   3    2.01    1.48
   6   3   4   26.77    2.15
   6   3   4   25.43    2.09
   6   3   4   24.88    2.32
   6   3   4   25.58    1.84
   6   3   5    2.41    1.74
   6   3   5    1.38    1.37
   6   3   6   75.53    3.02
   6   3   6   72.33    3.50
   6   3   7   64.83    2.75
   6   3   7   60.43    3.38
   6   3   8   33.74    2.85
   6   3   9    3.16    2.06
   6   3  10    9.71    2.35
   6   3  11    0.58    2.09
   6   3  12    0.68    2.27
   6   3  13    1.52    2.35
   6   4  -9    0.68    2.23
   6   4  -8    1.40    2.32
   6   4  -7    2.48    1.88
   6   4  -6    2.76    2.08
   6   4  -5   34.28    2.97
   6   4  -4  215.52    5.87
   6   4  -3   21.38    2.29
   6   4  -2    4.98    1.81
   6   4  -1    2.16    1.53
   6   4   0  148.42    3.78
   6   4   0  153.60    4.45
   6   4   1  217.80    5.11
   6   4   1  219.21    4.64
   6   4   1  215.88    5.02
   6   4   2    2.05    1.52
   6   4   2    0.29    1.37
   6   4   2    0.65    1.44
   6   4   2    0.67    1.50
   6   4   3   20.64    2.08
   6   4   3   17.49    1.90
   6   4   3   17.30    2.02
   6   4   3   18.15    1.79
   6   4   4   32.94    2.43
   6   4   4   33.89    2.24
   6   4   4   35.34    2.47
   6   4   4   29.45    2.06
   6   4   5   22.82    2.22
   6   4   5   26.15    1.93
   6   4   5   23.84    2.30
   6   4   6    6.66    1.82
   6   4   6    6.15    1.84
   6   4   6    6.11    1.26
   6   4   7   33.38    2.70
   6   4   8   21.63    2.57
   6   4   9    7.12    2.38
   6   4  10   23.70    2.85
   6   4  11    7.93    2.36
   6   4  12    3.04    1.98
   6   4  13    0.47    2.44
   6   5  -8    1.83    2.08
   6   5  -7    0.44    1.90
   6   5  -6    5.22    1.86
   6   5  -5   12.85    2.38
   6   5  -4    0.15    1.76
   6   5  -3    2.70    1.72
   6   5  -2    4.37    1.76
   6   5  -1   -0.32    1.60
   6   5  -1    0.42    1.32
   6   5   0    0.88    1.49
   6   5   0    0.93    1.34
   6   5   1   95.86    3.43
   6   5   1   94.34    3.64
   6   5   2   42.21    2.55
   6   5   2   46.00    2.43
   6   5   2   44.62    2.67
   6   5   3   11.47    1.73
   6   5   3   13.29    1.73
   6   5   3   13.67    1.88
   6   5   3   12.62    1.76
   6   5   4    4.79    1.41
   6   5   4    5.61    1.69
   6   5   4    4.23    1.64
   6   5   4    4.40    1.36
   6   5   5    2.23    1.57
   6   5   5    2.17    1.69
   6   5   5    2.44    1.19
   6   5   6   50.41    3.14
   6   5   6   52.85    3.00
   6   5   7    4.43    1.67
   6   5   7    4.09    1.96
   6   5   8    2.87    1.95
   6   5   8    3.22    1.97
   6   5   9   14.48    2.32
   6   5  10   36.81    3.21
   6   5  11   20.36    2.83
   6   5  12   18.57    2.96
   6   5  13    0.70    2.36
   6   6  -8   11.56    2.83
   6   6  -7   -0.07    1.74
   6   6  -6    2.15    1.88
   6   6  -5    4.61    1.88
   6   6  -4    5.93    1.89
   6   6  -3    3.22    1.99
   6   6  -2    9.33    1.91
   6   6  -2    7.14    1.71
   6   6  -1   38.23    2.54
   6   6  -1   37.99    2.80
   6   6   0    0.58    1.52
   6   6   0    1.43    1.41
   6   6   1    0.08    1.54
   6   6   1    1.29    1.51
   6   6   2    0.37    1.53
   6   6   2    0.75    1.57
   6   6   3    1.79    1.33
   6   6   3    2.78    1.28
   6   6   3    3.13    1.53
   6   6   4    2.29    1.39
   6   6   4    1.09    1.56
   6   6   5    3.23    1.33
   6   6   5    2.15    1.64
   6   6   6   22.26    2.58
   6   6   6   20.30    2.17
   6   6   7   -0.07    1.54
   6   6   7    0.49    1.72
   6   6   8    4.59    1.81
   6   6   8    3.68    1.93
   6   6   9    3.91    2.01
   6   6   9    1.72    1.92
   6   6  10   -1.75    1.82
   6   6  11    7.78    2.22
   6   6  12   -0.50    2.13
   6   6  13   34.36    3.55
   6   7  -7   44.71    3.79
   6   7  -6    4.31    2.16
   6   7  -5    1.36    1.79
   6   7  -4    3.42    1.90
   6   7  -3   23.18    2.36
   6   7  -3   23.97    2.55
   6   7  -2   21.43    2.34
   6   7  -2   21.57    2.47
   6   7  -1   18.67    2.28
   6   7  -1   17.48    2.39
   6   7   0    0.93    1.67
   6   7   0    3.36    1.55
   6   7   1    4.46    1.75
   6   7   1    4.34    1.71
   6   7   2    0.46    1.61
   6   7   2    0.86    1.60
   6   7   3    8.08    1.86
   6   7   3    7.28    1.77
   6   7   4   -0.34    1.58
   6   7   5   26.53    2.62
   6   7   6    0.01    1.42
   6   7   6   -0.92    1.83
   6   7   7   -0.06    1.62
   6   7   7    0.98    2.09
   6   7   8   12.40    2.22
   6   7   8   12.34    2.10
   6   7   9    1.22    2.21
   6   7   9    0.17    1.82
   6   7  10   -0.72    2.21
   6   7  10    1.07    1.77
   6   7  11    0.53    1.91
   6   7  12    3.10    2.40
   6   8  -6   11.80    2.31
   6   8  -5   -0.87    2.09
   6   8  -4   10.22    2.46
   6   8  -3    3.87    1.85
   6   8  -3    3.12    1.85
   6   8  -2   19.51    2.38
   6   8  -2   20.37    2.49
   6   8  -1   31.65    2.85
   6   8  -1   25.53    2.65
   6   8   0   -0.79    1.46
   6   8   0    2.00    1.68
   6   8   1    0.09    1.77
   6   8   1    0.89    1.78
   6   8   2  115.20    4.58
   6   8   2  119.63    4.54
   6   8   3   10.08    2.30
   6   8   4   19.38    2.72
   6   8   5   15.39    2.51
   6   8   6    2.52    2.08
   6   8   7    2.66    1.85
   6   8   8    8.73    2.48
   6   8   8    8.72    1.84
   6   8   9    5.80    2.19
   6   8   9    5.24    1.94
   6   8  10    2.05    2.44
   6   8  10    1.41    1.81
   6   8  11    0.36    2.17
   6   8  11    1.12    2.11
   6   8  12    1.25    2.23
   6   9  -5    0.38    1.90
   6   9  -4   16.23    2.60
   6   9  -4   17.17    2.74
   6   9  -3    5.10    1.89
   6   9  -3    5.85    2.41
   6   9  -2   -0.52    1.62
   6   9  -2   -0.86    1.83
   6   9  -1    9.13    2.18
   6   9  -1    8.39    2.16
   6   9   0   -1.00    1.86
   6   9   0   -0.97    1.87
   6   9   1    1.21    1.98
   6   9   1    2.83    1.98
   6   9   2    4.82    2.19
   6   9   3   71.79    4.09
   6   9   4    2.63    2.22
   6   9   5    9.30    2.39
   6   9   6    6.79    2.29
   6   9   7    3.66    2.12
   6   9   8    0.46    2.18
   6   9   9   16.13    2.83
   6   9  10   13.80    2.66
   6   9  10   10.83    2.36
   6   9  11   -0.60    2.45
   6   9  11   -1.79    2.06
   6   9  12    2.38    2.23
   6  10  -4    2.55    2.43
   6  10  -3    4.21    2.18
   6  10  -3    6.30    2.50
   6  10  -2    0.63    2.16
   6  10  -2    1.36    2.05
   6  10  -1   10.95    2.44
   6  10  -1   10.52    2.51
   6  10   0    5.33    2.43
   6  10   1   -0.20    2.15
   6  10   2    1.96    2.22
   6  10   3   11.04    2.51
   6  10   4    5.94    2.30
   6  10   5    4.44    2.22
   6  10   6    2.17    2.17
   6  10   7    0.47    2.18
   6  10   8   -0.25    2.10
   6  10   9   -0.90    2.31
   6  11  -1    9.63    2.55
   6  11   0   17.42    3.13
   6  11   1    7.01    2.62
   6  11   2    0.01    2.28
   6  11   3    1.41    2.35
   6  11   4   10.23    2.64
   6  11   5    6.31    2.42
   6  11   6   -0.92    2.34
   6  11   7   -0.49    2.49
   7  -4  -5   -0.10    2.02
   7  -4  -4   23.98    2.88
   7  -4  -3   49.90    3.79
   7  -4  -2    3.73    2.18
   7  -4  -1    2.91    2.19
   7  -4   0   -3.01    2.09
   7  -4   1    7.33    2.35
   7  -4   2    2.86    2.63
   7  -4   3    1.17    2.19
   7  -4   4   -0.85    2.30
   7  -3  -6    1.58    2.11
   7  -3  -6   -0.23    2.12
   7  -3  -5    1.65    2.13
   7  -3  -5    0.49    1.96
   7  -3  -4    5.37    2.03
   7  -3  -3   48.36    3.74
   7  -3  -2   33.68    3.23
   7  -3  -1    0.73    1.80
   7  -3   0    1.00    2.01
   7  -3   1    5.97    2.30
   7  -3   2   36.81    3.31
   7  -3   3    0.17    1.99
   7  -3   4   -1.74    2.25
   7  -3   5    9.77    2.70
   7  -3   6   -0.73    2.05
   7  -3   7    2.07    2.54
   7  -2  -7    0.76    2.06
   7  -2  -7    1.07    2.08
   7  -2  -6    0.91    1.93
   7  -2  -6   -0.33    1.93
   7  -2  -5    1.02    1.90
   7  -2  -5    1.25    2.10
   7  -2  -4    2.86    1.84
   7  -2  -4    2.17    1.93
   7  -2  -3    7.10    1.85
   7  -2  -3    5.56    2.02
   7  -2  -2   -1.27    1.84
   7  -2  -1   -0.43    2.01
   7  -2   0    1.17    1.99
   7  -2   1   -0.12    1.72
   7  -2   2   12.81    2.45
   7  -2   3   13.20    2.44
   7  -2   4    2.69    1.88
   7  -2   5    5.25    2.20
   7  -2   6    0.77    1.94
   7  -2   7    3.50    2.22
   7  -2   8    2.19    2.22
   7  -2   9   -1.17    2.14
   7  -1  -7   14.14    2.93
   7  -1  -6   -0.42    1.95
   7  -1  -6   -1.10    1.93
   7  -1  -5    1.36    2.00
   7  -1  -5    0.83    2.02
   7  -1  -4    1.43    1.65
   7  -1  -4    4.24    2.20
   7  -1  -3    1.60    1.68
   7  -1  -3   -0.65    1.96
   7  -1  -2    0.57    1.52
   7  -1  -2    0.25    1.80
   7  -1  -1    6.43    2.04
   7  -1   0    1.21    1.74
   7  -1   1    1.60    1.66
   7  -1   2    3.52    1.98
   7  -1   3    0.21    1.83
   7  -1   4    0.43    1.86
   7  -1   5    4.77    1.85
   7  -1   6   -0.46    1.80
   7  -1   7   11.03    2.30
   7  -1   7   10.51    2.81
   7  -1   8    1.18    2.05
   7  -1   8    1.12    2.68
   7  -1   9    0.93    2.03
   7  -1   9    4.51    2.88
   7  -1  10   -0.14    2.16
   7   0  -7    2.35    2.54
   7   0  -6   50.26    3.82
   7   0  -5    0.82    1.98
   7   0  -5   -2.32    1.93
   7   0  -4    1.56    1.83
   7   0  -4    0.21    2.07
   7   0  -3    1.10    1.85
   7   0  -3    0.78    1.77
   7   0  -2   12.56    2.07
   7   0  -2   12.14    2.36
   7   0  -1   14.56    2.03
   7   0  -1   16.78    2.41
   7   0   0   -0.03    1.75
   7   0   1    2.72    1.73
   7   0   2    0.75    1.90
   7   0   3    2.07    1.76
   7   0   4   16.68    2.22
   7   0   5   10.69    2.18
   7   0   6    7.12    2.12
   7   0   6    9.67    2.49
   7   0   7    2.79    1.76
   7   0   7    5.10    2.40
   7   0   8    2.11    1.76
   7   0   8    1.85    2.52
   7   0   9    2.96    1.88
   7   0   9    3.47    2.51
   7   0  10    3.96    2.44
   7   1  -7    2.28    2.11
   7   1  -6   -0.76    2.14
   7   1  -5    5.81    2.24
   7   1  -4    4.87    2.02
   7   1  -4    5.15    2.08
   7   1  -3    5.44    1.88
   7   1  -3    7.36    2.12
   7   1  -2    5.14    1.79
   7   1  -2    5.07    2.11
   7   1  -1   24.16    2.29
   7   1  -1   26.87    2.76
   7   1   0   22.48    2.49
   7   1   0   20.37    2.05
   7   1   1    7.95    1.28
   7   1   1    7.11    1.92
   7   1   2    1.78    1.88
   7   1   3   23.13    2.41
   7   1   4   10.23    2.08
   7   1   5   10.23    2.43
   7   1   5    5.94    1.71
   7   1   6   23.55    2.90
   7   1   6   24.73    2.44
   7   1   7    4.88    1.76
   7   1   7    2.57    2.31
   7   1   8    0.72    1.46
   7   1   8    0.38    2.05
   7   1   9    1.43    2.44
   7   1  10   16.52    3.13
   7   1  11    2.77    2.38
   7   2  -7    5.03    2.42
   7   2  -6   -0.15    1.87
   7   2  -5    2.00    2.21
   7   2  -4   21.23    2.61
   7   2  -3   30.55    2.65
   7   2  -3   29.94    2.92
   7   2  -2    0.08    1.57
   7   2  -2    0.78    1.95
   7   2  -1    8.50    1.89
   7   2  -1   10.72    2.25
   7   2   0   10.23    1.76
   7   2   0   12.20    2.13
   7   2   1    1.32    1.35
   7   2   1   -0.51    1.74
   7   2   2    0.61    1.20
   7   2   2   -0.52    1.54
   7   2   3    4.90    1.82
   7   2   4   16.45    2.55
   7   2   4   16.71    2.12
   7   2   5    2.85    2.09
   7   2   5    1.85    1.59
   7   2   6    1.41    2.16
   7   2   6    0.38    1.67
   7   2   7   -0.39    2.10
   7   2   7    1.07    1.36
   7   2   8    0.60    1.55
   7   2   8    1.18    1.92
   7   2   9    0.67    2.07
   7   2  10   10.74    2.74
   7   2  11   13.16    2.84
   7   3  -7    2.11    2.21
   7   3  -6   -0.86    2.16
   7   3  -5   12.37    2.55
   7   3  -4    1.09    2.06
   7   3  -3   24.52    2.70
   7   3  -2    1.41    1.67
   7   3  -1    6.30    1.91
   7   3  -1    6.78    2.01
   7   3   0   32.77    2.75
   7   3   0   32.83    2.48
   7   3   1    0.16    1.38
   7   3   1   -0.20    1.60
   7   3   2    1.63    1.36
   7   3   2    2.15    1.52
   7   3   3    5.46    1.39
   7   3   3    7.05    2.01
   7   3   3    7.29    1.79
   7   3   4    2.19    1.88
   7   3   4    2.52    1.62
   7   3   5    6.46    1.99
   7   3   5    6.04    1.68
   7   3   6    2.64    1.97
   7   3   6    0.28    1.49
   7   3   7    0.19    2.00
   7   3   7    0.60    1.39
   7   3   8    0.37    2.04
   7   3   9    4.30    2.21
   7   3  10   -0.12    2.34
   7   3  11   -0.79    2.26
   7   4  -7    1.54    2.44
   7   4  -6    4.08    2.14
   7   4  -5   21.23    2.78
   7   4  -4   64.77    3.76
   7   4  -3    5.76    2.02
   7   4  -2    1.34    1.82
   7   4  -1    0.28    1.72
   7   4   0   33.09    2.67
   7   4   0   34.26    2.64
   7   4   1    9.81    1.81
   7   4   1   10.95    2.07
   7   4   2   87.28    3.29
   7   4   2   88.24    3.77
   7   4   2   87.04    3.48
   7   4   3    2.57    1.75
   7   4   3    3.25    1.50
   7   4   3    1.67    1.46
   7   4   3    3.18    1.68
   7   4   4   -0.18    1.24
   7   4   4   -0.24    1.72
   7   4   4   -0.74    1.56
   7   4   4   -0.35    1.56
   7   4   5   12.70    2.22
   7   4   5   15.51    1.86
   7   4   5   13.20    1.49
   7   4   6    8.92    2.15
   7   4   6    8.50    1.59
   7   4   7    5.06    2.06
   7   4   8    0.67    1.89
   7   4   9    4.77    2.33
   7   4  10   -0.08    2.19
   7   4  11    0.82    2.53
   7   4  12    2.06    2.25
   7   5  -7    1.97    2.28
   7   5  -6    1.82    2.10
   7   5  -5   -0.50    2.02
   7   5  -4    0.27    1.91
   7   5  -3    1.58    1.81
   7   5  -2    0.25    1.51
   7   5  -1    0.85    1.88
   7   5   0    6.64    1.91
   7   5   1    4.13    1.73
   7   5   1    4.86    1.33
   7   5   2    1.98    1.65
   7   5   2    2.14    1.40
   7   5   3   75.29    3.33
   7   5   3   71.96    3.39
   7   5   3   73.80    3.35
   7   5   3   68.78    3.26
   7   5   4    9.33    1.65
   7   5   4    5.91    1.87
   7   5   4    8.18    1.81
   7   5   4    9.07    1.70
   7   5   5    5.00    1.76
   7   5   5    6.47    1.98
   7   5   5    4.64    1.59
   7   5   6    1.21    1.82
   7   5   6    2.00    1.79
   7   5   7   34.39    2.83
   7   5   8   33.51    3.02
   7   5   9    3.50    2.00
   7   5  10    2.18    2.16
   7   5  11    2.06    2.10
   7   5  12   10.79    2.10
   7   6  -6    1.21    1.88
   7   6  -5    8.25    2.16
   7   6  -4    6.42    2.00
   7   6  -3    1.02    1.89
   7   6  -2    2.72    1.78
   7   6  -1    3.76    1.76
   7   6   0    1.93    1.75
   7   6   1    4.69    1.83
   7   6   1    4.00    1.69
   7   6   2    0.61    1.34
   7   6   2    1.31    1.62
   7   6   3    9.29    1.82
   7   6   3   10.67    1.92
   7   6   4    1.28    1.69
   7   6   4   -1.08    1.41
   7   6   4   -0.18    1.76
   7   6   5    3.87    1.66
   7   6   5    4.07    1.83
   7   6   6   14.10    2.16
   7   6   6   15.52    2.34
   7   6   7   12.53    2.22
   7   6   7   10.71    2.42
   7   6   8    2.38    1.90
   7   6   8    2.40    1.91
   7   6   9    0.02    1.78
   7   6  10   -1.60    2.02
   7   6  11    0.78    2.39
   7   6  12   63.08    4.50
   7   7  -5   -0.72    1.81
   7   7  -4    6.49    2.39
   7   7  -3    0.39    1.82
   7   7  -2    1.08    1.96
   7   7  -1   15.74    2.36
   7   7   0    1.00    1.79
   7   7   0    0.64    1.51
   7   7   1    1.26    1.67
   7   7   1    2.38    1.48
   7   7   2    1.39    1.70
   7   7   2    1.67    1.70
   7   7   3    7.22    1.84
   7   7   3    7.42    1.81
   7   7   4   -0.60    1.78
   7   7   5   15.63    2.49
   7   7   6    9.84    1.87
   7   7   6   10.07    2.41
   7   7   7    3.25    1.66
   7   7   7    4.30    2.03
   7   7   8    5.86    1.93
   7   7   8    5.50    2.10
   7   7   9    5.96    2.10
   7   7   9    9.16    2.59
   7   7  10   -0.14    2.08
   7   7  11    3.61    2.52
   7   7  12   -0.66    2.39
   7   8  -4   -0.71    1.83
   7   8  -3    1.66    2.14
   7   8  -2    9.26    2.22
   7   8  -1    2.38    1.63
   7   8  -1    1.28    1.76
   7   8   0    3.13    1.86
   7   8   0    2.79    1.83
   7   8   1    2.96    1.70
   7   8   1    2.89    2.04
   7   8   2    1.42    1.90
   7   8   2    0.57    1.93
   7   8   3   58.79    3.62
   7   8   4  212.38    6.26
   7   8   5   42.40    3.33
   7   8   6    2.87    1.98
   7   8   7    0.35    2.01
   7   8   8    7.01    2.46
   7   8   9    2.80    1.84
   7   8   9    2.82    2.38
   7   8  10    0.46    1.95
   7   8  10    0.88    2.33
   7   8  11    1.33    2.27
   7   9  -3    0.44    2.05
   7   9  -2   -1.19    1.85
   7   9  -1    7.22    2.14
   7   9  -1    4.02    2.01
   7   9   0    1.02    1.99
   7   9   0    0.11    2.06
   7   9   1    8.15    2.07
   7   9   1    6.21    2.19
   7   9   2    3.80    2.22
   7   9   3   12.01    2.59
   7   9   4   86.75    4.42
   7   9   5   64.55    4.02
   7   9   6    1.12    2.25
   7   9   7   -1.28    2.07
   7   9   8    2.79    2.29
   7   9   9   31.65    3.30
   7  10  -2   -2.25    2.22
   7  10  -1    2.25    2.07
   7  10  -1    1.57    2.15
   7  10   0    1.20    1.97
   7  10   0    0.32    2.29
   7  10   1    0.96    2.20
   7  10   2    0.01    2.11
   7  10   3    0.95    2.08
   7  10   4    0.37    1.88
   7  10   5   -0.34    2.24
   7  10   6    7.03    2.55
   7  10   7    2.62    2.47
   7  10   8   -1.16    2.43
   7  11   1   11.11    2.90
   7  11   2    0.56    2.20
   7  11   3    1.59    2.43
   7  11   4    1.18    2.34
   8  -2  -2    2.02    2.20
   8  -2  -1   -2.08    1.90
   8  -2   0    1.00    2.43
   8  -2   1    1.20    2.05
   8  -2   2    0.56    2.23
   8  -2   3    1.23    2.14
   8  -2   4    9.68    2.92
   8  -2   5    1.58    2.29
   8  -1  -5    3.80    2.19
   8  -1  -4    3.81    2.27
   8  -1  -4    4.08    2.34
   8  -1  -3    2.24    2.41
   8  -1  -2    1.82    2.03
   8  -1  -1    4.37    2.41
   8  -1   0    2.56    1.96
   8  -1   1   -0.30    2.02
   8  -1   2    0.44    2.07
   8  -1   3    3.83    2.24
   8  -1   4    2.35    2.11
   8  -1   5    1.53    1.89
   8  -1   6    4.91    2.15
   8  -1   7    1.34    2.32
   8  -1   8    1.46    2.45
   8   0  -5    2.81    2.00
   8   0  -5    3.08    2.03
   8   0  -4    2.01    1.99
   8   0  -4    1.01    2.42
   8   0  -3    0.90    1.90
   8   0  -3    1.93    2.22
   8   0  -2    1.40    2.27
   8   0  -1    0.40    2.06
   8   0   0   18.81    2.68
   8   0   1    5.13    1.94
   8   0   2   -0.52    1.86
   8   0   3    0.51    1.99
   8   0   4    0.87    1.86
   8   0   5    6.57    2.17
   8   0   6    7.73    2.42
   8   0   7    2.80    2.11
   8   0   8    0.02    2.00
   8   0   8    3.14    2.85
   8   0   9    5.18    2.15
   8   1  -5    1.50    2.18
   8   1  -4    2.20    2.37
   8   1  -4    0.43    2.17
   8   1  -3   -2.58    1.88
   8   1  -3   -0.42    2.25
   8   1  -2    2.99    1.92
   8   1  -2    2.39    2.12
   8   1  -1    9.55    1.95
   8   1  -1    9.87    2.39
   8   1   0   10.56    2.40
   8   1   1    0.65    1.82
   8   1   2    6.36    2.13
   8   1   3    0.79    1.81
   8   1   4   25.24    2.83
   8   1   5  102.50    4.63
   8   1   6   51.08    4.01
   8   1   6   50.22    3.47
   8   1   7    3.01    2.54
   8   1   7    1.46    1.96
   8   1   8    2.17    2.05
   8   1   8    0.66    2.43
   8   1   9    5.39    2.65
   8   2  -5   -0.14    2.21
   8   2  -4    0.49    1.90
   8   2  -3    6.02    2.29
   8   2  -3    5.87    2.53
   8   2  -2    2.18    1.79
   8   2  -2    1.51    2.14
   8   2  -1    1.54    1.56
   8   2  -1    0.95    1.96
   8   2   0    4.44    1.63
   8   2   0    3.60    2.08
   8   2   1    5.91    2.17
   8   2   2   10.57    2.15
   8   2   3    2.28    1.78
   8   2   4   11.75    2.33
   8   2   5   63.54    4.07
   8   2   5   62.01    3.61
   8   2   6   75.60    4.45
   8   2   6   86.41    4.09
   8   2   7    7.24    2.78
   8   2   7    8.63    2.13
   8   2   8    0.62    2.37
   8   2   9   -0.53    2.48
   8   3  -5   -0.37    2.28
   8   3  -4   28.83    2.93
   8   3  -3   46.91    3.44
   8   3  -2   -0.35    1.68
   8   3  -1   -0.27    1.91
   8   3  -1    0.74    2.01
   8   3   0   -0.19    1.73
   8   3   0    1.70    2.15
   8   3   1    1.71    1.55
   8   3   1    1.19    1.91
   8   3   2    2.69    1.64
   8   3   2    1.54    1.85
   8   3   3    1.28    2.04
   8   3   4    0.80    1.72
   8   3   5   20.92    2.82
   8   3   5   19.41    2.58
   8   3   6    7.98    2.38
   8   3   6    4.87    1.86
   8   3   7   -0.27    2.25
   8   3   8    0.38    2.40
   8   3   9    0.80    2.54
   8   3  10    2.35    2.79
   8   4  -5    0.13    2.20
   8   4  -4   26.98    2.93
   8   4  -3   77.43    4.28
   8   4  -2   57.10    3.70
   8   4  -1    0.42    1.88
   8   4   0    0.63    1.65
   8   4   0    0.22    1.85
   8   4   1   16.34    2.32
   8   4   1   17.38    2.33
   8   4   2   37.94    3.08
   8   4   2   37.17    2.74
   8   4   3    6.02    1.54
   8   4   3    5.18    1.98
   8   4   4    3.28    2.13
   8   4   4    2.30    1.81
   8   4   5   10.27    2.27
   8   4   5    9.13    1.96
   8   4   6    0.02    1.98
   8   4   6    2.02    1.68
   8   4   7    2.21    2.14
   8   4   8    5.34    2.41
   8   4   9    1.68    2.45
   8   4  10   -5.73    2.29
   8   5  -5    2.28    2.02
   8   5  -4    0.06    2.45
   8   5  -3   29.34    3.15
   8   5  -2    3.44    2.22
   8   5  -1    1.54    1.78
   8   5   0   -0.67    1.73
   8   5   1    0.02    1.61
   8   5   2   43.27    3.07
   8   5   2   45.83    3.13
   8   5   3   29.20    2.76
   8   5   3   25.90    2.37
   8   5   4    0.73    1.40
   8   5   4   -0.52    1.74
   8   5   4    1.53    1.62
   8   5   4    1.47    1.65
   8   5   5    0.81    1.87
   8   5   5    0.13    1.66
   8   5   5   -0.54    1.50
   8   5   6    1.04    1.92
   8   5   7    2.54    2.06
   8   5   8    4.69    2.19
   8   5   9    2.00    2.06
   8   5  10    0.40    2.52
   8   6  -4   -0.96    2.16
   8   6  -3    0.59    2.14
   8   6  -2    0.18    2.00
   8   6  -1   -0.70    1.85
   8   6   0    0.76    1.76
   8   6   1    6.23    1.89
   8   6   2    1.34    1.56
   8   6   3    1.01    1.74
   8   6   3    0.04    1.68
   8   6   4    2.46    1.85
   8   6   4    0.39    1.70
   8   6   5    1.01    1.84
   8   6   5   -2.29    1.89
   8   6   6   -0.27    1.84
   8   6   6    0.71    1.93
   8   6   7   17.11    2.80
   8   6   7   23.00    2.81
   8   6   8    2.96    2.19
   8   6   9    0.16    2.30
   8   6  10   -0.54    2.37
   8   7  -3    2.45    2.01
   8   7  -2    4.24    2.32
   8   7  -1   -0.20    2.09
   8   7   0    2.30    1.87
   8   7   1    0.36    1.73
   8   7   2    1.11    1.89
   8   7   2    2.15    1.59
   8   7   3    1.70    1.75
   8   7   3    2.04    1.61
   8   7   4    7.65    2.12
   8   7   4    6.80    2.09
   8   7   5    1.51    2.22
   8   7   6    1.09    2.22
   8   7   7   -0.07    2.16
   8   7   8    0.72    2.12
   8   7   8    0.23    2.33
   8   7   9    0.74    2.24
   8   7  10    0.32    2.26
   8   8  -2    5.50    2.53
   8   8  -1   15.22    2.55
   8   8   0    5.91    2.52
   8   8   1   -3.71    1.89
   8   8   2    3.38    2.09
   8   8   2    0.70    1.77
   8   8   3    1.73    1.69
   8   8   3    1.27    1.81
   8   8   4   17.19    2.47
   8   8   5    5.99    2.36
   8   8   6    8.24    2.55
   8   8   7    4.79    2.28
   8   8   8    1.38    2.12
   8   8   9    0.04    2.40
   8   8  10    3.25    2.18
   8   9   0    0.84    2.03
   8   9   1   -1.00    2.37
   8   9   1   -1.31    2.00
   8   9   2   -0.71    2.01
   8   9   2    1.75    1.88
   8   9   3    7.09    2.22
   8   9   4   22.91    3.14
   8   9   5    0.72    1.97
   8   9   6    0.71    2.14
   8   9   7    0.82    2.06
   8   9   8    3.43    2.61
   8  10   1    1.68    2.30
   8  10   2    0.70    2.26
   8  10   3    2.63    2.46
   8  10   4    1.73    2.15
   8  10   5   -0.32    1.98
   9   0   3   -0.51    1.97
   9   1  -3    0.53    2.21
   9   1   0   13.03    2.89
   9   1   1    9.63    2.71
   9   1   2    0.18    2.02
   9   1   3    1.26    2.21
   9   1   4   -0.04    2.03
   9   1   5   -0.99    2.33
   9   1   6    4.93    2.32
   9   1   7    3.00    2.19
   9   2  -3    0.00    2.00
   9   2  -2    0.48    1.88
   9   2  -1   -0.35    2.41
   9   2   0    1.95    2.43
   9   2   1    0.10    1.96
   9   2   2    1.93    1.99
   9   2   3    2.79    2.11
   9   2   4    0.28    2.07
   9   2   5   14.67    2.59
   9   2   6    2.50    2.27
   9   2   7    2.42    2.11
   9   3  -3   -0.94    2.17
   9   3  -2    6.08    2.24
   9   3  -1    2.76    1.81
   9   3  -1    1.98    2.43
   9   3   0   -0.39    1.70
   9   3   0   -0.63    2.07
   9   3   1    0.34    2.09
   9   3   2   -0.66    2.06
   9   3   3    0.31    2.20
   9   3   4    2.14    2.40
   9   3   5    5.95    2.16
   9   3   6    2.71    2.09
   9   3   7   -0.59    2.63
   9   4  -3   12.11    2.79
   9   4  -2    7.38    2.39
   9   4  -1    1.91    2.16
   9   4   0   -0.20    1.92
   9   4   0   -0.20    1.98
   9   4   1   -0.26    1.80
   9   4   1   -0.11    2.09
   9   4   2    0.78    2.15
   9   4   3    8.47    2.59
   9   4   4    0.09    1.91
   9   4   5   -2.99    2.19
   9   4   6    1.13    2.26
   9   4   7    0.64    2.31
   9   4   8   -0.40    2.22
   9   5  -2    1.40    2.10
   9   5  -1   -0.31    2.01
   9   5   0   -0.34    1.91
   9   5   1   -3.09    1.83
   9   5   2    2.09    1.99
   9   5   3    3.49    1.88
   9   5   4   11.15    2.33
   9   5   5    0.71    2.36
   9   5   6    1.18    2.41
   9   5   7    0.35    2.46
   9   5   8   12.06    2.92
   9   6  -1   -0.56    2.29
   9   6   0    1.26    2.09
   9   6   1    1.78    1.69
   9   6   2   -1.63    1.77
   9   6   3   -0.60    1.86
   9   6   4   -2.36    1.69
   9   6   7    3.63    2.36
   9   6   8    3.26    2.11
   9   6   9    2.92    2.32
   9   7   0   -0.62    2.29
   9   7   1    3.86    2.20
   9   7   2    2.07    1.96
   9   7   3    2.47    2.12
   9   7   4   -0.97    1.97
   9   7   5    1.43    2.05
   9   7   6    1.13    2.25
   9   7   7   -1.22    2.15
   9   7   9    4.10    2.27
   9   8   2    1.12    1.82
   9   8   3    2.63    2.14
   9   8   5   36.17    3.33
   9   8   6    9.13    2.63
   9   8   7   -3.88    2.72
   9   9   4    8.67    2.41
   9   9   5   52.49    3.96
  10   4   5    0.82    2.18
  10   5   4    2.55    2.24

_computing_structure_solution     'SHELXT 2014/4 (Sheldrick, 2014)'
;
_shelx_hkl_checksum              9326
loop_
_space_group_symop_operation_xyz
'x, y, z'
'-x, -y, -z'
loop_
_atom_site_label
_atom_site_type_symbol
_atom_site_fract_x
_atom_site_fract_y
_atom_site_fract_z
_atom_site_U_iso_or_equiv
_atom_site_adp_type
_atom_site_occupancy
_atom_site_site_symmetry_order
_atom_site_calc_flag
_atom_site_refinement_flags_posn
_atom_site_refinement_flags_adp
_atom_site_refinement_flags_occupancy
_atom_site_disorder_assembly
_atom_site_disorder_group
O1 O 0.72674(15) 0.43892(11) 0.43532(9) 0.0567(3) Uani 1 1 d . . . . .
N1 N 0.83649(16) 0.29294(12) 0.28668(10) 0.0411(3) Uani 1 1 d . . . . .
C1 C 0.75908(19) 0.31318(15) 0.40648(12) 0.0409(3) Uani 1 1 d . . . . .
C2 C 0.72503(18) 0.17651(14) 0.48676(12) 0.0380(3) Uani 1 1 d . . . . .
O2 O 0.95909(15) 0.15610(11) 0.13269(9) 0.0581(3) Uani 1 1 d . . . . .
O3 O 1.04319(15) 0.43511(11) 0.20082(10) 0.0587(3) Uani 1 1 d . . . . .
C3 C 0.78082(17) 0.03308(14) 0.44344(12) 0.0373(3) Uani 1 1 d . . . . .
C4 C 0.86253(18) 0.01994(14) 0.32242(12) 0.0398(3) Uani 1 1 d . . . . .
C5 C 0.89189(19) 0.15567(15) 0.23851(13) 0.0413(3) Uani 1 1 d . . . . .
C8 C 0.6708(2) -0.08279(18) 0.64390(14) 0.0548(4) Uani 1 1 d . . . . .
H8 H 0.6541 -0.1690 0.6979 0.066 Uiso 1 1 calc R U . . .
C7 C 0.6147(2) 0.05697(19) 0.68232(14) 0.0572(4) Uani 1 1 d . . . . .
H7 H 0.5575 0.0658 0.7615 0.069 Uiso 1 1 calc R U . . .
C6 C 0.6423(2) 0.18741(17) 0.60362(13) 0.0497(4) Uani 1 1 d . . . . .
H6 H 0.6041 0.2823 0.6310 0.060 Uiso 1 1 calc R U . . .
C9 C 0.75413(19) -0.09946(15) 0.52347(14) 0.0450(4) Uani 1 1 d . . . . .
C10 C 0.8127(2) -0.24173(17) 0.47907(16) 0.0585(4) Uani 1 1 d . . . . .
H10 H 0.7967 -0.3299 0.5306 0.070 Uiso 1 1 calc R U . . .
C11 C 0.8920(2) -0.25192(17) 0.36258(18) 0.0634(5) Uani 1 1 d . . . . .
H11 H 0.9304 -0.3469 0.3352 0.076 Uiso 1 1 calc R U . . .
C12 C 0.9164(2) -0.12089(17) 0.28342(15) 0.0552(4) Uani 1 1 d . . . . .
H12 H 0.9696 -0.1290 0.2035 0.066 Uiso 1 1 calc R U . . .
C13 C 0.8812(2) 0.42727(15) 0.20766(12) 0.0430(3) Uani 1 1 d . . . . .
C14 C 0.71865(19) 0.54242(14) 0.14530(11) 0.0405(3) Uani 1 1 d . . . . .
C15 C 0.5309(2) 0.53036(17) 0.16095(13) 0.0506(4) Uani 1 1 d . . . . .
H15 H 0.5042 0.4458 0.2123 0.061 Uiso 1 1 calc R U . . .
C16 C 0.3843(2) 0.6431(2) 0.10074(15) 0.0625(4) Uani 1 1 d . . . . .
H16 H 0.2585 0.6348 0.1116 0.075 Uiso 1 1 calc R U . . .
C17 C 0.4232(3) 0.7683(2) 0.02432(15) 0.0676(5) Uani 1 1 d . . . . .
H17 H 0.3234 0.8449 -0.0157 0.081 Uiso 1 1 calc R U . . .
C18 C 0.6094(3) 0.77990(18) 0.00729(14) 0.0639(5) Uani 1 1 d . . . . .
H18 H 0.6359 0.8638 -0.0451 0.077 Uiso 1 1 calc R U . . .
C19 C 0.7566(2) 0.66803(16) 0.06733(12) 0.0512(4) Uani 1 1 d . . . . .
H19 H 0.8824 0.6766 0.0556 0.061 Uiso 1 1 calc R U . . .
loop_
_atom_site_aniso_label
_atom_site_aniso_U_11
_atom_site_aniso_U_22
_atom_site_aniso_U_33
_atom_site_aniso_U_23
_atom_site_aniso_U_13
_atom_site_aniso_U_12
O1 0.0718(7) 0.0365(6) 0.0625(7) -0.0162(5) -0.0003(5) -0.0181(5)
N1 0.0472(7) 0.0318(6) 0.0431(7) -0.0045(5) -0.0014(5) -0.0146(5)
C1 0.0391(8) 0.0369(8) 0.0459(8) -0.0067(7) -0.0057(6) -0.0114(6)
C2 0.0330(7) 0.0365(8) 0.0440(8) -0.0041(6) -0.0079(6) -0.0104(6)
O2 0.0683(7) 0.0618(7) 0.0484(7) -0.0172(5) 0.0055(5) -0.0278(6)
O3 0.0468(6) 0.0534(6) 0.0752(8) 0.0016(5) -0.0076(5) -0.0224(5)
C3 0.0285(7) 0.0344(7) 0.0506(8) -0.0045(6) -0.0098(6) -0.0111(6)
C4 0.0338(7) 0.0344(8) 0.0546(9) -0.0103(7) -0.0073(6) -0.0126(6)
C5 0.0368(7) 0.0418(8) 0.0476(9) -0.0121(7) -0.0036(7) -0.0135(6)
C8 0.0493(9) 0.0556(10) 0.0590(10) 0.0128(8) -0.0167(8) -0.0243(8)
C7 0.0589(10) 0.0663(11) 0.0447(9) 0.0033(8) -0.0084(7) -0.0244(8)
C6 0.0518(9) 0.0496(9) 0.0468(9) -0.0066(7) -0.0083(7) -0.0151(7)
C9 0.0358(7) 0.0385(8) 0.0626(10) 0.0016(7) -0.0165(7) -0.0150(6)
C10 0.0520(10) 0.0388(9) 0.0884(13) 0.0023(9) -0.0194(9) -0.0212(7)
C11 0.0639(10) 0.0362(9) 0.0965(14) -0.0192(9) -0.0118(10) -0.0184(8)
C12 0.0527(9) 0.0460(9) 0.0719(11) -0.0216(8) -0.0011(8) -0.0187(7)
C13 0.0476(9) 0.0373(8) 0.0447(8) -0.0085(6) 0.0007(7) -0.0169(7)
C14 0.0462(8) 0.0371(8) 0.0373(8) -0.0077(6) -0.0007(6) -0.0140(6)
C15 0.0503(9) 0.0471(9) 0.0552(10) -0.0094(7) -0.0044(8) -0.0176(7)
C16 0.0502(9) 0.0649(11) 0.0741(12) -0.0195(9) -0.0152(9) -0.0121(8)
C17 0.0721(12) 0.0597(11) 0.0647(12) -0.0096(9) -0.0282(10) -0.0042(9)
C18 0.0812(13) 0.0513(10) 0.0517(10) 0.0047(8) -0.0128(9) -0.0180(9)
C19 0.0577(9) 0.0466(9) 0.0470(9) -0.0025(7) -0.0030(8) -0.0191(8)
loop_
_atom_type_symbol
_atom_type_description
_atom_type_scat_dispersion_real
_atom_type_scat_dispersion_imag
_atom_type_scat_source
C C 0.0033 0.0016 'International Tables Vol C Tables 4.2.6.8 and 6.1.1.4'
H H 0.0000 0.0000 'International Tables Vol C Tables 4.2.6.8 and 6.1.1.4'
O O 0.0106 0.0060 'International Tables Vol C Tables 4.2.6.8 and 6.1.1.4'
N N 0.0061 0.0033 'International Tables Vol C Tables 4.2.6.8 and 6.1.1.4'
loop_
_geom_angle_atom_site_label_1
_geom_angle_atom_site_label_2
_geom_angle_atom_site_label_3
_geom_angle
_geom_angle_site_symmetry_1
_geom_angle_site_symmetry_3
_geom_angle_publ_flag
C5 N1 C1 126.87(11) . . ?
C5 N1 C13 117.04(11) . . ?
C1 N1 C13 115.81(10) . . ?
O1 C1 N1 118.68(12) . . ?
O1 C1 C2 125.57(13) . . ?
N1 C1 C2 115.75(11) . . ?
C6 C2 C3 120.30(13) . . ?
C6 C2 C1 119.78(12) . . ?
C3 C2 C1 119.91(12) . . ?
C4 C3 C9 119.50(12) . . ?
C4 C3 C2 121.29(12) . . ?
C9 C3 C2 119.22(13) . . ?
C12 C4 C3 119.90(13) . . ?
C12 C4 C5 119.85(13) . . ?
C3 C4 C5 120.24(12) . . ?
O2 C5 N1 119.18(13) . . ?
O2 C5 C4 124.97(12) . . ?
N1 C5 C4 115.85(12) . . ?
C7 C8 C9 121.22(14) . . ?
C7 C8 H8 119.4 . . ?
C9 C8 H8 119.4 . . ?
C8 C7 C6 120.44(15) . . ?
C8 C7 H7 119.8 . . ?
C6 C7 H7 119.8 . . ?
C2 C6 C7 120.48(14) . . ?
C2 C6 H6 119.8 . . ?
C7 C6 H6 119.8 . . ?
C10 C9 C8 123.27(14) . . ?
C10 C9 C3 118.41(14) . . ?
C8 C9 C3 118.32(13) . . ?
C11 C10 C9 121.10(14) . . ?
C11 C10 H10 119.4 . . ?
C9 C10 H10 119.4 . . ?
C10 C11 C12 120.47(14) . . ?
C10 C11 H11 119.8 . . ?
C12 C11 H11 119.8 . . ?
C4 C12 C11 120.61(15) . . ?
C4 C12 H12 119.7 . . ?
C11 C12 H12 119.7 . . ?
O3 C13 C14 125.60(13) . . ?
O3 C13 N1 118.25(13) . . ?
C14 C13 N1 116.14(11) . . ?
C19 C14 C15 119.21(14) . . ?
C19 C14 C13 117.84(12) . . ?
C15 C14 C13 122.95(13) . . ?
C16 C15 C14 120.13(15) . . ?
C16 C15 H15 119.9 . . ?
C14 C15 H15 119.9 . . ?
C15 C16 C17 120.19(15) . . ?
C15 C16 H16 119.9 . . ?
C17 C16 H16 119.9 . . ?
C18 C17 C16 119.96(15) . . ?
C18 C17 H17 120.0 . . ?
C16 C17 H17 120.0 . . ?
C19 C18 C17 120.25(16) . . ?
C19 C18 H18 119.9 . . ?
C17 C18 H18 119.9 . . ?
C18 C19 C14 120.26(14) . . ?
C18 C19 H19 119.9 . . ?
C14 C19 H19 119.9 . . ?
loop_
_geom_bond_atom_site_label_1
_geom_bond_atom_site_label_2
_geom_bond_distance
_geom_bond_site_symmetry_2
_geom_bond_publ_flag
O1 C1 1.2126(14) . ?
N1 C5 1.3951(16) . ?
N1 C1 1.4041(16) . ?
N1 C13 1.4726(16) . ?
C1 C2 1.4660(17) . ?
C2 C6 1.3666(18) . ?
C2 C3 1.4178(17) . ?
O2 C5 1.2155(15) . ?
O3 C13 1.1958(15) . ?
C3 C4 1.4114(18) . ?
C3 C9 1.4164(17) . ?
C4 C12 1.3732(18) . ?
C4 C5 1.4652(18) . ?
C8 C7 1.359(2) . ?
C8 C9 1.413(2) . ?
C8 H8 0.9300 . ?
C7 C6 1.3969(18) . ?
C7 H7 0.9300 . ?
C6 H6 0.9300 . ?
C9 C10 1.412(2) . ?
C10 C11 1.356(2) . ?
C10 H10 0.9300 . ?
C11 C12 1.396(2) . ?
C11 H11 0.9300 . ?
C12 H12 0.9300 . ?
C13 C14 1.4665(18) . ?
C14 C19 1.3852(17) . ?
C14 C15 1.3872(18) . ?
C15 C16 1.374(2) . ?
C15 H15 0.9300 . ?
C16 C17 1.377(2) . ?
C16 H16 0.9300 . ?
C17 C18 1.374(2) . ?
C17 H17 0.9300 . ?
C18 C19 1.373(2) . ?
C18 H18 0.9300 . ?
C19 H19 0.9300 . ?
loop_
_geom_torsion_atom_site_label_1
_geom_torsion_atom_site_label_2
_geom_torsion_atom_site_label_3
_geom_torsion_atom_site_label_4
_geom_torsion
_geom_torsion_site_symmetry_1
_geom_torsion_site_symmetry_2
_geom_torsion_site_symmetry_3
_geom_torsion_site_symmetry_4
_geom_torsion_publ_flag
C5 N1 C1 O1 176.63(12) . . . . ?
C13 N1 C1 O1 3.05(17) . . . . ?
C5 N1 C1 C2 -3.14(18) . . . . ?
C13 N1 C1 C2 -176.72(11) . . . . ?
O1 C1 C2 C6 3.0(2) . . . . ?
N1 C1 C2 C6 -177.28(12) . . . . ?
O1 C1 C2 C3 -176.05(12) . . . . ?
N1 C1 C2 C3 3.71(16) . . . . ?
C6 C2 C3 C4 178.61(12) . . . . ?
C1 C2 C3 C4 -2.38(17) . . . . ?
C6 C2 C3 C9 -1.49(17) . . . . ?
C1 C2 C3 C9 177.51(11) . . . . ?
C9 C3 C4 C12 -0.36(18) . . . . ?
C2 C3 C4 C12 179.54(11) . . . . ?
C9 C3 C4 C5 -179.77(11) . . . . ?
C2 C3 C4 C5 0.13(18) . . . . ?
C1 N1 C5 O2 -179.15(12) . . . . ?
C13 N1 C5 O2 -5.64(17) . . . . ?
C1 N1 C5 C4 1.00(18) . . . . ?
C13 N1 C5 C4 174.52(11) . . . . ?
C12 C4 C5 O2 1.4(2) . . . . ?
C3 C4 C5 O2 -179.21(12) . . . . ?
C12 C4 C5 N1 -178.78(11) . . . . ?
C3 C4 C5 N1 0.63(17) . . . . ?
C9 C8 C7 C6 -1.4(2) . . . . ?
C3 C2 C6 C7 1.05(19) . . . . ?
C1 C2 C6 C7 -177.96(12) . . . . ?
C8 C7 C6 C2 0.4(2) . . . . ?
C7 C8 C9 C10 -179.30(13) . . . . ?
C7 C8 C9 C3 0.9(2) . . . . ?
C4 C3 C9 C10 0.63(17) . . . . ?
C2 C3 C9 C10 -179.27(11) . . . . ?
C4 C3 C9 C8 -179.59(12) . . . . ?
C2 C3 C9 C8 0.51(17) . . . . ?
C8 C9 C10 C11 179.98(14) . . . . ?
C3 C9 C10 C11 -0.3(2) . . . . ?
C9 C10 C11 C12 -0.4(2) . . . . ?
C3 C4 C12 C11 -0.3(2) . . . . ?
C5 C4 C12 C11 179.11(13) . . . . ?
C10 C11 C12 C4 0.7(2) . . . . ?
C5 N1 C13 O3 -83.62(15) . . . . ?
C1 N1 C13 O3 90.62(15) . . . . ?
C5 N1 C13 C14 97.47(13) . . . . ?
C1 N1 C13 C14 -88.29(14) . . . . ?
O3 C13 C14 C19 3.1(2) . . . . ?
N1 C13 C14 C19 -178.09(12) . . . . ?
O3 C13 C14 C15 -177.08(14) . . . . ?
N1 C13 C14 C15 1.74(18) . . . . ?
C19 C14 C15 C16 -0.8(2) . . . . ?
C13 C14 C15 C16 179.35(12) . . . . ?
C14 C15 C16 C17 0.2(2) . . . . ?
C15 C16 C17 C18 0.6(2) . . . . ?
C16 C17 C18 C19 -0.8(2) . . . . ?
C17 C18 C19 C14 0.2(2) . . . . ?
C15 C14 C19 C18 0.6(2) . . . . ?
C13 C14 C19 C18 -179.52(12) . . . . ?
