#------------------------------------------------------------------------------
#$Date: 2020-10-04 06:34:55 +0300 (Sun, 04 Oct 2020) $
#$Revision: 257127 $
#$URL: file:///home/coder/svn-repositories/cod/cif/4/03/87/4038750.cif $
#------------------------------------------------------------------------------
#
# This file is available in the Crystallography Open Database (COD),
# http://www.crystallography.net/
#
# All data on this site have been placed in the public domain by the
# contributors.
#
data_4038750
loop_
_publ_author_name
'Chernykh, Anton V.'
'Olifir, Oleksandr S.'
'Kuchkovska, Yuliya O.'
'Volochnyuk, Dmitriy M.'
'Yarmolchuk, Vladimir S.'
'Grygorenko, Oleksandr O.'
_publ_section_title
;
 Fluoroalkyl-Substituted Cyclopropane Derivatives: Synthesis and
 Physicochemical Properties.
;
_journal_issue                   19
_journal_name_full               'The Journal of organic chemistry'
_journal_page_first              12692
_journal_page_last               12702
_journal_paper_doi               10.1021/acs.joc.0c01848
_journal_volume                  85
_journal_year                    2020
_chemical_formula_moiety         'C4 H8 F2 N, Cl'
_chemical_formula_sum            'C4 H8 Cl F2 N'
_chemical_formula_weight         143.56
_space_group_crystal_system      triclinic
_space_group_IT_number           2
_space_group_name_Hall           '-P 1'
_space_group_name_H-M_alt        'P -1'
_atom_sites_solution_hydrogens   mixed
_audit_creation_method           SHELXL-2016/4
_cell_angle_alpha                106.605(4)
_cell_angle_beta                 105.053(4)
_cell_angle_gamma                91.961(4)
_cell_formula_units_Z            2
_cell_length_a                   6.0157(4)
_cell_length_b                   7.4732(4)
_cell_length_c                   7.6279(4)
_cell_measurement_reflns_used    1743
_cell_measurement_temperature    173(2)
_cell_measurement_theta_max      26.18
_cell_measurement_theta_min      3.53
_cell_volume                     315.16(3)
_computing_cell_refinement       'Bruker SAINT'
_computing_data_collection       'Bruker APEX2'
_computing_data_reduction        'Bruker SAINT'
_computing_molecular_graphics    'Bruker SHELXTL'
_computing_publication_material  'Bruker SHELXTL'
_computing_structure_refinement  'SHELXL-2016/4 (Sheldrick, 2016)'
_computing_structure_solution    'SHELXS-97 (Sheldrick 2008)'
_diffrn_ambient_temperature      173(2)
_diffrn_measured_fraction_theta_full 0.996
_diffrn_measured_fraction_theta_max 0.997
_diffrn_measurement_device_type  'Bruker APEX-II CCD'
_diffrn_measurement_method       '\f and \w scans'
_diffrn_radiation_type           MoK\a
_diffrn_radiation_wavelength     0.71073
_diffrn_reflns_av_R_equivalents  0.0314
_diffrn_reflns_av_unetI/netI     0.0331
_diffrn_reflns_Laue_measured_fraction_full 0.996
_diffrn_reflns_Laue_measured_fraction_max 0.997
_diffrn_reflns_limit_h_max       7
_diffrn_reflns_limit_h_min       -7
_diffrn_reflns_limit_k_max       9
_diffrn_reflns_limit_k_min       -9
_diffrn_reflns_limit_l_max       9
_diffrn_reflns_limit_l_min       -9
_diffrn_reflns_number            4817
_diffrn_reflns_point_group_measured_fraction_full 0.996
_diffrn_reflns_point_group_measured_fraction_max 0.997
_diffrn_reflns_theta_full        25.242
_diffrn_reflns_theta_max         26.531
_diffrn_reflns_theta_min         2.864
_diffrn_source                   'sealed tube'
_exptl_absorpt_coefficient_mu    0.540
_exptl_absorpt_correction_T_max  0.7454
_exptl_absorpt_correction_T_min  0.6832
_exptl_absorpt_correction_type   multi-scan
_exptl_absorpt_process_details   SADABS
_exptl_crystal_colour            colourless
_exptl_crystal_density_diffrn    1.513
_exptl_crystal_description       block
_exptl_crystal_F_000             148
_exptl_crystal_size_max          0.260
_exptl_crystal_size_mid          0.130
_exptl_crystal_size_min          0.070
_refine_diff_density_max         0.429
_refine_diff_density_min         -0.222
_refine_diff_density_rms         0.070
_refine_ls_extinction_method     none
_refine_ls_goodness_of_fit_ref   1.012
_refine_ls_hydrogen_treatment    mixed
_refine_ls_matrix_type           full
_refine_ls_number_parameters     85
_refine_ls_number_reflns         1312
_refine_ls_number_restraints     0
_refine_ls_restrained_S_all      1.012
_refine_ls_R_factor_all          0.0472
_refine_ls_R_factor_gt           0.0401
_refine_ls_shift/su_max          0.019
_refine_ls_shift/su_mean         0.002
_refine_ls_structure_factor_coef Fsqd
_refine_ls_weighting_details
'w=1/[\s^2^(Fo^2^)+(0.0873P)^2^+0.4409P] where P=(Fo^2^+2Fc^2^)/3'
_refine_ls_weighting_scheme      calc
_refine_ls_wR_factor_gt          0.1391
_refine_ls_wR_factor_ref         0.1447
_reflns_Friedel_coverage         0.000
_reflns_number_gt                1145
_reflns_number_total             1312
_reflns_threshold_expression     'I > 2\s(I)'
_cod_data_source_file            jo0c01848_si_005.cif
_cod_data_source_block           xr170
_cod_depositor_comments
'Adding full bibliography for 4038748--4038751.cif.'
_cod_database_code               4038750
_shelx_shelxl_version_number     2016/4
_shelx_space_group_comment
;
The symmetry employed for this shelxl refinement is uniquely defined
by the following loop, which should always be used as a source of
symmetry information in preference to the above space-group names.
They are only intended as comments.
;
_shelx_estimated_absorpt_t_min   0.872
_shelx_estimated_absorpt_t_max   0.963
_shelx_res_file
;
TITL xr170 in P-1
 xr170.res created by SHELXL-2016/4 at 15:57:40 on 03-Jul-2019
CELL 0.71073   6.01570   7.47320   7.62790 106.6051 105.0525  91.9609
ZERR    2.00   0.00040   0.00040   0.00040   0.0035   0.0035   0.0036
LATT 1
SFAC C  H  N  F  Cl
UNIT 8  16  2  4  2
L.S. 4
BOND
FMAP 2
acta
PLAN 20
SIZE 0.07 0.13 0.26
TEMP -100
WGHT    0.087300    0.440900
FVAR       0.45709
MOLE 1
C1    1    0.288380    0.702871    0.197592    11.00000    0.02322    0.01943 =
         0.01815    0.00432    0.00578    0.00238
AFIX  13
H1    2    0.366368    0.586904    0.198104    11.00000   -1.20000
AFIX   0
C2    1    0.032441    0.688367    0.188802    11.00000    0.02014    0.03321 =
         0.02255    0.01004    0.00318    0.00040
AFIX  23
H2A   2   -0.068229    0.761635    0.117995    11.00000   -1.20000
H2B   2   -0.043040    0.565654    0.181630    11.00000   -1.20000
AFIX   0
C3    1    0.210000    0.794403    0.369831    11.00000    0.02032    0.01904 =
         0.02052    0.00623    0.00761    0.00421
AFIX  13
H3    2    0.217647    0.934627    0.409920    11.00000   -1.20000
AFIX   0
C4    1    0.369111    0.824888    0.097641    11.00000    0.02537    0.02469 =
         0.02239    0.00623    0.00931    0.00319
AFIX  13
H4    2    0.256993    0.917233    0.075154    11.00000   -1.20000
AFIX   0
CL1   5    0.184260    0.262416    0.326983    11.00000    0.02163    0.02071 =
         0.03380    0.00963    0.01106    0.00419
F1    4    0.587944    0.916578    0.199406    11.00000    0.03124    0.03232 =
         0.03390    0.00779    0.01119   -0.00566
F2    4    0.395802    0.713984   -0.072019    11.00000    0.04185    0.03665 =
         0.02240    0.00770    0.01466    0.00523
N1    3    0.262292    0.704883    0.522513    11.00000    0.01851    0.02088 =
         0.01820    0.00548    0.00724    0.00051
H1N   2    0.412025    0.744260    0.599736    11.00000    0.02204
H3N   2    0.232663    0.570381    0.465020    11.00000    0.02690
H2N   2    0.161867    0.724434    0.585597    11.00000    0.02661
HKLF 4




REM  xr170 in P-1
REM R1 =  0.0401 for    1145 Fo > 4sig(Fo)  and  0.0472 for all    1312 data
REM     85 parameters refined using      0 restraints

END

WGHT      0.0338      0.4252

REM Highest difference peak  0.429,  deepest hole -0.222,  1-sigma level  0.070
Q1    1  -0.1291  0.8560  0.3189  11.00000  0.05    0.43
Q2    1   0.5041  0.6553  0.3213  11.00000  0.05    0.37
Q3    1   0.2890  0.7624  0.2920  11.00000  0.05    0.28
Q4    1   0.4629  0.5557  0.6755  11.00000  0.05    0.26
Q5    1   0.2954  0.7603  0.1423  11.00000  0.05    0.26
Q6    1   0.8264  1.0389  0.3327  11.00000  0.05    0.24
Q7    1  -0.1138  0.6261  0.3334  11.00000  0.05    0.23
Q8    1   0.0250  0.1784  0.2622  11.00000  0.05    0.23
Q9    1   0.1071  0.7606  0.2929  11.00000  0.05    0.22
Q10   1   0.6115  0.8201  0.1230  11.00000  0.05    0.22
Q11   1   0.0236  0.3081  0.2287  11.00000  0.05    0.21
Q12   1   0.4346  0.8155 -0.1634  11.00000  0.05    0.21
Q13   1   0.2156  1.0225  0.3313  11.00000  0.05    0.21
Q14   1   0.1712  0.6806  0.1695  11.00000  0.05    0.20
Q15   1   0.0563  0.3064  0.1427  11.00000  0.05    0.20
Q16   1   0.3232  0.4899  0.5161  11.00000  0.05    0.19
Q17   1   0.2185  0.7476  0.4264  11.00000  0.05    0.19
Q18   1   0.0729  0.3229  0.2731  11.00000  0.05    0.19
Q19   1   0.5747  0.8482  0.5145  11.00000  0.05    0.18
Q20   1   0.7248  0.9212  0.2185  11.00000  0.05    0.18
;
_shelx_res_checksum              91447
_shelx_hkl_file
;
  -1   0   0   20.86    0.84
  -1   0   0   23.94    0.86
  -1   0   0   22.36    0.74
  -1   0   0   21.40    0.77
  -1   0   0   23.50    0.86
   1   0   0   22.56    0.85
   1   0   0   23.11    0.86
   1   0   0   22.06    0.76
   1   0   0   23.24    0.87
  -2   0   0  132.40    4.06
  -2   0   0  134.05    4.30
  -2   0   0  136.28    4.15
   2   0   0  134.21    4.31
   2   0   0  142.86    4.13
   2   0   0  141.71    4.37
   2   0   0  135.88    4.33
  -3   0   0    1.70    0.29
  -3   0   0    1.59    0.25
   3   0   0    2.10    0.43
   3   0   0    1.32    0.37
  -4   0   0    1.19    0.27
   4   0   0    1.14    0.37
   4   0   0    0.93    0.37
   5   0   0   81.48    3.48
   5   0   0   87.34    3.58
   6   0   0    0.61    0.50
   6   0   0   -0.15    0.45
   7   0   0    0.91    0.64
   7   0   0    0.28    0.60
   7  -1   0   11.99    1.61
   7  -1   0   13.67    1.72
   6  -1   0    0.44    0.49
   6  -1   0    0.36    0.47
   5  -1   0    4.80    0.82
   5  -1   0    7.30    1.01
   4  -1   0  105.78    3.96
   4  -1   0  110.92    3.99
   3  -1   0    0.94    0.14
   3  -1   0    0.97    0.25
   3  -1   0    0.55    0.25
   3  -1   0    0.60    0.29
   3  -1   0    0.87    0.14
   3  -1   0    0.36    0.23
  -3   1   0    0.76    0.26
  -3   1   0    1.08    0.27
   2  -1   0  244.98    7.44
   2  -1   0  246.86    7.42
   2  -1   0  236.91    7.26
   2  -1   0  249.46    7.45
   2  -1   0  252.23    7.31
   2  -1   0  247.86    7.16
  -2   1   0  248.05    7.17
  -2   1   0  235.87    7.30
  -2   1   0  249.31    7.26
  -2   1   0  245.21    7.42
   1  -1   0  249.97    7.34
   1  -1   0  252.64    7.39
   1  -1   0  244.42    7.30
   1  -1   0  245.67    7.29
   1  -1   0  256.57    7.32
  -1   1   0  247.76    7.34
  -1   1   0  252.69    7.39
  -1   1   0  246.31    7.30
  -1   1   0  256.89    7.30
   0  -1   0    1.61    0.22
   0  -1   0    1.29    0.21
   0  -1   0    1.92    0.14
   0  -1   0    1.04    0.14
   0   1   0    1.61    0.21
   0   1   0    1.53    0.21
   0   1   0    1.63    0.13
  -1  -1   0    1.95    0.30
  -1  -1   0    1.80    0.24
  -1  -1   0    2.13    0.13
  -1  -1   0    1.85    0.27
  -1  -1   0    2.11    0.32
   1   1   0    2.03    0.25
   1   1   0    1.73    0.30
   1   1   0    2.12    0.31
   1   1   0    2.16    0.31
  -2  -1   0  123.35    4.06
  -2  -1   0  126.67    3.78
  -2  -1   0  126.96    3.77
  -2  -1   0  127.47    4.03
   2   1   0  124.82    3.78
   2   1   0  129.21    4.02
   2   1   0  124.23    4.10
   2   1   0  122.41    4.10
  -3  -1   0    0.23    0.15
  -3  -1   0    0.16    0.12
  -3  -1   0    0.41    0.26
   3   1   0    0.10    0.24
   3   1   0    0.27    0.11
   3   1   0    0.02    0.18
  -4  -1   0   28.19    1.07
   4   1   0   28.78    1.62
   4   1   0   27.83    1.61
   5   1   0   33.20    1.97
   5   1   0   37.25    2.07
   6   1   0    2.50    0.79
   6   1   0    3.08    0.80
   7   1   0   14.14    1.75
   7   1   0   13.91    1.80
   7  -2   0    0.17    0.59
   7  -2   0    0.22    0.52
   6  -2   0   16.68    1.72
   6  -2   0   16.94    1.69
   5  -2   0    7.10    1.00
   5  -2   0    7.77    1.03
   4  -2   0    0.18    0.26
   4  -2   0    0.01    0.14
   4  -2   0   -0.09    0.23
   4  -2   0   -0.14    0.22
   4  -2   0   -0.15    0.11
   4  -2   0    0.19    0.29
   3  -2   0   63.65    2.45
   3  -2   0   61.74    2.25
   3  -2   0   61.89    2.10
   3  -2   0   62.71    2.38
   3  -2   0   60.53    2.23
  -3   2   0   60.80    2.11
  -3   2   0   61.92    2.27
   2  -2   0   26.32    1.14
   2  -2   0   25.97    1.07
   2  -2   0   26.19    1.22
   2  -2   0   27.43    1.11
   2  -2   0   25.33    1.12
  -2   2   0   26.51    1.10
  -2   2   0   25.78    1.21
  -2   2   0   26.27    1.08
   1  -2   0   -0.20    0.15
   1  -2   0   -0.03    0.14
   1  -2   0   -0.14    0.12
   1  -2   0   -0.22    0.10
   1  -2   0    0.03    0.13
  -1   2   0   -0.17    0.15
  -1   2   0   -0.17    0.11
  -1   2   0   -0.08    0.11
  -1   2   0   -0.08    0.11
   0  -2   0  992.92   27.29
   0  -2   0  957.07   27.05
   0  -2   0  927.50   27.11
   0  -2   0  877.31   27.07
   0   2   0 1000.00   27.15
   0   2   0  964.19   27.10
   0   2   0  846.59   26.96
   0   2   0  970.32   27.00
  -1  -2   0   63.16    2.23
  -1  -2   0   58.17    1.99
  -1  -2   0   54.73    2.14
  -1  -2   0   67.72    2.22
   1   2   0   59.33    2.17
   1   2   0   59.48    2.10
   1   2   0   65.19    2.21
   2   2   0  286.84    8.81
   2   2   0  287.12    8.85
   2   2   0  288.23    8.57
  -3  -2   0   -0.34    0.24
   3   2   0    0.42    0.25
   3   2   0   -0.15    0.21
   3   2   0   -0.11    0.12
  -4  -2   0    2.95    0.37
  -4  -2   0    2.55    0.31
   4   2   0    2.78    0.33
   4   2   0    2.01    0.54
   4   2   0    2.62    0.61
   5   2   0   56.60    2.80
   5   2   0   55.33    2.74
   6   2   0    1.36    0.67
   6   2   0    1.21    0.63
   7  -3   0    7.74    1.31
   7  -3   0    4.62    1.06
   6  -3   0    3.85    0.88
   6  -3   0    3.42    0.83
   5  -3   0   15.79    0.93
   5  -3   0   15.89    1.11
   5  -3   0   16.92    1.32
   5  -3   0   14.97    1.21
   4  -3   0   36.31    1.89
   4  -3   0   37.66    1.70
   4  -3   0   37.28    1.70
   4  -3   0   34.40    1.75
  -4   3   0   34.21    1.68
  -4   3   0   37.85    1.54
   3  -3   0   46.15    2.10
   3  -3   0   48.87    1.97
   3  -3   0   46.74    1.91
   3  -3   0   48.28    2.00
  -3   3   0   51.31    1.96
  -3   3   0   48.75    1.90
   2  -3   0  221.13    6.50
   2  -3   0  212.56    6.72
   2  -3   0  210.71    6.56
   2  -3   0  224.14    6.59
  -2   3   0  218.37    6.59
  -2   3   0  182.69    6.41
   1  -3   0   10.92    0.58
   1  -3   0   10.94    0.67
   1  -3   0   10.52    0.74
  -1   3   0   11.11    0.59
  -1   3   0   10.88    0.56
  -1   3   0   10.32    0.71
   0  -3   0   74.73    2.61
   0  -3   0   73.69    2.31
   0  -3   0   73.22    2.34
   0   3   0   73.89    2.64
  -1  -3   0    0.82    0.29
  -1  -3   0    0.53    0.11
   1   3   0    0.46    0.24
   1   3   0    1.00    0.30
  -2  -3   0  122.84    3.98
  -2  -3   0  118.96    4.31
   2   3   0  123.77    4.07
   2   3   0  122.87    4.25
   2   3   0  122.96    4.28
  -3  -3   0   18.67    1.09
   3   3   0   17.88    0.97
   3   3   0   14.80    1.12
   3   3   0   16.39    1.14
   4   3   0    1.10    0.47
   4   3   0    1.68    0.58
   4   3   0    1.37    0.33
   5   3   0   13.46    1.58
   5   3   0   16.88    1.65
   6   3   0    2.65    0.77
   6   3   0    1.68    0.66
   6  -4   0   21.48    1.55
   6  -4   0   21.04    2.03
   6  -4   0   27.13    1.78
   5  -4   0    3.79    0.83
   5  -4   0    4.48    0.80
   5  -4   0    2.80    0.64
   5  -4   0    3.25    0.51
   4  -4   0   18.91    1.40
   4  -4   0   22.85    1.36
   4  -4   0   22.02    1.29
   4  -4   0   21.83    1.33
  -4   4   0   24.83    1.28
  -4   4   0   20.66    1.28
   3  -4   0   15.48    0.98
   3  -4   0   15.23    1.00
   3  -4   0   15.23    1.05
   3  -4   0   16.12    1.15
  -3   4   0   17.95    1.07
  -3   4   0   15.43    0.96
   2  -4   0   40.81    1.78
   2  -4   0   42.58    1.67
   2  -4   0   40.40    1.73
   2  -4   0   37.85    1.87
  -2   4   0   40.58    1.81
  -2   4   0   40.77    1.62
  -2   4   0   41.45    1.66
   1  -4   0   14.27    0.95
   1  -4   0   12.91    0.84
   1  -4   0   12.31    0.71
  -1   4   0   14.69    0.95
  -1   4   0   13.56    0.66
  -1   4   0   13.46    0.68
   0  -4   0  116.65    3.63
   0  -4   0  120.72    4.04
   0   4   0  114.59    4.08
  -2  -4   0   47.08    1.85
  -2  -4   0   48.23    2.23
   2   4   0   44.40    2.12
   2   4   0   46.70    2.04
  -3  -4   0   44.25    2.28
  -3  -4   0   42.49    1.89
   3   4   0   41.92    2.16
   3   4   0   42.02    1.89
   3   4   0   38.62    2.06
  -4  -4   0   31.12    2.08
   4   4   0   31.21    1.91
   4   4   0   36.29    2.07
   4   4   0   30.29    1.54
   5   4   0   27.36    1.93
   5   4   0   29.67    2.06
   6   4   0    0.95    0.65
   6   4   0   -0.13    0.36
   6  -5   0    8.52    1.21
   6  -5   0   11.76    1.40
   6  -5   0   10.89    1.51
   5  -5   0    9.27    0.98
   5  -5   0    9.15    1.13
   5  -5   0    9.35    1.15
   5  -5   0    8.12    1.21
  -5   5   0    9.98    1.05
   4  -5   0   24.65    1.66
   4  -5   0   24.95    1.55
   4  -5   0   23.42    1.41
   4  -5   0   24.22    1.46
  -4   5   0   23.91    1.45
   3  -5   0    3.41    0.72
   3  -5   0    5.79    0.81
   3  -5   0    5.13    0.69
   3  -5   0    3.58    0.61
  -3   5   0    5.19    0.68
  -3   5   0    4.95    0.64
  -3   5   0    4.94    0.76
   2  -5   0   21.68    1.20
   2  -5   0   19.16    1.32
   2  -5   0   18.34    1.19
   2  -5   0   19.51    1.07
  -2   5   0   18.26    1.01
  -2   5   0   19.85    1.01
  -2   5   0   17.91    1.22
   1  -5   0   49.04    1.87
   1  -5   0   50.06    2.12
   1  -5   0   51.71    2.10
   1  -5   0   47.14    2.24
  -1   5   0   48.23    1.67
  -1   5   0   50.35    1.71
  -1   5   0   43.61    2.15
   0  -5   0  103.16    3.33
   0  -5   0  103.22    3.78
   0  -5   0  108.47    3.96
   0   5   0   99.55    3.84
  -1  -5   0    8.90    1.08
  -1  -5   0    9.05    0.60
   1   5   0    7.99    0.95
  -2  -5   0    4.61    0.59
  -2  -5   0    4.01    0.77
   2   5   0    4.54    0.75
  -3  -5   0    0.89    0.50
  -3  -5   0    0.74    0.45
   3   5   0    1.04    0.40
   3   5   0    0.26    0.43
  -4  -5   0   10.59    1.48
   4   5   0   11.27    1.42
   4   5   0    8.95    1.01
  -5  -5   0    0.03    0.72
   5   5   0    0.44    0.48
   5  -6   0    2.98    0.91
   5  -6   0    1.32    0.58
   5  -6   0    2.00    0.71
  -5   6   0    1.72    0.57
  -5   6   0    1.33    0.57
   4  -6   0   21.53    1.50
   4  -6   0   22.61    1.65
   4  -6   0   21.81    1.45
  -4   6   0   22.58    1.51
  -4   6   0   23.26    1.45
   3  -6   0   35.58    2.13
   3  -6   0   40.11    2.07
   3  -6   0   41.67    1.94
   3  -6   0   41.14    2.00
  -3   6   0   41.93    1.88
  -3   6   0   42.09    2.16
   2  -6   0    1.79    0.47
   2  -6   0    1.11    0.44
   2  -6   0    1.35    0.56
   2  -6   0    1.60    0.54
  -2   6   0    2.08    0.40
  -2   6   0    1.74    0.52
  -2   6   0    1.29    0.34
   1  -6   0    5.71    0.61
  -1   6   0    5.73    0.84
   0  -6   0   33.66    1.82
   0  -6   0   33.75    1.97
   0   6   0   34.60    1.92
  -1  -6   0   -0.05    0.40
  -1  -6   0    0.27    0.23
   1   6   0    0.11    0.30
  -2  -6   0   32.50    1.47
  -2  -6   0   33.04    2.00
   2   6   0   29.81    1.82
  -3  -6   0    9.29    1.36
  -3  -6   0   12.45    0.99
   3   6   0   14.14    1.41
  -4  -6   0    3.54    0.95
   4   6   0    6.32    0.99
   4   6   0    6.17    1.09
   5  -7   0    2.01    0.77
   5  -7   0    1.82    0.86
  -5   7   0    1.53    0.60
  -5   7   0    1.84    0.63
   4  -7   0    9.63    1.30
   4  -7   0   11.36    1.54
   4  -7   0   12.57    1.34
  -4   7   0   11.71    1.40
  -4   7   0    9.89    1.11
   3  -7   0   -0.09    0.52
   3  -7   0    0.93    0.46
   3  -7   0    0.92    0.51
  -3   7   0    0.70    0.43
  -3   7   0    1.52    0.41
   2  -7   0   14.32    1.46
   2  -7   0   13.20    1.58
   2  -7   0   16.45    1.23
  -2   7   0   18.28    1.47
  -2   7   0   16.72    0.87
   1  -7   0   27.88    1.69
   1  -7   0   27.85    1.63
   1  -7   0   24.78    1.81
  -1   7   0   28.59    1.86
   0  -7   0   16.86    1.75
   0  -7   0   17.27    1.26
   0  -7   0   14.65    1.46
   0   7   0   16.01    1.61
  -1  -7   0   42.11    2.05
  -1  -7   0   38.93    2.32
  -1  -7   0   37.55    2.24
   1   7   0   44.91    2.39
  -2  -7   0    0.43    0.60
  -2  -7   0    1.07    0.46
   2   7   0    0.24    0.45
  -3  -7   0    0.31    0.66
   3   7   0   -0.10    0.45
   4  -8   0    8.34    1.37
   4  -8   0    7.86    1.36
  -4   8   0   11.72    1.50
   3  -8   0   32.78    1.97
   3  -8   0   32.96    2.13
   3  -8   0   33.58    2.29
  -3   8   0   32.76    2.20
  -3   8   0   31.26    1.52
   2  -8   0   10.88    1.36
   2  -8   0   11.89    1.38
   2  -8   0    9.38    1.43
  -2   8   0   12.14    1.54
   1  -8   0    3.06    0.76
   1  -8   0    2.60    0.85
   1  -8   0    4.55    0.92
  -1   8   0    4.10    0.93
   0  -8   0    0.46    0.63
   0  -8   0    0.10    0.51
   0  -8   0    0.47    0.54
   0   8   0    1.49    0.64
  -1  -8   0    1.72    0.80
  -1  -8   0    1.78    0.63
  -1  -8   0    2.32    0.86
   1   8   0    2.95    0.79
  -2  -8   0   29.76    2.16
  -2  -8   0   27.25    1.73
   2   8   0   27.68    2.04
   1  -9   0   22.23    2.03
   1  -9   0   22.58    2.35
  -1   9   0   23.77    2.37
   1   9  -1    3.57    1.00
  -1  -9   1    2.42    0.80
  -1  -9   1    1.87    0.86
   0   9  -1   19.11    2.12
   0  -9   1   21.60    2.25
   0  -9   1   21.04    1.90
  -1   9  -1    4.17    1.04
   1  -9   1    4.32    1.16
   1  -9   1    4.94    0.98
  -2   9  -1    9.12    1.48
   2  -9   1    9.60    1.41
   2  -9   1   11.49    1.71
   3   8  -1    1.14    0.63
  -3  -8   1    2.78    0.94
   2   8  -1    0.25    0.45
  -2  -8   1   -0.39    0.50
  -2  -8   1    0.46    0.44
   1   8  -1   10.96    1.45
  -1  -8   1   10.71    1.53
  -1  -8   1   11.16    1.37
   0   8  -1    1.58    0.60
   0  -8   1    1.38    0.62
   0  -8   1    1.57    0.64
  -1   8  -1   11.46    1.50
   1  -8   1    9.35    1.21
   1  -8   1   12.18    1.63
   1  -8   1   10.24    1.16
  -2   8  -1    7.39    1.24
   2  -8   1    5.57    1.10
   2  -8   1    7.30    1.10
  -3   8  -1    7.72    1.25
  -3   8  -1    6.92    0.74
   3  -8   1    9.04    1.28
   3  -8   1    6.69    1.24
  -4   8  -1   34.49    2.22
   4  -8   1   33.72    2.22
   4  -8   1   34.14    2.39
   4   7  -1    1.01    0.56
  -4  -7   1    0.07    0.68
   3   7  -1   23.46    1.71
  -3  -7   1   23.64    1.83
   2   7  -1    1.67    0.61
  -2  -7   1    3.64    0.87
  -2  -7   1    3.41    0.66
   1   7  -1    2.18    0.70
  -1  -7   1    4.42    0.89
  -1  -7   1    3.67    0.77
   0   7  -1   26.04    1.76
   0  -7   1   27.69    1.61
   0  -7   1   27.97    1.84
  -1   7  -1   17.58    1.72
   1  -7   1   17.54    1.20
   1  -7   1   18.24    1.77
  -2   7  -1   36.07    2.10
  -2   7  -1   32.73    1.36
  -2   7  -1   33.66    1.36
   2  -7   1   35.09    1.72
   2  -7   1   31.30    2.01
   2  -7   1   33.30    1.91
  -3   7  -1    1.92    0.64
  -3   7  -1    1.23    0.42
   3  -7   1    1.59    0.46
   3  -7   1    2.36    0.69
   3  -7   1    1.97    0.72
  -4   7  -1    3.21    0.75
  -4   7  -1    4.58    0.82
   4  -7   1    2.08    0.77
   4  -7   1    2.79    0.82
  -5   7  -1    2.94    0.81
   5  -7   1    3.69    1.04
   5  -7   1    3.44    0.92
   5  -7   1    3.00    0.72
   5   6  -1    3.89    0.88
  -5  -6   1    3.55    1.09
  -5  -6   1    1.90    0.80
   4   6  -1   25.27    1.61
  -4  -6   1   25.03    1.93
  -4  -6   1   24.13    1.60
   3   6  -1   17.42    1.33
  -3  -6   1   19.20    1.84
  -3  -6   1   17.42    1.18
   2   6  -1   25.51    1.62
  -2  -6   1   27.43    1.71
  -2  -6   1   27.64    1.40
   1   6  -1    3.84    0.75
  -1  -6   1    3.19    0.69
  -1  -6   1    5.12    0.43
  -1  -6   1    4.95    0.88
   0   6  -1   -0.06    0.33
   0  -6   1    0.24    0.31
   0  -6   1   -0.14    0.20
   0  -6   1   -0.33    0.29
  -1   6  -1   31.70    1.76
   1  -6   1   25.76    1.69
   1  -6   1   28.97    1.34
   1  -6   1   29.81    1.49
  -2   6  -1   31.24    1.82
  -2   6  -1   32.42    1.41
  -2   6  -1   31.36    1.38
   2  -6   1   32.56    1.87
   2  -6   1   31.41    1.53
   2  -6   1   28.71    1.68
   2  -6   1   33.97    1.56
  -3   6  -1    0.68    0.35
  -3   6  -1    0.12    0.33
   3  -6   1    0.39    0.34
   3  -6   1    0.59    0.41
   3  -6   1    0.44    0.36
   3  -6   1    0.90    0.37
  -4   6  -1   21.44    1.46
  -4   6  -1   21.95    1.37
   4  -6   1   19.56    1.29
   4  -6   1   21.84    1.44
   4  -6   1   18.95    1.88
   4  -6   1   20.94    1.49
   4  -6   1   24.49    1.47
   5  -6   1   12.06    1.39
   5  -6   1   15.71    1.80
   5  -6   1   15.26    1.44
   5  -6   1   15.57    1.22
   5   5  -1   -0.61    0.24
   5   5  -1    0.72    0.52
  -5  -5   1   -0.08    0.52
  -5  -5   1    0.90    0.67
   4   5  -1   11.35    1.40
   4   5  -1   11.98    1.37
   4   5  -1   10.47    1.08
  -4  -5   1   10.68    1.45
  -4  -5   1    9.52    1.14
   3   5  -1    7.00    0.97
   3   5  -1    5.04    0.75
   3   5  -1    3.76    0.70
  -3  -5   1    6.20    0.96
  -3  -5   1    5.46    0.74
   2   5  -1   62.40    2.67
  -2  -5   1   65.78    2.79
  -2  -5   1   64.44    2.47
   1   5  -1   31.77    1.68
  -1  -5   1   33.78    1.64
  -1  -5   1   31.88    1.11
   0   5  -1   14.87    1.08
   0  -5   1   16.53    1.15
   0  -5   1   18.52    1.04
   0  -5   1   17.70    0.80
  -1   5  -1    7.25    0.44
  -1   5  -1    7.22    0.44
  -1   5  -1    7.29    0.91
   1  -5   1    5.55    0.81
   1  -5   1    7.58    0.56
   1  -5   1    8.00    0.63
  -2   5  -1    8.81    0.66
  -2   5  -1    9.19    1.00
  -2   5  -1    9.44    0.69
   2  -5   1    7.38    0.95
   2  -5   1    9.77    0.69
   2  -5   1    8.33    0.77
  -3   5  -1   43.32    2.04
  -3   5  -1   44.56    1.88
   3  -5   1   40.72    1.99
   3  -5   1   41.90    1.89
   3  -5   1   41.42    2.17
   3  -5   1   42.06    1.84
  -4   5  -1   13.87    1.08
   4  -5   1   16.28    1.43
   4  -5   1   15.92    1.07
   4  -5   1   15.25    1.55
   4  -5   1   15.90    1.13
   4  -5   1   15.82    1.11
   5  -5   1    8.93    1.06
   5  -5   1    8.85    1.11
   5  -5   1   10.48    1.14
   5  -5   1   11.55    1.48
   5  -5   1    8.86    0.95
   6  -5   1    4.70    1.02
   6  -5   1    4.33    0.88
   6  -5   1    1.97    0.72
   6   4  -1    7.16    1.24
   6   4  -1    5.77    1.11
   5   4  -1    4.25    0.86
   5   4  -1    2.82    0.80
  -5  -4   1    2.51    0.79
   4   4  -1   66.03    2.99
   4   4  -1   61.89    2.80
   4   4  -1   62.61    2.46
  -4  -4   1   62.78    2.72
   3   4  -1    0.85    0.36
   3   4  -1    1.30    0.37
   3   4  -1    1.07    0.42
  -3  -4   1    0.67    0.40
   2   4  -1   36.60    1.73
   2   4  -1   36.96    1.75
   2   4  -1   36.75    1.67
  -2  -4   1   35.52    1.77
  -2  -4   1   35.00    1.58
   1   4  -1   53.83    2.16
  -1  -4   1   50.21    1.51
  -1  -4   1   53.44    2.11
   0   4  -1   21.17    1.19
   0  -4   1   22.75    1.08
   0  -4   1   23.27    1.24
   0  -4   1   22.89    0.89
  -1   4  -1   90.96    2.82
  -1   4  -1   86.80    2.82
  -1   4  -1   82.71    3.17
   1  -4   1   92.94    2.95
   1  -4   1   84.67    3.22
   1  -4   1   86.94    2.90
  -2   4  -1   34.07    1.43
  -2   4  -1   33.50    1.61
   2  -4   1   37.28    1.75
   2  -4   1   33.53    1.46
   2  -4   1   35.24    1.42
  -3   4  -1    1.49    0.38
  -3   4  -1    1.73    0.40
   3  -4   1    2.42    0.52
   3  -4   1    1.94    0.43
   3  -4   1    2.58    0.44
   3  -4   1    1.18    0.44
  -4   4  -1   17.33    1.17
   4  -4   1   17.58    1.07
   4  -4   1   17.13    1.30
   4  -4   1   19.88    1.17
   4  -4   1   17.48    1.17
   4  -4   1   18.13    1.16
   5  -4   1    1.91    0.54
   5  -4   1    2.37    0.53
   5  -4   1    2.81    0.60
   5  -4   1    2.98    0.65
   5  -4   1    3.07    0.75
   6  -4   1    8.38    1.15
   6  -4   1    7.10    0.97
   6  -4   1    6.85    1.21
   6   3  -1    9.10    1.40
   6   3  -1   10.03    1.33
   5   3  -1    5.40    0.86
   5   3  -1    6.74    1.06
  -5  -3   1    5.94    0.98
   4   3  -1   56.56    2.63
   4   3  -1   56.70    2.12
   4   3  -1   60.28    2.58
  -4  -3   1   59.67    2.56
   3   3  -1    2.12    0.47
   3   3  -1    1.63    0.33
   3   3  -1    1.29    0.39
  -3  -3   1    1.09    0.38
   2   3  -1   81.40    2.96
   2   3  -1   79.44    2.81
   2   3  -1   80.45    2.91
  -2  -3   1   81.81    2.85
   1   3  -1    0.05    0.17
   1   3  -1    0.12    0.16
  -1  -3   1   -0.17    0.15
  -1  -3   1    0.09    0.18
   0   3  -1  175.75    5.48
   0   3  -1  152.82    5.24
   0  -3   1  182.06    5.29
   0  -3   1  174.35    5.46
   0  -3   1  174.91    5.11
   0  -3   1  179.54    5.26
  -1   3  -1   45.19    1.56
  -1   3  -1   42.95    1.75
  -1   3  -1   43.99    1.55
   1  -3   1   43.73    1.80
   1  -3   1   45.13    1.60
   1  -3   1   43.44    1.53
  -2   3  -1   -0.05    0.18
  -2   3  -1   -0.06    0.17
   2  -3   1    0.06    0.20
   2  -3   1   -0.02    0.13
   2  -3   1    0.43    0.29
  -3   3  -1  108.32    3.72
   3  -3   1  108.10    3.99
   3  -3   1  105.36    3.68
   3  -3   1  110.38    3.67
   3  -3   1  111.94    3.73
   3  -3   1  110.37    3.71
  -4   3  -1    2.72    0.54
   4  -3   1    1.69    0.50
   4  -3   1    3.62    0.59
   4  -3   1    3.18    0.56
   4  -3   1    3.32    0.46
   4  -3   1    2.80    0.53
   5  -3   1   55.36    2.31
   5  -3   1   49.04    2.15
   5  -3   1   53.60    2.46
   5  -3   1   48.09    2.57
   6  -3   1    1.23    0.62
   6  -3   1    0.44    0.48
   7   2  -1   15.23    1.85
   7   2  -1   14.40    1.71
   6   2  -1    2.58    0.78
   6   2  -1    3.36    0.78
   5   2  -1    2.10    0.63
   5   2  -1    1.38    0.52
  -5  -2   1    2.01    0.65
   4   2  -1  186.99    6.25
   4   2  -1  188.75    6.41
  -4  -2   1  190.66    5.59
  -4  -2   1  183.94    5.58
  -4  -2   1  186.36    6.26
   3   2  -1   17.20    1.02
   3   2  -1   17.93    1.11
   3   2  -1   17.66    0.79
  -3  -2   1   18.28    1.08
  -3  -2   1   17.63    0.79
   2   2  -1  172.47    5.18
   2   2  -1  167.88    5.30
   2   2  -1  171.05    5.40
  -2  -2   1  170.20    5.33
  -2  -2   1  166.71    5.31
  -2  -2   1  168.49    5.16
   1   2  -1    5.30    0.40
   1   2  -1    5.38    0.39
  -1  -2   1    5.62    0.42
  -1  -2   1    4.82    0.38
   0   2  -1    9.45    0.55
   0   2  -1    9.70    0.33
   0   2  -1    8.31    0.54
   0   2  -1    9.52    0.34
   0  -2   1    8.69    0.54
   0  -2   1    9.28    0.42
   0  -2   1   10.52    0.45
   0  -2   1   10.03    0.41
   0  -2   1   10.14    0.56
  -1   2  -1  765.68   22.42
  -1   2  -1  792.15   22.63
  -1   2  -1  786.55   22.52
  -1   2  -1  786.86   22.70
   1  -2   1  781.82   22.42
   1  -2   1  785.35   22.53
   1  -2   1  781.89   22.69
  -2   2  -1    1.43    0.28
  -2   2  -1    0.89    0.25
   2  -2   1    1.25    0.28
   2  -2   1    1.59    0.37
   2  -2   1    1.36    0.29
   2  -2   1    1.02    0.23
  -3   2  -1   12.91    0.86
   3  -2   1   15.65    0.78
   3  -2   1   16.76    0.90
   3  -2   1   15.62    0.82
   3  -2   1   14.89    0.90
   3  -2   1   15.75    1.04
   4  -2   1    0.57    0.35
   4  -2   1    0.65    0.40
   4  -2   1    0.79    0.33
   4  -2   1    0.85    0.23
   4  -2   1    0.23    0.28
   5  -2   1    5.88    0.89
   5  -2   1    4.44    0.64
   5  -2   1    6.73    1.03
   6  -2   1   24.17    1.75
   6  -2   1   25.08    1.84
   7  -2   1   18.59    2.03
   7  -2   1   20.84    2.24
   7   1  -1    2.55    0.82
   7   1  -1    0.99    0.75
   6   1  -1   22.01    1.76
   6   1  -1   26.32    1.76
   5   1  -1    0.64    0.42
   5   1  -1    0.84    0.49
   4   1  -1   10.01    1.07
   4   1  -1    8.90    0.94
  -4  -1   1   10.46    1.07
   3   1  -1   50.25    1.97
   3   1  -1   48.95    2.06
  -3  -1   1   51.38    2.03
  -3  -1   1   45.22    1.87
  -3  -1   1   48.94    1.51
  -3  -1   1   48.58    1.51
   2   1  -1   59.89    2.03
   2   1  -1   57.44    2.13
  -2  -1   1   58.50    1.84
  -2  -1   1   60.41    2.11
  -2  -1   1   58.07    1.83
  -2  -1   1   56.52    1.99
   1   1  -1    1.85    0.21
   1   1  -1    1.70    0.25
  -1  -1   1    1.35    0.20
  -1  -1   1    1.91    0.21
  -1  -1   1    1.60    0.24
  -1  -1   1    1.95    0.22
   0   1  -1    0.43    0.12
   0   1  -1    0.56    0.13
   0   1  -1    0.47    0.09
   0  -1   1    0.60    0.12
   0  -1   1    0.24    0.08
   0  -1   1    0.37    0.13
  -1   1  -1    0.42    0.19
   1  -1   1    0.31    0.15
   1  -1   1    0.35    0.14
   1  -1   1    0.38    0.14
  -2   1  -1   35.00    1.36
  -2   1  -1   33.66    1.24
  -2   1  -1   35.04    1.49
   2  -1   1   33.39    1.33
   2  -1   1   35.81    1.26
   2  -1   1   36.50    1.41
   2  -1   1   34.71    1.50
  -3   1  -1  116.58    4.01
   3  -1   1  122.45    3.97
   3  -1   1  123.92    4.17
   3  -1   1  126.24    3.79
   3  -1   1  122.72    4.29
   3  -1   1  122.58    3.80
   3  -1   1  124.63    3.77
   4  -1   1    1.05    0.41
   4  -1   1    0.73    0.41
   4  -1   1    0.81    0.30
   4  -1   1    1.36    0.20
   4  -1   1    1.31    0.22
   5  -1   1   51.48    2.52
   5  -1   1   52.58    2.14
   5  -1   1   53.31    2.60
   6  -1   1    0.79    0.52
   6  -1   1   -0.30    0.40
   7  -1   1    4.04    0.94
   7  -1   1    4.07    1.08
   7   0  -1   30.00    2.08
   7   0  -1   32.19    2.29
   6   0  -1    3.75    0.80
   6   0  -1    4.28    0.87
   5   0  -1    3.07    0.72
   5   0  -1    4.50    0.76
   4   0  -1   51.74    2.37
   4   0  -1   55.79    2.27
  -4   0   1   54.80    2.33
   3   0  -1   -0.10    0.15
   3   0  -1   -0.01    0.18
  -3   0   1   -0.05    0.18
  -3   0   1    0.15    0.17
  -3   0   1    0.44    0.25
  -3   0   1    0.13    0.26
   2   0  -1  740.44   20.97
   2   0  -1  676.17   20.86
   2   0  -1  746.36   20.91
   2   0  -1  729.40   20.79
  -2   0   1  706.00   20.87
  -2   0   1  722.61   20.90
  -2   0   1  712.49   20.76
  -2   0   1  731.87   20.76
   1   0  -1   24.61    0.93
   1   0  -1   24.99    0.79
  -1   0   1   23.62    0.85
  -1   0   1   23.72    0.78
  -1   0   1   23.62    0.90
  -1   0   1   23.51    0.92
   0   0  -1   -0.09    0.06
   0   0  -1    0.06    0.10
   0   0  -1   -0.07    0.07
   0   0  -1   -0.08    0.06
   0   0   1   -0.11    0.08
   0   0   1   -0.10    0.06
   0   0   1   -0.02    0.07
   0   0   1   -0.11    0.07
  -1   0  -1  578.90   17.14
  -1   0  -1  579.56   17.20
  -1   0  -1  596.64   17.28
  -1   0  -1  603.20   17.15
   1   0   1  589.53   17.22
   1   0   1  603.84   17.29
   1   0   1  610.44   17.16
   1   0   1  601.72   17.13
  -2   0  -1    0.04    0.24
  -2   0  -1    0.14    0.13
  -2   0  -1    0.03    0.15
   2   0   1   -0.04    0.12
   2   0   1    0.07    0.13
   2   0   1    0.13    0.18
   2   0   1   -0.09    0.19
  -3   0  -1  294.94    8.47
   3   0   1  287.87    9.06
   3   0   1  288.92    8.61
   3   0   1  286.36    8.47
   3   0   1  285.15    8.96
  -4   0  -1   11.44    0.51
   4   0   1   11.14    0.50
   4   0   1   11.72    1.14
   4   0   1   10.12    0.69
   4   0   1   12.13    1.23
   5   0   1    2.45    0.67
   5   0   1    2.01    0.59
   6   0   1   13.66    1.64
   6   0   1   13.96    1.59
   7  -1  -1    0.63    0.65
   7  -1  -1    1.13    0.68
   6  -1  -1   33.16    1.93
   6  -1  -1   29.75    1.95
   5  -1  -1   -0.09    0.32
   5  -1  -1    0.31    0.38
   4  -1  -1   34.45    1.05
   4  -1  -1   34.45    1.65
   4  -1  -1   35.53    1.06
   4  -1  -1   32.44    1.72
   3  -1  -1    0.48    0.15
   3  -1  -1    0.47    0.25
   3  -1  -1    0.35    0.25
  -3   1   1    0.80    0.30
  -3   1   1    0.37    0.13
  -3   1   1    0.27    0.20
   2  -1  -1  124.88    3.99
   2  -1  -1  128.44    4.03
   2  -1  -1  127.87    4.00
   2  -1  -1  127.73    4.11
  -2   1   1  131.91    4.01
  -2   1   1  124.08    3.97
  -2   1   1  127.16    3.88
  -2   1   1  124.72    3.93
  -2   1   1  127.80    4.03
   1  -1  -1  144.73    4.25
   1  -1  -1  140.35    4.17
   1  -1  -1  137.81    4.25
   1  -1  -1  141.90    4.26
   1  -1  -1  138.24    4.33
  -1   1   1  136.11    4.32
  -1   1   1  142.81    4.17
  -1   1   1  138.41    4.25
  -1   1   1  138.30    4.23
  -1   1   1  140.69    4.26
  -1   1   1  138.53    4.24
   0  -1  -1   15.44    0.75
   0  -1  -1   15.72    0.71
   0  -1  -1   15.04    0.70
   0  -1  -1   13.96    0.63
   0  -1  -1   15.76    0.62
   0   1   1   16.16    0.72
   0   1   1   16.18    0.63
   0   1   1   14.77    0.72
   0   1   1   15.76    0.62
   0   1   1   15.25    0.70
  -1  -1  -1    2.89    0.40
  -1  -1  -1    3.06    0.44
  -1  -1  -1    2.96    0.18
  -1  -1  -1    3.27    0.36
  -1  -1  -1    2.43    0.26
   1   1   1    2.46    0.24
   1   1   1    2.60    0.30
   1   1   1    3.13    0.36
   1   1   1    2.72    0.40
   1   1   1    2.68    0.38
  -2  -1  -1   17.29    0.79
   2   1   1   16.16    0.86
   2   1   1   16.39    0.97
   2   1   1   15.25    0.66
  -3  -1  -1  271.07    7.72
   3   1   1  255.78    7.59
   3   1   1  245.98    8.21
   3   1   1  256.38    8.18
   3   1   1  254.14    7.67
  -4  -1  -1    2.75    0.39
   4   1   1    2.07    0.58
   4   1   1    4.33    0.80
   4   1   1    2.75    0.33
   5   1   1   22.09    1.59
   5   1   1   24.97    1.73
   6   1   1    1.56    0.67
   6   1   1    1.77    0.76
   7  -2  -1   17.44    1.80
   7  -2  -1   13.65    1.75
   6  -2  -1    5.80    1.01
   6  -2  -1    3.31    0.75
   5  -2  -1   31.46    1.78
   5  -2  -1   29.33    1.71
   4  -2  -1   12.30    0.87
   4  -2  -1   12.49    0.92
   4  -2  -1   12.22    0.97
   4  -2  -1   10.04    0.64
  -4   2   1   11.48    0.63
   3  -2  -1   13.72    0.93
   3  -2  -1   14.87    0.91
   3  -2  -1   15.69    0.91
  -3   2   1   14.46    0.76
  -3   2   1   15.24    0.85
   2  -2  -1  219.83    6.80
   2  -2  -1  214.70    6.62
   2  -2  -1  218.76    6.69
   2  -2  -1  222.19    6.75
  -2   2   1  212.22    6.60
  -2   2   1  221.52    6.73
  -2   2   1  217.19    6.67
  -2   2   1  221.69    6.66
   1  -2  -1  205.57    6.31
   1  -2  -1  208.35    6.21
   1  -2  -1  202.93    6.16
   1  -2  -1  211.36    6.00
   1  -2  -1  199.43    6.26
  -1   2   1  207.54    6.10
  -1   2   1  206.76    6.16
  -1   2   1  194.19    6.24
  -1   2   1  203.15    6.18
   0  -2  -1  110.30    3.39
   0  -2  -1  112.32    3.62
   0  -2  -1  106.30    3.54
   0  -2  -1  104.90    3.36
   0   2   1  106.16    3.30
   0   2   1  109.10    3.54
   0   2   1  108.26    3.56
  -1  -2  -1   95.93    3.02
  -1  -2  -1   97.97    3.07
  -1  -2  -1  101.09    3.45
   1   2   1  101.90    3.30
   1   2   1   96.94    3.38
   1   2   1   94.14    2.90
   1   2   1  101.99    3.05
  -2  -2  -1    5.11    0.29
  -2  -2  -1    4.01    0.63
   2   2   1    4.35    0.51
   2   2   1    4.44    0.63
   2   2   1    5.15    0.70
   2   2   1    4.85    0.53
   3   2   1  119.03    4.45
   3   2   1  124.70    4.49
   3   2   1  124.81    4.03
   4   2   1   10.20    1.18
   5   2   1    6.99    1.13
   5   2   1    7.51    1.15
   6   2   1    2.89    0.96
   6   2   1    1.77    0.81
   7  -3  -1    8.83    1.39
   7  -3  -1    9.28    1.41
   6  -3  -1    8.29    1.23
   6  -3  -1    5.25    0.97
   5  -3  -1   26.29    1.68
   5  -3  -1   28.17    1.58
   5  -3  -1   27.43    1.68
  -5   3   1   31.01    1.31
   4  -3  -1   39.38    1.95
   4  -3  -1   40.30    1.86
   4  -3  -1   40.50    1.98
  -4   3   1   39.00    1.64
  -4   3   1   39.10    1.78
   3  -3  -1    8.30    0.86
   3  -3  -1    9.56    0.88
   3  -3  -1   10.63    0.82
  -3   3   1    7.35    0.62
  -3   3   1    8.88    0.77
   2  -3  -1    5.03    0.64
   2  -3  -1    5.55    0.55
   2  -3  -1    5.26    0.67
   2  -3  -1    4.54    0.62
  -2   3   1    5.59    0.54
  -2   3   1    4.63    0.57
  -2   3   1    4.77    0.53
   1  -3  -1    2.67    0.43
   1  -3  -1    1.11    0.31
   1  -3  -1    1.70    0.32
   1  -3  -1    1.91    0.42
  -1   3   1    2.01    0.41
  -1   3   1    2.31    0.29
   0  -3  -1  124.41    3.88
   0  -3  -1  116.57    4.10
   0  -3  -1  120.80    3.49
   0  -3  -1  115.70    3.79
   0   3   1  122.94    4.08
   0   3   1  123.03    3.66
   0   3   1  121.13    3.62
  -1  -3  -1   41.67    1.57
  -1  -3  -1   40.92    1.90
   1   3   1   46.34    1.94
   1   3   1   44.55    1.85
  -2  -3  -1    0.69    0.40
  -2  -3  -1    0.19    0.19
   2   3   1    0.56    0.27
   2   3   1    0.26    0.29
  -3  -3  -1   45.87    2.34
  -3  -3  -1   47.18    1.53
   3   3   1   44.76    2.24
   3   3   1   47.69    1.97
   3   3   1   43.28    2.24
  -4  -3  -1   -0.57    0.33
   4   3   1    1.29    0.35
   4   3   1    1.72    0.60
   4   3   1    0.79    0.54
  -5  -3  -1   29.25    2.07
   5   3   1   29.94    2.02
   5   3   1   27.05    1.92
  -6  -3  -1   -1.31    0.62
   6   3   1   -0.12    0.59
   6   3   1   -0.11    0.42
   6  -4  -1    2.62    0.76
   6  -4  -1    3.55    0.83
   5  -4  -1   24.56    1.64
   5  -4  -1   21.39    1.52
   5  -4  -1   22.72    1.50
  -5   4   1   23.35    1.27
   4  -4  -1   10.39    1.19
   4  -4  -1    8.84    1.03
   4  -4  -1    9.45    1.10
  -4   4   1    9.68    0.81
  -4   4   1    9.63    0.99
  -4   4   1   10.52    1.00
   3  -4  -1   13.06    0.99
   3  -4  -1   11.46    0.94
   3  -4  -1   11.34    1.14
  -3   4   1   11.76    0.82
  -3   4   1   12.28    0.90
  -3   4   1   11.03    0.97
   2  -4  -1  107.89    3.90
   2  -4  -1  109.09    3.55
   2  -4  -1  109.32    3.98
   2  -4  -1  109.11    3.83
  -2   4   1  110.53    3.61
  -2   4   1  112.04    3.70
  -2   4   1  105.31    3.87
   1  -4  -1   10.43    1.01
   1  -4  -1    9.23    0.87
   1  -4  -1   10.60    0.85
  -1   4   1    9.41    0.95
  -1   4   1    9.79    0.61
  -1   4   1   10.86    0.60
   0  -4  -1   13.95    0.51
   0  -4  -1   14.49    0.88
   0  -4  -1   14.14    1.03
   0   4   1   14.14    1.00
   0   4   1   14.35    0.54
   0   4   1   14.65    0.54
  -1  -4  -1   65.28    2.34
  -1  -4  -1   64.17    2.75
   1   4   1   61.33    2.68
   1   4   1   67.04    2.66
  -2  -4  -1   14.32    0.79
  -2  -4  -1   13.77    1.38
   2   4   1   13.43    1.33
   2   4   1   12.93    0.98
  -3  -4  -1   49.89    1.76
  -3  -4  -1   50.66    2.58
   3   4   1   49.20    2.20
   3   4   1   45.57    2.40
  -4  -4  -1   11.80    1.51
   4   4   1    9.56    1.31
   4   4   1    8.26    0.91
  -5  -4  -1    2.78    0.96
   5   4   1    2.87    0.78
   6  -5  -1    6.12    1.11
   6  -5  -1    5.13    1.00
   6  -5  -1    3.04    0.84
  -6   5   1    5.13    0.95
   5  -5  -1    8.33    1.17
   5  -5  -1    7.19    1.09
   5  -5  -1   10.33    1.32
  -5   5   1    8.01    1.07
  -5   5   1   10.90    1.09
   4  -5  -1    3.78    0.74
   4  -5  -1    3.97    0.78
   4  -5  -1    3.35    0.78
  -4   5   1    4.29    0.72
  -4   5   1    3.46    0.68
   3  -5  -1   39.25    2.09
   3  -5  -1   38.11    1.98
   3  -5  -1   39.95    2.00
  -3   5   1   38.38    1.96
  -3   5   1   41.68    1.86
   2  -5  -1   22.59    1.12
   2  -5  -1   24.90    1.46
   2  -5  -1   27.68    1.53
   2  -5  -1   25.70    1.55
  -2   5   1   24.42    1.19
  -2   5   1   27.17    1.53
  -2   5   1   27.01    1.28
   1  -5  -1    5.03    0.81
   1  -5  -1    4.88    0.73
   1  -5  -1    6.63    0.90
  -1   5   1    6.38    0.52
  -1   5   1    5.54    0.50
  -1   5   1    6.66    0.89
   0  -5  -1   32.49    1.78
   0  -5  -1   31.88    1.02
   0  -5  -1   31.73    1.55
   0   5   1   31.91    1.75
  -1  -5  -1   -0.14    0.28
  -1  -5  -1    0.21    0.43
   1   5   1   -0.01    0.28
  -2  -5  -1   34.34    2.05
  -2  -5  -1   33.34    1.51
   2   5   1   36.56    2.04
   2   5   1   33.31    1.84
  -3  -5  -1    0.33    0.58
   3   5   1    0.77    0.45
   3   5   1    1.38    0.44
  -4  -5  -1    0.13    0.64
   4   5   1    0.52    0.45
   4   5   1    1.15    0.45
  -5  -5  -1   11.72    1.77
   5   5   1   15.41    1.86
   5  -6  -1   29.58    1.96
   5  -6  -1   28.88    2.06
   5  -6  -1   33.38    2.03
  -5   6   1   33.83    1.94
  -5   6   1   30.20    1.83
   4  -6  -1   -0.12    0.48
   4  -6  -1    0.17    0.41
   4  -6  -1    0.73    0.55
  -4   6   1    0.66    0.42
  -4   6   1    0.50    0.41
   3  -6  -1    0.07    0.42
   3  -6  -1   -0.09    0.46
   3  -6  -1    0.34    0.39
  -3   6   1   -0.49    0.21
  -3   6   1    0.07    0.31
   2  -6  -1   62.89    2.83
   2  -6  -1   63.65    2.98
   2  -6  -1   64.28    2.80
  -2   6   1   63.10    2.40
  -2   6   1   65.98    2.53
  -2   6   1   61.85    2.89
   0  -6  -1   23.22    1.58
   0  -6  -1   22.35    1.37
   0  -6  -1   23.15    1.58
   0   6   1   20.94    1.51
  -1  -6  -1    1.52    0.51
  -1  -6  -1    1.05    0.59
   1   6   1    2.00    0.61
  -2  -6  -1    1.49    0.49
  -2  -6  -1    1.51    0.70
   2   6   1    0.93    0.48
  -3  -6  -1   48.47    2.80
   3   6   1   47.39    2.46
   3   6   1   45.34    2.66
  -4  -6  -1    1.85    0.90
   4   6   1    2.32    0.69
   4   6   1    3.20    0.91
   5  -7  -1    4.68    1.08
   5  -7  -1    4.18    1.05
   5  -7  -1    5.71    1.05
  -5   7   1    4.56    0.97
   4  -7  -1   10.89    1.49
   4  -7  -1    8.30    1.24
   4  -7  -1   10.17    1.27
  -4   7   1   10.30    1.15
  -4   7   1   11.72    1.42
   3  -7  -1    6.98    1.15
   3  -7  -1    8.91    1.17
   3  -7  -1    7.87    1.18
  -3   7   1    7.33    0.83
  -3   7   1   10.59    1.34
   2  -7  -1    1.41    0.66
   2  -7  -1    2.14    0.80
   2  -7  -1    1.66    0.64
  -2   7   1    1.73    0.35
  -2   7   1    2.06    0.69
   1  -7  -1   22.97    1.72
   1  -7  -1   20.98    1.59
   1  -7  -1   20.07    1.49
  -1   7   1   22.88    1.65
   0  -7  -1   16.56    1.28
   0  -7  -1   14.70    1.58
   0  -7  -1   14.79    1.67
   0   7   1   17.25    1.44
  -1  -7  -1    4.69    0.79
  -1  -7  -1    2.53    0.82
   1   7   1    6.17    1.02
  -2  -7  -1    7.47    1.29
  -2  -7  -1    9.67    1.03
   2   7   1    8.01    1.22
  -3  -7  -1    0.52    0.74
   3   7   1    0.34    0.50
   3  -8  -1    0.75    0.74
   3  -8  -1    1.89    0.88
   3  -8  -1    2.73    0.76
  -3   8   1    2.03    0.49
  -3   8   1    3.36    0.83
   2  -8  -1    6.36    1.11
   2  -8  -1    7.73    1.18
   2  -8  -1    5.56    1.14
  -2   8   1    7.89    1.27
   1  -8  -1    0.11    0.55
   1  -8  -1    0.37    0.42
   1  -8  -1    0.10    0.51
  -1   8   1    0.90    0.59
   0  -8  -1   20.42    1.55
   0  -8  -1   20.71    2.03
   0  -8  -1   18.95    2.08
   0   8   1   20.08    2.04
  -1  -8  -1   -0.58    0.53
  -1  -8  -1    0.56    0.59
  -1  -8  -1    0.49    0.67
   1   8   1    0.45    0.48
   1   9  -2    1.99    0.73
  -1  -9   2    0.80    0.65
   0   9  -2    1.59    0.69
   0  -9   2    1.75    0.82
  -1   9  -2    3.97    0.98
   1  -9   2    3.20    0.96
  -2   9  -2    6.57    1.20
   2  -9   2    5.56    1.10
   2  -9   2    4.24    1.13
   3   8  -2    9.29    1.34
  -3  -8   2    9.96    1.42
  -3  -8   2    9.53    1.38
   2   8  -2   18.93    1.61
  -2  -8   2   20.00    2.00
  -2  -8   2   22.22    1.67
   1   8  -2   10.61    1.45
  -1  -8   2   11.52    1.29
  -1  -8   2    9.35    1.35
   0   8  -2   18.95    1.89
   0  -8   2   15.76    1.20
   0  -8   2   17.26    1.81
  -1   8  -2    1.23    0.64
   1  -8   2    0.72    0.46
  -2   8  -2   30.14    2.06
   2  -8   2   28.89    2.06
   2  -8   2   28.54    1.88
  -3   8  -2   13.61    1.65
  -3   8  -2   15.33    0.98
   3  -8   2   14.72    1.64
   3  -8   2   10.74    1.53
   3  -8   2   17.02    1.72
   4  -8   2    0.50    0.66
   4  -8   2    0.75    0.73
   4  -8   2    1.62    0.69
   4   7  -2    8.08    1.14
  -4  -7   2    6.89    1.02
  -4  -7   2    6.99    1.25
   3   7  -2   10.76    1.33
  -3  -7   2   12.87    1.52
  -3  -7   2   13.75    1.15
   2   7  -2   13.21    1.45
  -2  -7   2   16.23    1.63
  -2  -7   2   16.24    1.33
   1   7  -2   11.07    1.32
  -1  -7   2   12.14    1.21
  -1  -7   2   14.02    1.50
   0   7  -2   13.01    1.43
   0  -7   2   13.99    1.50
   0  -7   2    8.45    0.93
  -1   7  -2    2.24    0.66
   1  -7   2    1.30    0.38
   1  -7   2    2.23    0.65
  -2   7  -2    4.80    0.89
  -2   7  -2    1.06    0.31
   2  -7   2    2.22    0.69
  -3   7  -2    5.36    0.96
  -3   7  -2    5.32    0.72
   3  -7   2    5.12    0.90
   3  -7   2    5.09    0.88
   3  -7   2    5.27    1.06
  -4   7  -2    9.93    1.11
   4  -7   2   11.71    1.35
   4  -7   2    9.24    1.35
   4  -7   2   12.60    1.46
   5  -7   2    0.91    0.65
   5  -7   2   -0.35    0.55
   5   6  -2    4.46    1.03
  -5  -6   2    3.64    1.04
  -5  -6   2    4.94    0.98
   4   6  -2   -0.06    0.44
  -4  -6   2   -0.10    0.42
  -4  -6   2   -0.31    0.51
   3   6  -2    9.80    1.12
  -3  -6   2   11.05    1.16
  -3  -6   2    7.54    1.10
   2   6  -2   21.95    1.44
  -2  -6   2   18.50    1.32
   1   6  -2   25.18    1.60
  -1  -6   2   26.28    1.43
  -1  -6   2   28.46    1.06
  -1  -6   2   27.68    1.65
   0   6  -2   60.21    2.73
   0  -6   2   60.84    2.15
   0  -6   2   56.76    2.29
   0  -6   2   63.37    2.73
  -1   6  -2    2.52    0.61
   1  -6   2    3.12    0.69
  -2   6  -2   34.55    1.47
  -2   6  -2   35.02    1.48
  -2   6  -2   31.64    1.85
   2  -6   2   30.24    1.87
   2  -6   2   35.29    1.62
   2  -6   2   32.54    1.39
  -3   6  -2   37.61    2.01
   3  -6   2   29.69    1.94
   3  -6   2   38.29    1.95
   3  -6   2   34.81    1.77
   3  -6   2   36.01    1.96
   3  -6   2   36.07    1.56
   4  -6   2    3.73    0.81
   4  -6   2    4.38    0.79
   4  -6   2    4.24    0.88
   4  -6   2    4.82    0.82
   5  -6   2   18.29    1.74
   5  -6   2   14.31    1.41
   5  -6   2   14.19    1.64
   5  -6   2   15.24    1.77
   6   5  -2    1.80    0.76
   6   5  -2    1.17    0.60
  -6  -5   2    1.77    0.82
   5   5  -2   11.62    1.47
   5   5  -2   10.87    1.33
  -5  -5   2    8.89    1.22
   4   5  -2   45.79    2.41
   4   5  -2   46.92    2.29
   4   5  -2   46.65    2.11
  -4  -5   2   43.04    2.22
  -4  -5   2   44.45    2.06
   3   5  -2   74.96    2.93
   3   5  -2   71.59    3.02
  -3  -5   2   67.47    2.88
   2   5  -2    4.35    0.68
  -2  -5   2    5.16    0.78
   1   5  -2   14.36    1.06
  -1  -5   2   15.07    1.06
  -1  -5   2   15.02    0.60
  -1  -5   2   14.78    0.93
   0   5  -2    5.70    0.76
   0  -5   2    5.51    0.75
   0  -5   2    4.72    0.45
   0  -5   2    5.55    0.57
  -1   5  -2   55.16    1.82
  -1   5  -2   50.61    2.30
  -1   5  -2   53.43    1.81
  -1   5  -2   50.43    1.91
   1  -5   2   51.81    2.31
   1  -5   2   51.37    1.84
   1  -5   2   53.17    2.00
  -2   5  -2   28.31    1.33
  -2   5  -2   30.30    1.61
   2  -5   2   30.73    1.61
   2  -5   2   28.06    1.63
   2  -5   2   30.79    1.23
   2  -5   2   29.22    1.41
   3  -5   2    3.48    0.49
   3  -5   2    4.37    0.74
   3  -5   2    5.37    0.78
   3  -5   2    5.03    0.69
   3  -5   2    4.96    0.86
   4  -5   2   22.00    1.25
   4  -5   2   24.26    1.67
   4  -5   2   22.07    1.38
   4  -5   2   20.27    1.35
   4  -5   2   23.30    1.44
   5  -5   2    2.44    0.61
   5  -5   2    1.80    0.75
   5  -5   2    1.72    0.60
   5  -5   2    1.75    0.66
   6  -5   2    4.96    1.17
   6  -5   2    6.19    0.98
   6   4  -2   25.87    1.94
   6   4  -2   25.45    1.76
  -6  -4   2   25.20    1.91
   5   4  -2   -0.18    0.32
   5   4  -2    0.26    0.39
  -5  -4   2    0.00    0.47
   4   4  -2    9.24    1.03
   4   4  -2    6.37    0.94
  -4  -4   2    7.40    0.77
  -4  -4   2    7.21    0.98
   3   4  -2   64.41    2.63
   3   4  -2   66.55    2.57
   3   4  -2   66.06    2.74
  -3  -4   2   68.65    2.58
  -3  -4   2   66.56    2.70
   2   4  -2    0.09    0.18
   2   4  -2    0.14    0.20
   1   4  -2  102.55    3.71
  -1  -4   2  106.87    3.08
  -1  -4   2  103.66    3.07
  -1  -4   2  107.56    3.54
  -1  -4   2  106.67    3.66
   0   4  -2   33.25    1.61
   0  -4   2   35.33    1.27
   0  -4   2   35.20    1.30
   0  -4   2   34.65    1.58
   0  -4   2   33.98    1.27
  -1   4  -2   27.65    1.12
  -1   4  -2   26.86    1.39
  -1   4  -2   27.82    1.01
   1  -4   2   26.65    1.18
   1  -4   2   25.84    1.37
   1  -4   2   25.94    0.98
   1  -4   2   27.76    1.41
  -2   4  -2  156.71    4.97
  -2   4  -2  150.74    4.75
   2  -4   2  153.22    4.74
   2  -4   2  153.88    5.01
   2  -4   2  155.49    5.30
   2  -4   2  159.09    5.20
  -3   4  -2   17.88    1.09
   3  -4   2   18.81    1.29
   3  -4   2   17.00    0.94
   3  -4   2   17.68    1.10
   3  -4   2   18.75    1.12
   4  -4   2   20.08    1.29
   4  -4   2   21.48    1.27
   4  -4   2   22.07    1.27
   4  -4   2   21.11    1.50
   4  -4   2   23.06    1.27
   5  -4   2   16.84    1.26
   5  -4   2   15.85    1.77
   5  -4   2   20.09    1.28
   5  -4   2   17.44    1.26
   6  -4   2   -0.06    0.54
   6  -4   2   -0.08    0.45
   6  -4   2   -0.16    0.42
   6   3  -2    1.21    0.58
   6   3  -2   -0.15    0.36
  -6  -3   2    1.41    0.68
   5   3  -2   26.82    1.73
   5   3  -2   24.90    1.52
  -5  -3   2   23.57    1.65
   4   3  -2   36.88    1.97
   4   3  -2   40.23    1.83
  -4  -3   2   38.73    1.97
  -4  -3   2   37.99    1.55
   3   3  -2   24.12    1.22
   3   3  -2   23.72    1.34
  -3  -3   2   23.82    1.34
  -3  -3   2   25.21    1.16
   2   3  -2   52.91    2.03
   2   3  -2   52.65    2.06
  -2  -3   2   53.56    2.03
  -2  -3   2   52.88    2.00
   1   3  -2    0.20    0.20
   1   3  -2   -0.01    0.13
  -1  -3   2    0.12    0.17
  -1  -3   2    0.09    0.14
  -1  -3   2    0.01    0.18
  -1  -3   2   -0.18    0.13
   0   3  -2    7.16    0.31
   0   3  -2    6.14    0.64
   0   3  -2    7.03    0.55
   0  -3   2    6.59    0.41
   0  -3   2    7.22    0.66
   0  -3   2    6.20    0.64
   0  -3   2    5.81    0.31
   0  -3   2    7.22    0.35
  -1   3  -2   89.17    2.86
  -1   3  -2   86.37    2.60
   1  -3   2   86.51    2.59
   1  -3   2   90.59    2.90
   1  -3   2   82.41    3.05
   1  -3   2   87.77    3.07
  -2   3  -2   34.41    1.51
  -2   3  -2   37.41    1.37
   2  -3   2   37.15    1.60
   2  -3   2   37.36    1.37
   2  -3   2   36.75    1.55
   2  -3   2   37.75    1.74
  -3   3  -2   16.53    1.02
   3  -3   2   19.59    1.26
   3  -3   2   16.09    0.91
   3  -3   2   16.99    1.01
   3  -3   2   15.35    0.91
   3  -3   2   15.84    0.96
   4  -3   2    9.30    0.94
   4  -3   2   10.10    0.91
   4  -3   2    8.83    0.93
   4  -3   2   10.27    1.23
   4  -3   2    8.92    0.73
   5  -3   2   10.69    1.18
   5  -3   2   10.27    1.37
   5  -3   2   10.99    1.09
   6  -3   2   16.06    1.38
   6  -3   2   11.23    1.57
   6  -3   2    9.66    1.28
   7   2  -2    4.70    0.97
   7   2  -2    3.51    1.05
   6   2  -2   69.41    3.12
   6   2  -2   70.70    3.43
  -6  -2   2   74.37    3.39
   5   2  -2    4.90    0.79
   5   2  -2    4.75    0.91
  -5  -2   2    3.59    0.79
   4   2  -2    2.06    0.54
   4   2  -2    2.17    0.45
  -4  -2   2    2.00    0.56
  -4  -2   2    2.69    0.31
  -4  -2   2    2.09    0.29
   3   2  -2   20.79    1.21
   3   2  -2   23.63    1.07
  -3  -2   2   22.14    0.95
  -3  -2   2   19.39    1.18
  -3  -2   2   20.87    0.93
  -3  -2   2   22.43    1.05
   2   2  -2   14.90    0.86
   2   2  -2   16.73    0.76
  -2  -2   2   16.37    0.76
  -2  -2   2   15.41    0.78
   1   2  -2  709.52   20.77
  -1  -2   2  719.78   20.75
  -1  -2   2  733.16   20.78
  -1  -2   2  726.22   20.80
  -1  -2   2  715.79   20.91
   0   2  -2   -0.06    0.04
   0   2  -2   -0.16    0.12
   0   2  -2    0.02    0.10
   0  -2   2   -0.06    0.11
   0  -2   2   -0.04    0.04
   0  -2   2   -0.22    0.13
   0  -2   2   -0.01    0.14
  -1   2  -2   65.93    2.04
  -1   2  -2   63.58    2.35
  -1   2  -2   66.63    2.26
   1  -2   2   68.97    2.28
   1  -2   2   65.99    2.35
   1  -2   2   67.13    2.05
   1  -2   2   66.96    2.39
  -2   2  -2   80.11    2.83
   2  -2   2   83.52    3.02
   2  -2   2   83.56    2.73
   2  -2   2   82.64    2.84
   2  -2   2   81.49    2.84
  -3   2  -2   43.46    1.90
   3  -2   2   45.95    1.90
   3  -2   2   48.78    1.93
   3  -2   2   49.48    1.85
   3  -2   2   44.96    2.13
   4  -2   2  118.03    3.83
   4  -2   2  119.93    3.90
   4  -2   2  113.11    4.48
   4  -2   2  119.58    4.10
   4  -2   2  119.47    4.24
   5  -2   2    5.00    0.84
   5  -2   2    1.88    0.60
   5  -2   2    4.28    0.67
   6  -2   2    2.04    0.73
   6  -2   2    0.69    0.47
   6  -2   2    2.20    0.69
   7   1  -2    1.65    0.66
   7   1  -2    0.05    0.63
   6   1  -2    0.42    0.42
   6   1  -2    0.73    0.58
   5   1  -2   46.74    2.15
   5   1  -2   45.97    2.39
  -5  -1   2   48.09    2.36
   4   1  -2   23.85    1.47
   4   1  -2   26.29    1.32
  -4  -1   2   26.60    1.46
  -4  -1   2   26.47    0.88
  -4  -1   2   26.22    0.87
   3   1  -2    7.08    0.78
   3   1  -2    7.88    0.54
  -3  -1   2    7.99    0.80
  -3  -1   2    7.51    0.51
  -3  -1   2    7.71    0.44
  -3  -1   2    6.99    0.42
   2   1  -2   14.95    0.84
  -2  -1   2   17.81    0.76
  -2  -1   2   16.06    0.65
   1   1  -2  121.09    3.69
   1   1  -2  119.09    3.73
  -1  -1   2  118.31    3.73
  -1  -1   2  119.96    3.60
  -1  -1   2  118.60    3.46
  -1  -1   2  117.62    3.68
   0   1  -2  306.24    9.27
   0   1  -2  315.51    9.18
   0   1  -2  315.20    9.38
   0   1  -2  323.24    9.25
   0  -1   2  322.40    9.25
   0  -1   2  305.99    9.18
   0  -1   2  318.38    9.29
   0  -1   2  327.24    9.39
  -1   1  -2   95.52    2.94
  -1   1  -2   92.61    3.00
  -1   1  -2   87.38    3.05
   1  -1   2   91.33    2.99
   1  -1   2   92.49    3.03
   1  -1   2   93.74    3.08
  -2   1  -2   13.77    0.79
   2  -1   2   13.12    0.76
   2  -1   2   13.28    0.76
   2  -1   2   14.07    0.77
   2  -1   2   14.97    0.94
   3  -1   2    5.96    0.40
   3  -1   2    5.93    0.69
   3  -1   2    7.03    0.68
   3  -1   2    7.14    0.88
   3  -1   2    6.58    0.63
   4  -1   2   33.86    1.88
   4  -1   2   31.44    1.48
   4  -1   2   30.55    1.65
   4  -1   2   32.83    1.35
   5  -1   2   -0.23    0.29
   5  -1   2    0.31    0.32
   5  -1   2   -0.63    0.35
   6  -1   2   10.41    1.39
   6  -1   2    8.94    1.41
   7   0  -2    7.11    1.12
   7   0  -2    6.90    1.25
   6   0  -2   38.55    2.11
   6   0  -2   43.56    2.45
   5   0  -2    1.22    0.45
   5   0  -2    2.18    0.53
  -5   0   2    2.20    0.66
   4   0  -2  149.84    4.84
   4   0  -2  147.45    4.32
   4   0  -2  143.36    5.12
  -4   0   2  149.06    4.31
  -4   0   2  143.84    5.04
   3   0  -2    5.24    0.35
   3   0  -2    3.81    0.58
   3   0  -2    4.64    0.49
  -3   0   2    4.79    0.63
  -3   0   2    4.64    0.35
  -3   0   2    5.00    0.48
   2   0  -2   41.97    1.71
   2   0  -2   44.72    1.56
   2   0  -2   43.85    1.44
  -2   0   2   44.13    1.56
  -2   0   2   42.51    1.66
  -2   0   2   43.62    1.43
   1   0  -2  261.47    7.89
   1   0  -2  265.83    7.63
   1   0  -2  263.75    7.91
   1   0  -2  265.95    7.81
  -1   0   2  261.86    7.90
  -1   0   2  260.85    7.89
  -1   0   2  272.15    7.83
   0   0  -2   66.98    2.31
   0   0  -2   68.08    2.20
   0   0  -2   65.96    2.25
   0   0  -2   66.47    2.23
   0   0   2   68.00    2.32
   0   0   2   67.17    2.23
   0   0   2   68.89    2.21
   0   0   2   65.60    2.25
  -1   0  -2   29.05    1.19
  -1   0  -2   29.38    1.27
  -1   0  -2   27.70    1.24
   1   0   2   30.84    1.31
   1   0   2   30.92    1.18
   1   0   2   29.34    1.24
  -2   0  -2    3.82    0.47
   2   0   2    4.25    0.62
   2   0   2    4.56    0.57
   2   0   2    4.71    0.51
   2   0   2    4.17    0.45
   3   0   2   11.73    0.88
   3   0   2   12.80    0.76
   3   0   2   12.30    0.74
   3   0   2   11.80    0.95
   4   0   2   67.89    3.13
   4   0   2   73.56    3.05
   4   0   2   69.06    2.48
   4   0   2   76.67    2.63
   5   0   2   13.50    1.58
   5   0   2   14.03    0.90
   5   0   2   15.40    1.56
   6   0   2   -0.18    0.49
   6   0   2    0.80    0.64
   7  -1  -2   -0.17    0.53
   7  -1  -2    0.36    0.46
   6  -1  -2   10.61    1.19
   6  -1  -2    9.70    1.28
   5  -1  -2    0.46    0.35
   5  -1  -2    0.72    0.39
   4  -1  -2   81.16    2.70
   4  -1  -2   82.37    3.29
   4  -1  -2   85.42    3.05
  -4   1   2   87.27    2.70
  -4   1   2   81.85    3.18
   3  -1  -2    7.58    0.56
   3  -1  -2    8.32    0.58
   3  -1  -2    8.37    0.87
  -3   1   2    8.94    0.60
  -3   1   2    8.20    0.67
  -3   1   2    8.00    0.52
   2  -1  -2    7.51    0.71
   2  -1  -2    5.81    0.43
  -2   1   2    6.88    0.50
  -2   1   2    5.16    0.45
  -2   1   2    6.19    0.47
  -2   1   2    5.94    0.42
   1  -1  -2    6.61    0.43
   0  -1  -2   96.37    3.28
   0  -1  -2   99.82    3.15
   0  -1  -2   94.26    3.17
   0   1   2   97.21    3.25
   0   1   2   96.55    3.03
   0   1   2   95.85    3.12
   0   1   2   98.55    3.18
  -1  -1  -2  380.31   11.41
  -1  -1  -2  385.70   11.65
   1   1   2  396.28   11.55
   1   1   2  391.65   11.35
   1   1   2  387.53   11.63
   1   1   2  380.68   11.16
  -2  -1  -2   33.30    1.63
   2   1   2   33.20    1.44
   2   1   2   33.27    1.29
   2   1   2   32.78    1.64
   3   1   2    0.67    0.38
   3   1   2    0.45    0.25
   3   1   2    0.45    0.22
   3   1   2    0.20    0.28
   4   1   2   19.50    0.95
   4   1   2   18.37    1.35
   4   1   2   20.35    1.50
   4   1   2   19.80    1.03
   5   1   2    2.69    0.78
   5   1   2    2.10    0.71
   6   1   2   18.99    2.11
   6   1   2   23.24    2.23
   7  -2  -2    3.12    0.79
   7  -2  -2    2.47    0.88
   6  -2  -2   34.27    2.13
   6  -2  -2   33.67    1.97
   5  -2  -2    0.97    0.49
   5  -2  -2    1.13    0.42
  -5   2   2    2.01    0.31
   4  -2  -2  104.98    3.83
   4  -2  -2  111.34    4.11
  -4   2   2  109.78    3.59
   3  -2  -2   51.34    2.14
   3  -2  -2   47.15    1.98
   3  -2  -2   49.34    1.95
  -3   2   2   45.65    1.92
  -3   2   2   44.17    1.84
  -3   2   2   50.35    1.88
   2  -2  -2   78.05    2.75
   2  -2  -2   79.25    2.79
   2  -2  -2   75.39    2.89
  -2   2   2   80.17    2.61
  -2   2   2   78.70    2.77
  -2   2   2   77.31    2.73
   1  -2  -2   48.69    1.81
   1  -2  -2   46.13    1.79
   1  -2  -2   46.98    1.82
   1  -2  -2   47.22    1.97
  -1   2   2   49.14    1.80
  -1   2   2   49.26    1.52
  -1   2   2   45.04    1.87
   0  -2  -2    0.23    0.22
   0  -2  -2    0.10    0.18
   0  -2  -2   -0.14    0.22
   0   2   2    0.27    0.18
   0   2   2    0.34    0.24
   0   2   2    0.42    0.20
   0   2   2    0.21    0.19
  -1  -2  -2   21.09    1.20
  -1  -2  -2   26.05    1.37
   1   2   2   23.66    0.98
   1   2   2   26.82    1.26
   1   2   2   24.49    1.30
  -2  -2  -2   45.87    2.17
   2   2   2   47.09    1.62
   2   2   2   47.98    1.96
   2   2   2   47.89    1.95
   2   2   2   45.92    2.13
  -3  -2  -2    8.06    1.06
   3   2   2    6.22    0.72
   3   2   2    6.87    0.97
   3   2   2    6.68    0.41
  -4  -2  -2   15.70    1.67
   4   2   2   19.12    1.48
   4   2   2   18.32    1.07
   4   2   2   20.24    1.52
  -5  -2  -2   10.39    1.51
   5   2   2   10.94    1.46
   5   2   2   11.49    1.53
  -6  -2  -2    0.04    0.69
   6   2   2   -0.13    0.60
   6   2   2   -0.41    0.57
   7  -3  -2    5.23    1.00
   7  -3  -2    4.37    1.06
   6  -3  -2   20.34    1.51
   6  -3  -2   19.44    1.55
   5  -3  -2    0.40    0.42
   5  -3  -2    0.89    0.45
  -5   3   2   -0.04    0.22
   4  -3  -2    9.38    1.08
   4  -3  -2    8.26    0.95
   4  -3  -2    8.78    0.99
  -4   3   2    6.91    0.73
  -4   3   2    8.34    0.91
  -4   3   2    6.52    0.75
   3  -3  -2    2.13    0.52
   3  -3  -2    2.29    0.54
   3  -3  -2    1.85    0.46
  -3   3   2    1.79    0.39
  -3   3   2    1.42    0.38
  -3   3   2    1.57    0.39
   2  -3  -2  126.99    3.91
   2  -3  -2  122.51    4.38
   2  -3  -2  123.38    4.27
   2  -3  -2  121.92    4.21
  -2   3   2  128.30    4.17
  -2   3   2  124.35    4.27
  -2   3   2  125.99    4.05
   1  -3  -2   30.18    1.35
   1  -3  -2   29.03    1.36
   1  -3  -2   27.81    1.49
  -1   3   2   26.95    1.17
  -1   3   2   30.82    1.49
  -1   3   2   29.27    1.28
   0  -3  -2    9.78    0.68
   0  -3  -2    6.82    0.85
   0   3   2   10.21    0.96
   0   3   2    7.71    0.53
   0   3   2    9.06    0.91
  -1  -3  -2  109.92    3.41
  -1  -3  -2  110.41    4.00
   1   3   2  101.99    3.84
   1   3   2  102.31    3.77
   1   3   2  102.79    3.23
  -2  -3  -2    3.69    0.72
  -2  -3  -2    3.77    0.39
   2   3   2    3.37    0.46
   2   3   2    2.88    0.62
   2   3   2    2.74    0.54
  -3  -3  -2   49.02    2.52
   3   3   2   45.38    2.39
   3   3   2   49.14    2.15
   4   3   2    0.18    0.39
   4   3   2    0.18    0.31
  -5  -3  -2    2.26    0.92
   5   3   2    2.89    0.80
   6  -4  -2   32.57    2.04
   6  -4  -2   34.41    2.18
  -6   4   2   31.40    1.94
   5  -4  -2    2.46    0.70
   5  -4  -2    1.82    0.61
   5  -4  -2    2.13    0.64
  -5   4   2    2.13    0.47
  -5   4   2    2.00    0.60
   4  -4  -2  116.99    4.47
   4  -4  -2  126.70    4.62
   4  -4  -2  119.28    4.43
  -4   4   2  122.14    4.38
  -4   4   2  118.74    4.29
   3  -4  -2    0.68    0.40
   3  -4  -2    1.34    0.49
   3  -4  -2    0.14    0.39
  -3   4   2    0.33    0.27
  -3   4   2    0.95    0.38
  -3   4   2    0.63    0.32
   2  -4  -2    1.28    0.44
   2  -4  -2    1.25    0.25
   2  -4  -2    0.73    0.41
   2  -4  -2    2.00    0.47
  -2   4   2    0.84    0.31
  -2   4   2    1.03    0.29
  -2   4   2    1.43    0.46
   1  -4  -2   86.49    3.32
   1  -4  -2   83.71    3.34
   1  -4  -2   87.06    3.11
  -1   4   2   83.11    2.83
  -1   4   2   85.32    2.95
  -1   4   2   83.30    3.29
   0  -4  -2    6.86    0.73
   0  -4  -2    7.79    1.00
   0   4   2    6.97    0.47
   0   4   2    7.23    0.45
   0   4   2    6.82    0.88
  -1  -4  -2   55.10    2.10
  -1  -4  -2   54.08    2.57
   1   4   2   54.79    2.43
   1   4   2   54.91    2.53
  -2  -4  -2    2.61    0.43
  -2  -4  -2    1.80    0.65
   2   4   2    2.22    0.57
   2   4   2    3.01    0.74
  -3  -4  -2   -0.01    0.41
   3   4   2    0.12    0.32
   3   4   2   -0.78    0.29
  -4  -4  -2   11.14    1.52
   4   4   2   14.03    1.11
   4   4   2   11.81    1.52
  -5  -4  -2    1.76    0.79
   5   4   2    1.82    0.76
   6  -5  -2   10.99    1.49
   6  -5  -2    7.89    1.27
  -6   5   2    9.36    1.24
   5  -5  -2    1.61    0.66
   5  -5  -2    1.12    0.58
   5  -5  -2    1.30    0.62
  -5   5   2    1.45    0.58
  -5   5   2    0.75    0.44
   4  -5  -2   -0.28    0.42
   4  -5  -2    0.05    0.43
   4  -5  -2    0.08    0.40
  -4   5   2    0.25    0.35
  -4   5   2    0.22    0.33
   3  -5  -2    1.27    0.54
   3  -5  -2    1.92    0.62
   3  -5  -2    2.19    0.66
  -3   5   2    0.88    0.44
  -3   5   2    2.25    0.50
   2  -5  -2   32.49    1.86
   2  -5  -2   33.20    1.89
   2  -5  -2   35.48    1.80
  -2   5   2   31.65    1.44
  -2   5   2   33.24    1.57
  -2   5   2   31.93    1.83
   1  -5  -2    0.16    0.40
   1  -5  -2    0.05    0.30
   1  -5  -2   -0.03    0.40
  -1   5   2   -0.03    0.18
  -1   5   2   -0.17    0.18
  -1   5   2   -0.17    0.31
   0  -5  -2   25.43    1.66
   0  -5  -2   25.68    1.39
   0   5   2   23.34    0.83
   0   5   2   21.20    1.45
   0   5   2   23.95    0.84
  -1  -5  -2   19.69    1.14
  -1  -5  -2   18.46    1.50
   1   5   2   18.05    1.35
  -2  -5  -2    1.31    0.44
  -2  -5  -2    1.78    0.64
   2   5   2    1.99    0.64
   2   5   2    2.59    0.65
  -3  -5  -2   30.33    2.18
   3   5   2   33.58    1.95
   3   5   2   29.30    2.06
  -4  -5  -2    0.11    0.65
   4   5   2    0.89    0.46
   4   5   2    1.28    0.63
   5  -6  -2    0.46    0.53
   5  -6  -2   -0.10    0.56
   5  -6  -2    0.55    0.55
  -5   6   2    0.04    0.38
  -5   6   2    0.95    0.55
   4  -6  -2   75.95    3.42
   4  -6  -2   68.70    3.32
   4  -6  -2   67.73    3.21
  -4   6   2   72.68    3.06
  -4   6   2   75.29    3.29
   3  -6  -2    1.02    0.58
   3  -6  -2    0.25    0.41
   3  -6  -2   -0.45    0.36
  -3   6   2    0.17    0.39
  -3   6   2   -0.07    0.28
   2  -6  -2    6.42    1.08
   2  -6  -2    5.33    0.96
   2  -6  -2    6.13    0.96
  -2   6   2    6.18    1.02
  -2   6   2    6.43    0.70
   1  -6  -2   10.27    1.15
   1  -6  -2   13.59    1.50
   1  -6  -2   13.24    1.50
  -1   6   2   13.45    0.71
  -1   6   2   12.43    0.67
  -1   6   2   10.92    1.32
   0  -6  -2   -0.24    0.43
   0  -6  -2    0.48    0.54
   0   6   2    0.35    0.38
  -1  -6  -2   74.42    3.54
  -1  -6  -2   77.18    2.98
   1   6   2   72.24    3.36
  -2  -6  -2    0.20    0.48
   2   6   2    0.98    0.52
  -3  -6  -2    0.44    0.71
   3   6   2   -0.23    0.27
   3   6   2    0.21    0.44
   4  -7  -2    0.35    0.53
   4  -7  -2    0.43    0.64
   4  -7  -2    0.32    0.58
  -4   7   2    0.33    0.49
  -4   7   2    0.50    0.49
   3  -7  -2   14.82    1.65
   3  -7  -2   13.94    1.64
   3  -7  -2   15.66    1.64
  -3   7   2   16.89    1.16
  -3   7   2   16.56    1.75
   2  -7  -2    8.59    1.23
   2  -7  -2    8.83    1.30
   2  -7  -2    9.78    1.40
  -2   7   2    9.66    1.36
  -2   7   2   10.65    0.75
   1  -7  -2    0.91    0.57
   1  -7  -2    1.29    0.68
   1  -7  -2    1.69    0.71
  -1   7   2    0.96    0.61
   0  -7  -2    1.57    0.70
   0  -7  -2    2.58    0.86
   0  -7  -2    2.21    0.68
   0   7   2    2.64    0.74
  -1  -7  -2   17.49    1.49
  -1  -7  -2   15.82    1.84
   1   7   2   17.17    1.82
  -2  -7  -2    2.65    0.91
   2   7   2    2.62    0.82
   2  -8  -2    9.00    1.35
   2  -8  -2    8.86    1.29
   2  -8  -2    6.27    1.28
  -2   8   2    8.92    1.40
   1  -8  -2    6.53    1.10
   1  -8  -2    5.81    1.18
   1  -8  -2    8.04    1.36
  -1   8   2    7.64    1.32
   0  -8  -2    0.80    0.69
   0  -8  -2    2.30    0.88
   0  -8  -2    2.09    0.88
   0   8   2    1.45    0.65
   1   9  -3    3.91    0.94
  -1  -9   3    3.01    0.92
  -1  -9   3    3.87    0.97
   0   9  -3    5.82    1.13
   0  -9   3    5.44    1.13
   0  -9   3    4.38    0.96
  -1   9  -3    0.12    0.41
   1  -9   3    0.25    0.38
   1  -9   3    0.11    0.58
   2  -9   3    6.24    1.15
   2  -9   3    3.65    0.95
   3   8  -3    1.16    0.59
  -3  -8   3    1.21    0.55
  -3  -8   3    0.78    0.59
  -3  -8   3    1.94    0.66
  -3  -8   3    1.15    0.68
   2   8  -3   10.85    1.43
  -2  -8   3    9.23    1.34
  -2  -8   3   12.02    1.51
  -2  -8   3   10.88    1.28
   1   8  -3   14.75    1.62
  -1  -8   3   14.39    1.67
  -1  -8   3   14.40    1.64
   0   8  -3   44.56    2.56
   0  -8   3   43.02    2.54
   0  -8   3   45.14    2.52
  -1   8  -3   38.79    2.38
   1  -8   3   39.51    2.34
   1  -8   3   41.39    2.40
   2  -8   3    4.93    1.05
   2  -8   3    2.81    0.79
  -3   8  -3    7.23    0.80
   3  -8   3    6.21    1.10
   3  -8   3    5.81    1.03
   3  -8   3    7.15    1.29
  -4  -7   3   15.50    1.57
  -4  -7   3   14.78    1.71
  -4  -7   3   17.11    1.69
   3   7  -3   23.00    1.63
  -3  -7   3   23.11    1.63
  -3  -7   3   21.05    1.56
  -3  -7   3   22.96    1.63
   2   7  -3   31.97    1.95
  -2  -7   3   31.16    1.95
  -2  -7   3   31.26    1.76
  -2  -7   3   32.99    1.92
   1   7  -3    2.18    0.61
  -1  -7   3    0.81    0.49
  -1  -7   3    0.31    0.31
  -1  -7   3    0.96    0.50
   0   7  -3    0.08    0.28
   0  -7   3    0.10    0.32
   0  -7   3    0.13    0.41
  -1   7  -3    2.23    0.67
   1  -7   3    2.83    0.74
   1  -7   3    3.45    0.77
  -2   7  -3   17.75    0.95
   2  -7   3   19.87    1.52
   2  -7   3   18.21    1.80
  -3   7  -3    1.31    0.44
   3  -7   3    1.89    0.61
   3  -7   3    0.78    0.65
   4  -7   3    3.72    0.84
   4  -7   3    3.35    0.98
   4  -7   3    3.29    0.82
   5   6  -3   12.31    1.56
  -5  -6   3    9.32    1.34
   4   6  -3    2.59    0.67
  -4  -6   3    3.05    0.75
  -4  -6   3    4.57    0.78
   3   6  -3    1.24    0.50
  -3  -6   3    1.04    0.46
  -3  -6   3    1.89    0.64
   2   6  -3   53.91    2.51
  -2  -6   3   49.00    2.26
  -2  -6   3   53.57    2.42
  -2  -6   3   53.23    2.49
   1   6  -3   16.61    1.26
  -1  -6   3   16.19    0.78
  -1  -6   3   16.69    1.29
  -1  -6   3   19.30    1.26
  -1  -6   3   15.04    0.97
   0   6  -3   81.07    3.53
   0  -6   3   90.01    3.61
   0  -6   3   89.31    3.01
   0  -6   3   88.47    2.93
   0  -6   3   91.07    3.53
  -1   6  -3   68.85    2.18
  -1   6  -3   72.19    2.21
   1  -6   3   69.47    2.99
   1  -6   3   68.91    2.59
   1  -6   3   69.68    2.18
   1  -6   3   60.80    2.93
  -2   6  -3    4.64    0.60
   2  -6   3    5.20    0.70
   2  -6   3    4.41    0.82
   2  -6   3    3.28    0.77
   3  -6   3   20.40    1.45
   3  -6   3   21.73    1.65
   4  -6   3    9.13    1.12
   5  -6   3    6.68    1.25
   5  -6   3    8.75    1.22
   6   5  -3   11.75    1.64
  -6  -5   3   11.09    1.54
   5   5  -3    3.19    0.67
   5   5  -3    3.10    0.84
  -5  -5   3    2.50    0.78
   4   5  -3   22.68    1.57
  -4  -5   3   22.53    1.56
  -4  -5   3   24.30    1.42
   3   5  -3   61.94    2.68
  -3  -5   3   64.58    2.68
   2   5  -3   30.26    1.50
  -2  -5   3   32.77    1.71
  -2  -5   3   32.56    1.60
  -1  -5   3   15.92    0.91
  -1  -5   3   17.69    1.21
  -1  -5   3   18.21    0.77
  -1  -5   3   17.66    1.10
   0  -5   3   50.19    1.65
   0  -5   3   48.74    1.62
   0  -5   3   47.44    1.80
   0  -5   3   48.37    2.14
   0  -5   3   46.22    2.21
  -1   5  -3   10.96    0.65
   1  -5   3   10.13    1.05
   1  -5   3   11.60    1.17
   1  -5   3   10.80    0.76
  -2   5  -3   36.90    1.65
   2  -5   3   36.02    1.90
   2  -5   3   38.85    2.02
   2  -5   3   39.88    1.78
   2  -5   3   38.61    1.27
   3  -5   3    1.35    0.51
   3  -5   3    1.66    0.33
   3  -5   3    2.12    0.54
   3  -5   3    1.34    0.44
   4  -5   3    8.61    1.28
   4  -5   3    4.94    0.80
   4  -5   3    6.70    0.90
   4  -5   3    5.75    0.86
   5  -5   3    7.62    1.04
   5  -5   3    6.17    0.96
   5  -5   3    6.80    1.23
   6   4  -3    0.18    0.46
   6   4  -3    0.20    0.41
  -6  -4   3    0.08    0.59
   5   4  -3   41.84    2.04
   5   4  -3   43.06    2.34
  -5  -4   3   44.50    2.38
   4   4  -3   11.37    1.22
   4   4  -3   10.64    0.84
  -4  -4   3   11.14    1.26
  -4  -4   3    8.97    0.76
   3   4  -3   -0.09    0.20
  -3  -4   3    0.21    0.26
   2   4  -3   28.77    1.32
  -2  -4   3   26.38    1.41
  -2  -4   3   27.70    1.30
   1   4  -3  153.28    4.78
  -1  -4   3  162.08    4.86
  -1  -4   3  150.91    5.17
  -1  -4   3  153.92    5.00
  -1  -4   3  151.74    4.66
   0   4  -3  348.71    9.88
   0  -4   3  342.15   10.58
   0  -4   3  350.67   10.17
   0  -4   3  342.27    9.81
   0  -4   3  336.42   10.41
   0  -4   3  334.89    9.81
  -1   4  -3   35.78    1.45
   1  -4   3   36.38    1.72
   1  -4   3   34.07    1.49
   1  -4   3   35.87    1.70
  -2   4  -3    1.45    0.36
  -2   4  -3    0.88    0.18
   2  -4   3    1.66    0.44
   2  -4   3    1.07    0.35
   2  -4   3    1.59    0.49
   2  -4   3    1.26    0.20
  -3   4  -3   35.38    1.74
   3  -4   3   37.69    2.03
   3  -4   3   35.30    1.79
   3  -4   3   36.45    1.48
   3  -4   3   38.62    1.81
   4  -4   3    6.41    0.80
   4  -4   3    6.15    0.72
   4  -4   3    4.68    0.69
   4  -4   3    4.54    0.93
   4  -4   3    4.56    0.75
   5  -4   3   46.46    2.33
   5  -4   3   50.41    2.33
   5  -4   3   51.49    2.82
   5  -4   3   53.86    2.47
   6  -4   3    4.78    1.08
   6  -4   3    4.59    0.89
   7   3  -3    3.97    1.06
  -7  -3   3    2.49    0.97
   6   3  -3    3.81    0.76
   6   3  -3    3.31    0.87
  -6  -3   3    4.05    0.97
   5   3  -3    4.19    0.83
   5   3  -3    4.66    0.69
  -5  -3   3    2.94    0.76
   4   3  -3   76.69    2.85
   4   3  -3   79.68    3.26
  -4  -3   3   77.39    2.79
  -4  -3   3   82.24    3.28
   3   3  -3   48.23    2.09
  -3  -3   3   49.52    1.93
  -3  -3   3   45.33    1.82
   2   3  -3   78.83    2.78
  -2  -3   3   75.05    2.62
  -2  -3   3   79.25    2.84
  -2  -3   3   78.84    2.41
  -2  -3   3   78.78    2.62
   1   3  -3    8.29    0.50
  -1  -3   3    8.67    0.67
  -1  -3   3    8.77    0.56
  -1  -3   3    9.19    0.51
  -1  -3   3    9.59    0.50
   0   3  -3   29.01    1.14
   0   3  -3   30.06    1.31
   0  -3   3   28.51    1.39
   0  -3   3   29.70    1.30
   0  -3   3   31.33    1.23
  -1   3  -3   18.33    0.93
   1  -3   3   18.56    1.06
   1  -3   3   15.84    1.01
   1  -3   3   18.07    0.94
  -2   3  -3   13.10    0.63
  -2   3  -3   11.37    0.81
   2  -3   3   12.05    0.87
   2  -3   3   12.52    1.17
   2  -3   3   12.37    0.84
   2  -3   3   12.27    0.63
  -3   3  -3    3.61    0.60
   3  -3   3    4.12    0.62
   3  -3   3    3.99    0.61
   3  -3   3    2.99    0.71
   3  -3   3    3.95    0.52
   4  -3   3    0.54    0.38
   4  -3   3    0.41    0.32
   4  -3   3   -0.16    0.18
   4  -3   3    0.82    0.53
   4  -3   3    0.59    0.32
   5  -3   3    6.19    1.13
   5  -3   3    5.33    0.79
   5  -3   3    4.90    0.83
   6  -3   3    2.78    0.72
   6  -3   3    2.48    0.75
   6  -3   3    1.96    0.73
   7   2  -3    7.77    1.41
  -7  -2   3    5.98    1.24
   6   2  -3   10.57    1.13
   6   2  -3   11.36    1.46
  -6  -2   3   10.23    1.38
   5   2  -3   19.50    1.47
   5   2  -3   19.75    1.14
  -5  -2   3   17.96    1.41
   3   2  -3  103.98    3.25
   3   2  -3  100.96    3.65
  -3  -2   3  101.68    3.39
  -3  -2   3  101.36    3.24
   2   2  -3    0.91    0.27
  -2  -2   3    1.31    0.20
  -2  -2   3    1.11    0.30
  -2  -2   3    1.38    0.23
  -2  -2   3    1.70    0.21
   1   2  -3  192.96    5.56
   1   2  -3  187.55    5.51
   1   2  -3  185.40    5.63
  -1  -2   3  185.20    5.64
  -1  -2   3  182.94    5.85
  -1  -2   3  182.94    5.61
  -1  -2   3  187.47    5.54
   0   2  -3  194.42    5.71
   0   2  -3  197.12    5.94
   0   2  -3  186.72    5.92
   0  -2   3  200.01    6.14
   0  -2   3  193.92    5.72
   0  -2   3  199.64    5.95
   0  -2   3  191.37    5.95
  -1   2  -3  152.43    4.89
  -1   2  -3  152.99    4.65
   1  -2   3  152.21    4.98
   1  -2   3  155.70    5.01
   1  -2   3  158.23    4.92
  -2   2  -3   69.87    2.41
  -2   2  -3   66.95    2.51
   2  -2   3   67.43    2.69
   2  -2   3   63.54    2.34
   2  -2   3   68.68    2.56
   2  -2   3   68.13    2.52
  -3   2  -3   21.28    1.22
   3  -2   3   20.32    1.38
   3  -2   3   21.25    1.19
   3  -2   3   21.99    1.15
   3  -2   3   18.60    1.11
   4  -2   3   13.42    1.05
   4  -2   3   13.34    0.77
   4  -2   3   11.96    0.90
   4  -2   3   14.96    1.57
   4  -2   3   14.18    1.02
   5  -2   3   52.04    2.88
   5  -2   3   62.43    2.56
   5  -2   3   58.37    2.72
   6  -2   3    6.80    1.11
   6  -2   3    9.75    1.56
   6  -2   3    6.76    0.92
   7   1  -3    5.32    1.16
   6   1  -3    4.12    0.91
   6   1  -3    4.86    0.77
  -6  -1   3    3.71    0.91
   5   1  -3   -0.05    0.31
   5   1  -3    0.50    0.31
  -5  -1   3   -0.05    0.41
   4   1  -3    6.78    0.53
   4   1  -3    6.31    0.76
   4   1  -3    5.83    0.83
  -4  -1   3    6.45    0.50
  -4  -1   3    4.60    0.76
  -4  -1   3    5.94    0.47
   3   1  -3  181.97    6.07
   3   1  -3  188.66    5.56
  -3  -1   3  187.42    5.79
  -3  -1   3  187.21    5.54
  -3  -1   3  188.03    6.08
   2   1  -3  122.70    4.07
  -2  -1   3  125.01    4.01
  -2  -1   3  122.67    3.89
   1   1  -3   44.27    1.54
   1   1  -3   41.43    1.34
   1   1  -3   43.06    1.59
  -1  -1   3   43.30    1.58
  -1  -1   3   40.81    1.34
  -1  -1   3   41.34    1.68
   0   1  -3   24.68    1.12
   0   1  -3   26.35    1.07
   0   1  -3   25.38    1.07
   0  -1   3   25.66    1.23
   0  -1   3   26.55    1.14
   0  -1   3   26.80    1.08
   0  -1   3   26.65    1.07
  -2   1  -3   82.36    2.93
  -2   1  -3   81.15    2.92
   2  -1   3   83.21    2.90
   2  -1   3   79.01    2.93
   2  -1   3   80.63    3.09
   3  -1   3    7.08    0.78
   3  -1   3    7.39    0.84
   3  -1   3    6.98    0.75
   3  -1   3    6.81    0.96
   3  -1   3    6.88    0.41
   4  -1   3    2.15    0.69
   4  -1   3    0.78    0.35
   4  -1   3    1.50    0.48
   4  -1   3    1.49    0.42
   5  -1   3    6.49    1.18
   5  -1   3    4.70    0.72
   5  -1   3    5.50    0.95
   6  -1   3    1.38    0.67
   6  -1   3    1.01    0.68
   6  -1   3    0.74    0.48
   7   0  -3   13.59    1.73
   6   0  -3   40.79    2.02
   6   0  -3   42.30    2.44
  -6   0   3   38.06    2.26
   5   0  -3   19.77    1.16
   5   0  -3   19.82    1.42
  -5   0   3   20.28    0.84
  -5   0   3   20.67    1.45
   4   0  -3   11.55    0.73
   4   0  -3   12.33    1.00
  -4   0   3   12.75    0.69
  -4   0   3   11.24    0.96
  -4   0   3   10.71    0.68
   3   0  -3  197.19    6.55
   3   0  -3  203.05    6.03
  -3   0   3  196.67    6.44
  -3   0   3  214.55    6.31
  -3   0   3  199.81    6.01
  -3   0   3  199.62    6.23
   2   0  -3   35.47    1.58
   2   0  -3   38.05    1.19
   2   0  -3   36.22    1.18
  -2   0   3   33.77    1.44
  -2   0   3   37.48    1.54
   1   0  -3   12.63    0.77
   1   0  -3   12.63    0.58
   1   0  -3   11.82    0.70
  -1   0   3   12.00    0.71
  -1   0   3   13.00    0.58
  -1   0   3   13.43    0.82
   0   0  -3    3.28    0.45
   0   0  -3    4.72    0.49
   0   0  -3    3.22    0.44
   0   0   3    3.21    0.41
   0   0   3    3.77    0.54
   0   0   3    3.17    0.42
  -1   0  -3   39.40    1.70
  -1   0  -3   42.03    1.66
   1   0   3   38.52    1.72
   1   0   3   41.11    1.62
   1   0   3   39.59    1.71
  -2   0  -3   24.53    1.33
   2   0   3   25.00    1.40
   2   0   3   24.82    1.27
   2   0   3   22.67    1.15
  -3   0  -3   78.46    3.20
   3   0   3   80.82    3.34
   3   0   3   81.90    2.90
   3   0   3   79.82    3.16
   3   0   3   78.16    2.94
  -4   0  -3    1.34    0.56
   4   0   3    0.34    0.31
   4   0   3    0.03    0.28
   4   0   3    0.28    0.38
   4   0   3    0.39    0.37
  -5   0  -3   20.14    1.65
   5   0   3   15.13    1.64
   5   0   3   19.91    2.04
   5   0   3   17.50    1.09
  -6   0  -3    5.89    1.21
   6   0   3    8.36    1.38
   6   0   3    6.94    1.32
   7  -1  -3    0.63    0.69
   6  -1  -3   20.94    1.67
   6  -1  -3   21.02    1.38
   5  -1  -3    5.85    0.74
   5  -1  -3    5.86    0.96
  -5   1   3    5.26    0.88
  -5   1   3    6.00    0.48
   4  -1  -3    0.29    0.23
   4  -1  -3    0.34    0.34
  -4   1   3   -0.09    0.33
  -4   1   3    0.25    0.20
  -4   1   3    0.41    0.27
   3  -1  -3   33.54    1.35
   3  -1  -3   30.79    1.63
  -3   1   3   34.20    1.34
  -3   1   3   34.97    1.54
  -3   1   3   36.11    1.57
  -3   1   3   34.35    1.49
   2  -1  -3    4.94    0.56
   2  -1  -3    5.27    0.68
   2  -1  -3    5.06    0.47
   2  -1  -3    5.12    0.39
  -2   1   3    5.80    0.61
  -2   1   3    5.75    0.57
  -2   1   3    6.79    0.71
   1  -1  -3  576.76   16.72
   1  -1  -3  557.48   16.58
   1  -1  -3  569.14   16.89
  -1   1   3  556.21   16.71
  -1   1   3  587.68   16.88
   0  -1  -3   31.64    1.53
   0  -1  -3   32.16    1.43
   0  -1  -3   33.39    1.46
   0   1   3   35.53    1.57
   0   1   3   35.26    1.44
   0   1   3   33.37    1.31
   0   1   3   33.62    1.45
  -1  -1  -3   36.84    1.72
  -1  -1  -3   37.11    1.56
   1   1   3   35.02    1.47
   1   1   3   35.79    1.28
   1   1   3   32.45    1.60
   1   1   3   37.96    1.70
  -2  -1  -3   37.13    1.89
   2   1   3   35.86    1.90
   2   1   3   40.55    1.61
   2   1   3   41.90    1.81
  -3  -1  -3    1.08    0.48
   3   1   3    1.27    0.48
   3   1   3    0.74    0.37
   3   1   3    0.89    0.30
  -4  -1  -3    9.76    1.27
   4   1   3   11.12    0.88
   4   1   3   15.00    1.64
   4   1   3   11.42    0.77
  -5  -1  -3    0.88    0.65
   5   1   3    0.05    0.39
   5   1   3    0.23    0.29
   7  -2  -3    1.11    0.76
   6  -2  -3   20.13    1.91
   6  -2  -3   15.28    1.21
   5  -2  -3   53.51    2.30
   5  -2  -3   51.93    2.63
  -5   2   3   53.28    2.06
  -5   2   3   51.18    2.35
   4  -2  -3   10.80    0.84
   4  -2  -3   12.25    1.29
  -4   2   3   13.97    1.17
  -4   2   3   12.14    0.82
  -4   2   3   10.64    1.06
   3  -2  -3  207.04    6.44
   3  -2  -3  203.97    6.81
  -3   2   3  205.15    6.52
  -3   2   3  206.68    6.55
  -3   2   3  199.16    6.41
   2  -2  -3    1.56    0.35
   2  -2  -3    2.28    0.46
   2  -2  -3    2.03    0.48
   2  -2  -3    1.86    0.39
  -2   2   3    1.54    0.37
  -2   2   3    1.85    0.38
   1  -2  -3    5.76    0.64
   1  -2  -3    6.08    0.78
  -1   2   3    6.44    0.77
  -1   2   3    6.26    0.37
  -1   2   3    5.56    0.61
   0  -2  -3    3.15    0.60
   0  -2  -3    1.54    0.43
   0   2   3    2.69    0.49
   0   2   3    2.64    0.52
   0   2   3    2.86    0.44
  -1  -2  -3    0.81    0.40
   1   2   3    0.21    0.16
   1   2   3    0.40    0.22
   1   2   3    0.29    0.23
   1   2   3    0.02    0.23
  -2  -2  -3    8.33    1.05
   2   2   3    7.63    0.64
   2   2   3    6.32    0.90
   2   2   3    7.89    0.91
  -3  -2  -3   39.63    2.19
   3   2   3   36.99    2.14
   3   2   3   39.03    1.49
   3   2   3   36.98    1.84
  -4  -2  -3    4.04    0.85
   4   2   3    3.06    0.59
   4   2   3    2.96    0.75
   4   2   3    3.12    0.36
  -5  -2  -3    6.36    1.22
   5   2   3   10.93    1.53
   7  -3  -3    5.77    1.22
   6  -3  -3    5.74    0.92
   6  -3  -3    7.36    1.20
  -6   3   3    7.56    1.07
   5  -3  -3    1.39    0.61
   5  -3  -3    1.28    0.43
  -5   3   3    1.41    0.54
  -5   3   3    1.09    0.37
   4  -3  -3    4.44    0.80
   4  -3  -3    3.72    0.65
  -4   3   3    3.74    0.60
  -4   3   3    4.43    0.72
  -4   3   3    3.57    0.61
   3  -3  -3   -0.11    0.27
   3  -3  -3    0.18    0.27
   3  -3  -3    0.03    0.27
  -3   3   3   -0.04    0.24
  -3   3   3   -0.09    0.22
  -3   3   3   -0.29    0.21
   2  -3  -3    2.03    0.51
   2  -3  -3    1.73    0.53
   2  -3  -3    2.42    0.49
  -2   3   3    2.75    0.59
  -2   3   3    2.64    0.48
   1  -3  -3  243.02    7.87
   1  -3  -3  237.11    7.49
  -1   3   3  239.60    7.47
  -1   3   3  238.86    7.75
   0  -3  -3    1.61    0.39
   0  -3  -3    2.26    0.59
   0   3   3    1.69    0.36
   0   3   3    2.02    0.49
   0   3   3    1.63    0.43
  -1  -3  -3   89.61    3.67
   1   3   3   91.47    3.53
   1   3   3   90.86    3.01
   1   3   3   93.10    2.86
   1   3   3   85.64    3.52
  -2  -3  -3   -0.04    0.42
   2   3   3    0.23    0.33
   2   3   3    0.17    0.17
   2   3   3   -0.25    0.20
  -3  -3  -3    1.13    0.58
   3   3   3    0.35    0.50
   3   3   3    0.72    0.39
  -4  -3  -3   21.00    2.10
   4   3   3   21.82    2.12
   4   3   3   21.99    1.43
  -5  -3  -3    0.84    0.61
   5   3   3    0.66    0.51
   6  -4  -3   16.40    1.86
   6  -4  -3   16.02    1.63
  -6   4   3   16.92    1.68
   5  -4  -3   24.52    1.74
   5  -4  -3   22.37    1.58
  -5   4   3   21.63    1.53
  -5   4   3   25.83    1.49
   4  -4  -3    1.89    0.58
   4  -4  -3    0.98    0.52
   4  -4  -3    0.55    0.52
  -4   4   3    0.55    0.40
  -4   4   3    0.55    0.39
   3  -4  -3  191.95    6.58
   3  -4  -3  178.88    6.31
   3  -4  -3  182.94    6.30
  -3   4   3  178.94    6.30
  -3   4   3  197.59    6.25
   2  -4  -3   17.65    1.18
   2  -4  -3   16.95    1.18
   2  -4  -3   13.23    1.35
  -2   4   3   14.02    1.10
  -2   4   3   13.57    0.90
  -2   4   3   16.70    1.05
   1  -4  -3   27.05    1.46
   1  -4  -3   26.51    1.70
  -1   4   3   31.02    1.40
  -1   4   3   25.54    1.61
  -1   4   3   27.60    1.25
   0  -4  -3    0.61    0.38
   0  -4  -3    0.14    0.43
   0   4   3    0.25    0.22
   0   4   3    0.01    0.31
   0   4   3    0.49    0.23
  -1  -4  -3    5.43    0.99
  -1  -4  -3    5.15    0.64
   1   4   3    5.72    0.90
   1   4   3    4.06    0.80
   1   4   3    4.34    0.40
  -2  -4  -3   33.24    2.11
   2   4   3   34.31    1.93
   2   4   3   32.65    2.03
  -3  -4  -3    0.99    0.61
   3   4   3    1.69    0.59
   3   4   3    1.63    0.72
  -4  -4  -3    3.44    0.91
   4   4   3    1.48    0.54
   4   4   3    2.48    0.90
   6  -5  -3    0.91    0.57
   6  -5  -3    2.24    0.85
  -6   5   3    1.90    0.76
   5  -5  -3   10.29    1.44
   5  -5  -3   10.38    1.35
   5  -5  -3    8.20    1.27
  -5   5   3   11.43    1.26
  -5   5   3   10.19    1.23
   4  -5  -3   -0.06    0.34
   4  -5  -3    0.23    0.42
   4  -5  -3    0.00    0.42
  -4   5   3    0.24    0.38
  -4   5   3    0.13    0.38
   3  -5  -3    4.18    0.85
   3  -5  -3    5.23    0.94
   3  -5  -3    5.01    0.87
  -3   5   3    5.69    0.80
  -3   5   3    3.96    0.79
   2  -5  -3    1.55    0.64
   2  -5  -3    1.79    0.62
   2  -5  -3    2.01    0.58
  -2   5   3    1.79    0.59
  -2   5   3    1.16    0.40
   1  -5  -3   66.30    2.72
   1  -5  -3   64.16    2.92
   1  -5  -3   67.58    3.09
  -1   5   3   67.09    2.46
  -1   5   3   64.10    2.96
  -1   5   3   57.07    2.33
   0  -5  -3    4.91    0.75
   0  -5  -3    4.09    0.86
   0   5   3    3.80    0.43
   0   5   3    3.18    0.37
   0   5   3    2.45    0.70
  -1  -5  -3   21.18    1.21
  -1  -5  -3   17.84    1.85
   1   5   3   21.25    1.53
  -2  -5  -3    6.98    1.26
   2   5   3    8.45    1.30
   2   5   3    6.46    1.04
  -3  -5  -3    7.49    1.29
   3   5   3    9.81    1.29
   3   5   3    9.15    1.47
   5  -6  -3    9.63    1.43
   5  -6  -3   10.36    1.47
   5  -6  -3    5.49    1.16
  -5   6   3   11.35    1.32
  -5   6   3   11.97    1.40
   4  -6  -3    0.58    0.51
   4  -6  -3    0.63    0.61
   4  -6  -3    1.01    0.61
  -4   6   3    0.45    0.48
  -4   6   3    0.18    0.40
   3  -6  -3   45.78    2.42
   3  -6  -3   46.44    2.55
   3  -6  -3   42.58    2.54
  -3   6   3   46.85    2.52
  -3   6   3   44.74    2.16
   2  -6  -3   -0.59    0.41
   2  -6  -3   -0.33    0.44
   2  -6  -3    0.43    0.40
  -2   6   3   -0.17    0.30
  -2   6   3   -0.24    0.36
   1  -6  -3   51.69    2.72
   1  -6  -3   54.61    2.86
   1  -6  -3   52.08    2.44
  -1   6   3   45.33    2.58
  -1   6   3   49.91    1.94
   0  -6  -3   -0.35    0.40
   0  -6  -3    0.02    0.57
   0   6   3   -0.07    0.35
  -1  -6  -3    0.97    0.74
  -1  -6  -3   -0.11    0.47
   1   6   3    0.84    0.52
  -2  -6  -3    5.23    1.21
   2   6   3    6.34    1.12
   4  -7  -3    2.84    0.86
   4  -7  -3    1.78    0.88
   4  -7  -3    1.52    0.75
  -4   7   3    1.86    0.73
   3  -7  -3    0.56    0.53
   3  -7  -3   -0.15    0.55
   3  -7  -3   -0.48    0.46
  -3   7   3   -0.02    0.38
  -3   7   3   -0.17    0.45
   2  -7  -3    1.20    0.72
   2  -7  -3    1.17    0.76
   2  -7  -3    0.60    0.59
  -2   7   3    0.08    0.32
  -2   7   3    0.62    0.58
   1  -7  -3   24.48    2.02
   1  -7  -3   25.29    1.99
   1  -7  -3   28.76    1.83
  -1   7   3   26.88    2.01
   0  -7  -3   -0.26    0.53
   0  -7  -3   -0.06    0.64
   0   7   3    0.01    0.37
  -1  -7  -3    7.37    1.42
   1   7   3    4.44    1.02
  -1  -9   4    0.12    0.57
  -1  -9   4    0.43    0.58
   0  -9   4    1.43    0.72
   0  -9   4    1.55    0.78
   1  -9   4    1.86    0.83
   1  -9   4    3.84    0.97
  -3  -8   4   13.14    1.58
  -3  -8   4    9.76    1.30
  -2  -8   4    9.58    1.34
  -2  -8   4    7.62    1.14
  -1  -8   4   33.14    1.99
  -1  -8   4   23.39    1.88
   0  -8   4    1.65    0.64
   0  -8   4    2.13    0.70
   1  -8   4   17.98    1.84
   1  -8   4   17.37    1.81
  -2   8  -4   17.60    0.65
   2  -8   4   19.33    2.00
   2  -8   4   19.61    1.63
  -3   8  -4    3.38    0.58
   3  -8   4    3.37    1.02
   3  -8   4    2.70    0.80
   4   7  -4   13.20    1.44
  -4  -7   4   13.77    1.46
  -4  -7   4   10.99    1.31
  -4  -7   4   12.55    1.58
  -4  -7   4   13.04    1.51
  -3  -7   4    1.54    0.59
  -3  -7   4    1.46    0.59
  -3  -7   4    1.92    0.61
  -2  -7   4   15.25    1.48
  -2  -7   4   18.56    1.22
  -2  -7   4   16.85    1.70
  -1  -7   4    0.88    0.50
  -1  -7   4    1.44    0.61
   0  -7   4    9.36    1.23
   0  -7   4   10.95    1.28
   1  -7   4    2.79    0.70
   1  -7   4    3.72    0.80
  -2   7  -4    2.46    0.43
   2  -7   4    2.87    0.74
   2  -7   4    3.00    0.81
   3  -7   4   27.53    1.87
   3  -7   4   26.72    1.99
   4  -7   4    7.35    1.12
   4  -7   4    7.13    1.16
   4  -7   4    6.68    1.30
   5   6  -4    5.07    1.04
  -5  -6   4    6.68    1.22
   4   6  -4   39.36    2.20
  -4  -6   4   45.43    2.20
  -4  -6   4   36.27    2.21
   3   6  -4    1.03    0.47
  -3  -6   4    0.91    0.45
  -3  -6   4    0.85    0.46
  -2  -6   4   22.30    1.35
  -2  -6   4   20.64    1.24
  -2  -6   4   23.42    1.55
  -1  -6   4   39.26    2.11
  -1  -6   4   38.71    1.54
  -1  -6   4   35.93    1.87
   0  -6   4   22.65    1.55
   0  -6   4   24.59    1.48
   1  -6   4   82.22    3.37
   1  -6   4   79.28    3.43
   2  -6   4    9.49    1.23
   2  -6   4   11.63    1.28
   3  -6   4   15.83    1.59
   3  -6   4   14.49    1.66
   4  -6   4    5.59    0.87
   4  -6   4    4.76    0.91
   4  -6   4    6.23    1.16
   6   5  -4   16.21    1.84
  -6  -5   4   14.34    1.72
   5   5  -4   10.66    1.35
  -5  -5   4   12.10    1.47
   4   5  -4    0.20    0.32
  -4  -5   4    0.43    0.41
  -4  -5   4    0.34    0.45
   3   5  -4   17.98    1.16
  -3  -5   4   16.03    1.18
  -3  -5   4   16.53    1.04
   2   5  -4    2.58    0.46
  -2  -5   4    2.41    0.58
  -2  -5   4    2.57    0.49
  -2  -5   4    2.07    0.30
  -1  -5   4    2.32    0.36
  -1  -5   4    1.81    0.46
  -1  -5   4    2.41    0.32
  -1  -5   4    2.12    0.34
  -1  -5   4    2.83    0.58
   0  -5   4   19.19    1.17
   0  -5   4   18.09    1.27
   0  -5   4   16.75    0.95
  -1   5  -4    1.26    0.30
   1  -5   4    0.74    0.42
   1  -5   4    1.20    0.37
   1  -5   4    0.79    0.40
   2  -5   4    0.95    0.48
   2  -5   4   -0.30    0.24
   2  -5   4   -0.24    0.29
   3  -5   4   20.90    1.58
   3  -5   4   18.93    1.40
   3  -5   4   22.59    1.43
   4  -5   4   17.42    1.90
   4  -5   4   17.23    1.31
   4  -5   4   18.94    1.38
   4  -5   4   17.12    1.25
   5  -5   4    9.09    1.54
   5  -5   4    6.63    1.04
   6   4  -4    3.07    0.86
  -6  -4   4    2.01    0.81
   5   4  -4    0.16    0.38
  -5  -4   4    0.30    0.30
  -5  -4   4    0.58    0.53
   4   4  -4   31.67    1.79
  -4  -4   4   33.20    1.63
  -4  -4   4   28.54    1.79
   3   4  -4   12.66    0.97
  -3  -4   4   12.77    0.63
  -3  -4   4   10.53    1.04
  -3  -4   4   13.27    0.80
   2   4  -4  117.84    3.92
  -2  -4   4  119.48    3.69
  -2  -4   4  121.34    3.87
  -2  -4   4  112.62    4.16
  -2  -4   4  112.79    3.83
   1   4  -4   20.79    0.85
  -1  -4   4   18.93    0.93
  -1  -4   4   22.00    1.29
  -1  -4   4   19.23    1.02
  -1  -4   4   17.64    0.81
   0   4  -4   48.23    1.71
   0  -4   4   47.59    1.99
   0  -4   4   47.40    1.87
   0  -4   4   47.50    2.17
  -1   4  -4  105.42    3.55
   1  -4   4  104.37    3.90
   1  -4   4  100.08    3.77
   1  -4   4  104.99    3.63
  -2   4  -4   26.20    0.88
  -2   4  -4   23.17    1.33
  -2   4  -4   26.61    0.91
   2  -4   4   25.39    1.42
   2  -4   4   26.53    1.53
   2  -4   4   27.52    1.60
  -3   4  -4   71.51    2.46
   3  -4   4   66.66    3.10
   3  -4   4   68.91    2.85
   3  -4   4   66.89    2.88
   4  -4   4    6.66    1.16
   4  -4   4    6.14    0.77
   4  -4   4    5.90    0.87
   4  -4   4    6.02    0.91
   5  -4   4    1.84    0.67
   5  -4   4    2.83    0.97
   7   3  -4   -0.71    0.38
  -7  -3   4    0.00    0.72
   6   3  -4   29.90    2.05
  -6  -3   4   26.80    1.98
   5   3  -4   13.43    1.47
   5   3  -4   10.81    0.77
  -5  -3   4   10.16    0.78
  -5  -3   4    9.69    1.27
   4   3  -4    0.24    0.31
  -4  -3   4    0.07    0.24
  -4  -3   4    0.00    0.39
   3   3  -4    7.25    0.82
  -3  -3   4    6.70    0.45
  -3  -3   4    6.95    0.77
  -3  -3   4    6.43    0.47
  -3  -3   4    6.35    0.45
   2   3  -4   24.74    1.19
  -2  -3   4   25.70    1.00
  -2  -3   4   24.30    1.31
  -2  -3   4   23.03    1.04
  -2  -3   4   24.79    1.00
   1   3  -4   85.09    2.67
   1   3  -4   69.35    2.51
  -1  -3   4   84.51    3.09
  -1  -3   4   85.00    2.73
  -1  -3   4   84.45    2.80
  -1  -3   4   82.59    2.65
   0   3  -4    2.77    0.19
   0   3  -4    3.14    0.42
   0  -3   4    3.06    0.21
   0  -3   4    2.97    0.46
   0  -3   4    2.42    0.45
   0  -3   4    2.11    0.49
   1  -3   4    0.41    0.22
  -2   3  -4    0.06    0.18
  -2   3  -4    0.34    0.19
  -2   3  -4    0.04    0.28
   2  -3   4    0.11    0.26
   2  -3   4    0.45    0.38
   2  -3   4    0.81    0.36
  -3   3  -4   27.08    1.56
  -3   3  -4   28.24    1.38
   3  -3   4   31.95    1.63
   3  -3   4   27.32    1.56
   3  -3   4   29.24    1.80
  -4   3  -4    4.16    0.77
   4  -3   4    4.37    0.73
   4  -3   4    4.42    0.56
   4  -3   4    3.58    0.64
   4  -3   4    4.40    0.96
   4  -3   4    3.38    0.69
   5  -3   4    1.97    0.83
   5  -3   4    1.94    0.69
   5  -3   4    2.15    0.61
   7   2  -4   12.49    1.72
  -7  -2   4   13.04    1.74
   6   2  -4    6.51    1.12
  -6  -2   4    8.21    1.28
   5   2  -4   40.60    2.25
   5   2  -4   43.58    1.70
  -5  -2   4   43.07    2.26
  -5  -2   4   38.91    1.66
   4   2  -4    9.67    1.10
   4   2  -4    9.54    0.54
  -4  -2   4   10.13    1.13
  -4  -2   4   11.49    0.80
  -4  -2   4    9.98    0.55
   3   2  -4    6.54    0.77
  -3  -2   4    7.91    0.66
  -3  -2   4    7.17    0.28
  -3  -2   4    6.88    0.61
  -3  -2   4    6.86    0.28
   2   2  -4   59.38    2.26
  -2  -2   4   58.23    2.13
  -2  -2   4   60.35    2.34
   1   2  -4  126.85    4.07
   1   2  -4  128.61    4.09
   1   2  -4  134.98    3.98
  -1  -2   4  129.06    4.40
  -1  -2   4  126.10    4.18
  -1  -2   4  128.01    3.95
   0   2  -4    2.78    0.41
   0   2  -4    3.67    0.39
   0   2  -4    3.02    0.43
   0  -2   4    3.09    0.53
   0  -2   4    2.84    0.36
   0  -2   4    2.07    0.38
   0  -2   4    2.74    0.41
  -1   2  -4   30.25    1.24
  -1   2  -4   28.82    1.41
  -1   2  -4   32.34    1.29
   1  -2   4   28.28    1.49
   1  -2   4   30.33    1.48
   1  -2   4   30.01    1.42
  -2   2  -4   35.21    1.73
  -2   2  -4   37.28    1.60
   2  -2   4   36.96    1.72
   2  -2   4   39.35    1.91
   2  -2   4   39.65    1.84
  -3   2  -4   72.40    2.82
   3  -2   4   69.28    2.88
   3  -2   4   73.56    2.88
   3  -2   4   72.02    3.15
  -4   2  -4   41.03    2.05
   4  -2   4   36.29    1.87
   4  -2   4   40.14    1.97
   4  -2   4   37.93    1.92
   4  -2   4   35.64    2.21
  -5   2  -4   -0.85    0.50
   5  -2   4    0.52    0.53
   5  -2   4   -0.20    0.42
   5  -2   4    0.00    0.37
   7   1  -4    1.43    0.79
  -7  -1   4    1.75    0.81
   6   1  -4    1.87    0.64
  -6  -1   4    2.19    0.77
   5   1  -4   67.87    3.11
   5   1  -4   68.93    2.45
  -5  -1   4   67.34    3.03
  -5  -1   4   69.08    2.44
   4   1  -4    8.34    0.45
   4   1  -4    7.79    0.96
  -4  -1   4    6.91    0.94
  -4  -1   4    9.05    0.80
  -4  -1   4    8.33    0.46
  -4  -1   4    9.12    0.70
   3   1  -4    8.62    0.94
  -3  -1   4    8.45    0.75
  -3  -1   4    8.24    0.70
   2   1  -4    2.26    0.42
  -2  -1   4    4.58    0.62
  -2  -1   4    2.67    0.40
   1   1  -4   16.59    0.89
   1   1  -4   16.05    0.90
   1   1  -4   16.95    0.72
  -1  -1   4   16.84    0.93
  -1  -1   4   16.89    1.02
  -1  -1   4   16.64    0.72
   0   1  -4  169.41    5.42
   0   1  -4  173.42    5.47
   0   1  -4  174.89    5.55
   0  -1   4  178.70    5.47
   0  -1   4  171.36    5.54
   0  -1   4  173.03    5.72
  -1   1  -4   10.50    0.80
  -1   1  -4   11.10    0.77
   1  -1   4   11.89    0.81
   1  -1   4   12.11    0.85
   1  -1   4   11.39    0.90
  -2   1  -4    1.33    0.41
  -2   1  -4    1.33    0.42
   2  -1   4    1.23    0.39
   2  -1   4    1.52    0.48
   2  -1   4    1.10    0.43
  -3   1  -4    8.59    0.98
   3  -1   4    7.25    0.83
   3  -1   4    7.69    1.10
   3  -1   4    8.74    0.99
  -4   1  -4    1.35    0.54
   4  -1   4    0.80    0.41
   4  -1   4    0.65    0.42
   4  -1   4    0.36    0.38
  -5   1  -4    5.86    1.12
   5  -1   4    4.41    0.76
   5  -1   4    7.20    1.29
   7   0  -4   16.49    1.89
   6   0  -4    0.09    0.34
  -6   0   4   -0.71    0.40
   5   0  -4   43.64    1.77
   5   0  -4   43.12    2.33
  -5   0   4   42.56    1.73
  -5   0   4   42.40    2.20
  -5   0   4   47.28    2.05
   4   0  -4   31.77    1.21
   4   0  -4   30.61    1.76
  -4   0   4   28.85    1.63
  -4   0   4   30.45    1.18
  -4   0   4   33.00    1.48
  -4   0   4   29.72    1.50
   3   0  -4    1.76    0.19
   3   0  -4    1.57    0.40
   3   0  -4    1.59    0.18
  -3   0   4    1.14    0.37
  -3   0   4    1.00    0.30
  -3   0   4    0.98    0.32
   2   0  -4   34.74    1.52
   2   0  -4   35.74    1.21
   2   0  -4   35.74    1.22
   2   0  -4   36.82    1.70
  -2   0   4   36.66    1.68
  -2   0   4   35.60    1.57
   1   0  -4   24.01    1.25
   1   0  -4   23.64    1.01
   1   0  -4   23.79    1.19
  -1   0   4   24.57    1.01
  -1   0   4   23.28    1.19
  -1   0   4   21.84    1.27
   0   0  -4   17.41    1.02
   0   0  -4   18.33    1.07
   0   0   4   15.69    1.08
   0   0   4   18.50    1.02
   0   0   4   18.40    0.99
  -1   0  -4   39.68    1.76
  -1   0  -4   38.85    1.82
   1   0   4   39.19    1.71
   1   0   4   38.01    1.82
   1   0   4   41.61    1.86
  -2   0  -4    2.96    0.61
   2   0   4    4.00    0.71
   2   0   4    4.38    0.59
   2   0   4    4.85    0.75
  -3   0  -4   17.89    1.37
   3   0   4   21.11    1.51
   3   0   4   21.76    1.33
   3   0   4   23.55    1.28
  -4   0  -4   45.60    2.44
   4   0   4   43.64    2.10
   4   0   4   47.23    2.05
   4   0   4   46.55    2.63
  -5   0  -4    1.68    0.65
   5   0   4    0.61    0.58
   5   0   4    0.56    0.43
   7  -1  -4    2.17    0.84
   6  -1  -4   -0.01    0.40
  -6   1   4    0.09    0.49
   5  -1  -4   36.34    1.59
   5  -1  -4   34.29    2.06
  -5   1   4   32.70    1.52
  -5   1   4   32.70    1.88
  -5   1   4   32.50    1.76
   4  -1  -4    0.76    0.40
   4  -1  -4    0.37    0.23
  -4   1   4    0.40    0.37
  -4   1   4    0.22    0.27
  -4   1   4    0.25    0.29
   3  -1  -4   94.81    3.02
   3  -1  -4   91.49    2.99
   3  -1  -4   87.68    3.54
  -3   1   4   93.16    3.34
  -3   1   4   91.19    3.29
  -3   1   4   90.45    3.36
   2  -1  -4   21.61    0.97
   2  -1  -4   21.46    1.00
   2  -1  -4   24.37    1.37
   2  -1  -4   20.40    1.15
  -2   1   4   21.53    1.28
  -2   1   4   22.52    1.20
   1  -1  -4    1.67    0.38
   1  -1  -4    1.15    0.29
   1  -1  -4    0.95    0.37
  -1   1   4    1.20    0.44
  -1   1   4    1.15    0.29
  -1   1   4    0.52    0.26
   0  -1  -4  176.62    5.77
   0  -1  -4  175.67    5.90
   0   1   4  178.73    5.75
   0   1   4  173.58    5.93
   0   1   4  181.18    5.73
  -1  -1  -4    2.78    0.60
   1   1   4    4.16    0.55
   1   1   4    3.93    0.64
   1   1   4    3.49    0.66
   1   1   4    2.72    0.39
  -2  -1  -4   54.58    2.57
   2   1   4   60.78    2.29
   2   1   4   56.04    2.62
   2   1   4   59.72    2.54
   2   1   4   55.60    1.83
  -3  -1  -4    3.59    0.79
   3   1   4    5.49    1.01
   3   1   4    5.16    0.80
   3   1   4    5.21    0.66
  -4  -1  -4    1.23    0.63
   4   1   4    0.14    0.44
   4   1   4    0.35    0.38
   4   1   4   -0.04    0.30
  -5  -1  -4    6.68    1.22
   5   1   4    7.09    1.37
   5   1   4    7.83    0.78
   7  -2  -4   27.69    2.19
   6  -2  -4    3.66    0.93
   5  -2  -4   53.29    2.31
   5  -2  -4   56.46    2.88
  -5   2   4   59.76    2.62
  -5   2   4   60.72    2.39
  -5   2   4   54.47    2.58
   4  -2  -4    2.63    0.68
   4  -2  -4    4.68    0.62
  -4   2   4    2.78    0.59
  -4   2   4    4.48    0.66
  -4   2   4    3.47    0.63
   3  -2  -4   10.57    1.18
   3  -2  -4   10.86    0.78
  -3   2   4   11.20    0.81
  -3   2   4   11.24    1.04
  -3   2   4   10.78    0.90
   2  -2  -4  107.48    3.69
   2  -2  -4  102.63    4.02
   2  -2  -4  106.33    3.81
  -2   2   4  107.92    3.49
  -2   2   4  110.00    3.96
  -2   2   4  106.28    3.80
   1  -2  -4    6.10    0.86
  -1   2   4    4.72    0.77
  -1   2   4    4.39    0.61
   0  -2  -4   35.36    1.90
   0   2   4   34.97    1.88
   0   2   4   39.67    1.82
   0   2   4   39.30    1.70
  -1  -2  -4    2.72    0.64
   1   2   4    2.27    0.45
   1   2   4    1.82    0.55
   1   2   4    1.63    0.50
  -2  -2  -4   24.11    1.63
   2   2   4   24.76    1.57
   2   2   4   21.17    1.44
   2   2   4   23.28    1.18
  -3  -2  -4   10.32    1.39
   3   2   4   12.53    1.45
   3   2   4   11.23    1.18
   3   2   4   11.58    0.79
  -4  -2  -4   11.94    1.55
   4   2   4   14.56    1.21
   4   2   4   15.53    0.86
   4   2   4   12.87    1.66
   6  -3  -4    2.68    0.83
  -6   3   4    1.42    0.63
   5  -3  -4    8.65    1.01
   5  -3  -4    6.93    1.17
  -5   3   4    6.90    1.00
  -5   3   4    6.67    0.87
   4  -3  -4    3.06    0.59
   4  -3  -4    4.13    0.88
  -4   3   4    3.83    0.72
  -4   3   4    3.38    0.68
   3  -3  -4   36.04    1.79
   3  -3  -4   39.21    2.12
  -3   3   4   40.56    1.92
  -3   3   4   36.37    1.93
   2  -3  -4    1.16    0.43
   2  -3  -4    1.76    0.59
  -2   3   4    2.04    0.58
  -2   3   4    1.90    0.45
   1  -3  -4    8.08    1.09
  -1   3   4    9.17    1.08
   0  -3  -4   54.92    2.54
   0   3   4   50.11    2.32
   0   3   4   48.27    2.37
   0   3   4   47.03    2.03
  -1  -3  -4    2.96    0.75
   1   3   4    1.50    0.37
   1   3   4    1.34    0.52
   1   3   4    2.34    0.62
  -2  -3  -4   40.54    2.38
   2   3   4   40.93    2.35
   2   3   4   46.28    1.75
   2   3   4   45.69    2.32
  -3  -3  -4    0.38    0.62
   3   3   4    0.19    0.56
   3   3   4    0.17    0.22
   3   3   4   -0.48    0.35
  -4  -3  -4    6.23    1.20
   4   3   4    4.48    0.84
   4   3   4    3.98    1.09
   6  -4  -4    0.78    0.73
  -6   4   4    0.10    0.53
   5  -4  -4   51.70    2.87
   5  -4  -4   55.15    2.56
  -5   4   4   51.85    2.48
  -5   4   4   47.12    2.50
   4  -4  -4    0.31    0.41
   4  -4  -4    1.38    0.64
  -4   4   4    1.05    0.49
  -4   4   4    0.35    0.42
   3  -4  -4   -0.24    0.39
   3  -4  -4    0.25    0.35
  -3   4   4    0.15    0.31
  -3   4   4   -0.12    0.33
   2  -4  -4   26.44    1.60
   2  -4  -4   27.00    1.82
  -2   4   4   26.70    1.72
  -2   4   4   24.71    1.44
   1  -4  -4    0.10    0.49
  -1   4   4    0.88    0.37
  -1   4   4   -0.29    0.38
   0  -4  -4   65.96    3.13
   0   4   4   64.66    2.46
   0   4   4   63.82    3.01
  -1  -4  -4    1.11    0.62
   1   4   4    1.52    0.56
   1   4   4    0.89    0.30
   1   4   4    0.61    0.49
  -2  -4  -4   11.67    1.53
   2   4   4   11.80    1.52
   2   4   4   11.80    1.43
   2   4   4   11.53    0.55
  -3  -4  -4    1.85    0.72
   3   4   4    1.04    0.72
   3   4   4    0.80    0.53
   5  -5  -4    5.63    1.16
   5  -5  -4    5.14    1.06
  -5   5   4    6.48    1.08
  -5   5   4    4.48    0.86
   4  -5  -4   14.95    1.76
   4  -5  -4   12.00    1.36
  -4   5   4   14.02    1.50
  -4   5   4   10.80    1.24
   3  -5  -4   14.95    1.52
   3  -5  -4   12.35    1.56
   3  -5  -4   15.62    1.59
  -3   5   4   14.84    1.35
  -3   5   4   14.44    1.56
   2  -5  -4    0.99    0.61
   2  -5  -4    1.69    0.63
   2  -5  -4    1.92    0.77
  -2   5   4    2.95    0.61
  -2   5   4    2.94    0.79
   1  -5  -4    1.59    0.64
   1  -5  -4    1.00    0.55
  -1   5   4    0.56    0.52
  -1   5   4    1.21    0.39
   0  -5  -4   50.44    2.76
   0   5   4   49.68    2.67
   0   5   4   49.33    1.93
  -1  -5  -4    4.90    1.12
   1   5   4    3.82    0.27
   1   5   4    3.75    0.85
   1   5   4    3.15    0.24
  -2  -5  -4   18.20    2.08
   2   5   4   21.25    1.71
   2   5   4   21.25    2.17
   4  -6  -4    4.96    1.01
   4  -6  -4    5.42    1.13
   4  -6  -4    4.18    0.96
  -4   6   4    5.37    0.93
  -4   6   4    5.24    1.01
   3  -6  -4   11.31    1.44
   3  -6  -4   10.59    1.52
   3  -6  -4    7.04    1.16
  -3   6   4    9.16    1.38
  -3   6   4    9.89    1.14
   2  -6  -4    8.33    1.28
   2  -6  -4   10.32    1.31
   2  -6  -4    9.67    1.49
  -2   6   4    9.55    1.38
  -2   6   4    8.80    0.98
   1  -6  -4    0.48    0.69
   1  -6  -4    0.31    0.64
   1  -6  -4    0.48    0.50
  -1   6   4    0.43    0.34
  -1   6   4    0.20    0.53
   0  -6  -4   10.82    1.55
   0  -6  -4   13.62    1.36
   0   6   4   12.38    1.54
   0   6   4   11.53    0.51
  -1  -6  -4    2.08    0.93
   1   6   4    1.83    0.70
   2  -7  -4   -0.56    0.62
   2  -7  -4   -0.27    0.62
   2  -7  -4   -0.12    0.51
  -2   7   4   -0.25    0.46
   1  -7  -4    2.30    0.96
   1  -7  -4    2.71    0.86
   1  -7  -4    1.72    0.82
  -1   7   4    1.28    0.24
  -1   7   4    2.00    0.78
  -1  -9   5    4.90    1.09
  -1  -9   5    6.49    1.23
   0  -9   5    0.58    0.66
   0  -9   5    0.27    0.62
  -3  -8   5   14.89    1.70
  -3  -8   5   13.64    2.30
  -2  -8   5    1.97    0.65
  -2  -8   5    2.13    0.71
  -1  -8   5   10.87    1.49
  -1  -8   5   10.72    1.32
   0  -8   5   15.47    1.66
   0  -8   5   15.76    1.79
   1  -8   5    5.92    1.10
   1  -8   5    7.33    1.24
  -2   8  -5    5.85    0.50
   2  -8   5    4.89    1.01
   2  -8   5    4.93    1.09
   4   7  -5   19.21    1.52
  -4  -7   5   18.50    1.51
  -3  -7   5    0.24    0.45
  -3  -7   5    0.24    0.35
  -2  -7   5    4.25    0.92
  -2  -7   5    4.38    0.78
  -1  -7   5    3.72    0.73
  -1  -7   5    6.31    1.06
   0  -7   5   -0.09    0.34
   0  -7   5    0.11    0.38
   1  -7   5   38.00    2.25
   1  -7   5   34.27    2.08
   2  -7   5   -0.33    0.47
   2  -7   5    0.53    0.53
   3  -7   5   -0.47    0.42
   3  -7   5    0.35    0.62
   5   6  -5    0.93    0.62
  -5  -6   5    2.03    0.75
   4   6  -5    2.27    0.67
  -4  -6   5    2.03    0.64
   3   6  -5   35.80    1.85
  -3  -6   5   38.41    1.83
  -3  -6   5   38.49    2.12
   2   6  -5   12.23    0.84
  -2  -6   5   13.05    1.00
  -2  -6   5   13.69    1.41
  -1  -6   5   62.97    2.93
  -1  -6   5   61.17    2.59
   0  -6   5    1.05    0.48
   0  -6   5    1.41    0.50
  -1   6  -5    9.43    0.69
   1  -6   5    8.33    1.10
   1  -6   5    9.22    1.21
   2  -6   5   13.02    1.49
   2  -6   5   12.44    1.41
   3  -6   5   12.39    1.45
   3  -6   5   12.48    1.54
   4  -6   5   13.52    1.81
   4  -6   5   16.25    1.69
   6   5  -5    0.30    0.52
  -6  -5   5   -0.82    0.49
   5   5  -5   13.11    1.48
  -5  -5   5   13.33    1.11
  -5  -5   5    8.96    1.39
   4   5  -5    2.60    0.70
  -4  -5   5    4.41    0.79
   3   5  -5    0.48    0.35
  -3  -5   5    0.72    0.46
  -3  -5   5    0.64    0.28
   2   5  -5    2.39    0.41
  -2  -5   5    1.69    0.40
  -2  -5   5    1.63    0.51
  -1  -5   5   17.15    1.34
  -1  -5   5   19.25    1.11
  -1  -5   5   18.04    1.02
   0   5  -5    8.71    0.56
   0  -5   5   11.41    1.26
   0  -5   5   11.19    0.96
   0  -5   5   12.47    0.95
  -1   5  -5   37.17    1.64
   1  -5   5   40.39    1.81
   1  -5   5   33.37    1.85
   1  -5   5   32.98    1.97
   2  -5   5    3.56    0.78
   2  -5   5    3.05    0.66
   2  -5   5    4.03    0.78
   3  -5   5    2.02    0.71
   3  -5   5    3.16    0.74
   3  -5   5    3.44    0.75
   4  -5   5    5.74    0.99
   4  -5   5    4.22    0.88
   4  -5   5    3.45    1.01
   6   4  -5   11.41    1.53
  -6  -4   5   12.98    1.70
   5   4  -5   18.38    1.48
  -5  -4   5   19.80    1.26
  -5  -4   5   15.97    1.75
   4   4  -5   52.14    2.48
  -4  -4   5   53.84    2.38
   3   4  -5   32.66    1.66
  -3  -4   5   31.84    1.73
  -3  -4   5   32.75    1.31
  -3  -4   5   34.13    1.42
   2   4  -5   12.28    0.80
  -2  -4   5   11.78    0.71
  -2  -4   5   12.34    0.72
  -2  -4   5   13.46    0.81
  -2  -4   5   12.99    1.05
   1   4  -5   66.26    2.19
   1   4  -5   67.74    2.06
  -1  -4   5   66.83    2.83
  -1  -4   5   62.91    2.44
  -1  -4   5   63.47    2.41
  -1  -4   5   64.97    2.18
   0   4  -5   16.15    0.91
   0  -4   5   15.98    1.21
   0  -4   5   18.32    1.09
   0  -4   5   15.52    1.01
  -1   4  -5   11.43    0.85
   1  -4   5   11.43    1.22
   1  -4   5   11.61    1.15
   1  -4   5   10.28    1.02
   2  -4   5    7.84    1.06
   2  -4   5    6.31    0.88
   2  -4   5    7.33    0.87
   3  -4   5   15.37    1.25
   3  -4   5   14.03    1.57
   3  -4   5   12.98    1.27
   4  -4   5   17.06    1.60
   4  -4   5   15.60    1.56
   4  -4   5   17.75    1.91
   5  -4   5    5.32    0.99
   5  -4   5    7.44    1.37
   6   3  -5    4.08    0.91
  -6  -3   5    3.00    0.91
   5   3  -5    0.62    0.45
  -5  -3   5    0.88    0.57
  -5  -3   5    0.55    0.41
   4   3  -5   10.51    1.17
  -4  -3   5   12.26    0.99
   3   3  -5    5.47    0.71
  -3  -3   5    5.90    0.78
  -3  -3   5    3.96    0.50
   2   3  -5    0.79    0.29
  -2  -3   5    0.27    0.26
  -2  -3   5    0.65    0.16
  -2  -3   5    1.05    0.29
  -2  -3   5    0.67    0.16
   1   3  -5   14.45    0.78
   1   3  -5   15.18    0.81
   1   3  -5   16.14    0.82
  -1  -3   5   15.17    0.92
  -1  -3   5   13.82    1.08
  -1  -3   5   14.70    0.79
   0   3  -5    0.05    0.23
   0   3  -5    0.44    0.15
   0  -3   5    0.50    0.36
   0  -3   5    0.47    0.26
   0  -3   5    0.41    0.18
   0  -3   5    0.00    0.23
  -1   3  -5   85.07    2.69
  -1   3  -5   82.71    3.10
  -1   3  -5   81.21    2.66
   1  -3   5   84.10    3.20
   1  -3   5   80.71    3.31
   1  -3   5   81.60    3.12
  -2   3  -5    3.18    0.46
  -2   3  -5    2.42    0.66
   2  -3   5    1.95    0.58
   2  -3   5    2.12    0.53
   2  -3   5    2.82    0.68
  -3   3  -5   -0.02    0.30
   3  -3   5   -0.10    0.40
   3  -3   5    0.44    0.40
   3  -3   5   -0.47    0.29
   4  -3   5   12.48    1.54
   4  -3   5   10.13    1.20
   4  -3   5    9.63    1.16
   5  -3   5   -0.24    0.46
   5  -3   5    0.23    0.57
   7   2  -5    1.62    0.73
  -7  -2   5    1.73    0.84
   6   2  -5   10.51    1.40
  -6  -2   5    8.18    1.28
   5   2  -5   17.02    1.40
  -5  -2   5   18.69    1.14
  -5  -2   5   17.52    1.43
   4   2  -5   64.07    2.73
  -4  -2   5   55.64    2.33
  -4  -2   5   63.34    2.79
  -4  -2   5   58.37    2.46
   3   2  -5   96.03    3.56
  -3  -2   5   91.60    3.31
  -3  -2   5   96.37    3.54
   2   2  -5    2.49    0.46
  -2  -2   5    2.77    0.48
  -2  -2   5    2.26    0.53
   1   2  -5   25.37    1.20
   1   2  -5   24.39    1.02
   1   2  -5   24.10    1.16
  -1  -2   5   22.64    1.21
  -1  -2   5   23.27    1.37
  -1  -2   5   23.02    1.01
   0   2  -5   28.09    1.37
   0   2  -5   26.37    1.19
   0  -2   5   27.21    1.28
   0  -2   5   24.06    1.47
   0  -2   5   25.90    1.36
  -1   2  -5   46.10    2.04
  -1   2  -5   47.10    1.84
   1  -2   5   46.39    2.04
   1  -2   5   47.10    2.07
   1  -2   5   43.08    2.15
  -2   2  -5   30.12    1.66
  -2   2  -5   31.75    1.52
   2  -2   5   31.11    1.76
   2  -2   5   30.17    1.62
   2  -2   5   30.47    1.75
  -3   2  -5    0.55    0.40
   3  -2   5   -0.02    0.37
   3  -2   5    0.04    0.34
   3  -2   5    0.75    0.47
  -4   2  -5    1.32    0.59
   4  -2   5    1.79    0.60
   4  -2   5    1.38    0.54
   4  -2   5    2.41    0.76
   5  -2   5    4.59    0.85
   5  -2   5    7.67    1.44
   7   1  -5   31.37    2.33
  -7  -1   5   31.80    2.28
   6   1  -5   16.50    1.75
  -6  -1   5   12.58    1.54
   5   1  -5    1.99    0.61
  -5  -1   5    2.61    0.65
  -5  -1   5    1.98    0.47
   4   1  -5    2.22    0.63
  -4  -1   5    2.24    0.62
  -4  -1   5    2.92    0.59
  -4  -1   5    2.56    0.50
   3   1  -5    0.43    0.30
  -3  -1   5    0.66    0.29
  -3  -1   5    0.61    0.37
   2   1  -5  107.58    3.95
   2   1  -5  111.48    3.79
  -2  -1   5  114.36    3.91
  -2  -1   5  115.41    4.11
   1   1  -5    6.10    0.70
   1   1  -5    7.16    0.50
   1   1  -5    6.77    0.75
  -1  -1   5    5.84    0.46
  -1  -1   5    7.63    0.93
  -1  -1   5    7.20    0.76
   0   1  -5   11.82    0.89
   0   1  -5   11.97    0.85
   0  -1   5   11.46    0.87
   0  -1   5   11.59    1.18
   0  -1   5   11.97    0.82
  -1   1  -5   50.81    2.30
  -1   1  -5   56.90    2.29
   1  -1   5   53.65    2.45
   1  -1   5   55.61    2.38
   1  -1   5   56.38    2.32
  -2   1  -5   17.99    1.21
   2  -1   5   17.04    1.26
   2  -1   5   13.78    1.21
   2  -1   5   15.95    1.26
  -3   1  -5   18.65    1.32
   3  -1   5   16.19    1.26
   3  -1   5   15.89    1.18
   3  -1   5   19.45    1.47
  -4   1  -5    1.82    0.69
   4  -1   5    1.22    0.49
   4  -1   5    2.36    0.64
   4  -1   5    1.27    0.62
  -5   1  -5   -1.21    0.52
   5  -1   5    0.25    0.71
   7   0  -5    0.51    0.72
  -7   0   5   -0.46    0.58
   6   0  -5   25.47    1.90
  -6   0   5   26.83    1.87
   5   0  -5    3.66    0.80
  -5   0   5    2.02    0.52
  -5   0   5    1.82    0.65
   4   0  -5   53.71    2.62
  -4   0   5   55.23    2.51
  -4   0   5   57.86    2.40
  -4   0   5   55.78    2.38
   3   0  -5   22.85    1.42
  -3   0   5   24.81    1.44
  -3   0   5   23.52    1.31
   2   0  -5    9.68    0.91
   2   0  -5    7.82    0.48
   2   0  -5    8.19    0.94
  -2   0   5    8.78    0.87
  -2   0   5    9.34    1.04
   1   0  -5   70.33    2.81
   1   0  -5   65.30    2.46
   1   0  -5   70.87    2.73
  -1   0   5   69.22    2.48
  -1   0   5   73.29    2.94
  -1   0   5   73.23    2.76
   0   0  -5    2.06    0.51
   0   0  -5    2.71    0.57
   0   0   5    2.89    0.54
   0   0   5    3.30    0.68
   0   0   5    4.21    0.60
  -1   0  -5   48.64    2.23
   1   0   5   52.89    2.16
   1   0   5   44.38    2.27
   1   0   5   48.11    2.22
  -2   0  -5   20.78    1.42
   2   0   5   18.97    1.39
   2   0   5   20.74    1.46
   2   0   5   21.59    1.30
  -3   0  -5    1.62    0.57
   3   0   5    1.60    0.65
   3   0   5    1.45    0.51
   3   0   5    1.50    0.59
  -4   0  -5    1.05    0.71
   4   0   5    1.72    0.83
   4   0   5    1.79    0.53
   4   0   5    0.86    0.54
   7  -1  -5   20.24    2.19
   6  -1  -5    1.90    0.68
  -6   1   5    0.98    0.66
   5  -1  -5    7.59    1.22
  -5   1   5   10.47    1.16
  -5   1   5   11.16    1.06
  -5   1   5   10.52    1.26
   4  -1  -5    0.26    0.22
   4  -1  -5    0.32    0.35
  -4   1   5    0.26    0.35
  -4   1   5    0.10    0.29
  -4   1   5    0.03    0.38
   3  -1  -5    2.51    0.36
   3  -1  -5    2.24    0.59
   3  -1  -5    2.15    0.35
  -3   1   5    2.23    0.58
  -3   1   5    1.69    0.45
  -3   1   5    2.13    0.46
   2  -1  -5   93.77    3.27
   2  -1  -5   99.95    3.82
   2  -1  -5  103.95    3.64
  -2   1   5   98.91    3.62
  -2   1   5   94.88    3.77
   1  -1  -5    1.32    0.40
   0  -1  -5    0.00    0.32
   0   1   5    0.57    0.32
   0   1   5    0.69    0.36
   0   1   5    0.47    0.32
  -1  -1  -5    2.36    0.64
   1   1   5    2.62    0.60
   1   1   5    2.64    0.54
   1   1   5    1.47    0.61
  -2  -1  -5   17.03    1.39
   2   1   5   20.94    1.50
   2   1   5   17.64    1.15
   2   1   5   16.24    1.33
  -3  -1  -5   31.82    2.12
   3   1   5   38.66    2.09
   3   1   5   39.96    1.85
   3   1   5   37.09    2.29
  -4  -1  -5    3.34    0.89
   4   1   5    3.41    0.98
   4   1   5    4.07    0.81
   4   1   5    3.23    0.62
   6  -2  -5    9.69    1.44
   5  -2  -5    5.51    0.99
  -5   2   5    6.61    1.03
  -5   2   5    7.58    1.02
  -5   2   5    5.55    0.81
   4  -2  -5   53.83    2.74
   4  -2  -5   55.58    2.15
  -4   2   5   54.58    2.47
  -4   2   5   51.86    2.31
  -4   2   5   49.20    2.40
   3  -2  -5    0.07    0.24
   3  -2  -5   -0.03    0.26
  -3   2   5    0.57    0.32
  -3   2   5    0.50    0.33
  -3   2   5    0.13    0.39
   2  -2  -5    2.51    0.67
  -2   2   5    1.35    0.56
  -2   2   5    2.15    0.51
  -2   2   5    2.13    0.41
   1  -2  -5   29.71    1.83
  -1   2   5   32.29    1.87
  -1   2   5   32.30    1.64
   0  -2  -5   26.12    1.70
   0   2   5   29.11    1.51
   0   2   5   28.11    1.60
   0   2   5   27.52    1.74
  -1  -2  -5   80.56    3.50
   1   2   5   81.60    3.06
   1   2   5   78.85    3.36
   1   2   5   79.33    3.45
  -2  -2  -5    0.48    0.54
   2   2   5    0.44    0.37
   2   2   5    0.16    0.45
   2   2   5    0.26    0.42
  -3  -2  -5    1.32    0.59
   3   2   5    1.40    0.56
   3   2   5    2.01    0.65
   3   2   5    1.32    0.44
  -4  -2  -5   -0.20    0.58
   4   2   5   -0.26    0.55
   4   2   5    0.23    0.34
   6  -3  -5    1.19    0.79
   5  -3  -5    8.82    1.36
  -5   3   5    7.36    1.06
  -5   3   5    7.77    1.04
   4  -3  -5    8.75    1.26
   4  -3  -5    8.77    0.96
  -4   3   5    8.58    1.07
  -4   3   5    8.44    1.12
   3  -3  -5   24.18    1.72
   3  -3  -5   26.97    1.50
  -3   3   5   24.68    1.54
  -3   3   5   27.64    1.73
  -3   3   5   24.88    1.26
   2  -3  -5   29.34    1.92
   2  -3  -5   30.15    1.67
  -2   3   5   33.26    1.74
  -2   3   5   31.70    1.91
   1  -3  -5    0.03    0.42
  -1   3   5    0.16    0.41
  -1   3   5    0.05    0.29
   0  -3  -5    0.03    0.42
   0   3   5   -0.10    0.34
   0   3   5    0.08    0.33
   0   3   5   -0.10    0.29
  -1  -3  -5   11.19    1.45
   1   3   5    7.61    1.16
   1   3   5   10.20    0.95
   1   3   5    8.78    1.20
  -2  -3  -5   -0.22    0.51
   2   3   5    0.36    0.53
   2   3   5   -0.18    0.36
   2   3   5   -0.11    0.29
  -3  -3  -5   18.85    2.05
   3   3   5   16.60    1.89
   3   3   5   15.80    0.92
   3   3   5   19.32    1.56
   5  -4  -5   -0.26    0.53
  -5   4   5    0.59    0.53
  -5   4   5    0.12    0.37
   4  -4  -5    6.08    0.96
   4  -4  -5    5.34    1.12
  -4   4   5    2.93    0.79
  -4   4   5    4.02    0.82
   3  -4  -5    2.09    0.63
   3  -4  -5    3.48    0.92
  -3   4   5    2.27    0.60
  -3   4   5    3.62    0.86
   2  -4  -5    6.08    1.04
   2  -4  -5    6.66    0.99
  -2   4   5    5.89    0.84
  -2   4   5    9.00    1.27
   1  -4  -5    7.72    1.28
  -1   4   5    8.09    1.21
  -1   4   5    9.77    1.01
   0  -4  -5    8.34    1.28
   0   4   5   11.91    1.46
   0   4   5    8.71    0.87
  -1  -4  -5   17.06    1.83
   1   4   5   18.31    1.85
   1   4   5   13.90    0.94
   1   4   5   16.76    1.77
  -2  -4  -5    3.13    0.90
   2   4   5    3.32    0.90
   2   4   5    4.11    0.98
   2   4   5    3.45    0.45
   5  -5  -5   20.71    2.23
  -5   5   5   15.74    1.69
  -5   5   5   15.66    1.72
   4  -5  -5    3.27    0.94
   4  -5  -5    3.23    0.86
  -4   5   5    3.60    0.85
  -4   5   5    2.78    0.79
   3  -5  -5   11.08    1.58
   3  -5  -5    8.41    1.20
  -3   5   5   10.33    1.17
  -3   5   5    9.28    1.36
   2  -5  -5   27.19    2.05
   2  -5  -5   27.83    1.89
  -2   5   5   33.15    2.17
  -2   5   5   28.51    1.67
   1  -5  -5    1.98    0.82
  -1   5   5    1.99    0.55
  -1   5   5    3.10    0.86
   0  -5  -5    2.15    0.77
   0   5   5    1.87    0.47
   0   5   5    1.85    0.73
  -1  -5  -5    3.60    1.09
   1   5   5    4.87    1.09
   1   5   5    3.14    0.41
   3  -6  -5    0.58    0.61
   3  -6  -5   -0.01    0.53
  -3   6   5    0.86    0.57
   2  -6  -5    2.23    0.99
   2  -6  -5    3.21    0.87
  -2   6   5    1.17    0.63
  -2   6   5    1.94    0.82
   1  -6  -5    9.43    1.39
   1  -6  -5   10.77    1.64
  -1   6   5    5.88    0.72
  -1   6   5    9.37    1.43
  -3  -8   6    2.16    0.82
  -2  -8   6    6.71    1.21
  -1  -8   6   13.26    1.43
  -1  -8   6   15.28    1.80
   0  -8   6    4.29    0.95
   0  -8   6    6.13    1.18
   1  -8   6    9.49    1.36
   1  -8   6    7.61    1.32
  -4  -7   6    0.97    0.63
  -3  -7   6   14.30    1.67
  -2  -7   6    0.29    0.39
  -2  -7   6    0.22    0.54
  -1  -7   6   20.32    2.00
  -1  -7   6   21.36    1.43
   0  -7   6    2.28    0.78
   0  -7   6    2.58    0.69
   1  -7   6    5.01    0.97
   1  -7   6    4.89    1.07
   2  -7   6   10.65    1.46
   2  -7   6   10.27    1.41
   5   6  -6   27.05    1.89
  -5  -6   6   27.53    2.07
  -5  -6   6   23.37    2.28
   4   6  -6    4.27    0.80
  -4  -6   6    3.36    0.79
  -3  -6   6   33.85    2.07
  -2  -6   6    3.61    0.83
  -2  -6   6    4.42    0.67
  -1  -6   6   11.08    1.42
  -1  -6   6   12.14    1.18
   0  -6   6    5.23    0.86
   0  -6   6    4.29    0.87
   1  -6   6   10.84    1.26
   1  -6   6   11.73    1.43
   2  -6   6    0.49    0.46
   2  -6   6    0.27    0.48
   3  -6   6    5.85    1.19
   3  -6   6    6.19    1.11
   5   5  -6    2.56    0.74
  -5  -5   6    1.76    0.72
  -5  -5   6    2.03    0.63
   4   5  -6   -0.27    0.31
  -4  -5   6    0.03    0.41
   3   5  -6   14.22    1.04
  -3  -5   6   14.81    1.49
   2   5  -6    0.41    0.27
  -2  -5   6    0.29    0.26
  -2  -5   6    0.21    0.35
  -1  -5   6   22.36    1.59
  -1  -5   6   21.43    1.22
   0   5  -6   21.70    1.09
   0  -5   6   23.05    1.61
   0  -5   6   21.09    1.35
   1  -5   6    5.82    0.90
   1  -5   6    5.57    0.95
   2  -5   6   22.67    1.68
   2  -5   6   22.18    1.63
   3  -5   6    1.54    0.76
   3  -5   6    1.25    0.61
   4  -5   6    0.44    0.68
   4  -5   6   -0.18    0.47
   6   4  -6    5.62    1.08
  -6  -4   6    7.03    1.28
   5   4  -6   21.68    1.65
  -5  -4   6   23.33    1.50
  -5  -4   6   25.86    1.84
   4   4  -6   19.76    1.39
  -4  -4   6   20.30    1.41
   3   4  -6   58.39    2.45
  -3  -4   6   54.99    2.62
   2   4  -6   28.12    1.38
  -2  -4   6   30.02    1.79
  -2  -4   6   31.67    1.23
   1   4  -6   13.21    0.69
   1   4  -6   10.74    0.68
  -1  -4   6   11.09    1.28
  -1  -4   6   11.17    1.01
  -1  -4   6   11.80    0.80
   0   4  -6   -0.41    0.21
   0  -4   6   -0.08    0.29
   0  -4   6   -0.24    0.22
   0  -4   6   -0.15    0.32
   1  -4   6    9.65    1.19
   1  -4   6    7.52    0.99
   1  -4   6   10.10    1.07
   2  -4   6    4.70    0.90
   2  -4   6    4.82    0.81
   2  -4   6    4.41    0.85
   3  -4   6   13.55    1.43
   3  -4   6   13.53    1.52
   3  -4   6   13.71    1.63
   4  -4   6    8.48    1.45
   4  -4   6    6.38    1.11
   4  -4   6    8.30    1.17
   6   3  -6   17.93    1.94
  -6  -3   6   16.41    1.87
   5   3  -6   10.45    1.30
  -5  -3   6    8.73    1.24
  -5  -3   6    9.54    1.11
   4   3  -6    3.09    0.68
  -4  -3   6    2.81    0.66
   3   3  -6    1.59    0.45
   2   3  -6   17.42    1.06
  -2  -3   6   18.41    0.71
  -2  -3   6   17.85    1.11
  -2  -3   6   17.26    1.31
   1   3  -6   91.27    3.28
   1   3  -6   96.79    3.23
   1   3  -6   94.91    3.20
  -1  -3   6   92.51    3.17
  -1  -3   6   94.42    3.49
  -1  -3   6   93.70    3.76
   0   3  -6   11.29    0.68
   0   3  -6   13.54    1.12
   0  -3   6   10.67    1.06
   0  -3   6   12.01    0.89
   0  -3   6   10.44    1.21
  -1   3  -6    0.43    0.24
   1  -3   6    0.05    0.29
   1  -3   6   -0.01    0.31
   1  -3   6    0.29    0.41
   2  -3   6   25.70    1.57
   2  -3   6   26.00    1.74
   2  -3   6   23.74    1.62
   3  -3   6   -0.10    0.43
   3  -3   6    0.53    0.48
   3  -3   6    0.24    0.44
   4  -3   6   11.00    1.37
   4  -3   6   11.68    1.37
   4  -3   6   12.27    1.66
   6   2  -6    1.26    0.67
  -6  -2   6    0.93    0.66
   5   2  -6   47.91    2.55
  -5  -2   6   43.54    2.52
  -5  -2   6   52.10    2.29
   4   2  -6   24.76    1.59
  -4  -2   6   24.00    1.51
   3   2  -6   73.62    3.02
  -3  -2   6   72.39    3.09
  -3  -2   6   74.79    2.89
   2   2  -6   29.86    1.53
   2   2  -6   29.98    1.42
  -2  -2   6   31.73    1.59
  -2  -2   6   29.97    1.76
   1   2  -6   32.89    1.57
   1   2  -6   32.74    1.59
   1   2  -6   34.21    1.40
  -1  -2   6   33.97    1.70
  -1  -2   6   33.31    1.40
  -1  -2   6   33.27    1.89
   0   2  -6   13.96    0.91
   0   2  -6   14.72    1.23
   0  -2   6   12.59    1.16
   0  -2   6   14.06    1.41
   0  -2   6   13.20    0.95
  -1   2  -6    0.36    0.31
   1  -2   6    0.91    0.46
   1  -2   6    0.26    0.33
   1  -2   6    0.09    0.30
  -2   2  -6    3.83    0.65
   2  -2   6    3.17    0.72
   2  -2   6    2.25    0.61
   2  -2   6    3.90    0.84
  -3   2  -6   11.09    1.18
   3  -2   6   10.28    1.28
   3  -2   6    7.03    1.00
   3  -2   6    9.72    1.37
   4  -2   6    1.45    0.62
   4  -2   6    0.45    0.55
   4  -2   6    1.70    0.80
   6   1  -6   12.89    1.62
  -6  -1   6   12.68    1.61
   5   1  -6    9.88    1.26
  -5  -1   6    9.38    1.06
  -5  -1   6    9.65    1.27
   4   1  -6    7.01    1.01
  -4  -1   6    7.48    0.98
  -4  -1   6    7.85    1.06
   3   1  -6   12.60    1.27
  -3  -1   6   11.26    1.22
  -3  -1   6   12.29    1.12
   2   1  -6   46.71    1.53
   2   1  -6   47.80    2.05
   2   1  -6   46.51    2.17
  -2  -1   6   44.82    2.10
  -2  -1   6   49.37    2.35
   1   1  -6   85.40    2.95
   1   1  -6   84.80    3.25
   1   1  -6   85.16    3.28
  -1  -1   6   85.45    2.94
  -1  -1   6   84.26    3.53
  -1  -1   6   89.16    3.34
   0   1  -6   34.99    1.71
   0   1  -6   31.32    1.72
   0  -1   6   31.80    1.70
   0  -1   6   31.99    1.59
   0  -1   6   33.62    1.93
  -1   1  -6    7.02    1.15
  -1   1  -6    7.86    0.94
   1  -1   6    8.59    1.00
   1  -1   6    8.77    1.02
   1  -1   6    9.85    1.23
  -2   1  -6    2.28    0.59
   2  -1   6    2.91    0.74
   2  -1   6    3.31    0.77
   2  -1   6    3.11    0.66
  -3   1  -6    4.15    0.81
   3  -1   6    4.42    0.79
   3  -1   6    4.48    0.90
   3  -1   6    2.79    0.82
  -4   1  -6   35.90    2.18
   4  -1   6   31.62    2.32
   4  -1   6   33.67    2.04
   4  -1   6   33.88    1.97
   6   0  -6    3.40    0.83
  -6   0   6    1.62    0.71
   5   0  -6   15.66    1.71
  -5   0   6   17.63    1.28
  -5   0   6   18.20    1.42
   4   0  -6   54.72    2.68
  -4   0   6   47.52    2.34
  -4   0   6   55.08    2.49
  -4   0   6   52.44    2.47
   3   0  -6  105.59    4.09
  -3   0   6   99.73    3.84
  -3   0   6  101.60    4.01
   2   0  -6    1.58    0.51
   2   0  -6    2.36    0.57
  -2   0   6    1.44    0.61
  -2   0   6    1.95    0.51
   1   0  -6   23.80    1.46
   1   0  -6   26.03    1.56
  -1   0   6   24.25    1.60
  -1   0   6   27.34    1.53
  -1   0   6   25.80    1.28
   0   0  -6   20.66    1.42
   0   0  -6   21.76    1.50
   0   0   6   20.47    1.32
   0   0   6   21.15    1.25
   0   0   6   20.19    1.50
  -1   0  -6   10.42    1.19
   1   0   6    9.04    1.04
   1   0   6    8.96    1.19
   1   0   6    9.14    1.08
  -2   0  -6   23.45    1.59
   2   0   6   19.79    1.55
   2   0   6   20.39    1.37
   2   0   6   21.95    1.60
  -3   0  -6    0.31    0.55
   3   0   6    0.04    0.39
   3   0   6   -0.14    0.49
   3   0   6   -0.05    0.40
  -4   0  -6    0.89    0.69
   4   0   6   -0.16    0.43
   6  -1  -6    9.10    1.47
  -6   1   6    7.79    1.23
   5  -1  -6   11.81    1.54
  -5   1   6   11.65    1.34
  -5   1   6   13.07    1.31
   4  -1  -6   16.47    1.35
  -4   1   6   14.82    1.47
  -4   1   6   13.66    1.16
  -4   1   6   15.28    1.42
   3  -1  -6    0.14    0.23
   3  -1  -6    0.69    0.43
  -3   1   6    0.09    0.33
  -3   1   6    0.61    0.36
  -3   1   6    0.33    0.33
   2  -1  -6    0.16    0.36
  -2   1   6    0.33    0.49
  -2   1   6   -0.12    0.29
   1  -1  -6   12.36    1.36
  -1   1   6   13.13    1.45
  -1   1   6   16.62    1.18
  -1   1   6   15.17    1.00
   0  -1  -6   11.92    1.31
   0   1   6   12.36    1.40
   0   1   6   12.92    1.21
   0   1   6   12.30    1.18
  -1  -1  -6    4.00    0.87
   1   1   6    2.85    0.61
   1   1   6    4.91    0.85
   1   1   6    5.28    0.99
  -2  -1  -6   13.66    1.53
   2   1   6   13.42    1.26
   2   1   6   11.14    1.35
   2   1   6   15.40    1.61
  -3  -1  -6    1.60    0.75
   3   1   6    0.92    0.59
   3   1   6    0.80    0.51
   3   1   6    0.73    0.50
   6  -2  -6    6.39    1.29
  -6   2   6    8.66    1.31
   5  -2  -6    3.23    0.87
  -5   2   6    2.84    0.74
  -5   2   6    2.25    0.67
  -5   2   6    1.23    0.64
   4  -2  -6   12.43    1.52
  -4   2   6   13.16    1.38
  -4   2   6   12.69    1.05
  -4   2   6   12.64    1.38
   3  -2  -6   19.70    1.55
   3  -2  -6   19.83    1.14
  -3   2   6   18.77    1.15
  -3   2   6   17.64    1.40
  -3   2   6   19.10    1.35
   2  -2  -6   17.56    1.43
  -2   2   6   12.41    1.24
  -2   2   6   16.12    1.65
   1  -2  -6   32.31    2.00
  -1   2   6   35.29    2.13
  -1   2   6   32.78    1.79
   0  -2  -6   10.59    1.36
   0   2   6   10.60    1.14
   0   2   6   10.44    1.33
   0   2   6   13.56    1.34
  -1  -2  -6   11.58    1.46
   1   2   6   11.14    1.34
   1   2   6    9.64    1.03
   1   2   6    9.15    1.27
  -2  -2  -6   12.57    1.60
   2   2   6   13.76    1.65
   2   2   6   17.28    1.78
   2   2   6   13.48    1.23
  -3  -2  -6    0.24    0.62
   3   2   6   -0.53    0.41
   3   2   6    0.15    0.54
   5  -3  -6    9.36    1.44
  -5   3   6   15.05    1.54
  -5   3   6   13.71    1.54
   4  -3  -6   25.16    1.88
  -4   3   6   20.98    1.63
  -4   3   6   22.31    1.61
   3  -3  -6    0.35    0.50
   3  -3  -6    1.45    0.52
  -3   3   6    0.47    0.51
  -3   3   6    0.22    0.43
   2  -3  -6    2.71    0.73
  -2   3   6    0.54    0.40
  -2   3   6    0.88    0.62
   1  -3  -6   10.29    1.43
  -1   3   6    8.90    1.04
  -1   3   6    8.04    1.22
   0  -3  -6    0.44    0.55
   0   3   6    0.97    0.54
   0   3   6    0.84    0.53
   0   3   6    0.76    0.41
  -1  -3  -6   -0.14    0.52
   1   3   6    0.47    0.56
   1   3   6   -0.14    0.40
   1   3   6   -0.13    0.37
  -2  -3  -6   10.65    1.56
   2   3   6    9.67    0.94
   2   3   6    7.68    1.27
   2   3   6   11.55    1.55
   5  -4  -6    1.84    0.94
  -5   4   6    2.01    0.73
  -5   4   6    1.76    0.72
   4  -4  -6    1.46    0.71
  -4   4   6    0.90    0.55
  -4   4   6    0.94    0.62
   3  -4  -6    0.41    0.60
   3  -4  -6    0.84    0.54
  -3   4   6    0.95    0.53
  -3   4   6    0.81    0.62
   2  -4  -6   11.05    1.30
   2  -4  -6   10.35    1.49
  -2   4   6   13.37    1.66
  -2   4   6   11.71    1.27
   1  -4  -6    3.59    0.95
  -1   4   6    3.79    0.96
  -1   4   6    3.14    0.69
   0  -4  -6   25.14    1.99
   0   4   6   19.74    2.04
   0   4   6   22.36    1.39
  -1  -4  -6   -0.15    0.60
   1   4   6    1.20    0.63
   1   4   6    0.04    0.47
   1   4   6   -0.17    0.35
   3  -5  -6    0.09    0.54
   3  -5  -6    0.16    0.67
  -3   5   6    1.05    0.69
  -3   5   6    0.84    0.60
   2  -5  -6    5.83    1.07
   2  -5  -6    7.67    1.45
  -2   5   6    5.45    1.15
  -2   5   6    5.78    0.95
   1  -5  -6    1.23    0.85
  -1   5   6    1.85    0.82
  -1  -8   7    2.00    0.88
   0  -8   7   11.77    1.46
   0  -8   7   12.22    1.72
  -3  -7   7    2.16    0.77
  -2  -7   7    6.43    1.19
  -1  -7   7    5.03    1.09
   0  -7   7   10.27    1.50
   0  -7   7   13.31    1.43
   1  -7   7    3.58    0.91
   1  -7   7    2.62    0.76
  -4  -6   7    9.65    1.35
  -3  -6   7    9.47    1.31
  -2  -6   7    4.85    0.99
  -1  -6   7   11.01    1.44
  -1  -6   7    8.16    1.08
   0  -6   7   -0.04    0.33
   0  -6   7    0.74    0.62
   1  -6   7    1.77    0.70
   1  -6   7    2.28    0.72
   2  -6   7   17.62    1.92
   2  -6   7   17.03    1.78
   5   5  -7    9.71    1.34
  -5  -5   7   10.39    1.30
   4   5  -7    0.28    0.38
  -4  -5   7    0.61    0.51
  -3  -5   7    3.82    0.87
  -2  -5   7   10.84    1.40
   1   5  -7    0.56    0.20
  -1  -5   7    0.02    0.48
  -1  -5   7   -0.40    0.23
   0  -5   7   36.74    1.88
   0  -5   7   34.67    2.16
   1  -5   7    4.32    0.83
   1  -5   7    3.32    0.86
   2  -5   7    2.08    0.72
   2  -5   7    0.41    0.51
   3  -5   7    2.04    0.85
   3  -5   7    1.63    0.76
   5   4  -7   19.43    1.88
  -5  -4   7   19.17    2.05
  -5  -4   7   18.07    1.45
   4   4  -7   23.40    1.58
  -4  -4   7   26.87    1.75
   3   4  -7    2.26    0.53
  -3  -4   7    1.77    0.67
   2   4  -7    5.26    0.66
  -2  -4   7    5.37    0.99
  -1  -4   7   14.02    1.57
  -1  -4   7   18.69    1.05
   0  -4   7   14.51    1.30
   0  -4   7   12.82    1.49
   1  -4   7    4.08    0.86
   1  -4   7    4.85    0.88
   2  -4   7    8.53    1.27
   2  -4   7    6.61    1.02
   2  -4   7    7.29    1.13
   3  -4   7    1.37    0.69
   3  -4   7    0.98    0.68
   3  -4   7    0.64    0.62
   6   3  -7    3.10    0.86
  -6  -3   7    1.75    0.82
   5   3  -7    9.85    1.31
  -5  -3   7    8.32    1.29
  -5  -3   7   11.78    1.36
   4   3  -7    1.35    0.49
  -4  -3   7    0.34    0.48
   3   3  -7   29.76    1.67
  -3  -3   7   27.20    1.80
   2   3  -7    0.45    0.29
  -2  -3   7    0.63    0.55
   1   3  -7   18.56    1.08
  -1  -3   7   18.03    1.50
  -1  -3   7   19.70    1.31
  -1  -3   7   19.13    1.04
   0   3  -7   43.67    1.95
   0  -3   7   47.57    2.53
   0  -3   7   44.61    2.21
   0  -3   7   47.35    2.10
   1  -3   7   14.39    1.39
   1  -3   7   16.14    1.66
   1  -3   7   14.10    1.39
   2  -3   7   15.60    1.66
   2  -3   7   21.51    1.70
   2  -3   7   17.51    1.59
   3  -3   7    0.71    0.58
   3  -3   7    0.54    0.60
   3  -3   7    0.22    0.57
   6   2  -7    2.00    0.80
  -6  -2   7    2.03    0.75
   5   2  -7   15.07    1.64
  -5  -2   7   15.64    1.71
  -5  -2   7   13.69    1.42
   4   2  -7    8.47    1.20
  -4  -2   7   14.06    1.41
   3   2  -7    9.61    1.14
  -3  -2   7    8.57    1.20
   2   2  -7   47.87    2.17
  -2  -2   7   41.83    2.37
  -2  -2   7   45.50    2.19
  -1  -2   7    2.38    0.55
   0   2  -7   22.13    1.32
   0  -2   7   24.92    1.54
   0  -2   7   21.09    1.60
   0  -2   7   25.84    1.43
  -1   2  -7    3.00    0.65
   1  -2   7    2.89    0.74
   1  -2   7    2.49    0.64
   1  -2   7    2.45    0.76
   2  -2   7    4.14    0.83
   2  -2   7    4.84    0.98
   2  -2   7    5.63    1.02
   3  -2   7    0.81    0.64
   3  -2   7   -0.12    0.64
   3  -2   7    0.22    0.54
   6   1  -7    1.28    0.57
  -6  -1   7    0.36    0.60
   5   1  -7    2.61    0.79
  -5  -1   7    2.15    0.70
  -5  -1   7    2.18    0.72
   4   1  -7   -0.15    0.36
  -4  -1   7    0.09    0.44
   3   1  -7   28.55    1.73
  -3  -1   7   24.20    1.71
  -3  -1   7   29.19    1.67
   2   1  -7    4.74    0.75
  -2  -1   7    3.82    0.71
  -2  -1   7    4.01    0.88
   1   1  -7    6.45    0.93
  -1  -1   7    5.51    0.85
  -1  -1   7    5.41    0.95
  -1  -1   7    5.53    0.66
   0   1  -7   13.14    1.31
   0  -1   7   12.44    1.44
   0  -1   7   15.28    1.41
   0  -1   7   13.99    1.07
  -1   1  -7   19.73    1.39
   1  -1   7   20.60    1.46
   1  -1   7   23.17    1.69
   1  -1   7   18.25    1.38
  -2   1  -7   31.16    1.85
   2  -1   7   31.10    2.00
   2  -1   7   29.25    2.03
   2  -1   7   30.48    1.84
  -3   1  -7    4.47    0.98
   3  -1   7    2.98    0.79
   3  -1   7    5.16    1.08
   3  -1   7    3.38    0.91
   6   0  -7    4.31    1.04
  -6   0   7    5.33    1.06
   5   0  -7   17.64    1.86
  -5   0   7   21.65    1.60
  -5   0   7   19.96    1.53
   4   0  -7    2.27    0.72
  -4   0   7    1.19    0.61
  -4   0   7    1.65    0.58
   3   0  -7    3.80    0.81
  -3   0   7    3.38    0.84
  -3   0   7    2.51    0.65
   2   0  -7   35.43    2.00
  -2   0   7   34.13    1.88
  -2   0   7   30.92    2.02
   1   0  -7   12.03    1.34
  -1   0   7   11.78    0.90
  -1   0   7   13.93    1.35
  -1   0   7   15.16    1.60
   0   0  -7   41.91    2.32
   0   0   7   46.36    2.21
   0   0   7   49.68    2.63
   0   0   7   50.72    2.37
  -1   0  -7    0.00    0.46
   1   0   7    0.54    0.45
   1   0   7    0.26    0.39
   1   0   7   -0.10    0.37
  -2   0  -7    3.79    0.88
   2   0   7    3.04    0.71
   2   0   7    2.35    0.75
   2   0   7    3.10    0.88
  -3   0  -7   -0.38    0.58
   3   0   7   -0.35    0.50
   3   0   7   -0.40    0.48
   6  -1  -7    2.16    0.89
  -6   1   7    1.61    0.73
   5  -1  -7    5.31    1.09
  -5   1   7    6.71    1.06
  -5   1   7    8.56    1.14
   4  -1  -7    4.16    0.92
  -4   1   7    5.50    1.03
  -4   1   7    6.42    0.94
  -4   1   7    7.34    1.07
   3  -1  -7    9.81    1.30
  -3   1   7    9.66    1.17
  -3   1   7   10.21    1.33
   2  -1  -7    5.76    1.02
  -2   1   7    5.86    1.10
  -2   1   7    6.62    0.97
   1  -1  -7    2.30    0.69
  -1   1   7    2.56    0.55
  -1   1   7    1.89    0.58
  -1   1   7    1.68    0.72
   0  -1  -7   16.00    1.69
   0   1   7   15.28    1.44
   0   1   7   14.39    1.38
   0   1   7   14.01    1.65
  -1  -1  -7    1.31    0.63
   1   1   7    2.20    0.73
   1   1   7    1.22    0.54
   1   1   7    1.21    0.57
  -2  -1  -7   12.43    1.54
   2   1   7   14.70    1.69
   2   1   7   11.19    1.22
   2   1   7   10.88    1.44
   5  -2  -7    3.36    0.91
  -5   2   7    3.59    0.86
   4  -2  -7    5.01    1.04
  -4   2   7    7.88    1.12
  -4   2   7    7.46    1.16
   3  -2  -7    6.71    1.16
  -3   2   7    4.45    0.85
  -3   2   7    4.77    1.02
   2  -2  -7    8.10    1.28
  -2   2   7    9.91    1.21
  -2   2   7    6.55    1.17
   1  -2  -7   13.41    1.62
  -1   2   7   13.05    1.37
  -1   2   7   13.72    1.65
   0  -2  -7    7.58    1.30
   0   2   7    7.68    1.08
   0   2   7    8.66    1.31
   0   2   7    7.73    1.01
  -1  -2  -7    2.94    0.90
   1   2   7    3.64    0.80
   1   2   7    3.45    0.95
   1   2   7    3.72    0.90
   4  -3  -7    0.78    0.63
  -4   3   7    1.44    0.65
  -4   3   7    1.02    0.59
   3  -3  -7   19.77    2.08
  -3   3   7   18.66    1.73
  -3   3   7   21.43    1.79
   2  -3  -7    0.42    0.51
  -2   3   7    0.10    0.51
  -2   3   7   -0.24    0.51
   1  -3  -7   -0.15    0.54
  -1   3   7    0.36    0.65
  -1   3   7    0.42    0.45
   0  -3  -7    4.95    1.15
   0   3   7    3.11    0.84
   0   3   7    4.49    1.03
   0   3   7    3.96    0.82
  -1  -3  -7   -0.21    0.63
   1   3   7    0.09    0.65
   1   3   7    0.25    0.53
   3  -4  -7    2.91    0.94
  -3   4   7    2.99    0.80
  -3   4   7    3.20    0.96
   2  -4  -7    8.70    1.40
  -2   4   7    8.43    1.43
  -2   4   7    7.25    1.24
   1  -4  -7    3.32    1.01
  -1   4   7    3.01    0.89
  -2  -7   8    0.96    0.74
  -1  -7   8    6.24    1.25
  -3  -6   8   14.61    1.76
  -2  -6   8    2.47    0.87
  -1  -6   8    0.22    0.63
   0  -6   8   19.09    2.08
   1  -6   8    4.18    1.01
   1  -6   8    5.28    1.00
  -4  -5   8    4.74    1.01
  -3  -5   8    1.32    0.70
  -2  -5   8   26.94    2.01
  -1  -5   8    0.02    0.45
   0  -5   8    3.74    0.98
   1  -5   8    1.38    0.61
   1  -5   8    2.33    0.81
   5   4  -8    8.35    1.26
  -5  -4   8    5.98    1.14
   4   4  -8    5.03    0.92
  -4  -4   8    3.96    0.97
  -3  -4   8    3.62    0.91
  -2  -4   8    1.36    0.61
  -1  -4   8    7.36    1.21
   0  -4   8   19.00    2.03
   1  -4   8    3.42    0.83
   1  -4   8    1.79    0.85
   2  -4   8   10.27    1.54
   2  -4   8   10.40    1.38
   5   3  -8    3.18    0.84
  -5  -3   8    5.26    1.07
  -5  -3   8    3.74    0.88
   4   3  -8    4.37    0.87
  -4  -3   8    3.84    0.97
   3   3  -8    3.04    0.64
  -3  -3   8    2.97    0.87
   2   3  -8   44.51    2.13
  -2  -3   8   45.21    2.60
  -1  -3   8    0.78    0.71
   0  -3   8    0.38    0.54
   0  -3   8    0.16    0.43
   1  -3   8   -0.37    0.45
   1  -3   8   -0.19    0.49
   1  -3   8   -0.21    0.40
   2  -3   8   10.32    1.41
   2  -3   8    8.97    1.47
   2  -3   8    8.16    1.23
   5   2  -8    5.11    1.08
  -5  -2   8    5.00    1.01
  -5  -2   8    5.40    1.09
   4   2  -8   18.44    1.52
  -4  -2   8   18.80    1.58
   3   2  -8    0.58    0.55
  -3  -2   8   -0.06    0.55
   2   2  -8    0.73    0.49
  -2  -2   8    0.70    0.64
   1   2  -8    7.28    0.93
  -1  -2   8    7.88    1.08
  -1  -2   8    7.75    1.25
   0   2  -8   25.57    1.55
   0  -2   8   22.63    1.63
   0  -2   8   25.33    1.52
   0  -2   8   22.52    1.81
   1  -2   8    5.24    0.94
   1  -2   8    8.97    1.18
   1  -2   8    7.09    1.24
   2  -2   8    0.05    0.58
   2  -2   8   -0.20    0.50
   2  -2   8    0.54    0.59
   5   1  -8    5.91    1.14
  -5  -1   8    8.23    1.25
  -5  -1   8    4.09    1.00
   4   1  -8   23.15    1.73
  -4  -1   8   23.41    1.78
   3   1  -8   -0.07    0.39
  -3  -1   8    0.44    0.49
   2   1  -8   22.97    1.60
  -2  -1   8   20.99    1.68
  -2  -1   8   23.26    1.60
   1   1  -8    1.77    0.61
  -1  -1   8    2.40    0.65
  -1  -1   8    1.88    0.79
   0   1  -8    1.61    0.63
   0  -1   8    0.37    0.50
   0  -1   8    1.63    0.72
   0  -1   8    1.08    0.45
  -1   1  -8    2.16    0.74
   1  -1   8    2.92    0.85
   1  -1   8    3.75    0.81
   1  -1   8    2.31    0.74
   2  -1   8    1.08    0.73
   2  -1   8    1.33    0.66
   2  -1   8    1.52    0.70
   5   0  -8    0.00    0.42
  -5   0   8    0.33    0.49
  -5   0   8   -0.41    0.43
   4   0  -8    7.05    1.19
  -4   0   8    6.95    1.03
  -4   0   8    8.76    1.31
   3   0  -8    0.86    0.54
  -3   0   8    1.28    0.63
  -3   0   8    0.55    0.60
   2   0  -8    4.42    0.88
  -2   0   8    4.44    1.03
  -2   0   8    6.16    0.99
   1   0  -8    1.27    0.65
  -1   0   8    0.64    0.53
  -1   0   8    0.82    0.60
   0   0  -8   20.06    1.60
   0   0   8   21.35    2.09
   0   0   8   19.44    1.43
   0   0   8   18.54    1.68
  -1   0  -8    2.20    0.78
   1   0   8    0.47    0.51
   1   0   8    1.94    0.67
   1   0   8    1.27    0.67
   4  -1  -8   14.81    1.74
  -4   1   8   16.08    1.80
   3  -1  -8    0.14    0.48
  -3   1   8   -0.50    0.50
  -3   1   8    0.48    0.53
   2  -1  -8   19.37    1.96
  -2   1   8   17.49    1.93
  -2   1   8   21.50    1.61
   1  -1  -8    0.21    0.51
  -1   1   8    0.98    0.70
  -1   1   8   -0.31    0.38
   0  -1  -8    3.94    0.96
   0   1   8    3.26    0.78
   0   1   8    3.56    0.91
   0   1   8    2.60    0.73
  -1  -1  -8    6.23    1.21
   1   1   8    7.24    1.32
   1   1   8    9.00    1.35
   1   1   8    9.27    1.32
   4  -2  -8    3.01    0.95
  -4   2   8    4.68    0.97
  -4   2   8    2.24    0.81
   3  -2  -8    3.75    0.98
  -3   2   8    3.63    0.82
  -3   2   8    3.56    1.02
   2  -2  -8    4.12    0.98
  -2   2   8    3.21    0.83
  -2   2   8    3.54    1.03
   1  -2  -8    3.79    0.97
  -1   2   8    2.86    0.96
  -1   2   8    2.20    0.73
   0  -2  -8   -0.20    0.59
   0   2   8    0.01    0.42
  -3  -5   9    1.64    0.84
  -2  -5   9    4.77    1.16
  -1  -5   9    4.44    1.18
  -3  -4   9    5.50    1.17
  -2  -4   9    6.73    1.27
  -1  -4   9   -0.51    0.39
   0  -4   9   10.71    1.64
   4   3  -9   20.50    1.93
  -4  -3   9   19.45    2.02
  -3  -3   9    2.71    0.89
  -2  -3   9   -0.11    0.62
  -1  -3   9    0.46    0.76
   0  -3   9    0.87    0.59
   4   2  -9    2.35    0.78
  -4  -2   9    1.43    0.80
   3   2  -9    2.77    0.74
  -3  -2   9    2.46    0.91
   2   2  -9    8.28    1.14
  -2  -2   9    7.97    1.37
  -1  -2   9   -0.39    0.56
   0  -2   9    1.33    0.77
   4   1  -9   12.45    1.65
  -4  -1   9   15.14    1.78
   3   1  -9   11.94    1.46
  -3  -1   9   18.30    2.01
   2   1  -9    4.40    0.93
  -2  -1   9    4.26    1.12
   1   1  -9    5.96    1.01
  -1  -1   9    4.33    1.11
  -1  -1   9    5.42    1.08
   0  -1   9    1.48    0.72
   0  -1   9    0.43    0.59
   3   0  -9    0.97    0.65
  -3   0   9   -0.18    0.40
   2   0  -9    6.03    1.16
  -2   0   9    5.43    1.23
  -2   0   9    5.09    1.00
   1   0  -9    0.81    0.61
  -1   0   9    1.29    0.79
  -1   0   9    0.60    0.61
   0   0   0    0.00    0.00
;
_shelx_hkl_checksum              28956
loop_
_space_group_symop_operation_xyz
'x, y, z'
'-x, -y, -z'
loop_
_atom_site_label
_atom_site_type_symbol
_atom_site_fract_x
_atom_site_fract_y
_atom_site_fract_z
_atom_site_U_iso_or_equiv
_atom_site_adp_type
_atom_site_occupancy
_atom_site_site_symmetry_order
_atom_site_calc_flag
_atom_site_refinement_flags_posn
_atom_site_refinement_flags_adp
_atom_site_refinement_flags_occupancy
_atom_site_disorder_assembly
_atom_site_disorder_group
C1 C 0.2884(5) 0.7029(4) 0.1976(4) 0.0206(6) Uani 1 1 d . . . . .
H1 H 0.366368 0.586904 0.198104 0.025 Uiso 1 1 calc R U . . .
C2 C 0.0324(5) 0.6884(5) 0.1888(4) 0.0256(7) Uani 1 1 d . . . . .
H2A H -0.068229 0.761635 0.117995 0.031 Uiso 1 1 calc R U . . .
H2B H -0.043040 0.565654 0.181630 0.031 Uiso 1 1 calc R U . . .
C3 C 0.2100(5) 0.7944(4) 0.3698(4) 0.0195(6) Uani 1 1 d . . . . .
H3 H 0.217647 0.934627 0.409920 0.023 Uiso 1 1 calc R U . . .
C4 C 0.3691(5) 0.8249(4) 0.0976(4) 0.0238(6) Uani 1 1 d . . . . .
H4 H 0.256993 0.917233 0.075154 0.029 Uiso 1 1 calc R U . . .
CL1 Cl 0.18426(12) 0.26242(9) 0.32698(10) 0.0244(3) Uani 1 1 d . . . . .
F1 F 0.5879(3) 0.9166(3) 0.1994(3) 0.0328(5) Uani 1 1 d . . . . .
F2 F 0.3958(3) 0.7140(3) -0.0720(2) 0.0328(5) Uani 1 1 d . . . . .
N1 N 0.2623(4) 0.7049(3) 0.5225(3) 0.0189(5) Uani 1 1 d . . . . .
H1N H 0.412(6) 0.744(5) 0.600(5) 0.022(8) Uiso 1 1 d . . . . .
H3N H 0.233(6) 0.570(5) 0.465(5) 0.027(9) Uiso 1 1 d . . . . .
H2N H 0.162(6) 0.724(5) 0.586(5) 0.027(9) Uiso 1 1 d . . . . .
loop_
_atom_site_aniso_label
_atom_site_aniso_U_11
_atom_site_aniso_U_22
_atom_site_aniso_U_33
_atom_site_aniso_U_23
_atom_site_aniso_U_13
_atom_site_aniso_U_12
C1 0.0232(14) 0.0194(13) 0.0182(13) 0.0043(10) 0.0058(11) 0.0024(11)
C2 0.0201(15) 0.0332(16) 0.0226(14) 0.0100(12) 0.0032(11) 0.0004(12)
C3 0.0203(14) 0.0190(13) 0.0205(13) 0.0062(11) 0.0076(11) 0.0042(10)
C4 0.0254(15) 0.0247(14) 0.0224(14) 0.0062(11) 0.0093(11) 0.0032(11)
CL1 0.0216(4) 0.0207(4) 0.0338(4) 0.0096(3) 0.0111(3) 0.0042(3)
F1 0.0312(10) 0.0323(11) 0.0339(10) 0.0078(8) 0.0112(8) -0.0057(8)
F2 0.0418(11) 0.0366(11) 0.0224(9) 0.0077(8) 0.0147(8) 0.0052(9)
N1 0.0185(13) 0.0209(12) 0.0182(11) 0.0055(9) 0.0072(10) 0.0005(9)
loop_
_atom_type_symbol
_atom_type_description
_atom_type_scat_dispersion_real
_atom_type_scat_dispersion_imag
_atom_type_scat_source
C C 0.0033 0.0016 'International Tables Vol C Tables 4.2.6.8 and 6.1.1.4'
H H 0.0000 0.0000 'International Tables Vol C Tables 4.2.6.8 and 6.1.1.4'
N N 0.0061 0.0033 'International Tables Vol C Tables 4.2.6.8 and 6.1.1.4'
F F 0.0171 0.0103 'International Tables Vol C Tables 4.2.6.8 and 6.1.1.4'
Cl Cl 0.1484 0.1585 'International Tables Vol C Tables 4.2.6.8 and 6.1.1.4'
loop_
_geom_angle_atom_site_label_1
_geom_angle_atom_site_label_2
_geom_angle_atom_site_label_3
_geom_angle
_geom_angle_site_symmetry_1
_geom_angle_site_symmetry_3
_geom_angle_publ_flag
C4 C1 C3 118.3(2) . . ?
C4 C1 C2 117.6(3) . . ?
C3 C1 C2 59.18(18) . . ?
C3 C2 C1 59.62(18) . . ?
N1 C3 C2 116.9(2) . . ?
N1 C3 C1 115.9(2) . . ?
C2 C3 C1 61.19(19) . . ?
F2 C4 F1 104.6(2) . . ?
F2 C4 C1 109.1(2) . . ?
F1 C4 C1 110.8(2) . . ?
loop_
_geom_bond_atom_site_label_1
_geom_bond_atom_site_label_2
_geom_bond_distance
_geom_bond_site_symmetry_2
_geom_bond_publ_flag
C1 C4 1.486(4) . ?
C1 C3 1.499(4) . ?
C1 C2 1.522(4) . ?
C2 C3 1.492(4) . ?
C3 N1 1.474(4) . ?
C4 F2 1.375(3) . ?
C4 F1 1.382(3) . ?
