#------------------------------------------------------------------------------
#$Date: 2020-07-10 02:17:08 +0300 (Fri, 10 Jul 2020) $
#$Revision: 254153 $
#$URL: file:///home/coder/svn-repositories/cod/cif/4/03/85/4038566.cif $
#------------------------------------------------------------------------------
#
# This file is available in the Crystallography Open Database (COD),
# http://www.crystallography.net/
#
# All data on this site have been placed in the public domain by the
# contributors.
#
data_4038566
loop_
_publ_author_name
'Zhang, Xiaofei'
'Zhu, Peiyuan'
'Zhang, Ruihong'
'Li, Xiang'
'Yao, Tuanli'
_publ_section_title
;
 Visible-light-induced decarboxylative cyclization of
 2-alkenylarylisocyanides with \a-oxocarboxylic acids: direct access to
 2-acylindoles.
;
_journal_name_full               'The Journal of organic chemistry'
_journal_paper_doi               10.1021/acs.joc.0c00039
_journal_year                    2020
_chemical_formula_sum            'C19 H17 N O3'
_chemical_formula_weight         307.33
_space_group_crystal_system      triclinic
_space_group_IT_number           2
_space_group_name_Hall           '-P 1'
_space_group_name_H-M_alt        'P -1'
_atom_sites_solution_hydrogens   geom
_audit_creation_method           SHELXL-2014/7
_cell_angle_alpha                111.127(10)
_cell_angle_beta                 92.434(10)
_cell_angle_gamma                96.953(11)
_cell_formula_units_Z            2
_cell_length_a                   6.9345(17)
_cell_length_b                   11.057(3)
_cell_length_c                   11.166(2)
_cell_measurement_reflns_used    620
_cell_measurement_temperature    107(2)
_cell_measurement_theta_max      20.03
_cell_measurement_theta_min      2.97
_cell_volume                     789.3(3)
_computing_structure_refinement  'SHELXL-2014/7 (Sheldrick, 2014)'
_diffrn_ambient_temperature      107(2)
_diffrn_measured_fraction_theta_full 0.986
_diffrn_measured_fraction_theta_max 0.964
_diffrn_measurement_device_type  'Bruker APEX-II CCD'
_diffrn_measurement_method       '\f and \w scans'
_diffrn_radiation_type           MoK\a
_diffrn_radiation_wavelength     0.71073
_diffrn_reflns_av_R_equivalents  0.1307
_diffrn_reflns_av_unetI/netI     0.2464
_diffrn_reflns_Laue_measured_fraction_full 0.986
_diffrn_reflns_Laue_measured_fraction_max 0.964
_diffrn_reflns_limit_h_max       9
_diffrn_reflns_limit_h_min       -7
_diffrn_reflns_limit_k_max       14
_diffrn_reflns_limit_k_min       -14
_diffrn_reflns_limit_l_max       14
_diffrn_reflns_limit_l_min       -13
_diffrn_reflns_number            7982
_diffrn_reflns_point_group_measured_fraction_full 0.986
_diffrn_reflns_point_group_measured_fraction_max 0.964
_diffrn_reflns_theta_full        25.242
_diffrn_reflns_theta_max         27.998
_diffrn_reflns_theta_min         2.972
_exptl_absorpt_coefficient_mu    0.088
_exptl_absorpt_correction_type   none
_exptl_crystal_colour            colourless
_exptl_crystal_density_diffrn    1.293
_exptl_crystal_description       block
_exptl_crystal_F_000             324
_exptl_crystal_size_max          0.150
_exptl_crystal_size_mid          0.140
_exptl_crystal_size_min          0.130
_refine_diff_density_max         0.327
_refine_diff_density_min         -0.346
_refine_diff_density_rms         0.081
_refine_ls_extinction_method     none
_refine_ls_goodness_of_fit_ref   1.059
_refine_ls_hydrogen_treatment    constr
_refine_ls_matrix_type           full
_refine_ls_number_parameters     209
_refine_ls_number_reflns         3676
_refine_ls_number_restraints     0
_refine_ls_restrained_S_all      1.059
_refine_ls_R_factor_all          0.2990
_refine_ls_R_factor_gt           0.1010
_refine_ls_shift/su_max          0.000
_refine_ls_shift/su_mean         0.000
_refine_ls_structure_factor_coef Fsqd
_refine_ls_weighting_details
'w=1/[\s^2^(Fo^2^)+(0.0980P)^2^+0.0655P] where P=(Fo^2^+2Fc^2^)/3'
_refine_ls_weighting_scheme      calc
_refine_ls_wR_factor_gt          0.2206
_refine_ls_wR_factor_ref         0.3050
_reflns_Friedel_coverage         0.000
_reflns_number_gt                1163
_reflns_number_total             3676
_reflns_threshold_expression     'I > 2\s(I)'
_cod_data_source_file            jo0c00039_si_002.cif
_cod_data_source_block           SUST_2136_0m
_cod_database_code               4038566
_shelx_shelxl_version_number     2014/7
_shelx_space_group_comment
;
The symmetry employed for this shelxl refinement is uniquely defined
by the following loop, which should always be used as a source of
symmetry information in preference to the above space-group names.
They are only intended as comments.
;
_shelx_estimated_absorpt_t_min   0.987
_shelx_estimated_absorpt_t_max   0.989
_shelx_res_file
;

    SUST_2136_0m.res created by SHELXL-2014/7

TITL SUST_2136_0m_a.res in P-1
CELL  0.71073   6.9345  11.0573  11.1658  111.127   92.434   96.953
ZERR    2.000   0.0017   0.0029   0.0024    0.010    0.010    0.011
LATT 1
SFAC C  H  N  O
UNIT 38  34  2  6
L.S. 10
ACTA
BOND $H
FMAP 2
PLAN 20
SIZE 0.15 0.14 0.13
TEMP -165.850
WGHT    0.098000    0.065500
FVAR       0.24065
C1    1    0.212963    0.878192    0.354339    11.00000    0.05511    0.07046 =
         0.04582    0.02405    0.00395    0.01905
AFIX  43
H1    2    0.180268    0.897335    0.280250    11.00000   -1.20000
AFIX   0
C2    1    0.234548    0.976653    0.474095    11.00000    0.06185    0.06336 =
         0.06747    0.02192    0.01023    0.02187
AFIX  43
H2    2    0.219387    1.063677    0.483146    11.00000   -1.20000
AFIX   0
C3    1    0.278534    0.946769    0.580619    11.00000    0.05971    0.08865 =
         0.04339    0.00265    0.01338    0.01922
AFIX  43
H3    2    0.293022    1.013705    0.664035    11.00000   -1.20000
AFIX   0
C4    1    0.301591    0.821720    0.567613    11.00000    0.05939    0.05872 =
         0.04126    0.01058   -0.00097    0.01200
AFIX  43
H4    2    0.331755    0.802831    0.642218    11.00000   -1.20000
AFIX   0
C5    1    0.281700    0.722691    0.447823    11.00000    0.04787    0.06240 =
         0.04782    0.02560    0.00283    0.01335
AFIX  43
H5    2    0.297686    0.635987    0.439513    11.00000   -1.20000
AFIX   0
C6    1    0.238177    0.751352    0.340012    11.00000    0.03698    0.05079 =
         0.03660    0.01986    0.00469    0.01705
C7    1    0.202481    0.646802    0.209245    11.00000    0.03653    0.06169 =
         0.04305    0.02583    0.00628    0.00591
C8    1    0.319786    0.538452    0.168530    11.00000    0.03685    0.06483 =
         0.03378    0.02044    0.00449    0.01006
C9    1    0.506479    0.526463    0.205446    11.00000    0.04382    0.06215 =
         0.03288    0.02241    0.00701    0.01146
C10   1    0.538645    0.398652    0.125261    11.00000    0.04252    0.07130 =
         0.03952    0.02872    0.01787    0.02069
C11   1    0.366933    0.336685    0.039702    11.00000    0.05893    0.04532 =
         0.03751    0.00967    0.01226    0.01172
C12   1    0.349142    0.211781   -0.051561    11.00000    0.07255    0.10081 =
         0.03809    0.02359    0.00815    0.02348
AFIX  43
H12   2    0.234618    0.174324   -0.109322    11.00000   -1.20000
AFIX   0
C13   1    0.502634    0.143373   -0.056106    11.00000    0.10661    0.07067 =
         0.04922    0.01542    0.02478    0.04145
AFIX  43
H13   2    0.493460    0.055642   -0.115484    11.00000   -1.20000
AFIX   0
C14   1    0.676187    0.203756    0.028231    11.00000    0.07269    0.09573 =
         0.05676    0.01876    0.01234    0.04717
AFIX  43
H14   2    0.783451    0.156527    0.021692    11.00000   -1.20000
AFIX   0
C15   1    0.691266    0.325533    0.116411    11.00000    0.06055    0.07462 =
         0.04905    0.01620    0.00898    0.02832
AFIX  43
H15   2    0.806809    0.362294    0.173303    11.00000   -1.20000
AFIX   0
C16   1    0.656815    0.627448    0.302610    11.00000    0.04159    0.05018 =
         0.04499    0.02219    0.00203    0.01272
AFIX  23
H16A  2    0.777476    0.635964    0.260187    11.00000   -1.20000
H16B  2    0.608408    0.713105    0.330144    11.00000   -1.20000
AFIX   0
C17   1    0.706240    0.598133    0.418917    11.00000    0.05232    0.07168 =
         0.05383    0.03914   -0.00071    0.01615
C18   1    0.814772    0.686464    0.641551    11.00000    0.07220    0.09144 =
         0.04029    0.03211   -0.01240   -0.00092
AFIX  23
H18A  2    0.935559    0.645872    0.634225    11.00000   -1.20000
H18B  2    0.709399    0.628603    0.659980    11.00000   -1.20000
AFIX   0
C19   1    0.846765    0.819926    0.747435    11.00000    0.09054    0.10625 =
         0.04442    0.01952    0.00182   -0.00829
AFIX 137
H19A  2    0.948696    0.876906    0.726793    11.00000   -1.50000
H19B  2    0.887298    0.811910    0.829078    11.00000   -1.50000
H19C  2    0.725133    0.857858    0.755375    11.00000   -1.50000
AFIX   0
N1    3    0.239279    0.428349    0.068208    11.00000    0.04535    0.07010 =
         0.03887    0.01453   -0.00411    0.01261
AFIX  43
H1A   2    0.123212    0.416954    0.027379    11.00000   -1.20000
AFIX   0
O1    4    0.064211    0.646324    0.135247    11.00000    0.04784    0.08658 =
         0.05180    0.01533   -0.01029    0.02452
O2    4    0.707082    0.491048    0.420514    11.00000    0.16577    0.07754 =
         0.05791    0.03329   -0.02840    0.01820
O3    4    0.760909    0.704789    0.522884    11.00000    0.06377    0.06934 =
         0.04182    0.02343   -0.00303    0.00899
HKLF 4

REM  SUST_2136_0m_a.res in P-1
REM R1 =  0.1010 for    1163 Fo > 4sig(Fo)  and  0.2990 for all    3676 data
REM    209 parameters refined using      0 restraints

END

WGHT      0.1719      0.0000

REM Highest difference peak  0.327,  deepest hole -0.346,  1-sigma level  0.081
Q1    1   0.4016  0.6643  0.0801  11.00000  0.05    0.33
Q2    1   0.5661  0.5641  0.0661  11.00000  0.05    0.31
Q3    1   0.0452  0.0645 -0.0272  11.00000  0.05    0.28
Q4    1   0.5114  0.6707  0.1452  11.00000  0.05    0.27
Q5    1   0.6885  0.2347 -0.1019  11.00000  0.05    0.27
Q6    1   0.1951 -0.0049 -0.1750  11.00000  0.05    0.27
Q7    1   0.5604  0.5805  0.5639  11.00000  0.05    0.26
Q8    1   0.0969  0.8083  0.1777  11.00000  0.05    0.26
Q9    1   0.4389  0.3176  0.1475  11.00000  0.05    0.25
Q10   1   0.0925  1.1626  0.5583  11.00000  0.05    0.25
Q11   1   0.6376  0.5674  0.5149  11.00000  0.05    0.25
Q12   1   0.8859  0.9197  0.9268  11.00000  0.05    0.25
Q13   1   0.5599  0.5715  0.1650  11.00000  0.05    0.25
Q14   1   0.5270  0.4409 -0.0044  11.00000  0.05    0.24
Q15   1   0.4450  0.9099  0.7502  11.00000  0.05    0.24
Q16   1   0.3183  0.4792 -0.0391  11.00000  0.05    0.24
Q17   1   0.2028  0.4837  0.1416  11.00000  0.05    0.23
Q18   1   0.0684  0.5175  0.3001  11.00000  0.05    0.23
Q19   1   0.5860  0.2218 -0.1851  11.00000  0.05    0.23
Q20   1   0.9668  0.9218  0.8818  11.00000  0.05    0.23
;
_shelx_res_checksum              28785
_shelx_hkl_file
;
  -1   0   0  106.02    6.90
  -1   0   0  103.19    6.86
   1   0   0   84.83    6.87
  -2   0   0  500.83   33.88
  -2   0   0  482.89   33.90
  -2   0   0  471.22   33.94
   2   0   0  462.20   33.90
   2   0   0  496.80   33.95
   2   0   0  498.55   33.88
   3   0   0    8.86    0.79
   3   0   0    9.39    0.93
   3   0   0   10.12    0.92
   4   0   0   43.17    3.22
   4   0   0   42.39    3.06
   4   0   0   38.95    3.12
   5   0   0    5.47    0.81
   5   0   0    5.28    0.92
   5   0   0    5.74    0.70
   6   0   0   -0.45    1.03
   6   0   0    0.27    0.92
   6   0   0   -0.31    0.87
   6   0   0    0.43    0.55
   7   0   0    1.32    0.96
   7   0   0    1.15    0.61
   7   0   0    2.43    0.87
   8   0   0    0.56    1.22
   8   0   0   -0.34    0.74
   8   0   0    0.11    0.98
   9  -1   0   -0.31    1.38
   9  -1   0   -0.11    1.03
   9  -1   0    0.83    1.61
   8  -1   0    1.41    1.21
   8  -1   0    1.18    0.81
   8  -1   0    0.73    0.97
   7  -1   0   -0.42    0.55
   7  -1   0   -1.00    0.83
   7  -1   0   -0.06    0.96
   6  -1   0    0.42    0.62
   6  -1   0   -0.18    0.48
   6  -1   0    0.91    0.91
   5  -1   0    1.38    1.02
   5  -1   0    0.70    0.41
   5  -1   0    1.42    0.76
   4  -1   0    8.13    0.83
   4  -1   0    9.08    1.07
   4  -1   0    9.96    1.00
   3  -1   0    0.49    0.21
   3  -1   0   -0.01    0.35
   3  -1   0   -0.05    0.41
   2  -1   0    1.52    0.24
   2  -1   0    1.67    0.34
   2  -1   0    2.23    0.37
  -2   1   0    1.37    0.39
  -2   1   0    1.30    0.34
  -2   1   0    1.73    0.39
   1  -1   0    3.06    0.30
   1  -1   0    2.42    0.24
   1  -1   0    2.75    0.24
  -1   1   0    2.33    0.27
  -1   1   0    2.11    0.31
  -1  -1   0   38.90    2.71
  -1  -1   0   37.87    2.75
  -1  -1   0   39.12    2.71
   1   1   0   36.70    2.70
   1   1   0   37.18    2.68
   1   1   0   37.28    2.66
  -2  -1   0    0.04    0.22
   2   1   0    0.49    0.31
   2   1   0    0.12    0.19
   2   1   0    0.06    0.19
   2   1   0    0.25    0.13
  -3  -1   0   17.93    1.38
   3   1   0   17.22    1.38
   3   1   0   17.24    1.32
   3   1   0   16.54    1.35
   3   1   0   16.25    1.48
   4   1   0    3.00    0.55
   4   1   0    3.34    0.67
   4   1   0    2.64    0.42
   4   1   0    2.71    0.76
   5   1   0   12.59    1.10
   5   1   0   11.02    1.22
   5   1   0   12.10    1.18
   5   1   0   12.12    1.34
   6   1   0    2.82    0.63
   6   1   0    3.13    1.01
   6   1   0    0.83    0.91
   6   1   0    2.03    0.76
   7   1   0    2.08    1.25
   7   1   0    0.91    0.80
   7   1   0    2.31    0.65
   7   1   0    0.50    1.15
   8   1   0   -1.24    1.03
   8   1   0    0.76    0.85
   9  -2   0   -0.85    1.08
   9  -2   0    0.24    1.57
   8  -2   0   -0.83    0.79
   8  -2   0   -0.15    1.27
   8  -2   0    1.06    0.98
   7  -2   0   -0.18    0.60
   7  -2   0    0.76    1.04
   6  -2   0    0.20    0.87
   6  -2   0   -0.66    0.48
   5  -2   0   -0.05    0.37
   5  -2   0    0.26    0.83
   4  -2   0    4.86    0.59
   4  -2   0    4.98    0.78
   3  -2   0   16.55    1.41
   3  -2   0   16.33    1.28
   2  -2   0   68.71    4.86
   2  -2   0   73.52    4.95
   2  -2   0   69.76    4.86
  -2   2   0   62.19    4.87
   1  -2   0  122.28    8.26
   1  -2   0  120.98    8.30
  -1   2   0  105.73    8.30
  -1   2   0  121.05    8.26
   0  -2   0   34.89    2.45
   0   2   0   33.38    2.45
  -1  -2   0   16.21    1.43
  -1  -2   0   19.07    1.39
  -1  -2   0   18.77    1.34
   1   2   0   18.78    1.34
   1   2   0   18.66    1.38
   2   2   0    0.13    0.13
   2   2   0    0.09    0.18
   2   2   0    0.58    0.42
   3   2   0   35.02    2.82
   3   2   0   35.66    2.64
   3   2   0   37.24    2.63
   3   2   0   36.24    2.71
   4   2   0    2.91    0.98
   4   2   0    1.67    0.44
   4   2   0    1.84    0.39
   4   2   0    2.86    0.57
   5   2   0    1.39    0.46
   5   2   0    1.92    0.64
   5   2   0    1.14    0.69
   5   2   0    1.73    0.72
   6   2   0    0.55    0.54
   6   2   0    1.75    0.86
   6   2   0    0.49    0.78
   6   2   0    0.74    0.74
   7   2   0    1.59    0.84
   7   2   0   -0.09    1.06
   7   2   0   -0.72    1.13
   7   2   0    0.28    0.62
   8   2   0   -0.66    0.86
   8   2   0   -0.35    1.70
   8   2   0    0.32    1.07
   9  -3   0   -2.55    1.66
   9  -3   0    0.55    1.51
   8  -3   0   -0.39    1.29
   8  -3   0    0.39    0.82
   8  -3   0   -0.18    0.98
   7  -3   0    2.17    0.73
   7  -3   0    0.41    1.11
   6  -3   0    3.98    0.75
   6  -3   0    5.73    1.17
   5  -3   0    3.17    0.94
   5  -3   0    1.94    0.61
   4  -3   0    6.34    0.99
   4  -3   0    5.32    0.65
   3  -3   0    1.59    0.33
   3  -3   0    2.14    0.60
   2  -3   0   26.88    2.05
   2  -3   0   29.37    2.16
  -2   3   0   27.23    2.05
   1  -3   0   23.24    1.78
  -1   3   0   23.74    1.79
  -1   3   0   25.47    1.77
   0  -3   0    8.64    0.72
   0   3   0    7.93    0.66
   0   3   0    6.23    0.66
   1   3   0    4.54    0.44
   2   3   0    0.75    0.22
   2   3   0    0.03    0.21
   2   3   0    0.30    0.47
   2   3   0    1.02    0.30
   2   3   0    0.57    0.16
   3   3   0    5.31    0.53
   3   3   0    5.82    0.57
   3   3   0    5.11    0.64
   3   3   0    5.87    0.94
   4   3   0    2.60    0.52
   4   3   0    3.07    0.93
   4   3   0    2.08    0.51
   4   3   0    1.77    0.40
   5   3   0    2.15    0.61
   5   3   0    1.30    0.62
   5   3   0    2.61    0.76
   5   3   0    2.65    0.90
   6   3   0    0.15    0.73
   6   3   0    0.55    0.56
   6   3   0    0.16    0.80
   6   3   0    1.24    0.74
   7   3   0    0.57    1.14
   7   3   0   -0.65    0.64
   7   3   0   -0.43    0.85
   8   3   0    0.08    1.08
   8   3   0   -1.15    1.52
   8   3   0    1.13    0.90
   8  -4   0    0.90    1.42
   8  -4   0   -0.52    0.73
   7  -4   0    0.23    1.12
   7  -4   0    1.05    0.72
   6  -4   0   -0.04    0.51
   6  -4   0   -0.19    0.85
   5  -4   0    4.12    0.96
   5  -4   0    4.29    0.75
   4  -4   0    1.19    0.35
   4  -4   0    0.29    0.85
   3  -4   0    9.65    0.92
   3  -4   0   10.90    1.09
  -3   4   0   12.00    1.41
  -3   4   0   10.26    0.91
   2  -4   0   57.14    3.95
  -2   4   0   54.77    3.85
  -2   4   0   47.87    3.81
  -1   4   0    5.04    0.56
   0  -4   0   11.19    1.12
   0   4   0   11.98    1.00
   0   4   0    9.82    0.93
  -1  -4   0    0.09    0.28
   1   4   0    0.52    0.34
   1   4   0   -0.12    0.20
   1   4   0    0.25    0.47
   2   4   0    0.00    0.28
   2   4   0    0.17    0.24
   2   4   0    0.00    0.21
   2   4   0    0.33    0.52
   3   4   0    0.57    0.36
   3   4   0    0.19    0.80
   3   4   0   -0.21    0.26
   4   4   0    2.04    0.70
   4   4   0    3.00    0.51
   5   4   0    0.62    0.58
   5   4   0   -0.78    0.74
   5   4   0    0.87    0.53
   5   4   0    0.12    0.46
   6   4   0    0.17    0.60
   6   4   0    0.25    0.84
   6   4   0   -0.10    0.60
   7   4   0    0.30    0.77
   7   4   0    0.82    1.13
   7   4   0    1.54    0.91
   8   4   0   -0.04    1.60
   8   4   0    0.76    1.26
   8   4   0   -0.22    0.95
   8  -5   0   -0.12    0.79
   8  -5   0   -1.05    1.28
   6  -5   0    1.73    0.66
   6  -5   0    2.53    1.04
   5  -5   0    1.02    0.83
   5  -5   0   -0.18    0.46
   4  -5   0    5.37    0.99
   3  -5   0    8.02    1.03
   3  -5   0    8.54    0.83
  -3   5   0    9.48    0.91
  -3   5   0    9.42    0.87
   2  -5   0   15.58    1.47
  -2   5   0   15.55    1.33
  -2   5   0   17.77    1.31
   0  -5   0   -0.03    0.38
   0   5   0    0.20    0.46
   0   5   0   -0.07    0.24
  -1  -5   0   -0.11    0.35
   1   5   0    1.15    0.36
   1   5   0    0.80    0.48
   1   5   0   -0.64    0.49
   2   5   0    1.83    0.41
   3   5   0    0.32    0.32
   3   5   0    0.68    0.74
   4   5   0   -0.31    0.52
   4   5   0    0.74    0.84
   4   5   0    0.56    0.58
   5   5   0    0.83    0.58
   5   5   0    1.31    1.03
   5   5   0    0.79    0.62
   6   5   0   -0.21    0.85
   6   5   0    0.43    0.85
   6   5   0    0.80    0.66
   7   5   0   -0.61    1.30
   7   5   0    0.24    0.92
   7   5   0    0.54    0.86
   8  -6   0    0.22    0.88
   8  -6   0    1.22    1.52
   7  -6   0    0.02    0.77
   7  -6   0    0.47    1.15
   6  -6   0    1.74    1.12
   6  -6   0    1.24    0.61
   5  -6   0    7.34    1.25
   5  -6   0    7.67    0.97
   4  -6   0    0.13    0.39
   4  -6   0   -0.08    0.62
  -4   6   0    0.17    0.66
   3  -6   0    0.32    0.37
   3  -6   0    0.58    1.11
  -3   6   0    1.66    0.43
  -3   6   0    1.78    0.50
   2  -6   0    4.66    0.85
  -2   6   0    5.47    0.64
   1  -6   0    0.83    0.46
  -1   6   0    0.44    0.56
  -1   6   0    0.64    0.33
  -1  -6   0    0.41    0.50
   1   6   0    0.12    0.65
   1   6   0   -0.53    0.31
   2   6   0   -0.11    0.94
   3   6   0   -0.50    0.79
   3   6   0    0.69    0.51
   3   6   0    0.69    0.57
   4   6   0    5.52    0.98
   4   6   0    7.61    0.95
   5   6   0    0.93    1.14
   5   6   0    2.57    0.88
   5   6   0    3.40    0.73
   6   6   0    1.71    0.84
   6   6   0    1.24    0.97
   6   6   0   -0.01    1.00
   7   6   0    1.53    1.24
   7   6   0    0.95    0.96
   7   6   0   -1.00    1.21
   8  -7   0    1.09    1.55
   8  -7   0   -0.81    0.90
   7  -7   0    1.48    0.96
   7  -7   0   -0.62    1.23
   6  -7   0   -0.32    1.01
   6  -7   0    0.00    0.69
   5  -7   0    2.87    1.04
   5  -7   0    1.94    0.62
  -5   7   0    0.85    0.81
   4  -7   0    1.18    0.44
   4  -7   0    0.84    0.85
  -4   7   0    0.75    0.65
  -4   7   0    1.24    0.52
  -3   7   0    2.72    0.67
  -3   7   0    3.23    0.59
   2  -7   0   -0.37    0.78
  -2   7   0   -0.48    0.57
   1  -7   0    0.05    0.62
  -1   7   0    0.07    0.65
  -1   7   0    1.33    0.41
   0  -7   0   -0.61    0.56
   0   7   0   -0.89    0.67
   0   7   0    1.76    0.55
  -1  -7   0   -0.25    0.63
   1   7   0    0.82    0.66
   1   7   0    0.13    0.89
   2   7   0    6.92    0.97
   5   7   0    0.66    0.73
   5   7   0   -0.03    1.10
   5   7   0   -1.31    0.76
   6   7   0   -0.66    1.11
   6   7   0    2.25    1.04
   6   7   0    0.24    0.94
   7   7   0    0.64    1.47
   8  -8   0   -0.97    1.59
   7  -8   0    0.45    0.89
   7  -8   0    2.75    1.47
   6  -8   0    0.34    0.73
   6  -8   0    0.51    1.19
   5  -8   0    1.14    0.58
   5  -8   0    1.71    1.02
  -5   8   0    0.37    1.00
   4  -8   0    3.40    0.71
  -4   8   0    4.04    0.86
  -4   8   0    2.18    0.94
   3  -8   0    2.77    0.86
  -3   8   0    3.73    0.88
  -3   8   0    1.06    0.78
   2  -8   0   -0.10    0.74
  -2   8   0    0.03    0.72
   1  -8   0    0.76    0.92
  -1   8   0    2.04    0.71
  -1   8   0    0.39    0.77
   0  -8   0   -0.52    0.68
   0   8   0   -0.61    0.52
   0   8   0   -0.15    0.89
  -1  -8   0   -1.07    0.72
   1   8   0    0.16    1.34
   2   8   0   -0.22    0.57
   2   8   0    0.54    0.92
   3   8   0    1.39    0.68
   3   8   0    1.02    1.01
   4   8   0    1.28    0.78
   4   8   0    0.26    1.16
   5   8   0   -0.37    0.97
   5   8   0    0.40    1.44
   6   8   0   -0.82    1.24
   6   8   0    0.43    1.05
   7  -9   0   -0.29    1.00
   7  -9   0    1.06    1.61
   6  -9   0    1.48    0.86
   6  -9   0    0.22    1.23
   5  -9   0    0.99    1.16
   5  -9   0    1.06    0.69
   4  -9   0   -0.23    0.53
   4  -9   0   -0.90    0.88
  -4   9   0    0.90    0.72
   3  -9   0    0.19    0.88
  -3   9   0    0.12    0.86
   2  -9   0    0.06    0.79
  -2   9   0   -0.12    0.81
  -2   9   0    2.63    0.72
  -1   9   0    7.28    1.01
   0  -9   0    0.79    0.98
   0   9   0    0.37    0.50
   0   9   0   -1.19    1.18
  -1  -9   0    0.61    0.86
   1   9   0   -0.54    1.02
   2   9   0    1.10    1.14
   2   9   0    2.27    0.75
   3   9   0    2.74    0.95
   3   9   0   -0.80    1.19
   4   9   0    0.62    0.86
   4   9   0    0.39    1.39
   5   9   0    1.28    2.88
   7 -10   0    0.41    1.67
   6 -10   0   -1.41    1.79
   5 -10   0   -0.38    0.74
   5 -10   0   -0.87    1.20
  -5  10   0   -0.68    0.75
   4 -10   0   -1.07    0.63
   4 -10   0   -0.53    0.93
  -4  10   0   -0.06    0.77
   3 -10   0    0.59    0.99
  -3  10   0   -0.26    0.70
   2 -10   0   -1.34    0.97
  -2  10   0    0.24    1.10
  -2  10   0    1.59    0.73
   1 -10   0    0.93    1.00
  -1  10   0    0.66    0.72
  -1  10   0    1.66    1.24
   0 -10   0   -0.22    1.35
   0  10   0   -0.25    1.13
   0  10   0   -0.21    0.73
  -1 -10   0    0.62    1.09
   1  10   0   -0.35    1.20
   1  10   0    1.14    0.77
   2  10   0    2.34    1.32
   2  10   0   -0.39    0.77
   3  10   0   -0.27    1.47
   3  10   0   -0.27    0.79
   4  10   0    3.13    1.86
   5  10   0    3.43    2.01
   6 -11   0   -0.90    1.63
   6 -11   0   -0.93    0.93
   5 -11   0    2.93    1.77
  -5  11   0    1.36    1.07
   4 -11   0    1.10    1.39
   4 -11   0   -0.32    0.70
  -4  11   0   -0.32    0.87
   3 -11   0    0.52    1.36
  -3  11   0    2.37    0.88
   2 -11   0    0.38    1.19
  -2  11   0   -0.86    0.77
   1 -11   0    2.41    1.24
  -1  11   0   -0.48    0.71
   0 -11   0    0.46    1.28
   0  11   0    0.65    0.82
   0  11   0    2.37    1.32
   1  11   0    0.69    1.37
   1  11   0    0.78    0.96
   2  11   0    0.24    1.43
   2  11   0    0.78    0.90
   3  11   0    0.64    1.11
   3  11   0    2.67    1.72
   4  11   0    1.17    1.19
   4  11   0    1.41    2.09
   5 -12   0   -1.13    0.95
   5 -12   0    3.66    1.95
  -5  12   0   -0.53    1.18
   4 -12   0    0.00    1.83
   4 -12   0   -0.46    0.81
  -4  12   0   -0.16    1.13
   3 -12   0    2.11    1.62
  -3  12   0    1.41    1.05
   2 -12   0   -0.72    1.38
  -2  12   0   -0.20    1.01
   1 -12   0    1.33    1.47
  -1  12   0   -0.05    1.01
   0 -12   0    0.46    1.72
   0  12   0    0.68    0.99
   0  12   0    0.35    1.52
   1  12   0    0.63    0.97
   1  12   0   -0.75    1.53
   2  12   0    3.48    1.82
   2  12   0    1.47    1.07
   3  12   0    1.28    2.23
   3 -13   0   -1.62    1.79
  -3  13   0    0.90    1.27
   2 -13   0    1.83    1.80
  -2  13   0    2.48    1.25
   1 -13   0    1.60    1.70
  -1  13   0   -0.15    1.30
   0  13   0   -0.12    1.18
   1  13   0   -0.72    1.77
   1  13   0    0.29    1.18
   1  13  -1   -1.00    1.75
   1  13  -1    1.58    1.03
   0  13  -1   -0.15    1.92
  -1  13  -1    0.76    1.10
   1 -13   1   -0.81    1.56
  -2  13  -1   -0.34    1.13
   2 -13   1   -0.22    1.55
  -3  13  -1    0.70    1.14
   3 -13   1    1.30    1.87
  -4  13  -1    1.73    1.29
   4 -13   1    1.21    0.92
   4 -13   1    2.92    2.20
   3  12  -1    0.79    1.89
   3  12  -1    1.09    1.10
   2  12  -1   -3.11    1.63
   2  12  -1   -0.62    1.51
   1  12  -1   -0.08    1.52
   1  12  -1   -0.52    0.95
   0  12  -1    0.93    0.95
   0  12  -1   -1.64    1.37
   0 -12   1   -0.38    1.27
  -1  12  -1    1.14    0.98
   1 -12   1    1.31    1.35
  -2  12  -1    0.34    0.92
   2 -12   1   -0.36    1.27
  -3  12  -1    1.42    1.05
   3 -12   1    1.01    1.42
  -4  12  -1   -0.14    1.07
   4 -12   1    2.09    1.68
  -5  12  -1    0.50    1.15
   5 -12   1    1.91    0.95
   5 -12   1    0.73    1.85
   4  11  -1    0.34    1.72
   4  11  -1   -0.85    1.16
   3  11  -1   -1.18    0.96
   3  11  -1    0.84    1.70
   2  11  -1    0.46    0.79
   2  11  -1    0.54    1.50
   1  11  -1    0.04    1.31
   1  11  -1    5.72    1.10
   0  11  -1    0.75    1.31
   0  11  -1    0.51    0.83
   0 -11   1   -0.01    2.04
  -1  11  -1    0.91    0.90
  -1  11  -1   -1.93    1.31
   1 -11   1    0.98    1.14
  -2  11  -1   -0.45    0.76
   2 -11   1   -0.86    1.07
  -3  11  -1    0.37    0.76
   3 -11   1    1.44    1.15
  -4  11  -1    1.46    0.99
   4 -11   1   -0.73    0.75
   4 -11   1    0.06    1.20
  -5  11  -1    0.63    0.99
   5 -11   1   -0.63    1.46
   5 -11   1   -0.74    0.77
   6 -11   1    1.82    1.73
   6 -11   1   -0.75    0.94
   5  10  -1    0.92    1.21
   5  10  -1   -2.11    1.47
   4  10  -1    1.25    1.65
   4  10  -1   -0.23    1.02
   3  10  -1    1.10    1.50
   3  10  -1   -0.63    0.72
   2  10  -1   -1.02    1.24
   2  10  -1    0.20    0.74
   1  10  -1   -0.77    1.07
  -1 -10   1   -0.85    0.96
   0  10  -1    0.56    0.67
   0  10  -1    0.39    1.40
   0 -10   1    0.31    1.07
  -1  10  -1    1.07    0.61
  -1  10  -1    0.63    1.08
   1 -10   1    0.93    1.00
  -2  10  -1   -0.53    0.54
  -2  10  -1   -0.04    1.05
   2 -10   1   -1.29    0.85
  -3  10  -1   -0.34    0.67
   3 -10   1   -1.43    0.94
  -4  10  -1    2.09    0.78
   4 -10   1   -0.44    0.91
   4 -10   1    0.80    0.67
  -5  10  -1   -1.86    0.81
   5 -10   1    1.78    0.78
   6 -10   1    1.87    1.41
   6 -10   1    2.26    0.89
   7 -10   1   -0.57    1.75
   7 -10   1   -0.31    1.09
   6   9  -1    0.84    1.22
   6   9  -1    1.40    1.62
   5   9  -1   -0.35    1.29
   5   9  -1    0.66    1.03
   4   9  -1   -0.59    0.78
   4   9  -1   -0.48    1.32
   2   9  -1    1.66    0.71
   2   9  -1    0.49    1.03
   1   9  -1    0.36    0.60
   1   9  -1    0.64    1.32
  -1  -9   1    0.50    0.83
   0   9  -1    0.58    0.57
   0   9  -1    0.41    1.02
   0  -9   1    1.22    0.82
  -1   9  -1   -0.72    0.89
  -1   9  -1    0.28    0.61
   1  -9   1   -0.85    1.03
  -2   9  -1   -0.15    0.92
   2  -9   1    0.60    0.78
  -3   9  -1    0.47    0.97
   3  -9   1   -0.22    0.80
  -4   9  -1    1.15    0.74
   4  -9   1    2.19    1.04
   4  -9   1    1.47    0.63
   5  -9   1    0.57    1.10
   5  -9   1   -0.24    0.60
   6  -9   1    1.01    0.83
   6  -9   1   -0.72    1.04
   7  -9   1    0.90    1.25
   7  -9   1    1.12    1.22
   6   8  -1    0.81    1.35
   6   8  -1    0.82    0.96
   6   8  -1    1.02    1.12
   5   8  -1    1.31    0.75
   5   8  -1    0.61    0.90
   5   8  -1    1.24    1.15
   4   8  -1   -0.50    1.19
   4   8  -1   -0.73    0.80
   3   8  -1    2.28    0.80
   3   8  -1    0.95    1.03
   2   8  -1    1.91    0.69
   2   8  -1   -0.42    0.88
   1   8  -1    0.11    0.53
   1   8  -1    0.10    1.00
  -1  -8   1   -0.19    0.64
   0   8  -1    0.38    0.51
   0   8  -1   -0.85    0.83
   0  -8   1   -0.01    0.61
  -1   8  -1    0.20    0.78
  -1   8  -1    0.32    0.58
   1  -8   1    0.42    0.69
  -2   8  -1   -0.47    0.68
  -3   8  -1    6.51    1.02
   3  -8   1    5.07    1.11
  -4   8  -1    1.47    0.72
   4  -8   1    1.06    0.78
   4  -8   1    2.20    0.57
   5  -8   1    0.71    0.57
   5  -8   1    1.34    1.02
   6  -8   1    0.21    1.20
   6  -8   1   -0.09    0.70
   7  -8   1   -0.23    1.31
   7  -8   1    0.77    0.88
   8  -8   1    0.66    1.57
   8  -8   1   -2.16    0.98
   7   7  -1    1.19    1.55
   7   7  -1    0.14    1.29
   7   7  -1    0.15    1.13
   6   7  -1   -0.61    0.95
   6   7  -1    0.04    0.84
   6   7  -1    0.07    1.13
   5   7  -1   -0.11    0.86
   5   7  -1    0.56    0.85
   5   7  -1   -0.07    0.63
   4   7  -1   -0.11    0.95
   4   7  -1    0.76    0.55
   4   7  -1    0.16    0.68
   3   7  -1    2.55    0.67
   3   7  -1    0.89    0.89
   2   7  -1    1.05    0.43
   2   7  -1   -0.32    1.12
   2   7  -1    2.51    0.64
   1   7  -1   -1.08    0.75
  -1  -7   1   -0.23    0.52
   0   7  -1    0.78    0.70
   0   7  -1   -0.08    0.40
   0  -7   1   -0.42    0.51
  -1   7  -1    0.75    0.39
  -1   7  -1   -0.87    0.60
   1  -7   1    0.49    0.59
  -2   7  -1    6.14    0.77
   2  -7   1    5.37    1.04
  -3   7  -1    0.59    0.48
  -3   7  -1    2.27    0.51
   3  -7   1    1.18    0.69
  -4   7  -1    0.86    0.74
  -4   7  -1    0.51    0.49
  -4   7  -1    0.13    0.51
   4  -7   1    0.89    0.80
   4  -7   1    0.20    0.42
  -5   7  -1    0.51    0.77
   5  -7   1    0.44    0.52
   5  -7   1   -0.01    0.92
   6  -7   1   -0.13    0.63
   6  -7   1   -1.06    1.00
   7  -7   1   -0.08    0.77
   7  -7   1    0.90    1.24
   8  -7   1    0.85    1.00
   8  -7   1   -0.44    1.51
   7   6  -1   -0.41    0.84
   7   6  -1   -2.14    1.27
   7   6  -1    2.19    1.04
   6   6  -1   -0.50    1.01
   6   6  -1    0.79    0.98
   6   6  -1    0.32    0.74
   5   6  -1    1.74    0.69
   5   6  -1    2.02    0.61
   4   6  -1    0.77    0.60
   4   6  -1    0.00    0.50
   4   6  -1   -1.49    0.77
   3   6  -1    5.77    0.94
   3   6  -1    5.81    1.00
   2   6  -1   11.12    1.13
   1   6  -1    8.51    0.94
   1   6  -1   10.01    0.98
   0   6  -1    1.54    0.38
   0   6  -1   -0.12    0.58
  -2   6  -1   -0.07    0.30
  -2   6  -1    0.16    0.35
   2  -6   1   -0.05    0.51
  -3   6  -1   12.77    1.02
  -3   6  -1   11.83    1.14
   3  -6   1   12.41    1.44
  -4   6  -1   -0.82    0.78
   4  -6   1    0.34    0.47
   4  -6   1    0.10    0.58
   5  -6   1    3.99    0.72
   5  -6   1    1.28    0.91
   6  -6   1   -0.02    0.58
   6  -6   1    1.03    0.92
   7  -6   1    0.14    0.78
   7  -6   1   -0.72    1.02
   8  -6   1   -0.20    0.88
   8  -6   1   -1.23    1.38
   8   5  -1   -1.76    1.50
   7   5  -1    0.87    1.27
   7   5  -1    1.00    0.82
   7   5  -1    1.96    1.11
   6   5  -1    1.42    0.71
   6   5  -1    0.38    0.73
   6   5  -1    1.32    0.97
   5   5  -1   -0.63    0.50
   5   5  -1    0.25    0.73
   5   5  -1   -0.98    0.48
   4   5  -1    0.17    0.53
   4   5  -1   -0.52    0.59
   4   5  -1    0.01    0.73
   3   5  -1    0.13    0.40
   3   5  -1    1.19    0.36
   3   5  -1   -0.50    0.81
   2   5  -1    4.26    0.61
   2   5  -1    3.48    0.47
   0  -5   1   10.63    0.95
  -1   5  -1   82.26    6.18
   1  -5   1   89.81    6.11
  -2   5  -1    5.40    0.60
   2  -5   1    3.94    0.63
  -3   5  -1   12.14    1.12
   3  -5   1   12.52    1.29
   3  -5   1   13.36    1.10
   4  -5   1    2.86    0.80
   4  -5   1    2.75    0.49
   5  -5   1   13.91    1.30
   5  -5   1   12.78    1.46
   6  -5   1    0.57    0.94
   6  -5   1    0.73    0.60
   7  -5   1   -1.42    1.05
   7  -5   1   -0.09    0.64
   8  -5   1   -0.24    0.89
   8  -5   1   -1.30    1.47
   8   4  -1   -0.26    0.93
   8   4  -1    0.00    1.08
   8   4  -1    0.41    1.70
   7   4  -1   -1.00    0.76
   7   4  -1    1.04    0.88
   7   4  -1   -1.55    1.15
   6   4  -1    2.15    0.62
   6   4  -1    1.72    0.78
   6   4  -1   -0.40    0.85
   5   4  -1   -0.09    0.46
   5   4  -1   -0.30    0.63
   5   4  -1    1.44    0.61
   4   4  -1    1.33    0.42
   4   4  -1    2.48    0.57
   4   4  -1    0.31    0.55
   3   4  -1    0.31    0.30
   3   4  -1    0.20    0.24
   3   4  -1    0.63    0.71
   2   4  -1    0.29    0.17
   2   4  -1    0.01    0.47
   2   4  -1   -0.46    0.24
   1   4  -1    0.12    0.23
   1   4  -1   -0.23    0.43
   1   4  -1    0.13    0.17
   1   4  -1   -0.10    0.20
  -1  -4   1   -0.11    0.23
   0  -4   1   33.11    2.42
  -1   4  -1   21.31    1.60
   1  -4   1   21.41    1.63
   1  -4   1   19.70    1.52
  -2   4  -1    2.91    0.43
  -2   4  -1    1.84    0.30
   2  -4   1    1.59    0.50
   3  -4   1   26.83    1.99
   3  -4   1   25.65    2.14
   4  -4   1    5.65    0.64
   4  -4   1    5.72    0.98
   5  -4   1    0.53    0.66
   5  -4   1    2.12    0.58
   6  -4   1    6.52    1.22
   6  -4   1    5.40    0.81
   7  -4   1    0.71    0.69
   7  -4   1    1.76    1.07
   8  -4   1    0.26    1.39
   8  -4   1    0.48    0.78
   8   3  -1    0.23    1.18
   8   3  -1    0.78    0.85
   7   3  -1    0.91    1.16
   7   3  -1   -0.13    0.62
   7   3  -1    0.33    0.78
   6   3  -1    1.42    0.56
   6   3  -1    1.56    0.70
   6   3  -1    1.12    0.85
   6   3  -1   -0.79    0.71
   5   3  -1   -0.09    0.54
   5   3  -1    0.37    0.51
   5   3  -1    0.02    0.69
   4   3  -1    0.02    0.33
   4   3  -1   -0.27    0.29
   4   3  -1   -0.59    0.32
   3   3  -1   14.43    1.23
   3   3  -1   15.55    1.21
   2   3  -1    5.26    0.51
   2   3  -1    5.04    0.53
   1   3  -1    0.10    0.18
   1   3  -1   -0.08    0.32
   1   3  -1    0.19    0.15
  -1  -3   1    0.11    0.11
  -1   3  -1   10.72    0.86
   1  -3   1   10.45    0.89
  -2   3  -1   15.06    1.30
   2  -3   1   18.81    1.42
  -3   3  -1    0.44    0.54
   3  -3   1    1.64    0.31
   3  -3   1    3.53    0.62
   4  -3   1    7.70    1.01
   4  -3   1    7.06    0.74
   5  -3   1   -0.08    0.38
   5  -3   1   -0.27    0.67
   6  -3   1    2.38    0.83
   6  -3   1    2.29    0.67
   7  -3   1   -0.14    0.60
   7  -3   1   -0.43    0.94
   8  -3   1    0.41    0.79
   8  -3   1    0.95    1.41
   9  -3   1   -0.78    1.61
   8   2  -1   -0.08    1.00
   8   2  -1   -1.15    0.78
   7   2  -1   -0.44    1.22
   7   2  -1    0.04    1.04
   7   2  -1    0.09    0.65
   7   2  -1   -0.73    0.75
   6   2  -1    0.11    0.69
   6   2  -1    0.44    0.85
   6   2  -1    0.68    0.47
   6   2  -1    0.08    0.74
   5   2  -1    7.02    0.91
   5   2  -1    7.39    0.86
   5   2  -1    6.68    1.10
   4   2  -1    1.61    0.70
   4   2  -1    1.57    0.42
   4   2  -1    1.85    0.36
   3   2  -1    1.77    0.52
  -3  -2   1    1.24    0.36
   2   2  -1   19.83    1.51
   2   2  -1   21.22    1.50
   2   2  -1   19.09    1.61
   1   2  -1   46.57    3.34
   1   2  -1   47.22    3.32
  -1  -2   1   46.92    3.32
  -1  -2   1   46.08    3.33
   0   2  -1    3.47    0.32
   0   2  -1    2.62    0.32
   0  -2   1    3.54    0.29
   0  -2   1    3.16    0.31
  -1   2  -1  265.82   18.59
  -1   2  -1  262.79   18.62
   1  -2   1  279.34   18.61
   1  -2   1  254.70   18.58
  -2   2  -1   10.90    0.96
   2  -2   1   11.38    0.90
   2  -2   1   11.97    0.94
   2  -2   1   12.28    1.00
   3  -2   1    7.37    0.83
   3  -2   1    8.05    0.86
   3  -2   1    8.35    0.70
   4  -2   1    0.68    0.51
   4  -2   1    0.81    0.29
   4  -2   1    0.82    0.68
   5  -2   1    5.16    0.98
   5  -2   1    3.40    1.08
   5  -2   1    2.40    0.48
   6  -2   1   -0.72    1.02
   6  -2   1    0.65    0.70
   6  -2   1    0.81    0.50
   7  -2   1    0.36    0.59
   7  -2   1    0.62    0.98
   8  -2   1    0.70    0.79
   8  -2   1    0.27    1.05
   8  -2   1   -0.63    1.20
   9  -2   1    2.20    1.61
   8   1  -1   -1.09    0.89
   8   1  -1   -0.46    0.79
   7   1  -1    2.79    1.29
   7   1  -1    4.73    0.82
   7   1  -1    6.40    1.10
   6   1  -1   -0.10    0.49
   6   1  -1    0.11    0.59
   6   1  -1    0.25    0.88
   6   1  -1    1.38    1.00
   5   1  -1   -0.06    0.64
   5   1  -1   -0.30    0.43
   5   1  -1    0.27    0.38
   5   1  -1    0.11    0.67
   4   1  -1   15.37    1.25
   4   1  -1   15.26    1.51
   4   1  -1   13.13    1.36
   4   1  -1   15.89    1.25
   3   1  -1    3.59    0.44
   3   1  -1    3.40    0.42
   3   1  -1    2.48    0.51
   3   1  -1    3.54    0.60
  -3  -1   1    3.23    0.48
   2   1  -1   17.59    1.35
   2   1  -1   18.03    1.46
   2   1  -1   18.39    1.35
  -2  -1   1   18.83    1.36
  -2  -1   1   17.47    1.35
  -1  -1   1    1.53    0.28
  -1   1  -1    0.61    0.22
  -1   1  -1    0.16    0.15
   1  -1   1    0.31    0.08
   1  -1   1    0.18    0.14
   1  -1   1    0.57    0.20
  -2   1  -1    0.38    0.36
  -2   1  -1   -0.19    0.13
   2  -1   1    0.50    0.26
   2  -1   1    0.26    0.14
   2  -1   1    0.07    0.24
   3  -1   1    2.32    0.35
   3  -1   1    4.03    0.67
   3  -1   1    3.49    0.59
   4  -1   1    2.32    0.63
   4  -1   1    0.87    0.29
   4  -1   1    1.43    0.52
   5  -1   1    0.97    0.95
   5  -1   1    2.68    0.81
   5  -1   1    1.27    0.39
   6  -1   1    3.10    0.71
   6  -1   1    3.85    1.00
   6  -1   1    4.67    1.25
   7  -1   1   -0.60    0.78
   7  -1   1    1.73    0.98
   7  -1   1    0.30    0.59
   7  -1   1    0.40    1.33
   8  -1   1    0.69    1.27
   8  -1   1   -0.03    1.02
   8  -1   1    0.85    0.81
   8   0  -1    1.23    0.82
   8   0  -1   -0.38    0.89
   8   0  -1    1.15    1.27
   7   0  -1    0.23    1.04
   7   0  -1    2.80    0.92
   7   0  -1    2.08    0.69
   6   0  -1   11.96    1.22
   6   0  -1   10.41    1.14
   6   0  -1   11.06    1.70
   5   0  -1    0.50    0.43
   5   0  -1   -0.37    0.63
   5   0  -1    1.36    0.44
   4   0  -1   39.06    2.95
   4   0  -1   40.05    3.13
   4   0  -1   40.34    2.95
   3   0  -1    5.73    0.54
   3   0  -1    4.75    0.73
   3   0  -1    4.85    0.51
   3   0  -1    5.18    0.72
   2   0  -1  647.56   43.19
  -2   0   1  590.13   43.19
   1   0  -1    0.87    0.21
   1   0  -1    1.26    0.16
   1   0  -1    1.14    0.12
  -1   0   1    1.67    0.18
  -1   0   1    1.11    0.21
  -1   0  -1  135.49    8.97
  -1   0  -1  124.21    8.90
   1   0   1  126.91    8.96
   1   0   1  123.21    8.90
  -2   0  -1    9.08    0.86
  -2   0  -1    9.83    0.75
   2   0   1    9.41    0.74
   2   0   1    9.79    0.86
   2   0   1   10.05    0.84
   3   0   1    1.57    0.42
   3   0   1    1.06    0.24
   3   0   1    1.69    0.50
   4   0   1    2.39    0.58
   4   0   1    2.41    0.76
   4   0   1    1.90    0.35
   5   0   1    2.68    0.98
   5   0   1    1.40    0.39
   5   0   1    2.67    0.78
   5   0   1    2.42    0.61
   6   0   1    0.75    0.69
   6   0   1    0.19    0.95
   6   0   1    1.01    0.58
   6   0   1   -0.36    0.84
   7   0   1   -0.56    0.91
   7   0   1    1.39    0.61
   7   0   1   -0.31    0.84
   7   0   1    1.15    1.31
   8   0   1   -0.88    0.80
   8   0   1   -0.51    1.28
   8   0   1    0.20    1.13
   8   0   1    1.30    1.72
   9  -1  -1   -0.04    1.59
   9  -1  -1    0.11    1.01
   8  -1  -1    0.56    0.80
   8  -1  -1    0.64    1.29
   8  -1  -1   -1.55    0.88
   7  -1  -1    2.70    1.13
   7  -1  -1    0.69    0.66
   7  -1  -1    2.20    0.91
   6  -1  -1    1.18    0.90
   6  -1  -1    0.51    0.52
   6  -1  -1   -0.62    0.49
   5  -1  -1    0.22    0.42
   5  -1  -1    0.17    0.81
   4  -1  -1    3.17    0.48
   4  -1  -1    3.52    0.76
   3  -1  -1    0.96    0.27
   3  -1  -1    1.55    0.52
   2  -1  -1    7.06    0.67
   2  -1  -1    5.69    0.55
   1  -1  -1    1.54    0.15
   1  -1  -1    1.66    0.30
   1  -1  -1    1.44    0.19
  -1   1   1    1.19    0.18
  -1   1   1    1.97    0.31
  -1   1   1    1.33    0.15
   0  -1  -1   10.61    0.89
   0  -1  -1   12.27    0.86
   0   1   1   11.51    0.89
  -1  -1  -1    4.69    0.54
  -1  -1  -1    5.23    0.40
   1   1   1    5.55    0.47
   1   1   1    4.63    0.52
  -2  -1  -1   26.07    1.91
   2   1   1   28.49    2.06
   2   1   1   24.70    1.99
   2   1   1   26.09    1.92
   2   1   1   27.11    1.95
   3   1   1    6.67    0.70
   3   1   1    6.51    0.68
   3   1   1    7.10    0.85
   3   1   1    5.84    0.59
   4   1   1    0.61    0.43
   4   1   1    0.40    0.45
   4   1   1   -0.30    0.69
   4   1   1    0.64    0.28
   5   1   1    0.73    0.64
   5   1   1    1.35    0.74
   5   1   1    0.62    0.34
   6   1   1    0.55    0.56
   6   1   1   -0.04    0.74
   6   1   1    0.33    0.81
   6   1   1    0.42    0.88
   7   1   1    0.03    0.60
   7   1   1   -0.35    0.82
   7   1   1    0.29    1.01
   7   1   1    0.00    1.24
   8   1   1   -0.56    1.10
   8   1   1   -0.03    1.66
   8   1   1    1.02    0.88
   9  -2  -1    1.03    1.06
   9  -2  -1   -1.60    1.71
   8  -2  -1    0.08    0.92
   8  -2  -1    0.71    1.37
   8  -2  -1    1.17    0.80
   7  -2  -1    4.38    0.90
   7  -2  -1    4.58    1.14
   7  -2  -1    2.56    0.71
   6  -2  -1    4.75    1.10
   6  -2  -1    3.35    0.70
   5  -2  -1    1.24    1.07
   5  -2  -1    1.56    0.52
   4  -2  -1   44.81    3.34
   4  -2  -1   40.13    3.14
   3  -2  -1   47.83    3.52
   3  -2  -1   46.41    3.48
   3  -2  -1   51.70    3.67
   2  -2  -1    3.62    0.39
   2  -2  -1    3.69    0.56
   2  -2  -1    4.01    0.36
  -2   2   1    3.47    0.36
   1  -2  -1    7.05    0.70
  -1   2   1    7.57    0.59
  -1   2   1    6.77    0.68
  -1   2   1    7.86    0.67
   0  -2  -1   36.87    2.63
   0   2   1   34.66    2.64
   0   2   1   37.85    2.62
  -1  -2  -1   18.94    1.31
   1   2   1   16.69    1.36
   1   2   1   17.36    1.30
   1   2   1   18.13    1.43
   2   2   1    6.26    0.61
   2   2   1    6.06    0.77
   2   2   1    5.75    0.53
   3   2   1   25.83    2.05
   3   2   1   23.71    1.93
   3   2   1   23.57    1.86
   3   2   1   24.75    1.83
   4   2   1    0.09    0.36
   4   2   1    0.23    0.78
   4   2   1   -0.50    0.26
   4   2   1    0.60    0.45
   5   2   1    1.52    0.43
   5   2   1    1.95    0.84
   5   2   1    1.06    0.75
   5   2   1    1.76    0.63
   6   2   1    1.69    0.90
   6   2   1    0.41    0.77
   6   2   1    0.14    0.61
   6   2   1   -0.12    0.50
   7   2   1    0.91    0.97
   7   2   1    0.04    1.28
   7   2   1    0.29    1.08
   7   2   1    0.42    0.62
   8   2   1    1.46    0.86
   8   2   1    0.72    1.14
   8   2   1    1.52    1.95
   9  -3  -1    2.23    1.83
   8  -3  -1    0.62    0.83
   8  -3  -1    1.38    1.39
   7  -3  -1    2.52    1.16
   7  -3  -1    0.11    0.64
   6  -3  -1    9.55    1.10
   6  -3  -1    9.45    1.42
   5  -3  -1    2.08    0.89
   5  -3  -1    1.69    0.52
   4  -3  -1   26.67    2.28
   4  -3  -1   34.01    2.57
   3  -3  -1    0.19    0.25
   3  -3  -1    0.15    0.44
   2  -3  -1   44.20    3.22
   2  -3  -1   45.34    3.20
   2  -3  -1   43.34    3.33
  -2   3   1   45.20    3.21
   1  -3  -1   12.91    1.09
   1  -3  -1   16.46    1.22
  -1   3   1   14.60    1.15
  -1   3   1   13.30    1.09
   0  -3  -1    0.18    0.27
   0   3   1    0.20    0.36
   0   3   1   -0.23    0.32
   0   3   1    0.57    0.21
   1   3   1    0.34    0.23
   1   3   1   -0.13    0.32
   1   3   1   -0.44    0.38
   2   3   1    1.81    0.39
   2   3   1    2.64    0.32
   2   3   1    0.75    0.54
   3   3   1   14.68    1.05
   3   3   1   12.29    1.05
   3   3   1   10.54    1.11
   4   3   1    0.35    0.29
   4   3   1    0.47    0.45
   4   3   1    1.34    0.72
   5   3   1    4.21    1.17
   5   3   1    3.25    0.74
   5   3   1    3.13    0.57
   5   3   1    1.53    0.77
   6   3   1   -0.59    0.87
   6   3   1   -0.43    0.75
   6   3   1    0.09    0.56
   6   3   1    1.03    0.83
   7   3   1   -1.20    0.69
   7   3   1   -2.06    1.05
   7   3   1   -0.07    0.98
   8   3   1    0.07    1.19
   8   3   1    1.38    1.68
   8   3   1    0.55    0.99
   8  -4  -1   -1.02    0.75
   8  -4  -1    2.04    1.38
   7  -4  -1    0.23    0.69
   7  -4  -1   -0.05    1.12
   6  -4  -1    2.08    0.63
   6  -4  -1    1.38    0.97
   5  -4  -1    0.21    0.53
   5  -4  -1    0.74    0.66
   4  -4  -1    1.85    0.48
   4  -4  -1    1.70    1.29
   3  -4  -1    0.31    0.26
   3  -4  -1    0.08    0.49
  -3   4   1    0.27    0.25
   2  -4  -1   20.14    1.59
   2  -4  -1   17.57    1.44
  -2   4   1   18.92    1.44
  -2   4   1   17.81    1.50
   1  -4  -1   -0.09    0.41
  -1   4   1    0.02    0.20
  -1   4   1   -0.02    0.32
   1   4   1   11.64    1.04
   3   4   1    0.91    0.39
   3   4   1    0.08    0.84
   3   4   1   -0.34    0.48
   3   4   1    0.59    0.28
   3   4   1    0.19    0.33
   4   4   1    7.86    0.86
   4   4   1    8.83    0.87
   4   4   1    9.62    1.04
   5   4   1    1.30    1.08
   5   4   1    1.32    0.69
   5   4   1    0.79    0.61
   5   4   1    1.51    0.65
   6   4   1    3.81    0.72
   6   4   1    1.95    0.82
   6   4   1    2.69    1.20
   7   4   1    0.22    0.82
   7   4   1   -0.79    0.94
   7   4   1   -0.48    1.15
   8   4   1    1.73    1.60
   8  -5  -1    0.14    1.47
   8  -5  -1   -0.91    0.80
   7  -5  -1   -0.05    0.69
   7  -5  -1    1.15    1.22
   6  -5  -1    0.83    1.01
   6  -5  -1   -0.52    0.56
   5  -5  -1    3.66    0.60
   5  -5  -1    2.14    0.84
   4  -5  -1    2.79    0.75
   4  -5  -1    2.24    0.58
   3  -5  -1    2.78    0.51
   3  -5  -1    4.41    0.93
  -3   5   1    4.37    0.74
  -3   5   1    3.42    0.52
   2  -5  -1   -0.72    0.53
  -2   5   1    0.21    0.39
  -2   5   1    0.06    0.26
   1  -5  -1    0.18    0.50
  -1   5   1   -0.20    0.51
  -1   5   1    0.50    0.27
   3   5   1   -0.87    0.43
   3   5   1    0.76    0.50
   3   5   1   -0.32    0.73
   3   5   1   -0.26    0.32
   4   5   1    0.09    0.48
   4   5   1    0.04    0.60
   4   5   1    0.15    0.42
   4   5   1    0.41    0.83
   5   5   1    0.81    1.09
   5   5   1    2.32    0.69
   5   5   1    1.09    0.78
   6   5   1   -0.81    0.69
   6   5   1   -0.71    1.24
   6   5   1   -0.16    0.80
   7   5   1    0.00    1.07
   7   5   1    1.02    0.97
   7   5   1   -0.72    1.20
   7  -6  -1    1.45    0.84
   7  -6  -1    1.35    1.25
   6  -6  -1   -0.71    0.92
   6  -6  -1    1.55    0.69
   5  -6  -1    1.03    0.77
   5  -6  -1    0.50    0.46
   4  -6  -1    3.88    0.93
   4  -6  -1    3.91    0.66
  -4   6   1    4.66    0.67
  -4   6   1    3.84    0.83
   3  -6  -1   10.03    1.22
   3  -6  -1    8.48    0.98
  -3   6   1   10.74    1.07
  -3   6   1    9.32    0.94
   2  -6  -1    0.37    0.72
  -2   6   1    0.57    0.35
  -2   6   1    0.81    0.53
   1  -6  -1   -0.21    0.56
  -1   6   1    0.83    0.66
   0  -6  -1    0.81    0.57
   0   6   1   -0.63    0.59
   0   6   1   -0.33    0.36
  -1  -6  -1   -0.29    0.56
   1   6   1    0.35    0.39
   1   6   1   -0.28    0.74
   2   6   1   -0.10    0.80
   2   6   1    0.24    0.48
   3   6   1    0.41    0.51
   3   6   1    0.98    0.53
   3   6   1   -0.57    0.77
   4   6   1   -0.48    0.97
   4   6   1   -0.65    0.58
   4   6   1   -0.07    0.54
   5   6   1    0.02    1.04
   5   6   1    1.02    0.66
   5   6   1    0.23    0.82
   6   6   1   -0.40    0.92
   6   6   1    0.76    0.87
   6   6   1    1.36    1.34
   7   6   1   -0.59    1.30
   7   6   1    0.59    1.10
   7   6   1    0.40    1.15
   8  -7  -1    0.24    0.94
   8  -7  -1    2.19    1.75
   7  -7  -1    0.87    1.16
   7  -7  -1    0.34    0.70
   6  -7  -1    0.69    0.69
   6  -7  -1   -0.90    1.14
   5  -7  -1    0.57    0.51
   5  -7  -1    0.50    0.81
  -5   7   1    0.84    0.88
   4  -7  -1    1.81    0.89
   4  -7  -1    1.09    0.52
  -4   7   1    2.38    0.53
  -4   7   1    0.71    0.64
   3  -7  -1    9.19    1.04
   3  -7  -1    7.14    1.21
  -3   7   1    9.37    0.94
  -3   7   1   10.31    1.12
   2  -7  -1    0.70    1.13
  -2   7   1    2.34    0.52
  -2   7   1   -0.23    0.65
   1  -7  -1   -0.58    0.72
  -1   7   1    0.95    0.74
  -1   7   1    0.64    0.44
  -1   7   1    0.99    0.74
   1   7   1    5.96    0.90
   2   7   1   24.58    2.14
   3   7   1    0.49    0.97
   3   7   1   -0.41    0.52
   4   7   1    0.21    1.07
   4   7   1    0.36    0.67
   5   7   1   -0.25    0.86
   5   7   1    0.74    1.26
   6   7   1    0.83    0.92
   6   7   1   -0.52    1.59
   6   7   1    0.30    1.09
   7  -8  -1    2.01    1.97
   7  -8  -1    0.42    1.17
   6  -8  -1    2.12    1.29
   6  -8  -1    2.02    0.84
   5  -8  -1    1.58    1.06
   5  -8  -1    0.46    0.65
  -5   8   1    1.29    0.91
   4  -8  -1    0.60    0.54
   4  -8  -1   -0.78    0.74
  -4   8   1    0.92    0.80
  -4   8   1    0.25    0.61
   3  -8  -1    1.55    0.95
  -3   8   1    3.31    0.72
  -3   8   1    1.08    0.84
   2  -8  -1    2.12    0.89
  -2   8   1    0.91    0.82
   1  -8  -1    0.50    1.05
  -1   8   1    0.49    0.67
  -1   8   1   -0.92    0.86
   0   8   1    7.63    1.08
  -1  -8  -1    0.54    0.80
   1   8   1   -0.25    0.90
   1   8   1   -0.55    0.57
   2   8   1   -0.56    0.99
   2   8   1    0.42    0.61
   3   8   1   -1.34    1.12
   3   8   1    1.04    0.71
   4   8   1   -0.90    0.75
   4   8   1    1.45    1.30
   5   8   1    0.89    0.91
   5   8   1    1.40    1.71
   6   8   1   -1.01    1.66
   6   8   1    0.94    1.05
   7  -9  -1   -0.74    1.69
   7  -9  -1   -1.90    1.02
   6  -9  -1   -0.15    0.84
   6  -9  -1    0.78    1.44
   5  -9  -1    0.51    1.25
   5  -9  -1   -0.44    0.57
  -5   9   1    0.68    0.83
   4  -9  -1   -0.26    0.61
   4  -9  -1    0.07    1.05
  -4   9   1   -0.16    0.67
  -4   9   1    0.03    1.14
   3  -9  -1   -0.95    1.00
  -3   9   1    0.26    0.95
  -3   9   1    0.27    0.66
   1  -9  -1   -0.01    0.96
  -1   9   1   -1.79    1.12
  -1  -9  -1    2.25    1.08
   1   9   1    0.82    1.04
   2   9   1    2.08    0.78
   2   9   1   -0.92    1.14
   3   9   1    3.73    1.03
   3   9   1    1.29    1.39
   4   9   1   -0.63    0.88
   4   9   1   -0.73    1.43
   5   9   1   -1.89    1.85
   5   9   1    0.00    1.01
   6 -10  -1    0.05    0.84
   6 -10  -1    0.28    1.31
   5 -10  -1   -0.97    0.74
   5 -10  -1   -0.15    1.44
  -5  10   1   -0.39    0.92
   4 -10  -1    2.32    0.72
   4 -10  -1    0.30    1.25
  -4  10   1    1.41    0.86
   3 -10  -1   -1.34    1.15
  -3  10   1    0.14    0.74
  -3  10   1    1.14    1.18
   2 -10  -1    0.03    1.09
  -2  10   1   -0.74    0.70
  -2  10   1   -1.77    1.27
   1 -10  -1    0.48    1.04
  -1  10   1   -0.48    0.71
  -1  10   1    1.76    1.24
   0 -10  -1   -0.14    1.14
   0  10   1   -0.99    1.10
   0  10   1    3.03    0.91
   1  10   1    0.35    1.29
   1  10   1    0.89    0.79
   2  10   1   -0.71    0.76
   2  10   1    1.43    1.41
   3  10   1   -1.17    1.57
   3  10   1   -0.90    0.87
   4  10   1   -0.68    1.99
   4  10   1    0.47    0.94
   6 -11  -1   -0.32    1.98
   5 -11  -1    1.58    0.85
   5 -11  -1   -0.48    1.85
  -5  11   1    0.26    1.00
   4 -11  -1    0.20    0.85
   4 -11  -1   -0.96    1.54
  -4  11   1    0.46    0.93
   3 -11  -1    0.24    1.32
  -3  11   1   -0.66    0.88
   2 -11  -1    0.34    1.32
  -2  11   1    1.00    1.45
  -2  11   1    0.88    0.85
   1 -11  -1   -0.17    1.30
  -1  11   1   -2.63    1.23
  -1  11   1   -0.88    0.86
   0 -11  -1   -1.72    1.29
   0  11   1    1.09    0.96
   0  11   1   -1.89    1.24
   1  11   1    0.53    1.00
   1  11   1   -0.75    1.43
   2  11   1   -0.43    1.53
   2  11   1    0.20    1.02
   3  11   1    1.69    1.09
   3  11   1    1.02    1.81
   4 -12  -1    1.01    0.86
  -4  12   1   -1.36    1.13
   3 -12  -1    0.59    1.65
  -3  12   1    0.07    1.12
   2 -12  -1    3.62    1.69
  -2  12   1    2.14    1.15
   1 -12  -1   -2.18    1.60
  -1  12   1    1.96    1.08
  -1  12   1   -1.26    1.95
   0  12   1   -0.29    1.65
   0  12   1    0.99    1.09
   1  12   1   -1.10    1.66
   1  12   1    0.12    1.78
   2  12   1    1.65    1.12
   2  12   1    1.37    1.87
   2 -13  -1    1.56    2.05
  -2  13   1   -0.35    1.23
   1 -13  -1    0.77    1.97
  -1  13   1    1.39    1.28
  -1  14  -2    0.38    1.21
   2 -14   2    1.62    1.94
   2  13  -2    1.41    1.93
   2  13  -2   -0.55    0.92
   1  13  -2    0.70    2.33
   1  13  -2   -1.03    1.09
   0  13  -2   -0.06    1.08
  -1  13  -2   -0.71    0.93
   1 -13   2    1.07    1.61
  -2  13  -2    0.95    1.08
   2 -13   2    0.26    1.48
  -3  13  -2   -0.65    1.03
   3 -13   2    1.23    1.64
  -4  13  -2   -0.23    1.19
   4 -13   2    0.17    2.71
   3  12  -2    1.02    1.03
   3  12  -2    1.17    1.82
   2  12  -2    0.35    1.03
   2  12  -2    2.18    1.64
   1  12  -2    2.52    1.54
   1  12  -2   -1.39    0.88
   0  12  -2    1.25    1.49
   0  12  -2    1.01    0.92
   0 -12   2    0.40    1.29
  -1  12  -2    2.58    1.06
   1 -12   2   -1.44    1.22
  -2  12  -2   -0.46    0.83
   2 -12   2   -0.59    1.20
  -3  12  -2   -0.75    0.86
   3 -12   2    2.34    1.39
  -4  12  -2    0.97    1.01
   4 -12   2   -0.84    1.42
  -5  12  -2   -0.58    1.10
   5 -12   2   -0.76    1.55
   5 -12   2    1.35    0.87
   4  11  -2   -0.93    1.13
   4  11  -2   -0.76    1.71
   3  11  -2    0.49    0.88
   3  11  -2    0.61    1.46
   2  11  -2    2.08    1.43
   2  11  -2   -0.55    0.82
   1  11  -2   -1.87    1.27
   0  11  -2    1.15    1.65
   0  11  -2    1.52    0.84
   0 -11   2   -1.67    1.48
  -1  11  -2   -0.41    1.21
  -1  11  -2   -0.47    0.77
   1 -11   2    0.33    0.97
  -2  11  -2    0.16    0.78
   2 -11   2   -0.63    1.05
  -3  11  -2    1.06    0.83
   3 -11   2    0.36    1.05
  -4  11  -2   -1.10    0.88
   4 -11   2    1.10    1.31
  -5  11  -2    0.45    1.02
   5 -11   2   -0.04    0.78
   5 -11   2    1.58    1.55
   6 -11   2    0.66    1.52
   6 -11   2    2.82    0.89
   5  10  -2    1.07    1.16
   4  10  -2    0.38    1.45
   4  10  -2    0.51    0.99
   3  10  -2   -0.47    1.23
   3  10  -2   -0.13    0.81
   2  10  -2    1.55    0.78
   2  10  -2   -0.81    1.19
   1  10  -2   -1.05    1.16
  -1 -10   2   -1.82    0.86
   0  10  -2   -1.48    1.19
   0 -10   2   -1.25    0.93
  -1  10  -2    0.15    1.04
   1 -10   2    0.10    0.93
   2 -10   2    7.67    1.34
  -3  10  -2    3.51    0.83
   3 -10   2    2.16    1.14
  -4  10  -2    3.01    0.88
   4 -10   2    2.73    1.24
   5 -10   2    0.63    1.23
   5 -10   2    0.43    0.73
   6 -10   2    1.61    1.50
   6 -10   2   -0.56    0.81
   7 -10   2    0.48    1.62
   7 -10   2    0.20    1.02
   6   9  -2   -0.67    1.19
   6   9  -2    0.80    1.75
   5   9  -2    1.69    1.09
   5   9  -2   -0.86    1.39
   4   9  -2    2.14    0.83
   4   9  -2   -0.22    1.18
   3   9  -2   -1.76    1.11
   3   9  -2    0.32    0.78
   2   9  -2   -0.12    0.55
   2   9  -2   -0.43    1.14
   1   9  -2    1.17    0.68
   1   9  -2   -0.02    1.32
  -1  -9   2    0.00    0.77
   0   9  -2   -0.31    1.05
   0   9  -2    2.62    0.66
   0  -9   2   -0.16    0.68
  -1   9  -2    0.89    0.66
  -1   9  -2   -0.45    0.92
   1  -9   2   -0.19    0.84
  -2   9  -2    0.55    0.56
   2  -9   2   -0.72    0.73
  -3   9  -2   -0.72    0.57
   3  -9   2    0.02    0.84
  -4   9  -2    0.91    0.65
   4  -9   2   -0.72    0.97
   4  -9   2    1.60    0.62
   5  -9   2   -0.89    1.04
   5  -9   2    0.50    0.71
   6  -9   2    0.83    1.09
   6  -9   2   -0.63    0.75
   7  -9   2    0.85    1.49
   7  -9   2    0.21    0.90
   6   8  -2    0.21    1.10
   6   8  -2    1.06    0.87
   5   8  -2    2.84    0.86
   5   8  -2    4.96    1.12
   5   8  -2    0.54    1.21
   4   8  -2    0.15    0.96
   4   8  -2   -0.47    0.57
   4   8  -2    0.12    0.72
   2   8  -2   -0.16    1.04
   2   8  -2    0.38    0.56
   1   8  -2    0.94    0.56
   1   8  -2   -0.21    0.97
  -1  -8   2    0.25    0.64
   0   8  -2    0.72    0.61
   0   8  -2   -0.33    0.74
   0  -8   2   -0.28    0.52
  -1   8  -2    0.83    0.65
  -1   8  -2    1.77    0.72
   1  -8   2   -0.91    0.60
  -2   8  -2    6.14    0.98
   2  -8   2    5.37    1.41
  -3   8  -2    4.02    0.90
   3  -8   2    5.52    1.00
  -4   8  -2    0.56    0.63
   4  -8   2    1.11    0.80
   4  -8   2    0.36    0.52
   5  -8   2   -0.18    0.58
   5  -8   2    0.45    1.04
   6  -8   2   -0.55    1.06
   6  -8   2    0.21    0.79
   7  -8   2    1.27    0.94
   7  -8   2   -1.10    1.34
   8  -8   2    0.32    1.05
   8  -8   2    0.39    1.60
   7   7  -2   -0.45    1.38
   7   7  -2    1.25    1.23
   7   7  -2   -1.42    0.94
   6   7  -2    1.10    0.79
   6   7  -2    1.65    1.00
   6   7  -2    0.10    1.20
   5   7  -2    0.93    0.89
   5   7  -2    0.24    0.63
   5   7  -2   -0.35    0.91
   4   7  -2    0.90    0.54
   4   7  -2    0.36    0.60
   4   7  -2    0.65    0.88
   3   7  -2    3.39    0.79
   3   7  -2    4.42    0.73
   2   7  -2    1.22    0.69
   2   7  -2   -0.54    1.00
   1   7  -2    0.60    0.41
   1   7  -2   -0.44    0.60
   1   7  -2   -0.03    0.74
  -1  -7   2   -0.26    0.42
   0  -7   2    2.99    0.63
  -1   7  -2    5.80    0.74
   1  -7   2    5.30    0.64
   1  -7   2    3.51    0.73
  -2   7  -2    1.29    0.42
   2  -7   2    0.39    0.64
  -3   7  -2    0.97    0.50
   3  -7   2    0.06    0.64
   4  -7   2    0.26    0.75
   4  -7   2    1.69    0.49
   5  -7   2    1.28    0.58
   5  -7   2   -1.06    0.66
   6  -7   2    1.33    0.65
   6  -7   2    0.39    1.04
   7  -7   2    1.12    1.27
   7  -7   2    0.20    0.84
   8  -7   2    1.24    1.03
   8  -7   2   -1.53    1.56
   7   6  -2   -0.12    1.31
   7   6  -2   -0.23    1.08
   7   6  -2   -0.61    0.81
   6   6  -2    0.70    0.74
   6   6  -2    0.51    1.05
   6   6  -2   -0.02    0.94
   5   6  -2    0.15    0.90
   5   6  -2    0.02    0.68
   5   6  -2    0.06    0.56
   4   6  -2   -0.65    0.60
   4   6  -2   -0.12    0.46
   4   6  -2    0.21    0.70
   3   6  -2    0.59    0.47
   3   6  -2   -0.15    0.68
   3   6  -2    0.07    0.57
   2   6  -2    0.06    0.31
   2   6  -2   -0.21    0.40
   2   6  -2    0.71    0.77
   1   6  -2    0.31    0.65
   1   6  -2    0.29    0.30
   1   6  -2    0.11    0.38
  -1  -6   2   -0.41    0.32
   0   6  -2    0.26    0.32
   0   6  -2   -0.33    0.48
   0  -6   2    0.53    0.39
  -1   6  -2   63.37    4.98
   1  -6   2   78.96    4.89
   1  -6   2   62.24    5.00
  -2   6  -2    2.47    0.49
   2  -6   2    1.92    0.61
  -3   6  -2    1.40    0.47
   3  -6   2    1.92    0.78
   4  -6   2    1.87    0.75
   4  -6   2    0.69    0.55
   5  -6   2    2.87    0.81
   5  -6   2    1.22    0.59
   6  -6   2    0.08    0.57
   6  -6   2   -0.70    0.82
   7  -6   2    0.01    0.75
   7  -6   2   -0.37    1.13
   8  -6   2    2.20    0.97
   8  -6   2    1.34    1.48
   8   5  -2   -1.79    1.22
   8   5  -2   -0.14    1.08
   7   5  -2   -0.27    1.00
   7   5  -2    1.13    0.83
   7   5  -2    0.19    1.29
   6   5  -2    1.54    1.01
   6   5  -2    1.05    0.66
   6   5  -2    0.63    0.77
   5   5  -2   -0.31    0.74
   5   5  -2    0.56    0.53
   5   5  -2    1.29    0.75
   4   5  -2    1.88    0.50
   4   5  -2    0.00    0.64
   4   5  -2    1.82    0.71
   3   5  -2   11.64    1.05
   3   5  -2   12.25    1.16
   2   5  -2    9.23    0.82
   2   5  -2    8.48    0.89
  -1  -5   2   10.43    0.85
   0   5  -2    1.89    0.40
   0  -5   2    1.93    0.43
  -1   5  -2    0.26    0.26
   1  -5   2    0.25    0.22
   1  -5   2    0.13    0.38
  -2   5  -2    0.51    0.33
   2  -5   2    1.01    0.41
  -3   5  -2    1.55    0.42
   3  -5   2    0.88    0.57
  -4   5  -2    0.94    0.94
   4  -5   2    4.27    0.56
   4  -5   2    2.47    0.67
   5  -5   2    0.48    0.54
   5  -5   2    1.71    0.65
   6  -5   2    3.13    0.68
   6  -5   2    3.15    1.03
   7  -5   2   -0.45    0.98
   7  -5   2    1.00    0.72
   8  -5   2    0.07    1.51
   8  -5   2    1.20    0.97
   8   4  -2    0.04    1.18
   8   4  -2    0.07    0.90
   7   4  -2    0.12    0.94
   7   4  -2    0.15    1.24
   7   4  -2   -0.24    0.71
   6   4  -2   -0.55    0.52
   6   4  -2   -0.56    0.60
   6   4  -2    0.42    0.92
   5   4  -2    0.42    0.51
   5   4  -2    0.00    0.68
   5   4  -2    0.12    0.73
   4   4  -2    2.01    0.51
   4   4  -2    0.52    0.67
   3   4  -2    8.59    0.87
   3   4  -2    8.82    0.81
   2   4  -2   36.09    2.64
   2   4  -2   33.99    2.58
   1   4  -2   15.14    1.19
   1   4  -2   15.46    1.24
   0   4  -2   10.04    0.94
   0   4  -2   11.26    0.96
   0  -4   2   12.40    0.94
  -1   4  -2    1.56    0.34
   1  -4   2    2.87    0.48
  -2   4  -2   12.72    1.12
   2  -4   2   14.65    1.23
   3  -4   2   33.91    2.50
   3  -4   2   33.52    2.66
   4  -4   2    0.78    0.78
   4  -4   2    1.40    0.33
   5  -4   2   -0.14    0.52
   5  -4   2    0.00    0.41
   6  -4   2    6.36    1.18
   6  -4   2    5.66    0.85
   7  -4   2    1.17    0.67
   7  -4   2    0.83    1.06
   8  -4   2   -0.34    0.81
   8  -4   2    1.60    1.38
   8   3  -2    0.14    1.07
   8   3  -2   -0.21    0.87
   7   3  -2    0.43    0.79
   7   3  -2   -0.20    0.77
   6   3  -2    0.24    0.70
   6   3  -2    1.93    0.78
   6   3  -2    1.29    0.58
   6   3  -2    2.31    1.08
   5   3  -2   -0.62    0.54
   5   3  -2    1.15    0.55
   5   3  -2    0.17    0.69
   5   3  -2    0.66    0.49
   4   3  -2   -0.02    0.35
   4   3  -2    0.51    0.37
   4   3  -2    0.53    0.31
  -4  -3   2    0.59    0.41
   3   3  -2   -0.16    0.45
   3   3  -2   -0.19    0.26
   3   3  -2   -0.21    0.19
  -3  -3   2    0.15    0.24
   2   3  -2    0.59    0.19
   2   3  -2    0.47    0.40
   2   3  -2    0.28    0.23
   1   3  -2   15.54    1.15
   1   3  -2   15.36    1.17
  -1  -3   2   14.59    1.12
   0   3  -2    6.34    0.59
   0   3  -2    6.24    0.56
   0  -3   2    6.05    0.59
  -1   3  -2   23.19    1.85
   1  -3   2   26.29    1.91
  -2   3  -2    7.89    0.70
   2  -3   2    9.13    0.85
   3  -3   2   45.30    3.66
   3  -3   2   50.80    3.54
   3  -3   2   51.02    3.59
   4  -3   2    3.28    0.72
   4  -3   2    2.37    0.42
   4  -3   2    3.14    0.74
   5  -3   2    0.17    0.86
   5  -3   2    0.35    0.65
   5  -3   2    0.68    0.36
   6  -3   2    8.08    1.03
   6  -3   2    7.98    1.32
   7  -3   2    0.28    0.59
   7  -3   2    0.42    0.93
   8  -3   2    1.58    0.88
   8  -3   2    1.58    1.36
   8   2  -2    1.48    0.82
   8   2  -2   -0.73    0.95
   7   2  -2    1.55    0.77
   7   2  -2    1.20    0.63
   7   2  -2    0.20    1.15
   6   2  -2    2.60    0.68
   6   2  -2    0.98    0.83
   6   2  -2    2.34    0.63
   5   2  -2   18.73    1.55
   5   2  -2   17.77    1.50
   5   2  -2   16.16    1.76
   4   2  -2   -0.04    0.45
   4   2  -2    0.33    0.28
   4   2  -2    0.61    0.29
   4   2  -2    0.15    0.78
   3   2  -2  138.95    9.43
   3   2  -2  141.48    9.44
   3   2  -2  121.08    9.55
  -3  -2   2  132.09    9.39
   2   2  -2    1.61    0.48
   2   2  -2    2.54    0.33
   2   2  -2    2.57    0.32
  -2  -2   2    2.29    0.40
   1   2  -2  965.38   67.83
  -1  -2   2  953.17   67.85
  -1  -2   2 1000.00   67.83
   0   2  -2   55.91    3.89
   0   2  -2   53.90    3.86
   0  -2   2   56.28    3.89
   0  -2   2   52.36    3.85
  -1   2  -2   15.22    1.10
  -1   2  -2   15.26    1.21
  -1   2  -2   14.40    1.14
   1  -2   2   13.41    1.10
   1  -2   2   15.35    1.15
   1  -2   2   15.78    1.19
  -2   2  -2    1.32    0.38
   2  -2   2    1.97    0.35
   2  -2   2    1.99    0.48
   2  -2   2    1.83    0.24
   3  -2   2    6.12    0.78
   3  -2   2    5.95    0.73
   3  -2   2    6.99    0.59
   4  -2   2    4.76    0.78
   4  -2   2    5.21    0.55
   4  -2   2    5.40    0.84
   5  -2   2    5.61    0.73
   5  -2   2    8.90    1.27
   5  -2   2    7.41    1.24
   6  -2   2    2.48    1.12
   6  -2   2    1.84    0.77
   6  -2   2    1.77    0.64
   7  -2   2    0.69    1.28
   7  -2   2    1.09    0.94
   7  -2   2    0.96    0.61
   8  -2   2   -0.68    0.78
   8  -2   2    1.69    1.27
   8  -2   2    0.48    1.29
   8   1  -2    1.05    1.01
   8   1  -2    0.82    0.81
   7   1  -2   -0.18    0.78
   7   1  -2   -0.65    0.61
   7   1  -2    0.51    1.10
   6   1  -2    4.89    0.78
   6   1  -2    5.09    0.78
   5   1  -2    2.53    0.63
   5   1  -2    1.18    0.71
   5   1  -2    2.88    0.54
   4   1  -2    5.97    0.63
   4   1  -2    5.72    0.64
   3   1  -2    7.04    0.63
   3   1  -2    7.02    0.67
  -2  -1   2    4.67    0.51
   1   1  -2  222.75   15.56
   1   1  -2  218.65   15.54
  -1  -1   2  228.86   15.56
  -1  -1   2  219.83   15.54
   0   1  -2   23.11    1.65
   0   1  -2   23.86    1.69
   0  -1   2   23.22    1.68
   0  -1   2   22.82    1.65
  -1   1  -2   -0.01    0.20
   1  -1   2    0.19    0.20
  -2   1  -2    2.49    0.51
  -2   1  -2    2.53    0.26
   2  -1   2    2.74    0.41
   2  -1   2    2.29    0.27
   2  -1   2    2.39    0.41
   3  -1   2    6.25    0.55
   3  -1   2    5.90    0.79
   3  -1   2    6.17    0.75
   4  -1   2    2.11    0.36
   4  -1   2    2.40    0.62
   4  -1   2    2.46    0.71
   5  -1   2    0.82    0.76
   5  -1   2    1.75    1.07
   5  -1   2   -0.11    0.32
   6  -1   2   12.14    1.46
   6  -1   2   10.53    1.33
   6  -1   2   11.60    1.21
   7  -1   2    1.03    0.99
   7  -1   2    0.83    1.24
   7  -1   2    2.03    0.61
   7  -1   2    1.89    1.08
   8  -1   2    0.55    0.75
   8  -1   2    1.70    1.67
   8  -1   2   -0.11    1.26
   8  -1   2   -1.18    1.25
   8   0  -2    2.44    1.40
   8   0  -2   -0.69    0.92
   8   0  -2   -0.71    0.76
   7   0  -2   -0.35    0.63
   7   0  -2   -0.12    0.70
   7   0  -2   -0.87    1.02
   6   0  -2    0.99    1.19
   6   0  -2    0.91    0.46
   6   0  -2    2.22    0.58
   5   0  -2    4.03    0.57
   5   0  -2    3.10    0.64
   4   0  -2   47.85    3.44
   4   0  -2   49.67    3.51
   4   0  -2   44.99    3.59
   3   0  -2   44.96    3.19
   3   0  -2   41.14    3.25
   3   0  -2   44.64    3.12
   2   0  -2   89.63    6.73
   2   0  -2   99.46    6.63
   1   0  -2   15.60    1.18
   1   0  -2   17.05    1.25
  -1   0   2   16.52    1.18
  -1   0   2   15.13    1.13
   0   0  -2  101.28    7.51
   0   0  -2  105.00    7.43
   0   0   2  104.35    7.43
   0   0   2  115.07    7.52
  -1   0  -2   55.09    3.70
  -1   0  -2   50.23    3.81
   1   0   2   54.07    3.70
   1   0   2   51.86    3.83
  -2   0  -2   28.25    2.01
   2   0   2   26.03    2.00
   2   0   2   28.52    2.12
   2   0   2   29.50    2.16
   3   0   2   13.83    1.28
   3   0   2   13.09    1.06
   3   0   2   14.38    1.23
   4   0   2    7.14    0.88
   4   0   2    7.58    0.70
   4   0   2    7.30    1.04
   6   0   2    0.80    0.67
   6   0   2    2.28    1.02
   6   0   2    1.25    0.80
   6   0   2    2.46    0.98
   7   0   2   -0.11    0.57
   7   0   2   -0.23    0.97
   7   0   2   -0.25    0.92
   7   0   2    0.62    1.18
   8   0   2    0.17    1.72
   8   0   2   -0.38    0.76
   8   0   2   -1.23    1.06
   8   0   2    0.89    1.22
   9  -1  -2   -3.74    1.75
   8  -1  -2    1.29    1.36
   8  -1  -2   -0.32    0.81
   7  -1  -2    3.01    0.70
   7  -1  -2    2.63    1.16
   7  -1  -2    2.46    0.72
   6  -1  -2    2.10    0.56
   6  -1  -2    2.07    0.90
   6  -1  -2    1.57    0.54
   5  -1  -2    1.01    0.88
   5  -1  -2    0.54    0.47
   5  -1  -2   -0.38    0.36
   4  -1  -2    8.82    0.88
   4  -1  -2   10.97    1.13
   3  -1  -2    3.04    0.43
   3  -1  -2    3.16    0.65
   2  -1  -2   38.68    2.85
   2  -1  -2   39.67    2.95
   2  -1  -2   39.68    2.77
   1  -1  -2   31.49    2.21
   1  -1  -2   31.79    2.30
  -1   1   2   30.96    2.22
  -1   1   2   30.92    2.18
  -1   1   2   28.75    2.29
   0  -1  -2    5.50    0.60
   0   1   2    5.99    0.56
   0   1   2    5.64    0.61
   0   1   2    5.75    0.49
  -1  -1  -2   33.81    2.46
   1   1   2   35.94    2.62
  -2  -1  -2   19.44    1.41
   2   1   2   20.83    1.62
   2   1   2   18.23    1.41
   3   1   2    3.30    0.70
   3   1   2    2.80    0.37
   3   1   2    3.76    0.57
   3   1   2    2.44    0.51
   4   1   2    9.47    0.99
   4   1   2    9.04    1.29
   4   1   2    7.37    1.01
   4   1   2    9.29    0.81
   5   1   2    3.08    0.53
   5   1   2    4.53    0.94
   5   1   2    4.15    1.05
   5   1   2    4.15    0.81
   6   1   2    0.47    0.65
   6   1   2    1.64    1.12
   6   1   2    1.31    0.75
   6   1   2    2.41    1.18
   7   1   2    1.58    1.19
   7   1   2    0.99    0.61
   7   1   2    0.90    0.97
   7   1   2    0.11    0.88
   8   1   2   -1.23    1.62
   8   1   2    0.96    0.87
   8   1   2   -0.71    1.17
   9  -2  -2   -1.96    1.90
   8  -2  -2    0.08    1.38
   8  -2  -2    0.10    0.81
   7  -2  -2    0.40    1.07
   7  -2  -2    0.78    0.68
   7  -2  -2    0.86    0.63
   6  -2  -2    1.27    0.57
   6  -2  -2    2.12    0.96
   6  -2  -2    1.81    0.62
   5  -2  -2    0.47    1.20
   5  -2  -2    0.73    0.47
   4  -2  -2    8.72    0.89
   4  -2  -2    9.15    0.84
   4  -2  -2   10.56    1.23
   3  -2  -2   10.29    0.90
   3  -2  -2   10.75    1.11
   3  -2  -2   10.13    0.81
   2  -2  -2   38.70    3.08
   2  -2  -2   41.72    2.96
   2  -2  -2   41.98    2.90
  -2   2   2   40.68    2.90
   1  -2  -2    0.36    0.17
   1  -2  -2    0.34    0.33
   1  -2  -2    0.67    0.16
  -1   2   2    0.15    0.32
  -1   2   2    0.17    0.14
   0  -2  -2    2.45    0.34
   0   2   2    1.86    0.40
   0   2   2    1.40    0.26
   0   2   2    1.09    0.53
  -1  -2  -2   41.06    2.82
   1   2   2   41.86    3.01
   1   2   2   36.00    2.89
  -2  -2  -2    0.55    0.23
   2   2   2    0.54    0.18
   2   2   2    1.56    0.54
   2   2   2    0.52    0.32
   3   2   2    7.99    0.85
   3   2   2    5.99    1.06
   3   2   2    7.68    0.67
   3   2   2    7.35    0.80
   4   2   2    0.73    0.30
   4   2   2    0.34    0.52
   4   2   2    0.29    0.71
   5   2   2   -0.34    0.60
   5   2   2    0.50    0.37
   5   2   2   -0.36    0.60
   5   2   2    0.26    0.87
   6   2   2   -1.07    1.07
   6   2   2   -0.08    0.72
   6   2   2   -0.14    0.64
   6   2   2   -1.03    0.93
   7   2   2    1.41    0.71
   7   2   2   -1.87    1.12
   7   2   2    0.26    0.97
   8   2   2   -0.13    0.92
   8   2   2   -0.56    1.64
   8   2   2    0.05    1.27
   8  -3  -2    0.41    0.82
   8  -3  -2    2.07    1.55
   7  -3  -2    3.80    1.27
   7  -3  -2   -0.37    0.62
   7  -3  -2   -0.03    0.68
   6  -3  -2   -0.29    0.89
   6  -3  -2    1.08    0.57
   5  -3  -2    1.07    0.82
   5  -3  -2    1.48    0.55
   4  -3  -2    2.95    0.54
   4  -3  -2    2.13    0.91
   3  -3  -2    6.21    0.59
   3  -3  -2    7.46    0.95
   3  -3  -2    5.93    0.62
   2  -3  -2    5.47    0.82
   2  -3  -2    6.72    0.57
   2  -3  -2    6.59    0.61
  -2   3   2    6.19    0.56
   1  -3  -2   -0.01    0.25
   1  -3  -2    0.10    0.39
  -1   3   2   -0.03    0.17
  -1   3   2   -0.04    0.34
   0  -3  -2    0.46    0.40
   0   3   2    0.16    0.20
   0   3   2    0.41    0.45
   1   3   2    9.69    1.03
   1   3   2    9.22    0.86
   2   3   2    0.60    0.54
   3   3   2    6.58    0.64
   3   3   2    6.22    0.77
   3   3   2    6.99    1.27
   4   3   2    0.75    0.74
   4   3   2    0.64    0.57
   4   3   2    1.53    0.67
   4   3   2    1.16    0.37
   5   3   2    0.33    0.61
   5   3   2    2.03    0.63
   5   3   2   -0.65    0.43
   5   3   2    1.46    0.98
   6   3   2    1.61    0.66
   6   3   2    2.33    0.94
   6   3   2    1.70    0.97
   6   3   2    1.31    1.16
   7   3   2   -0.19    1.13
   7   3   2    0.44    0.74
   7   3   2    0.23    1.00
   8   3   2   -0.04    1.27
   8   3   2    0.57    0.99
   8   3   2    1.73    1.62
   8  -4  -2    1.72    0.82
   8  -4  -2   -1.54    1.53
   7  -4  -2    0.25    0.70
   7  -4  -2    0.90    1.19
   6  -4  -2    5.54    1.32
   6  -4  -2    3.30    0.71
   5  -4  -2    1.10    0.84
   5  -4  -2    0.63    0.51
   4  -4  -2    0.64    0.65
   4  -4  -2    1.13    0.45
   3  -4  -2    1.14    0.71
   3  -4  -2    0.58    0.26
  -3   4   2    0.47    0.27
   2  -4  -2   17.30    1.55
   2  -4  -2   15.53    1.30
  -2   4   2   15.69    1.28
  -2   4   2   17.20    1.43
  -1   4   2   20.23    1.62
  -1   4   2   21.78    1.73
   3   4   2    3.33    0.70
   3   4   2    3.61    0.49
   4   4   2    7.26    1.08
   4   4   2    7.25    0.82
   4   4   2    7.97    1.39
   4   4   2    7.26    0.91
   5   4   2    5.01    1.00
   5   4   2    4.27    0.77
   5   4   2    4.27    0.93
   5   4   2    1.86    0.98
   6   4   2    0.75    0.72
   6   4   2    0.82    1.26
   6   4   2    0.62    0.90
   7   4   2   -1.17    2.08
   7   4   2   -0.46    0.97
   7   4   2    0.11    0.84
   8  -5  -2    2.40    1.68
   8  -5  -2    0.15    1.56
   7  -5  -2    0.75    1.37
   7  -5  -2   -0.27    0.69
   6  -5  -2    3.87    1.19
   6  -5  -2    2.25    0.70
   5  -5  -2    2.01    0.83
   5  -5  -2    0.76    0.50
   4  -5  -2   -0.92    0.72
   4  -5  -2    0.15    0.40
   3  -5  -2    0.69    0.33
  -3   5   2    0.03    0.55
  -3   5   2    0.21    0.30
   2  -5  -2    0.76    0.68
   2  -5  -2    0.60    0.31
  -2   5   2    0.29    0.28
  -2   5   2    1.15    0.50
   1  -5  -2    0.35    0.52
  -1   5   2    1.12    0.33
  -1   5   2    1.24    0.58
   0  -5  -2   -0.14    0.52
   0   5   2   -0.28    0.59
   0   5   2    0.18    0.31
  -2  -5  -2   -3.94   12.98
   2   5   2   -1.60   13.90
   4   5   2    2.18    0.63
   4   5   2    1.36    0.51
   4   5   2    1.23    0.61
   4   5   2    0.95    0.93
   5   5   2    1.47    0.83
   5   5   2    0.46    1.04
   5   5   2    0.55    0.67
   6   5   2    2.31    1.35
   6   5   2    1.82    0.83
   6   5   2    2.46    1.06
   7   5   2    0.51    1.69
   7   5   2   -1.39    0.95
   7   5   2   -0.41    1.21
   8  -6  -2   -0.57    0.92
   8  -6  -2    2.70    1.94
   7  -6  -2    1.00    0.75
   7  -6  -2    1.89    1.57
   6  -6  -2    0.61    0.76
   6  -6  -2    0.90    1.17
   5  -6  -2    1.43    0.63
   5  -6  -2    0.57    1.01
   4  -6  -2    1.11    0.91
   4  -6  -2    1.25    0.44
  -4   6   2    0.63    0.79
  -4   6   2    0.21    0.41
   3  -6  -2   15.34    1.75
   3  -6  -2   17.27    1.49
  -3   6   2   18.70    1.60
  -3   6   2   16.24    1.41
   2  -6  -2    0.19    0.91
  -2   6   2    1.32    0.41
  -2   6   2    0.40    0.57
   1  -6  -2    0.79    0.75
  -1   6   2   -0.95    0.65
  -1   6   2   -0.11    0.32
   0  -6  -2   -0.02    0.70
   0   6   2   -0.85    0.70
   0   6   2   -0.81    0.70
   0   6   2    0.01    0.37
   1   6   2   -1.09    0.95
   2   6   2   -0.15    0.77
   2   6   2   -0.34    0.50
   4   6   2   -0.94    0.59
   4   6   2    0.82    1.02
   4   6   2   -0.10    0.62
   5   6   2    0.81    1.25
   5   6   2   -0.11    0.75
   6   6   2   -0.34    1.72
   6   6   2    0.54    0.97
   6   6   2    2.79    0.89
   7   6   2   -0.92    1.85
   8  -7  -2    0.52    0.93
   8  -7  -2    0.62    2.02
   7  -7  -2    0.78    0.74
   7  -7  -2    1.67    1.41
   6  -7  -2    0.59    1.41
   6  -7  -2   -1.31    0.69
  -6   7   2    0.44    1.14
   5  -7  -2    0.57    0.91
   5  -7  -2    2.63    0.67
  -5   7   2    2.83    1.14
   4  -7  -2   10.02    1.20
   4  -7  -2   12.32    1.59
  -4   7   2   11.68    1.41
  -4   7   2   12.12    1.17
   3  -7  -2    1.58    0.96
   3  -7  -2    2.04    0.55
  -3   7   2    3.06    0.81
  -3   7   2    1.61    0.48
   2  -7  -2    3.94    0.88
  -2   7   2    3.08    0.91
  -1   7   2    9.82    1.05
   1   7   2    3.41    0.69
   1   7   2   -0.21    0.89
   2   7   2    0.33    0.91
   2   7   2    0.89    0.61
   3   7   2    2.22    1.10
   3   7   2    4.10    0.91
   4   7   2    3.95    0.94
   4   7   2   -1.40    1.08
   5   7   2    2.41    1.00
   5   7   2   -0.14    1.28
   6   7   2    0.27    1.06
   6   7   2   -0.47    1.47
   7  -8  -2    1.05    0.83
   7  -8  -2    0.16    1.51
   6  -8  -2   -1.45    0.71
   6  -8  -2   -1.59    1.15
   5  -8  -2   -0.48    0.61
   5  -8  -2   -1.78    1.20
  -5   8   2    0.47    1.13
   4  -8  -2    0.94    1.13
   4  -8  -2    0.08    0.60
  -4   8   2    0.42    0.98
  -4   8   2   -0.14    0.55
   3  -8  -2   -0.23    0.54
   3  -8  -2   -0.36    0.98
  -3   8   2    0.23    0.52
  -3   8   2   -0.82    1.02
   2  -8  -2    0.05    0.84
  -2   8   2    0.73    0.99
   1  -8  -2   -0.76    0.92
  -1   8   2    1.36    0.65
  -1   8   2    0.31    1.19
   1   8   2    2.01    0.66
   1   8   2    1.05    0.98
   2   8   2    0.17    0.66
   2   8   2   -1.02    1.04
   3   8   2    1.42    1.31
   3   8   2    0.78    0.75
   4   8   2    0.94    0.92
   4   8   2   -0.25    1.43
   7  -9  -2   -0.65    1.80
   7  -9  -2    1.38    1.07
   6  -9  -2    0.24    0.89
   5  -9  -2    0.79    1.47
   5  -9  -2   -0.35    0.72
  -5   9   2   -0.60    0.96
   4  -9  -2    1.12    0.57
   4  -9  -2    0.87    1.24
  -4   9   2    1.32    1.47
  -4   9   2    1.63    0.85
   3  -9  -2    2.92    0.67
  -3   9   2    4.01    0.83
  -3   9   2    1.53    1.46
   2  -9  -2   -1.82    1.06
  -2   9   2    0.73    1.47
   1  -9  -2   -0.98    0.96
  -1   9   2    0.28    1.03
  -1   9   2    2.58    0.72
   0  -9  -2   -0.91    1.12
   0   9   2   -0.04    1.12
   0   9   2   -0.14    0.64
   1   9   2    0.12    1.11
   1   9   2    1.46    0.86
   2   9   2   -1.38    1.21
   2   9   2   -0.37    0.85
   3   9   2   -0.01    1.47
   3   9   2    0.43    0.77
   4   9   2    0.44    1.61
   4   9   2    0.28    1.21
   5   9   2   -1.28    1.09
   5   9   2    0.50    1.76
   6 -10  -2    2.25    1.89
   6 -10  -2    0.69    0.94
   5 -10  -2   -0.09    0.69
   5 -10  -2    1.05    1.54
  -5  10   2    1.27    1.49
   4 -10  -2    0.46    0.75
   4 -10  -2    1.61    1.41
  -4  10   2    0.43    0.82
   3 -10  -2    0.24    0.73
   3 -10  -2   -1.24    1.19
  -3  10   2   -0.80    0.73
  -3  10   2    0.29    1.41
   2 -10  -2   -1.12    1.23
  -2  10   2   -0.50    1.15
  -2  10   2    1.32    0.80
   1 -10  -2   -0.49    1.29
  -1  10   2    0.32    1.18
  -1  10   2   -0.17    0.77
   0 -10  -2    0.83    1.16
   0  10   2    0.77    0.85
   0  10   2   -0.43    1.23
   1  10   2    0.35    0.93
   1  10   2    1.14    1.34
   2  10   2    1.67    0.95
   2  10   2    0.90    1.49
   3  10   2    1.67    1.76
   3  10   2    0.04    1.57
   4  10   2    0.44    1.84
   4  10   2    0.57    1.00
   5 -11  -2   -0.31    1.91
   5 -11  -2    0.70    0.95
   4 -11  -2    0.57    1.64
  -4  11   2    0.12    0.95
   3 -11  -2    1.71    1.53
   3 -11  -2    1.53    0.85
  -3  11   2    0.66    0.93
   2 -11  -2    1.74    1.57
  -2  11   2    0.61    0.99
  -2  11   2   -0.26    1.35
   1 -11  -2   -1.11    1.43
  -1  11   2   -1.65    0.92
  -1  11   2    1.58    1.35
   0 -11  -2    2.07    1.55
   0  11   2   -0.33    1.43
   0  11   2    0.45    0.98
   1  11   2    2.06    1.61
   1  11   2   -0.36    0.96
   2  11   2    3.01    1.81
   2  11   2   -0.49    1.18
   3  11   2    1.07    1.97
   3  11   2    0.69    1.07
   4 -12  -2    2.21    2.08
   3 -12  -2   -0.11    0.90
   3 -12  -2    0.05    1.87
  -3  12   2   -1.93    1.09
   2 -12  -2    0.43    1.92
  -2  12   2    0.79    1.13
   1 -12  -2   -0.53    1.84
  -1  12   2   -0.30    1.61
  -1  12   2   -0.57    1.14
   0  12   2   -0.26    1.21
   0  12   2    1.65    1.68
   1  12   2    1.80    1.93
   1  12   2   -0.10    1.18
   0  14  -3   -0.42    1.16
  -1  14  -3   -2.38    1.09
  -2  14  -3   -0.15    1.12
   2 -14   3   -1.76    1.74
   3 -14   3   -0.95    1.94
   2  13  -3    0.03    0.96
   2  13  -3   -1.49    1.98
   1  13  -3   -1.10    1.12
   0  13  -3   -0.40    0.90
  -1  13  -3   -0.25    0.87
   1 -13   3    0.00    1.44
  -2  13  -3   -0.15    1.03
   2 -13   3   -1.89    1.32
  -3  13  -3   -0.51    0.98
   3 -13   3    2.35    1.58
  -4  13  -3   -0.33    1.05
   4 -13   3   -0.45    1.71
   5 -13   3    1.06    1.75
   3  12  -3    0.88    1.13
   3  12  -3    1.63    1.88
   2  12  -3   -0.56    1.62
   2  12  -3    1.37    0.86
   1  12  -3    1.21    0.86
   0  12  -3   -2.17    2.44
   0  12  -3    1.43    0.98
   0 -12   3    2.07    1.34
  -1  12  -3    1.25    0.94
   1 -12   3    0.44    1.14
  -2  12  -3    0.61    0.81
   2 -12   3   -1.22    1.18
  -3  12  -3    1.17    0.98
   3 -12   3    0.82    1.37
  -4  12  -3    0.97    0.98
   4 -12   3    0.86    1.57
  -5  12  -3   -0.30    1.10
   5 -12   3    0.48    0.98
   6 -12   3    0.67    1.88
   4  11  -3    0.99    1.88
   3  11  -3    0.13    0.77
   3  11  -3    1.54    1.62
   2  11  -3    1.52    1.42
   2  11  -3   -0.28    0.75
   1  11  -3   -1.46    0.69
   1  11  -3    0.28    1.25
   0  11  -3   -1.09    1.27
   0  11  -3    0.56    0.70
   0 -11   3    0.56    1.23
  -1  11  -3    0.92    0.67
   1 -11   3   -0.91    0.95
  -2  11  -3    3.11    0.86
   2 -11   3    1.50    1.15
  -3  11  -3   -0.87    0.79
   3 -11   3    0.01    1.18
  -4  11  -3    1.08    0.88
   4 -11   3    0.68    1.27
   5 -11   3    0.12    0.68
   5 -11   3   -0.04    1.56
   6 -11   3    1.08    1.66
   5  10  -3    2.44    1.91
   5  10  -3   -0.54    1.22
   4  10  -3    0.27    0.88
   4  10  -3   -1.72    1.44
   3  10  -3    0.93    1.34
   3  10  -3    1.00    0.92
   2  10  -3    0.94    0.74
   2  10  -3    0.41    1.16
   1  10  -3   -0.66    1.53
   1  10  -3    0.76    0.66
  -1 -10   3    0.04    0.85
   0  10  -3   -0.18    0.54
   0  10  -3   -0.75    1.01
   0 -10   3   -0.18    0.92
  -1  10  -3   -0.35    0.95
   1 -10   3    0.83    0.98
  -2  10  -3    1.60    0.60
   2 -10   3    0.81    0.90
  -3  10  -3    1.67    0.78
   3 -10   3    0.78    1.07
  -4  10  -3    0.11    0.77
   4 -10   3    0.37    1.13
   5 -10   3    0.47    1.24
   5 -10   3    0.01    0.73
   6 -10   3   -0.82    1.44
   6 -10   3   -1.76    0.78
   7 -10   3    1.16    1.15
   7 -10   3    0.37    1.72
   6   9  -3    0.59    1.09
   6   9  -3   -0.58    2.19
   6   9  -3    0.79    1.72
   5   9  -3    1.41    1.42
   5   9  -3    0.43    0.80
   5   9  -3    0.08    1.13
   4   9  -3   -0.81    1.29
   4   9  -3    1.21    0.85
   4   9  -3    1.36    0.64
   3   9  -3   -1.30    1.05
   3   9  -3    0.41    0.69
   2   9  -3   -0.95    0.64
   2   9  -3   -0.53    0.95
   1   9  -3    0.35    1.06
   1   9  -3    0.91    0.61
  -1  -9   3    0.26    0.65
   0   9  -3    0.29    0.51
   0   9  -3   -0.83    0.83
   0  -9   3    0.83    0.66
  -1   9  -3    0.76    0.78
  -1   9  -3    1.01    0.54
   1  -9   3    0.72    0.88
  -2   9  -3    0.98    0.58
   2  -9   3    0.09    0.75
  -3   9  -3    0.25    0.64
   3  -9   3   -0.55    0.82
  -4   9  -3   -0.01    0.69
   4  -9   3    0.68    0.90
   5  -9   3   -0.37    1.05
   5  -9   3    0.60    0.64
   6  -9   3    0.91    0.92
   6  -9   3    1.09    1.29
   7  -9   3    1.76    1.34
   7  -9   3    0.75    0.93
   6   8  -3    0.57    1.14
   6   8  -3    0.28    1.47
   6   8  -3   -0.26    0.86
   5   8  -3    0.45    0.92
   5   8  -3   -0.88    0.75
   5   8  -3   -0.71    1.23
   4   8  -3    2.13    0.78
   4   8  -3    1.41    0.79
   4   8  -3    0.91    1.13
   3   8  -3    0.60    0.53
   3   8  -3    1.07    0.76
   3   8  -3    0.65    0.88
   2   8  -3    1.14    0.60
   1   8  -3   -0.30    0.82
  -1  -8   3    0.23    0.57
   0   8  -3    0.49    0.62
   0   8  -3   -1.15    0.67
   0  -8   3    0.39    0.56
  -1   8  -3    0.66    0.63
   1  -8   3    0.24    0.74
   1  -8   3    0.41    0.46
  -2   8  -3   -0.11    0.57
   2  -8   3    0.00    1.36
  -3   8  -3    0.44    0.59
   3  -8   3   -0.87    0.73
  -4   8  -3    4.36    0.91
   4  -8   3    4.70    1.09
   4  -8   3    4.12    0.78
   5  -8   3    3.83    0.72
   5  -8   3    2.49    0.95
   6  -8   3    1.75    0.71
   6  -8   3    0.87    1.08
   7  -8   3    1.44    0.94
   7  -8   3    1.66    1.45
   8  -8   3    1.39    1.70
   8  -8   3   -0.80    1.10
   7   7  -3   -0.52    1.26
   6   7  -3   -0.06    0.99
   6   7  -3   -0.46    1.26
   6   7  -3    0.74    0.77
   5   7  -3    0.34    1.11
   5   7  -3    0.39    0.54
   5   7  -3    1.33    0.87
   4   7  -3   -0.15    0.60
   4   7  -3    0.14    0.91
   4   7  -3   -0.10    0.41
   3   7  -3    0.02    0.79
   3   7  -3    1.73    0.49
   3   7  -3    1.65    0.62
   2   7  -3   -1.10    0.84
   2   7  -3    0.88    0.72
   2   7  -3    1.43    0.48
  -2  -7   3    0.10    0.28
   1   7  -3   -1.02    0.64
  -1  -7   3    0.17    0.42
   0   7  -3    8.08    0.91
   0  -7   3    7.20    0.90
  -1   7  -3    0.57    0.39
   1  -7   3    1.70    0.60
   1  -7   3    0.19    0.38
  -2   7  -3    0.73    0.48
   2  -7   3    0.55    0.71
  -3   7  -3    1.23    0.53
   3  -7   3    0.23    0.64
   4  -7   3    5.54    0.83
   4  -7   3    4.79    1.03
   5  -7   3    1.50    0.61
   5  -7   3    2.23    0.93
   6  -7   3    0.77    0.61
   6  -7   3    1.36    0.91
   7  -7   3   -0.87    0.86
   7  -7   3   -0.28    1.15
   8  -7   3    0.23    0.98
   8  -7   3   -1.54    1.60
   7   6  -3   -0.51    0.82
   7   6  -3    1.19    1.18
   6   6  -3    0.91    0.69
   6   6  -3   -0.66    1.09
   6   6  -3    0.83    0.91
   5   6  -3    0.88    0.55
   5   6  -3    0.55    0.73
   5   6  -3    0.57    0.86
   4   6  -3   -0.54    0.43
   4   6  -3    0.39    0.69
   4   6  -3   -0.44    0.78
   3   6  -3    7.14    0.89
   3   6  -3    6.81    0.97
   2   6  -3    0.15    0.37
   2   6  -3   -0.14    0.31
   2   6  -3   -0.30    0.68
   1   6  -3   49.28    3.92
  -1  -6   3   56.17    3.83
   0   6  -3    6.27    0.77
   0  -6   3    8.87    0.86
  -1   6  -3    6.29    0.76
   1  -6   3    6.98    0.82
  -2   6  -3   12.38    1.16
   2  -6   3   12.16    1.25
  -3   6  -3    6.94    0.82
   3  -6   3    5.18    1.03
   4  -6   3    5.97    0.75
   4  -6   3    6.75    1.07
   5  -6   3    1.20    0.81
   5  -6   3    1.92    0.54
   6  -6   3    6.49    0.96
   6  -6   3    6.18    1.27
   7  -6   3    0.40    1.01
   7  -6   3    0.30    0.78
   8  -6   3   -2.07    0.85
   8  -6   3    1.14    2.07
   8   5  -3    0.32    1.01
   8   5  -3   -0.06    1.31
   7   5  -3   -0.20    0.68
   7   5  -3    1.98    1.10
   6   5  -3    2.41    0.66
   6   5  -3    1.66    0.92
   5   5  -3    3.09    1.01
   5   5  -3    1.41    0.58
   5   5  -3    2.52    0.77
   4   5  -3    0.48    0.74
   4   5  -3    1.30    0.43
   4   5  -3    1.60    0.55
   3   5  -3    1.07    0.85
   3   5  -3    1.41    0.46
   3   5  -3    2.54    0.46
   2   5  -3    1.64    0.44
   2   5  -3    1.46    0.32
   2   5  -3    0.13    0.59
  -2  -5   3    1.61    0.27
   1   5  -3    1.54    0.35
   1   5  -3    0.24    0.52
   1   5  -3    1.30    0.27
  -1  -5   3    0.93    0.33
   0  -5   3    4.88    0.64
  -1   5  -3    0.36    0.31
   1  -5   3    0.78    0.48
  -2   5  -3    2.70    0.50
   2  -5   3    3.10    0.61
   3  -5   3   -0.02    0.46
  -4   5  -3    0.03    0.70
   4  -5   3    1.01    0.68
   4  -5   3    2.04    0.39
   5  -5   3    6.44    1.10
   6  -5   3    5.66    0.85
   6  -5   3    3.57    1.00
   7  -5   3    1.22    1.11
   7  -5   3   -1.23    0.60
   8  -5   3    0.59    0.96
   8  -5   3    1.73    1.45
   8   4  -3   -0.92    1.42
   8   4  -3   -0.26    1.20
   7   4  -3    0.18    0.87
   7   4  -3    0.60    0.74
   6   4  -3    2.40    0.73
   6   4  -3    2.19    0.83
   5   4  -3    4.06    0.78
   5   4  -3    3.10    0.63
   4   4  -3    5.64    0.71
   4   4  -3    4.51    0.73
   3   4  -3    5.66    0.63
   3   4  -3    5.80    0.68
   2   4  -3    0.37    0.29
   2   4  -3   -0.11    0.20
   2   4  -3   -0.04    0.48
  -2  -4   3    0.01    0.27
   1   4  -3    1.06    0.24
   1   4  -3    1.39    0.33
  -1  -4   3    1.22    0.32
   0   4  -3    0.49    0.24
   0  -4   3    0.34    0.33
   0  -4   3    0.12    0.36
  -1   4  -3   30.94    2.09
   1  -4   3   23.31    2.12
  -2   4  -3    0.23    0.23
   2  -4   3    0.35    0.48
  -3   4  -3    6.08    0.72
   3  -4   3    6.64    0.94
   3  -4   3    6.66    0.59
   3  -4   3    4.45    0.65
   4  -4   3    0.03    0.28
   4  -4   3    0.15    0.83
   4  -4   3    0.13    0.60
   5  -4   3    0.68    0.56
   5  -4   3    0.00    0.89
   5  -4   3   -0.29    0.37
   6  -4   3    2.11    0.65
   6  -4   3    2.39    0.94
   6  -4   3    1.68    1.43
   7  -4   3    0.17    0.99
   7  -4   3    0.33    0.63
   8  -4   3   -0.22    0.87
   8  -4   3    0.29    1.35
   8   3  -3    0.94    1.12
   8   3  -3    0.79    0.85
   7   3  -3   -0.08    0.81
   7   3  -3    0.26    0.70
   6   3  -3    1.83    0.59
   6   3  -3    0.68    0.80
   6   3  -3    2.75    1.05
   5   3  -3    5.42    0.77
   5   3  -3    5.51    0.83
   4   3  -3   -0.07    0.44
   4   3  -3    0.40    0.33
   4   3  -3   -0.01    0.32
  -4  -3   3   -0.38    0.81
   3   3  -3    3.42    0.50
   3   3  -3    3.72    0.48
  -3  -3   3    2.93    0.49
   2   3  -3    0.68    0.23
   2   3  -3    0.67    0.24
  -2  -3   3    0.03    0.28
   1   3  -3    3.64    0.44
   1   3  -3    4.45    0.41
   0   3  -3    0.61    0.23
   0   3  -3    0.59    0.15
   0  -3   3    0.15    0.25
  -1   3  -3   56.37    4.10
   1  -3   3   54.11    4.14
   1  -3   3   59.71    4.04
  -2   3  -3    2.09    0.35
   2  -3   3    2.33    0.60
   3  -3   3    0.50    0.22
   3  -3   3    0.22    0.44
   3  -3   3    1.03    0.49
   4  -3   3   11.43    1.31
   4  -3   3   10.06    1.12
   4  -3   3   10.74    0.94
   5  -3   3    2.08    0.89
   5  -3   3    2.50    0.75
   5  -3   3    2.01    0.44
   6  -3   3    1.36    1.14
   6  -3   3    1.51    0.67
   6  -3   3    0.72    0.75
   7  -3   3    0.19    0.56
   7  -3   3    1.07    1.05
   7  -3   3   -0.26    1.19
   8  -3   3    0.04    0.79
   8  -3   3    0.15    1.30
   8   2  -3    1.56    0.84
   7   2  -3    7.70    1.22
   7   2  -3    6.16    0.99
   6   2  -3   -0.56    0.56
   6   2  -3   -0.81    0.77
   6   2  -3   -0.51    0.50
   5   2  -3    6.61    0.87
   5   2  -3    6.82    0.80
   4   2  -3    0.88    0.33
   4   2  -3    0.47    0.33
   4   2  -3    0.49    0.52
   3   2  -3   28.67    2.09
   3   2  -3   27.42    2.12
   2   2  -3    0.92    0.22
   2   2  -3    0.81    0.21
  -2  -2   3    0.32    0.34
  -2  -2   3    0.96    0.23
   1   2  -3  241.86   16.63
   1   2  -3  228.14   16.62
  -1  -2   3  242.52   16.63
   0   2  -3  247.13   16.80
   0   2  -3  241.79   16.76
   0  -2   3  237.38   16.76
   0  -2   3  233.12   16.80
  -1   2  -3    0.81    0.33
   1  -2   3    1.06    0.25
   1  -2   3    0.67    0.31
  -2   2  -3    0.11    0.36
   2  -2   3   -0.19    0.31
   2  -2   3    0.07    0.13
   2  -2   3    0.01    0.34
   3  -2   3    4.32    0.45
   3  -2   3    4.01    0.69
   3  -2   3    3.92    0.69
   4  -2   3   -0.01    0.61
   4  -2   3    0.08    0.60
   4  -2   3    0.38    0.26
   5  -2   3    1.21    0.99
   5  -2   3    1.08    0.66
   5  -2   3    0.07    0.34
   6  -2   3   10.50    1.41
   6  -2   3    7.20    1.27
   6  -2   3    7.22    0.93
   7  -2   3    0.52    1.04
   7  -2   3    1.12    0.64
   7  -2   3   -0.46    1.22
   8  -2   3   -0.86    1.27
   8  -2   3   -0.24    1.57
   8  -2   3    1.15    1.18
   8  -2   3    0.60    0.79
   8   1  -3   -0.82    0.81
   8   1  -3    0.81    1.58
   7   1  -3    2.03    0.76
   7   1  -3   -0.63    1.12
   7   1  -3    1.02    0.77
   6   1  -3    0.84    0.51
   6   1  -3   -0.41    0.97
   6   1  -3    1.06    0.54
   5   1  -3    0.55    0.52
   5   1  -3    0.14    0.36
   5   1  -3   -1.26    0.62
   4   1  -3    1.09    0.34
   4   1  -3    0.41    0.53
   4   1  -3    0.68    0.29
   3   1  -3   10.79    0.86
   3   1  -3   10.79    0.92
   2   1  -3    0.32    0.38
   2   1  -3    1.07    0.22
   2   1  -3    0.90    0.19
  -2  -1   3    0.75    0.16
   1   1  -3   79.65    5.80
  -1  -1   3   83.01    5.80
  -1  -1   3   84.03    5.78
   0  -1   3   75.60    5.35
   0  -1   3   75.58    5.30
  -1   1  -3   -0.09    0.32
   1  -1   3    0.07    0.05
   1  -1   3    0.01    0.26
   2  -1   3    4.73    0.42
   2  -1   3    4.97    0.58
  -3   1  -3   18.88    1.46
   3  -1   3   19.48    1.64
   3  -1   3   20.27    1.65
   3  -1   3   19.88    1.45
   4  -1   3   17.39    1.35
   4  -1   3   15.83    1.61
   4  -1   3   19.16    1.63
   5  -1   3    4.70    1.09
   5  -1   3    3.23    0.51
   5  -1   3    5.44    1.43
   6  -1   3    4.07    1.16
   6  -1   3    2.21    0.89
   7  -1   3   -0.19    1.14
   7  -1   3    1.14    0.60
   7  -1   3    0.20    1.04
   7  -1   3   -0.32    1.03
   8  -1   3   -0.37    1.34
   8  -1   3    0.50    1.29
   8  -1   3   -0.85    0.73
   8  -1   3   -0.34    1.57
   8   0  -3    0.45    0.78
   8   0  -3    0.19    1.46
   7   0  -3    3.61    0.89
   7   0  -3    0.83    1.11
   7   0  -3    2.15    0.65
   6   0  -3    6.00    0.76
   6   0  -3    5.43    0.84
   6   0  -3    3.93    1.19
   5   0  -3   10.41    0.97
   5   0  -3   11.28    1.10
   4   0  -3   23.21    1.93
   4   0  -3   21.62    1.74
   4   0  -3   21.20    1.63
   3   0  -3    2.89    0.46
   3   0  -3    3.77    0.34
   2   0  -3    3.93    0.65
   2   0  -3    6.07    0.52
   1   0  -3   36.19    2.47
   1   0  -3   31.41    2.56
  -1   0   3   34.78    2.43
  -1   0   3   34.59    2.47
   0   0  -3    4.83    0.37
   0   0   3    4.57    0.55
   0   0   3    4.49    0.37
   1   0   3   10.93    1.00
  -2   0  -3   33.37    2.37
   2   0   3   31.83    2.37
   2   0   3   35.74    2.60
  -3   0  -3   -0.01    0.19
   3   0   3   -0.10    0.17
   3   0   3    0.02    0.38
   3   0   3   -0.02    0.57
   4   0   3    1.09    0.62
   4   0   3    2.01    0.88
   4   0   3    0.96    0.30
   5   0   3    0.92    0.86
   5   0   3   -1.18    0.78
   5   0   3   -0.16    0.31
   6   0   3    1.29    0.98
   6   0   3    1.68    1.11
   6   0   3    1.63    0.51
   6   0   3    1.58    0.83
   7   0   3   -0.50    0.65
   7   0   3   -1.39    1.05
   7   0   3    0.00    1.01
   7   0   3   -0.07    1.26
   8   0   3    2.26    0.82
   8   0   3    0.18    1.33
   8   0   3    0.81    1.68
   8   0   3    1.81    1.23
   8  -1  -3   -2.34    1.48
   8  -1  -3   -0.68    0.77
   7  -1  -3    0.84    0.64
   7  -1  -3    2.11    1.26
   7  -1  -3    1.52    0.72
   6  -1  -3    0.37    0.54
   6  -1  -3   -0.26    0.46
   6  -1  -3   -0.02    0.91
   5  -1  -3    9.65    1.64
   5  -1  -3    9.29    0.97
   5  -1  -3    8.51    0.84
   4  -1  -3    4.46    1.00
   4  -1  -3    3.06    0.42
   4  -1  -3    3.26    0.40
   4  -1  -3    2.74    0.49
   3  -1  -3    1.45    0.35
   3  -1  -3    3.13    0.73
   2  -1  -3    6.94    0.64
   2  -1  -3    6.93    0.77
   1  -1  -3    0.34    0.15
   1  -1  -3    0.22    0.34
  -1   1   3   -0.03    0.14
   0  -1  -3   10.49    0.77
   0   1   3   10.10    0.94
  -1  -1  -3    0.06    0.09
   1   1   3   -0.24    0.44
  -2  -1  -3   49.63    3.49
   2   1   3   48.22    3.49
   2   1   3   50.43    3.74
   3   1   3   16.89    1.20
   3   1   3   16.55    1.54
   3   1   3   13.86    1.34
   4   1   3    0.83    0.74
   4   1   3    0.07    1.05
   4   1   3   -0.11    0.26
   4   1   3    0.78    0.58
   5   1   3   -0.16    0.35
   5   1   3    0.11    0.76
   5   1   3   -0.03    0.71
   5   1   3   -0.06    0.81
   6   1   3    0.34    0.51
   6   1   3    1.77    0.91
   6   1   3    1.14    1.13
   6   1   3    2.21    0.91
   7   1   3    1.82    0.79
   7   1   3    0.69    1.18
   7   1   3    2.58    1.46
   7   1   3    3.03    1.13
   8   1   3   -2.85    2.07
   8   1   3   -0.08    1.22
   8   1   3   -1.02    0.85
   8  -2  -3    2.37    1.68
   8  -2  -3    0.17    0.77
   7  -2  -3    1.57    1.28
   7  -2  -3    1.04    0.79
   6  -2  -3    0.88    1.03
   6  -2  -3    0.56    0.45
   6  -2  -3   -0.44    0.50
   5  -2  -3    0.70    0.44
   5  -2  -3    1.18    0.38
   5  -2  -3    1.99    0.97
   5  -2  -3    0.78    0.39
   4  -2  -3    0.14    0.81
   4  -2  -3    0.33    0.32
   3  -2  -3   14.99    1.29
   3  -2  -3   16.87    1.53
   3  -2  -3   16.08    1.15
   2  -2  -3    1.09    0.26
   2  -2  -3    1.34    0.49
   2  -2  -3    1.51    0.22
  -2   2   3    1.27    0.20
   1  -2  -3   54.30    3.92
  -1   2   3   55.47    3.91
  -1   2   3   54.99    4.05
   0   2   3    3.63    0.43
   0   2   3    4.23    0.59
  -1  -2  -3   74.13    4.90
   1   2   3   64.37    4.99
  -2  -2  -3    1.83    0.27
   2   2   3    1.57    0.41
   2   2   3    1.70    0.64
   3   2   3    8.62    0.69
   3   2   3    7.52    0.94
   3   2   3    6.17    1.17
   4   2   3    2.24    0.72
   4   2   3    3.45    0.71
   4   2   3    2.61    0.97
   4   2   3    2.29    0.42
   5   2   3    3.44    0.93
   5   2   3    3.88    1.19
   5   2   3    4.58    0.93
   5   2   3    4.41    0.60
   6   2   3    1.90    1.17
   6   2   3    0.60    1.11
   6   2   3    0.95    0.95
   7   2   3    0.76    1.11
   7   2   3    0.78    1.55
   7   2   3   -0.26    0.75
   8   2   3    0.30    1.33
   8   2   3   -2.00    1.76
   8  -3  -3    0.67    1.63
   8  -3  -3    1.17    0.91
   7  -3  -3    0.51    0.73
   7  -3  -3   -0.26    1.40
   6  -3  -3    3.22    0.69
   6  -3  -3    4.47    1.29
   6  -3  -3    2.69    0.57
   5  -3  -3   -0.32    0.36
   5  -3  -3   -0.75    0.92
   5  -3  -3    0.08    0.46
   4  -3  -3    0.03    0.43
   4  -3  -3    0.83    0.26
   4  -3  -3    1.35    0.90
   3  -3  -3    1.22    0.65
   3  -3  -3    1.02    0.33
   3  -3  -3    0.52    0.23
  -3   3   3    0.63    0.22
   2  -3  -3    3.44    0.43
   2  -3  -3    3.29    0.40
  -2   3   3    3.26    0.38
  -2   3   3    3.39    0.70
   1  -3  -3   74.73    4.95
  -1   3   3   67.83    4.94
  -1   3   3   65.48    5.07
   0   3   3   48.27    3.63
   0   3   3   47.05    3.47
   2   3   3   17.07    1.65
   2   3   3   15.64    1.39
   3   3   3    2.57    1.14
   3   3   3    2.75    0.39
   3   3   3    3.65    0.96
   4   3   3   13.43    1.45
   4   3   3   13.89    1.23
   4   3   3   16.63    1.41
   5   3   3    1.21    0.79
   5   3   3    0.88    1.15
   5   3   3    0.93    0.45
   5   3   3   -0.38    0.78
   6   3   3   -0.37    1.01
   6   3   3    0.36    0.81
   6   3   3   -0.43    1.15
   6   3   3    0.63    0.98
   7   3   3    1.06    1.12
   7   3   3    1.54    1.66
   7   3   3    0.08    0.85
   8  -4  -3    1.39    1.86
   8  -4  -3   -3.80    1.37
   7  -4  -3    0.17    0.66
   7  -4  -3   -0.64    1.43
   6  -4  -3    2.87    0.75
   6  -4  -3    2.58    1.21
   5  -4  -3    0.28    0.49
   5  -4  -3    0.66    0.96
   4  -4  -3    0.24    0.33
   4  -4  -3    0.46    0.49
   4  -4  -3   -0.67    0.79
   3  -4  -3    0.55    0.95
   3  -4  -3    0.35    0.33
  -3   4   3    0.38    0.56
  -3   4   3    0.82    0.28
   2  -4  -3   12.70    1.04
  -2   4   3   12.19    1.22
  -2   4   3   11.65    0.99
  -1   4   3    4.73    0.55
  -1   4   3    5.45    0.76
   0   4   3    7.94    1.08
   0   4   3    8.89    0.82
   1   4   3    0.62    0.78
   1   4   3    1.75    0.39
   2   4   3    0.17    1.13
   2   4   3    1.17    0.50
   3   4   3    1.00    0.73
   3   4   3    0.45    0.52
   4   4   3    2.84    1.08
   4   4   3    1.65    0.69
   4   4   3    1.87    0.68
   4   4   3    2.52    0.48
   5   4   3   -0.71    1.04
   5   4   3    0.79    0.58
   5   4   3    1.04    0.70
   5   4   3    0.15    0.83
   6   4   3    0.82    1.45
   6   4   3    1.03    0.79
   6   4   3    0.60    1.02
   7   4   3   -1.49    1.71
   8  -5  -3    0.97    2.59
   8  -5  -3    0.11    0.93
   7  -5  -3   -1.26    1.57
   7  -5  -3    0.95    0.80
   6  -5  -3    1.39    1.29
   6  -5  -3    1.32    0.66
   5  -5  -3   -0.59    0.87
   5  -5  -3   -0.12    0.53
   4  -5  -3    3.80    1.07
   4  -5  -3    4.22    0.69
  -4   5   3    3.09    1.00
   3  -5  -3    9.08    1.18
   3  -5  -3    7.03    0.88
  -3   5   3    6.35    0.71
  -3   5   3    7.37    1.09
   2  -5  -3    5.55    0.63
  -2   5   3    5.88    0.66
  -2   5   3    6.33    0.87
  -1   5   3   17.40    1.65
  -1   5   3   16.76    1.41
   0  -5  -3    0.24    0.62
   0   5   3    0.44    0.34
   0   5   3   -0.83    0.83
   1   5   3    0.51    0.43
   1   5   3    0.09    0.93
   2   5   3    2.25    0.66
   2   5   3    1.82    0.93
   4   5   3    0.39    0.98
   4   5   3    0.67    0.66
   4   5   3    0.38    0.67
   5   5   3    0.58    0.79
   5   5   3   -1.59    1.23
   6   5   3    0.90    1.61
   6   5   3    0.44    0.77
   6   5   3    0.40    0.96
   7   5   3   -1.14    1.85
   7   5   3    2.86    1.31
   8  -6  -3    0.87    0.89
   8  -6  -3    2.98    2.09
   7  -6  -3   -0.96    1.44
   7  -6  -3    1.18    0.75
   6  -6  -3    3.45    0.81
   6  -6  -3    0.30    1.31
   5  -6  -3    2.88    0.68
   5  -6  -3    2.28    1.02
  -5   6   3    1.21    1.02
   4  -6  -3    5.75    1.22
   4  -6  -3    5.38    0.78
  -4   6   3    6.08    0.78
  -4   6   3    8.52    1.42
   3  -6  -3    1.39    0.49
   3  -6  -3    0.93    0.71
  -3   6   3    2.79    0.85
  -3   6   3    1.94    0.45
   2  -6  -3    4.77    0.75
  -2   6   3    3.55    0.59
  -2   6   3    2.82    0.93
   1  -6  -3    0.35    0.97
  -1   6   3   -0.40    0.87
  -1   6   3    0.60    0.42
   0  -6  -3    0.34    0.91
   0   6   3   -0.29    1.08
   0   6   3    1.30    0.52
   1   6   3    0.23    0.84
   1   6   3   -0.48    0.54
   2   6   3    0.78    0.83
   2   6   3   -0.09    0.52
   4   6   3    0.46    0.76
   4   6   3   -0.29    1.12
   4   6   3    0.55    0.82
   5   6   3    1.15    1.44
   5   6   3    0.57    0.90
   6   6   3    1.14    1.21
   6   6   3    0.28    1.56
   7  -7  -3    1.93    2.32
   7  -7  -3    2.11    1.33
   6  -7  -3    0.91    0.77
   6  -7  -3   -0.53    1.39
  -6   7   3   -1.22    1.03
   5  -7  -3    3.96    1.36
   5  -7  -3    3.25    0.76
  -5   7   3    4.91    1.21
   4  -7  -3    0.29    0.54
   4  -7  -3    0.35    0.88
  -4   7   3    0.40    0.52
  -4   7   3    0.24    1.09
   3  -7  -3   39.53    3.07
  -3   7   3   43.31    3.34
  -3   7   3   36.95    2.99
   2  -7  -3    7.67    0.91
  -2   7   3    4.35    1.39
  -1   7   3   35.19    2.77
   0   7   3    3.79    0.83
   1   7   3    4.54    0.85
   2   7   3    4.76    0.94
   3   7   3   -0.14    0.59
   3   7   3    0.06    1.13
   4   7   3    0.50    0.80
   4   7   3   -1.31    1.27
   5   7   3    0.31    0.79
   5   7   3    1.28    1.57
   6   7   3   -1.33    1.11
   6   7   3   -0.07    1.90
   7  -8  -3   -0.66    1.81
   7  -8  -3    0.96    0.88
   6  -8  -3    0.09    0.80
   6  -8  -3    0.95    1.50
   5  -8  -3   -0.18    0.62
   5  -8  -3    1.23    1.38
  -5   8   3   -0.49    1.05
   4  -8  -3    1.36    1.09
   4  -8  -3    1.65    0.65
  -4   8   3    1.66    0.65
  -4   8   3    3.82    1.07
   3  -8  -3   -0.41    0.57
   3  -8  -3    0.33    0.97
  -3   8   3    0.30    1.06
  -3   8   3    0.12    0.57
   2  -8  -3   -0.43    0.88
  -2   8   3    3.01    0.85
  -2   8   3   -1.62    1.03
   1  -8  -3    0.58    1.03
  -1   8   3   -1.48    1.01
  -1   8   3    1.91    0.73
   0  -8  -3   -0.53    1.08
   0   8   3    0.34    1.01
   1   8   3    0.27    1.07
   1   8   3    0.36    0.75
   2   8   3   -0.62    1.17
   2   8   3    2.04    0.84
   3   8   3   -0.22    1.26
   3   8   3    0.22    0.74
   4   8   3   -0.54    0.97
   4   8   3    0.95    1.71
   5   8   3    0.96    1.20
   5   8   3    1.13    1.69
   6  -9  -3    0.57    1.73
   6  -9  -3    0.43    0.86
   5  -9  -3   -1.14    1.29
   5  -9  -3    0.15    0.71
   4  -9  -3    0.51    1.14
   4  -9  -3    3.03    0.84
  -4   9   3    2.00    1.41
  -4   9   3    2.61    0.95
   3  -9  -3   -0.66    1.12
   3  -9  -3   -0.40    0.60
  -3   9   3    0.89    1.27
  -3   9   3   -0.46    0.69
   2  -9  -3   -0.26    1.13
  -2   9   3    0.72    0.73
  -2   9   3    0.49    1.14
   1  -9  -3   -0.83    1.12
  -1   9   3    2.59    0.82
   0  -9  -3   -1.01    1.22
   0   9   3    0.49    1.17
   0   9   3    1.60    0.85
   1   9   3   -0.09    1.22
   1   9   3    1.57    0.90
   2   9   3   -0.92    1.35
   2   9   3    0.57    0.95
   3   9   3    0.30    1.67
   3   9   3    0.41    0.95
   4   9   3    0.83    0.97
   4   9   3   -0.94    1.77
   6 -10  -3    3.28    1.82
   5 -10  -3    0.36    0.79
   5 -10  -3   -1.02    1.56
   4 -10  -3    0.08    1.42
   4 -10  -3    1.54    0.73
  -4  10   3    0.14    0.87
   3 -10  -3    1.56    1.38
  -3  10   3   -0.07    0.72
  -3  10   3    2.25    1.46
   2 -10  -3   -0.12    1.41
  -2  10   3    0.18    1.31
  -2  10   3    2.06    0.92
   1 -10  -3   -0.56    1.41
  -1  10   3   -1.19    1.33
  -1  10   3    0.73    0.85
   0  10   3    0.68    0.92
   0  10   3    0.96    1.45
   1  10   3   -0.13    0.90
   1  10   3    0.79    1.49
   2  10   3    5.58    1.28
   2  10   3   -2.06    1.55
   3  10   3   -1.07    1.01
   5 -11  -3    0.33    1.89
   4 -11  -3   -0.46    0.92
   4 -11  -3    0.49    1.93
   3 -11  -3    0.12    0.70
   3 -11  -3   -1.79    1.84
  -3  11   3    1.43    0.98
   2 -11  -3   -1.43    1.78
  -2  11   3    1.96    1.13
  -2  11   3    0.54    1.56
   1 -11  -3    0.13    1.65
  -1  11   3   -1.06    1.02
  -1  11   3   -1.49    1.52
   0  11   3    0.43    1.04
   0  11   3    0.14    1.60
   1  11   3   -0.35    1.03
   1  11   3   -0.84    1.71
   2  11   3   -1.63    2.10
   2  11   3    0.26    1.18
   3 -12  -3   -1.12    2.17
   2 -12  -3    0.73    0.96
   2 -12  -3   -1.97    2.10
  -2  12   3    0.57    1.26
   1 -12  -3    0.20    1.94
  -1  12   3   -0.42    1.19
  -1  12   3    0.15    1.79
   0  12   3   -0.91    1.82
   0  14  -4    1.56    1.18
  -1  14  -4   -1.57    1.11
  -2  14  -4    0.45    1.05
   2 -14   4   -2.14    1.57
  -3  14  -4    2.50    1.25
   3 -14   4    0.08    1.93
   2  13  -4    0.80    1.09
   2  13  -4    1.55    1.94
   0  13  -4    1.52    0.91
  -1  13  -4    0.56    0.99
   1 -13   4   -1.88    1.25
  -2  13  -4   -0.05    1.00
   2 -13   4   -1.01    1.42
  -3  13  -4    0.65    0.98
   3 -13   4    0.23    1.58
  -4  13  -4    0.57    1.17
   4 -13   4   -0.27    2.08
   5 -13   4    1.75    2.19
   4  12  -4   -0.52    1.15
   4  12  -4    0.53    2.20
   3  12  -4    1.04    1.90
   2  12  -4    3.02    1.10
   2  12  -4    2.17    1.66
   1  12  -4    4.21    1.08
   1  12  -4   -1.05    1.50
   0  12  -4   -0.64    0.81
   0 -12   4   -0.29    1.25
  -1  12  -4    3.47    1.04
   1 -12   4    1.11    1.15
  -2  12  -4    0.40    0.83
   2 -12   4   -0.10    1.34
  -3  12  -4    1.84    0.97
   3 -12   4    0.39    1.48
  -4  12  -4   -0.12    1.04
   4 -12   4    0.90    1.54
   5 -12   4    0.09    1.07
   6 -12   4   -0.25    1.65
   5  11  -4    2.22    2.29
   4  11  -4   -1.25    1.05
   4  11  -4   -2.54    1.83
   3  11  -4   -1.87    0.86
   3  11  -4    0.36    1.64
   2  11  -4   -0.81    1.41
   2  11  -4    0.83    0.77
   1  11  -4    1.41    1.42
   1  11  -4    2.43    0.92
   0  11  -4    0.54    0.76
   0 -11   4    1.20    1.24
  -1  11  -4    0.31    0.74
   1 -11   4   -1.34    0.95
  -2  11  -4   -0.39    0.65
   2 -11   4   -1.25    1.08
  -3  11  -4    5.01    1.11
   3 -11   4    3.02    1.27
  -4  11  -4    0.44    0.94
   4 -11   4    0.27    1.34
   5 -11   4    1.23    0.81
   5 -11   4    1.22    1.48
   6 -11   4    0.82    0.94
   6 -11   4    0.13    1.66
   5  10  -4    4.31    2.00
   5  10  -4   -0.13    1.19
   5  10  -4    0.53    1.30
   4  10  -4    1.88    1.63
   4  10  -4    0.09    1.01
   3  10  -4   -0.30    0.81
   3  10  -4   -0.41    1.32
   2  10  -4   -0.23    1.20
   2  10  -4    0.87    0.69
   1  10  -4   -1.37    1.36
   1  10  -4    1.70    0.74
  -1 -10   4   -0.47    0.75
   0  10  -4    1.17    0.75
   0 -10   4    0.82    0.92
  -1  10  -4    0.19    0.59
   1 -10   4    0.85    0.86
  -2  10  -4    6.62    1.07
   2 -10   4    5.72    1.14
  -3  10  -4    3.52    0.91
   3 -10   4    2.41    1.01
  -4  10  -4   -0.46    0.66
   4 -10   4   -0.64    0.95
   5 -10   4   -0.08    1.16
   5 -10   4   -0.43    0.76
   6 -10   4    0.61    0.83
   6 -10   4    0.56    1.49
   7 -10   4    0.58    1.03
   7 -10   4    0.20    1.42
   6   9  -4    1.07    0.90
   6   9  -4   -0.38    1.22
   5   9  -4   -0.28    1.02
   5   9  -4    0.17    1.55
   5   9  -4   -0.47    0.76
   4   9  -4    0.78    0.66
   4   9  -4    0.06    1.39
   4   9  -4    2.57    0.99
   3   9  -4   -0.54    1.10
   3   9  -4   -0.88    0.74
   1   9  -4    0.66    0.98
  -1  -9   4    0.97    0.66
   0   9  -4   -0.29    0.57
   0  -9   4    0.21    0.68
  -1   9  -4   -0.01    0.60
   1  -9   4   -0.28    0.91
   1  -9   4   -0.43    0.54
  -2   9  -4    1.52    0.63
   2  -9   4   -0.14    0.78
  -3   9  -4   -0.12    0.49
   3  -9   4   -1.46    0.83
  -4   9  -4    1.49    0.78
   5  -9   4    0.84    0.66
   5  -9   4    0.55    1.11
   6  -9   4    1.16    1.18
   6  -9   4   -0.22    0.78
   7  -9   4    1.14    1.51
   7  -9   4    0.59    0.96
   6   8  -4    0.30    1.11
   6   8  -4    0.34    0.86
   5   8  -4   -0.40    0.92
   5   8  -4   -0.26    1.33
   5   8  -4    0.61    0.68
   4   8  -4   -0.38    0.57
   4   8  -4   -1.43    1.03
   4   8  -4    0.85    0.82
   3   8  -4    1.61    0.73
   3   8  -4   -0.40    0.96
   3   8  -4    0.83    0.58
   2   8  -4   -2.20    1.18
   2   8  -4    1.97    0.68
  -2  -8   4    0.69    0.46
   1   8  -4    1.56    0.64
  -1  -8   4    2.25    0.63
   0   8  -4    5.26    0.93
   0  -8   4    5.31    0.88
  -1   8  -4    0.07    0.57
   1  -8   4   -0.22    0.44
   1  -8   4    0.89    0.79
  -2   8  -4    0.19    0.61
   2  -8   4    1.67    0.92
  -3   8  -4    1.65    0.69
   3  -8   4    1.40    0.71
   4  -8   4    3.33    1.08
   5  -8   4   -0.46    0.89
   5  -8   4   -0.04    0.57
   6  -8   4    0.39    0.71
   6  -8   4   -0.45    1.03
   7  -8   4    2.55    1.05
   7  -8   4    0.54    1.33
   8  -8   4    0.67    1.63
   7   7  -4    0.96    1.34
   7   7  -4   -1.41    0.91
   6   7  -4    1.46    0.73
   6   7  -4    1.43    1.14
   5   7  -4    0.51    0.82
   5   7  -4    0.60    0.66
   4   7  -4    0.94    1.02
   4   7  -4    2.50    0.80
   4   7  -4    1.50    0.48
   3   7  -4    0.09    0.46
   3   7  -4    0.14    0.67
   3   7  -4    0.11    0.85
   2   7  -4    3.93    0.85
   2   7  -4    2.89    0.58
  -2  -7   4    3.18    0.54
   1   7  -4    0.44    0.46
  -1  -7   4    0.47    0.51
   0   7  -4    4.74    0.70
   0  -7   4    5.27    0.80
  -1   7  -4    0.83    0.44
   1  -7   4    0.96    0.57
  -2   7  -4   -0.36    0.40
   2  -7   4    0.48    0.79
  -3   7  -4    1.16    0.66
   3  -7   4    0.69    0.56
   4  -7   4    9.14    1.09
   4  -7   4    7.78    1.23
   5  -7   4    1.02    0.85
   5  -7   4    0.18    0.50
   6  -7   4    4.46    0.81
   6  -7   4    3.16    1.05
   7  -7   4    3.14    0.96
   7  -7   4    3.66    1.44
   8  -7   4    4.45    1.69
   8  -7   4    1.78    1.05
   7   6  -4    0.90    0.84
   7   6  -4   -0.64    1.28
   6   6  -4    0.23    0.63
   6   6  -4    0.50    0.90
   5   6  -4   -0.07    0.60
   5   6  -4    1.69    0.83
   4   6  -4    0.95    0.50
   4   6  -4    0.69    0.75
   3   6  -4    9.17    0.97
   3   6  -4    9.31    0.99
   2   6  -4    4.32    0.61
   2   6  -4    4.88    0.68
  -2  -6   4    4.04    0.57
   1   6  -4    0.16    0.24
   1   6  -4    0.15    0.33
  -1  -6   4    0.45    0.43
   0   6  -4    0.05    0.29
   0  -6   4    0.14    0.50
  -1   6  -4    1.28    0.40
   1  -6   4    0.93    0.60
   1  -6   4    0.16    0.40
  -2   6  -4    7.38    0.82
   2  -6   4    7.51    1.01
   3  -6   4    7.11    1.08
   4  -6   4    1.30    0.58
   4  -6   4    0.69    0.40
   5  -6   4   12.50    1.21
   5  -6   4    8.91    1.38
   6  -6   4   -0.63    0.90
   6  -6   4    0.11    0.59
   7  -6   4    2.12    1.35
   7  -6   4   -0.97    0.71
   8  -6   4    0.39    1.60
   8  -6   4    0.11    0.96
   8   5  -4   -0.42    2.28
   7   5  -4   -0.06    0.74
   7   5  -4   -0.83    0.99
   6   5  -4   -0.58    0.80
   6   5  -4    0.66    0.67
   5   5  -4   -0.06    0.82
   5   5  -4    0.13    0.50
   4   5  -4    0.39    0.49
   4   5  -4    1.05    0.52
   2   5  -4    0.71    0.31
   2   5  -4    0.03    0.23
  -2  -5   4    0.19    0.35
   1   5  -4   -0.29    0.28
   1   5  -4   -0.04    0.20
  -1  -5   4    0.42    0.37
   0   5  -4    4.57    0.58
   0  -5   4    5.24    0.74
  -1   5  -4    1.60    0.37
   1  -5   4    0.81    0.56
   1  -5   4    0.52    0.40
  -2   5  -4   10.11    1.04
   2  -5   4   13.66    1.30
   3  -5   4   -0.35    0.39
   3  -5   4   -0.13    0.72
   4  -5   4    5.24    0.93
   4  -5   4    4.87    0.62
   4  -5   4    4.50    0.78
   5  -5   4    6.78    0.87
   5  -5   4    6.42    1.11
   5  -5   4    9.37    1.26
   6  -5   4    7.18    1.29
   6  -5   4    5.09    0.95
   6  -5   4    7.67    1.40
   7  -5   4   -0.29    0.65
   7  -5   4    0.54    1.06
   8  -5   4    1.38    0.94
   8  -5   4    2.38    1.50
   8   4  -4    1.29    0.98
   7   4  -4    0.28    0.76
   7   4  -4    0.41    0.94
   6   4  -4   -0.36    0.57
   6   4  -4   -0.02    0.89
   5   4  -4    1.55    0.56
   5   4  -4    0.04    0.45
   4   4  -4    7.22    0.83
   4   4  -4    6.87    0.87
  -4  -4   4    5.77    0.81
   3   4  -4    1.90    0.42
   3   4  -4    1.44    0.37
  -3  -4   4    0.45    0.44
   2   4  -4   21.18    1.61
   2   4  -4   20.32    1.64
   1   4  -4    3.38    0.50
   1   4  -4    3.12    0.42
   0   4  -4    7.75    0.68
   0   4  -4    7.92    0.77
   0  -4   4    8.79    0.88
  -1   4  -4    7.21    0.71
   1  -4   4    7.08    0.65
   1  -4   4    6.88    0.78
   2  -4   4    0.29    0.31
   2  -4   4   -0.09    0.49
  -3   4  -4    3.13    0.59
   3  -4   4    3.06    0.41
   3  -4   4    1.65    0.52
   3  -4   4    4.27    0.93
   4  -4   4    5.47    0.89
   4  -4   4    6.36    0.65
   4  -4   4    6.53    1.05
   5  -4   4   -0.48    0.73
   5  -4   4    0.09    0.37
   5  -4   4    0.46    0.51
   6  -4   4    0.86    0.66
   6  -4   4    1.03    1.40
   6  -4   4    1.27    0.90
   7  -4   4   -0.18    1.06
   7  -4   4    1.22    1.26
   7  -4   4    1.18    0.61
   8  -4   4   -0.21    0.78
   8  -4   4    1.11    1.41
   7   3  -4    1.60    0.70
   7   3  -4    2.44    1.03
   6   3  -4    0.95    0.56
   6   3  -4    0.39    0.65
   6   3  -4   -0.02    0.80
   5   3  -4    0.49    0.48
   5   3  -4    0.27    0.49
   5   3  -4    0.80    0.67
   4   3  -4    4.48    0.64
   4   3  -4    4.95    0.69
   3   3  -4    0.62    0.27
   3   3  -4    0.18    0.26
   2   3  -4   37.65    2.79
   2   3  -4   38.49    2.80
   1   3  -4   23.83    1.80
   1   3  -4   23.87    1.77
   0   3  -4    2.47    0.37
   0   3  -4    2.43    0.31
   1  -3   4    9.60    0.92
   1  -3   4    8.58    0.72
   1  -3   4    9.18    0.80
  -2   3  -4   38.22    2.92
   2  -3   4   38.88    3.01
   2  -3   4   41.07    2.93
   3  -3   4    0.86    0.50
   3  -3   4    0.09    0.20
   3  -3   4    0.03    0.61
   4  -3   4    8.12    0.74
   4  -3   4    7.32    0.98
   5  -3   4   10.73    0.94
   5  -3   4    9.35    1.25
   5  -3   4    9.56    1.31
   6  -3   4    2.45    0.97
   6  -3   4    1.63    0.53
   6  -3   4    2.72    1.08
   7  -3   4    0.57    0.66
   7  -3   4   -1.72    1.16
   7  -3   4    2.31    1.05
   8  -3   4    0.03    1.71
   8  -3   4    1.39    0.79
   8  -3   4    0.64    1.47
   8   2  -4    0.36    0.76
   7   2  -4    0.12    0.79
   7   2  -4   -0.39    0.60
   7   2  -4   -1.67    1.63
   6   2  -4    1.08    0.59
   6   2  -4    0.83    0.93
   6   2  -4    1.50    0.62
   5   2  -4    6.74    0.88
   5   2  -4    5.18    0.74
   4   2  -4    0.17    0.57
   4   2  -4    0.80    0.37
   4   2  -4    2.08    0.40
   3   2  -4    0.13    0.22
   3   2  -4    0.26    0.22
   3   2  -4   -0.10    0.46
   2   2  -4    0.54    0.20
   2   2  -4    0.44    0.22
  -2  -2   4    0.48    0.21
   1   2  -4   64.68    4.75
   1   2  -4   67.77    4.76
  -1  -2   4   68.10    4.76
   0   2  -4  186.39   12.84
   0  -2   4  180.50   12.84
   1  -2   4    2.50    0.44
   1  -2   4    2.29    0.28
   2  -2   4   95.47    6.80
   2  -2   4   92.12    6.60
   2  -2   4   94.78    6.76
   3  -2   4    5.58    0.83
   3  -2   4    5.14    0.51
   3  -2   4    6.34    0.84
   4  -2   4   25.74    2.38
   4  -2   4   27.90    1.97
   4  -2   4   24.99    2.21
   5  -2   4    0.20    1.05
   5  -2   4    0.04    0.71
   5  -2   4   -0.14    0.31
   6  -2   4   -0.64    0.95
   6  -2   4   -0.01    0.42
   6  -2   4    1.58    0.77
   7  -2   4   -2.09    1.07
   7  -2   4   -0.44    0.66
   7  -2   4   -1.06    1.09
   8  -2   4   -0.67    1.45
   8  -2   4    1.90    1.61
   8  -2   4   -0.47    1.26
   8  -2   4    0.14    0.76
   8   1  -4    1.02    1.54
   8   1  -4   -1.85    0.73
   7   1  -4   -0.97    1.09
   7   1  -4    2.55    0.75
   6   1  -4   -0.07    0.49
   6   1  -4   -0.32    0.53
   6   1  -4   -0.73    1.40
   5   1  -4    5.94    0.70
   5   1  -4    4.22    0.78
   4   1  -4    0.00    0.25
   4   1  -4    0.15    0.67
   4   1  -4    0.55    0.38
   3   1  -4    0.52    0.57
   3   1  -4    1.96    0.38
   3   1  -4    1.77    0.27
   2   1  -4    0.14    0.20
  -2  -1   4    0.41    0.14
   1   1  -4   13.26    1.02
  -1  -1   4   13.31    1.01
   0   1  -4   20.64    1.47
   0  -1   4   19.07    1.47
   0  -1   4   21.79    1.65
   1  -1   4   86.24    6.21
   2  -1   4    0.44    0.53
   2  -1   4    0.46    0.10
   3  -1   4    0.57    0.48
   3  -1   4    0.43    0.18
   3  -1   4    0.87    0.66
   4  -1   4    0.19    0.76
   4  -1   4    0.04    0.24
   5  -1   4    0.57    0.75
   5  -1   4    0.65    0.34
   5  -1   4    2.25    0.91
   6  -1   4   -0.19    0.84
   6  -1   4    0.95    0.44
   6  -1   4    0.43    1.11
   7  -1   4    0.29    1.09
   7  -1   4    0.20    0.69
   7  -1   4    1.83    1.10
   7  -1   4   -1.00    1.16
   8  -1   4    0.51    1.41
   8  -1   4    2.60    1.60
   8  -1   4   -1.55    1.45
   8   0  -4    0.89    0.82
   8   0  -4    2.37    1.48
   7   0  -4    1.44    0.70
   7   0  -4   -0.58    1.08
   6   0  -4   -0.09    0.47
   6   0  -4    0.70    0.57
   6   0  -4    0.23    0.99
   5   0  -4    6.08    0.84
   5   0  -4    3.57    1.29
   5   0  -4    5.77    0.63
   4   0  -4    5.15    0.69
   4   0  -4    5.26    1.03
   3   0  -4    8.38    0.76
   3   0  -4    7.69    0.99
   2   0  -4   -0.41    0.44
   2   0  -4   -0.06    0.20
   1   0  -4    0.21    0.16
   0   0  -4   10.27    0.78
   0   0   4    9.92    1.00
   0   0   4   10.83    0.79
   1   0   4    4.59    0.70
   2   0   4    4.69    0.80
  -3   0  -4    0.41    0.18
   3   0   4    1.13    0.77
   3   0   4    0.67    0.18
   3   0   4    0.78    0.48
   4   0   4   -0.02    1.57
   4   0   4    0.00    0.63
   4   0   4   -0.11    0.24
   5   0   4    0.29    0.83
   5   0   4   -0.10    0.35
   5   0   4    0.78    0.93
   6   0   4    1.97    1.11
   6   0   4    0.50    1.01
   6   0   4   -0.51    0.80
   6   0   4    1.26    0.48
   7   0   4   -0.79    1.18
   7   0   4    3.15    1.18
   7   0   4    1.30    0.80
   7   0   4    1.58    1.43
   8   0   4    1.14    1.66
   8   0   4    1.71    1.72
   8   0   4   -1.65    1.51
   8  -1  -4    0.03    1.47
   8  -1  -4    0.17    0.86
   7  -1  -4   -0.75    0.55
   7  -1  -4   -0.24    1.29
   6  -1  -4    0.29    0.39
   6  -1  -4   -0.82    0.49
   5  -1  -4    0.45    0.44
   5  -1  -4    0.43    0.80
   5  -1  -4    0.25    0.34
   4  -1  -4    6.58    1.20
   4  -1  -4    5.09    0.71
   3  -1  -4    1.19    0.30
   3  -1  -4    0.59    0.63
   2  -1  -4    0.10    0.21
   2  -1  -4    0.44    0.54
   1  -1  -4    7.76    0.86
   1  -1  -4    7.88    0.63
  -1   1   4    5.92    0.84
  -1   1   4    7.41    0.62
   0  -1  -4   21.85    1.60
   0   1   4   22.51    1.82
  -1  -1  -4   17.88    1.25
  -1  -1  -4   16.75    1.25
   1   1   4   17.61    1.59
  -2  -1  -4    0.26    0.13
   2   1   4   -0.01    0.61
  -3  -1  -4    0.01    0.21
   3   1   4    0.01    0.18
   3   1   4   -0.15    0.75
   4   1   4    1.61    0.33
   4   1   4    0.45    0.65
   4   1   4    1.06    0.81
   4   1   4    1.89    0.73
   5   1   4   -0.09    0.99
   5   1   4    2.98    1.36
   5   1   4    1.78    0.43
   5   1   4    1.09    0.85
   6   1   4    0.12    0.48
   6   1   4   -0.89    1.06
   6   1   4   -0.36    0.87
   6   1   4    0.06    1.15
   7   1   4   -1.06    1.11
   7   1   4   -1.20    1.53
   7   1   4    0.80    1.15
   7   1   4    0.22    1.13
   8   1   4   -1.65    1.25
   8   1   4    1.10    1.77
   8  -2  -4   -0.67    0.79
   8  -2  -4    3.15    1.71
   7  -2  -4    2.12    0.76
   7  -2  -4    0.38    1.35
   6  -2  -4    0.01    0.58
   6  -2  -4    0.54    1.05
   5  -2  -4   -0.15    0.90
   5  -2  -4    0.47    0.43
   4  -2  -4    5.06    1.64
   3  -2  -4   20.03    1.74
   3  -2  -4   25.38    2.04
   2  -2  -4   -0.05    0.21
   2  -2  -4    0.31    0.54
   1  -2  -4    6.51    0.60
   1  -2  -4    6.28    0.90
  -1   2   4    7.00    0.88
  -1   2   4    7.13    0.61
   0  -2  -4   39.01    2.58
   0   2   4   36.79    2.65
   0   2   4   31.19    2.76
  -1  -2  -4    9.66    0.81
   1   2   4   11.44    0.98
  -2  -2  -4    2.78    0.33
   2   2   4    2.33    0.92
   2   2   4    2.08    0.54
   3   2   4    2.58    0.96
   3   2   4    4.17    1.02
   4   2   4    8.11    1.37
   4   2   4    6.21    1.03
   4   2   4    6.67    0.71
   4   2   4    7.89    1.19
   5   2   4    1.13    0.88
   5   2   4    1.31    1.11
   5   2   4    1.41    1.05
   5   2   4    0.33    0.41
   6   2   4    0.05    0.91
   6   2   4   -1.48    0.83
   6   2   4   -0.01    1.32
   6   2   4    0.06    0.56
   7   2   4   -0.57    1.70
   7   2   4    0.75    1.15
   8  -3  -4   -1.01    1.19
   8  -3  -4    0.74    1.81
   7  -3  -4   -0.40    1.34
   7  -3  -4    0.32    0.75
   6  -3  -4    0.06    0.56
   6  -3  -4    1.14    1.10
   5  -3  -4    0.45    0.53
   5  -3  -4   -0.65    0.91
   4  -3  -4   -0.27    0.69
   4  -3  -4    0.56    0.47
   3  -3  -4   12.41    1.00
   3  -3  -4   15.44    1.16
   3  -3  -4   10.92    1.53
   2  -3  -4    7.72    0.72
   2  -3  -4    6.11    1.03
  -2   3   4    7.89    0.66
  -2   3   4    8.60    1.05
   1  -3  -4   12.24    1.08
  -1   3   4   14.71    1.33
  -1   3   4   14.37    1.13
   0   3   4   16.87    1.39
   0   3   4   17.48    1.63
   1   3   4    1.26    0.86
   1   3   4    3.15    0.53
   2   3   4   -0.26    0.39
   3   3   4    2.79    0.91
   4   3   4    1.01    0.69
   4   3   4    0.87    0.91
   4   3   4    1.25    0.76
   5   3   4    3.46    0.59
   5   3   4    3.52    1.30
   5   3   4    1.87    1.17
   5   3   4    4.15    1.08
   6   3   4   -0.50    0.76
   6   3   4    0.04    0.85
   6   3   4    1.61    1.10
   6   3   4    0.60    1.48
   7   3   4    4.54    2.13
   8  -4  -4   -2.40    1.99
   8  -4  -4   -0.09    0.95
   7  -4  -4   -1.68    1.46
   7  -4  -4    0.07    0.68
   6  -4  -4   -0.59    0.62
   6  -4  -4    0.37    1.08
   5  -4  -4    0.10    0.52
   5  -4  -4   -1.36    0.88
   4  -4  -4    9.03    1.44
   4  -4  -4   11.66    1.20
   4  -4  -4   12.58    0.99
   3  -4  -4    1.15    0.54
   3  -4  -4    1.22    0.40
   3  -4  -4    1.40    0.65
  -3   4   4    0.40    0.78
  -3   4   4    0.63    0.28
   2  -4  -4    0.38    0.89
   2  -4  -4    0.49    0.29
  -2   4   4    0.86    0.66
  -2   4   4    0.32    0.27
   1  -4  -4    0.52    0.25
   1  -4  -4   -0.10    0.56
  -1   4   4    0.21    0.59
  -1   4   4    0.03    0.30
   0   4   4    4.48    0.64
   0   4   4    6.96    1.19
   1   4   4   -0.33    0.97
   1   4   4    0.69    0.39
   2   4   4   -0.59    0.49
   2   4   4    0.40    0.69
   3   4   4    0.42    0.62
   3   4   4   -0.17    0.85
   4   4   4    0.66    0.67
   4   4   4    0.90    0.85
   4   4   4   -0.03    1.08
   5   4   4    3.02    1.25
   5   4   4    1.65    1.38
   5   4   4    2.45    0.94
   6   4   4   -0.94    1.36
   6   4   4    1.51    1.05
   7   4   4   -1.06    1.74
   7   4   4   -0.16    1.21
   8  -5  -4   -0.46    0.86
   8  -5  -4    0.65    1.81
   7  -5  -4   -0.73    0.74
   7  -5  -4   -1.34    1.38
   6  -5  -4    0.84    0.61
   6  -5  -4    0.11    1.40
   5  -5  -4    4.15    1.21
   5  -5  -4    6.03    0.92
   4  -5  -4    5.59    0.75
   4  -5  -4    4.09    1.01
  -4   5   4    5.16    1.18
   3  -5  -4    1.54    0.85
   3  -5  -4    1.61    0.56
  -3   5   4    1.30    0.38
  -3   5   4    2.46    1.03
   2  -5  -4    2.78    0.54
  -2   5   4    5.14    1.05
  -2   5   4    3.74    0.55
   1  -5  -4    2.38    0.44
  -1   5   4    2.63    0.98
  -1   5   4    3.91    0.60
   0   5   4   -0.13    0.40
   1   5   4    5.12    1.00
   2   5   4    1.09    0.89
   2   5   4    2.56    0.73
   3   5   4    3.52    0.75
   3   5   4    1.75    1.07
   4   5   4    1.70    1.19
   4   5   4    0.54    0.75
   5   5   4    0.24    1.39
   5   5   4    1.27    0.85
   6   5   4    1.16    1.73
   7  -6  -4   -0.67    1.49
   7  -6  -4   -1.77    1.23
   6  -6  -4    1.03    1.24
   6  -6  -4    0.60    0.78
  -6   6   4    1.92    1.16
   5  -6  -4    1.01    0.61
   5  -6  -4    0.32    1.16
  -5   6   4    1.57    1.01
   4  -6  -4   -0.19    0.95
   4  -6  -4    1.30    0.57
  -4   6   4    0.51    0.82
  -4   6   4    1.00    0.45
   3  -6  -4   13.27    1.22
   3  -6  -4   12.61    1.59
  -3   6   4   11.49    1.46
  -3   6   4   11.94    1.10
   2  -6  -4    2.40    0.59
  -2   6   4    2.68    0.53
  -2   6   4    2.40    1.00
  -1   6   4    2.81    1.08
   0   6   4    0.64    0.88
   1   6   4   -0.15    0.62
   1   6   4   -0.62    0.82
   2   6   4    0.24    0.64
   2   6   4    0.24    0.95
   3   6   4    0.53    1.08
   3   6   4    2.98    0.78
   4   6   4    0.49    0.88
   4   6   4   -0.23    1.21
   5   6   4    0.50    0.99
   5   6   4   -0.53    1.63
   6   6   4    2.49    1.21
   6   6   4    0.79    1.64
   7  -7  -4    4.07    0.97
   7  -7  -4    0.80    1.97
  -7   7   4    2.93    1.56
   6  -7  -4    1.16    1.25
   6  -7  -4    2.91    0.91
  -6   7   4    1.43    1.33
   5  -7  -4    4.42    1.50
   5  -7  -4    3.18    0.79
  -5   7   4    3.90    1.17
   4  -7  -4    1.92    1.29
   4  -7  -4    3.84    0.81
  -4   7   4    4.24    0.72
  -4   7   4    6.94    1.19
   3  -7  -4    1.05    0.96
   3  -7  -4    1.24    0.55
  -3   7   4    1.24    0.48
  -3   7   4    1.08    0.89
   2  -7  -4    0.19    0.44
   2  -7  -4   -0.07    1.02
  -2   7   4    0.88    1.06
  -2   7   4    0.47    0.49
   1  -7  -4    0.05    0.96
  -1   7   4    0.58    1.04
  -1   7   4    3.04    0.85
   0   7   4   -1.74    0.97
   0   7   4    0.83    0.66
   1   7   4    0.07    0.66
   1   7   4   -0.51    0.99
   2   7   4   -0.44    1.00
   2   7   4    0.35    0.74
   3   7   4    1.24    0.81
   3   7   4    0.23    1.19
   4   7   4   -2.55    1.34
   4   7   4    0.56    0.82
   5   7   4    0.37    1.09
   5   7   4    1.93    1.96
   7  -8  -4   -1.49    1.61
   6  -8  -4    1.20    1.56
  -6   8   4   -0.32    1.34
   5  -8  -4    0.05    0.66
   5  -8  -4   -0.40    1.43
  -5   8   4    0.07    1.09
   4  -8  -4    0.83    0.77
   4  -8  -4    2.17    1.36
  -4   8   4    2.55    0.66
  -4   8   4    1.44    1.15
   3  -8  -4   -0.51    1.13
   3  -8  -4   -0.38    0.63
  -3   8   4    0.16    0.61
  -3   8   4   -0.86    1.13
   2  -8  -4   -0.90    1.24
   2  -8  -4    1.60    0.59
  -2   8   4    0.94    1.13
  -2   8   4    1.41    0.79
   1  -8  -4    1.58    1.27
  -1   8   4    0.28    1.12
  -1   8   4    1.38    0.74
   0   8   4    2.74    1.26
   0   8   4   -0.44    0.71
   1   8   4   -0.37    0.76
   1   8   4   -0.33    1.26
   2   8   4    0.62    1.22
   2   8   4    0.56    0.84
   3   8   4    1.01    1.48
   3   8   4   -0.62    0.88
   4   8   4    0.83    2.35
   4   8   4    0.15    0.98
   6  -9  -4    0.56    0.98
   6  -9  -4   -0.42    1.73
   5  -9  -4    1.83    2.64
   5  -9  -4    0.69    0.75
  -5   9   4   -0.60    1.46
   4  -9  -4   -0.98    0.74
   4  -9  -4   -0.62    1.48
  -4   9   4    1.02    1.47
   3  -9  -4    0.38    0.67
   3  -9  -4    0.59    1.43
  -3   9   4   -0.25    1.44
  -3   9   4    0.05    0.77
   2  -9  -4    0.67    1.41
   2  -9  -4   -0.95    0.66
  -2   9   4   -0.08    0.72
  -2   9   4   -1.94    1.29
   1  -9  -4   -1.01    1.41
  -1   9   4    0.36    1.29
  -1   9   4    0.49    1.29
  -1   9   4    0.20    0.71
   0   9   4   -1.30    1.27
   0   9   4    0.18    0.87
   1   9   4    3.36    1.57
   1   9   4    0.60    0.81
   2   9   4    0.04    0.95
   2   9   4   -0.21    1.54
   3   9   4    1.68    1.90
   4   9   4   -0.81    2.09
   5 -10  -4    0.24    0.79
   5 -10  -4   -0.04    1.66
   4 -10  -4    1.45    0.91
  -4  10   4    1.41    2.20
   3 -10  -4   -0.70    0.71
   3 -10  -4    1.36    1.75
  -3  10   4    3.89    1.73
  -3  10   4   -0.48    0.83
   2 -10  -4   -3.64    1.64
   2 -10  -4    0.37    0.79
  -2  10   4    0.02    0.95
  -2  10   4    0.68    1.50
   1 -10  -4   -1.41    1.49
  -1  10   4    0.29    1.01
  -1  10   4    0.86    1.61
   0  10   4    0.30    0.95
   0  10   4    0.03    1.52
   1  10   4   -0.34    1.02
   1  10   4    6.74    2.04
   2  10   4    1.82    1.93
   2  10   4   -0.37    1.82
   4 -11  -4    2.30    2.16
   3 -11  -4   -1.49    0.82
  -3  11   4    0.10    1.14
   2 -11  -4    0.53    0.90
   2 -11  -4    0.55    1.84
  -2  11   4    0.01    1.84
  -2  11   4    1.17    1.15
   1 -11  -4    2.24    1.87
  -1  11   4    1.01    1.24
  -1  11   4   -1.17    1.82
   0  11   4    1.42    1.24
   0  11   4    2.51    1.92
   1  11   4    2.28    1.22
   1  11   4    0.91    1.99
   1  14  -5   -0.10    1.10
   0  14  -5    0.52    1.06
  -1  14  -5    0.76    1.03
  -2  14  -5    0.13    1.10
   2 -14   5   -0.40    1.80
  -3  14  -5   -0.39    1.24
   3 -14   5   -3.61    1.87
   2  13  -5    1.07    1.02
   0  13  -5   -0.64    0.81
  -1  13  -5    1.95    0.92
   1 -13   5   -1.23    1.34
  -2  13  -5   -0.24    0.88
   2 -13   5   -1.79    1.54
  -3  13  -5   -0.12    1.02
   3 -13   5    0.84    1.81
   4 -13   5    1.43    2.08
   5 -13   5    0.35    2.13
   4  12  -5   -1.95    1.20
   3  12  -5    2.42    1.84
   2  12  -5    0.18    0.96
   1  12  -5   -0.26    0.88
   0  12  -5    0.85    0.82
   0 -12   5    1.37    1.24
  -1  12  -5    1.73    0.93
   1 -12   5   -1.00    1.16
  -2  12  -5    0.84    0.93
   2 -12   5    0.37    1.32
  -3  12  -5    0.86    0.95
   3 -12   5   -1.13    1.43
  -4  12  -5   -0.17    0.90
   4 -12   5    1.34    1.60
   5 -12   5    1.63    1.94
   5 -12   5   -0.85    0.90
   4  11  -5   -0.79    1.10
   3  11  -5    0.68    1.03
   2  11  -5    0.29    0.87
   1  11  -5    0.88    0.82
  -1 -11   5   -0.53    1.47
   0  11  -5    1.38    0.86
   0 -11   5   -0.03    1.27
  -1  11  -5    1.35    0.73
   1 -11   5    0.77    0.99
  -2  11  -5    1.04    0.73
   2 -11   5    0.00    1.17
  -3  11  -5   -0.63    0.66
   3 -11   5   -1.25    1.26
  -4  11  -5    0.59    0.91
   4 -11   5   -0.95    1.20
   5 -11   5   -0.04    1.52
   5 -11   5    0.98    0.78
   6 -11   5    0.54    0.99
   6 -11   5    0.61    1.60
   5  10  -5    1.43    1.02
   5  10  -5    0.86    1.24
   4  10  -5    1.59    1.13
   4  10  -5   -0.28    0.59
   3  10  -5    0.76    0.92
   2  10  -5    1.19    0.79
   1  10  -5    1.20    0.72
  -1 -10   5    0.23    0.75
   0  10  -5    0.58    0.69
   0 -10   5    1.76    0.96
  -1  10  -5    4.26    0.97
   1 -10   5    3.12    1.14
  -2  10  -5    3.29    0.89
   2 -10   5    2.56    1.09
  -3  10  -5   -0.04    0.71
   3 -10   5    0.42    1.05
  -4  10  -5    0.60    0.75
   4 -10   5    0.83    1.14
   5 -10   5    2.92    0.89
   5 -10   5    3.08    1.34
   6 -10   5    0.83    0.86
   6 -10   5    1.06    2.13
   7 -10   5   -0.42    1.48
   7 -10   5   -0.12    1.00
   6   9  -5   -0.68    1.31
   6   9  -5   -0.08    0.88
   5   9  -5    0.66    1.08
   5   9  -5   -0.39    0.78
   4   9  -5   -0.15    0.94
   4   9  -5    0.04    0.65
   3   9  -5    0.84    0.59
   3   9  -5    0.03    0.75
   2   9  -5    0.71    0.72
  -2  -9   5    0.09    0.60
   1   9  -5    0.02    0.58
  -1  -9   5   -0.23    0.73
   0   9  -5    0.74    0.61
   0  -9   5    0.67    0.89
  -1   9  -5    0.05    0.50
   1  -9   5   -0.65    1.02
  -2   9  -5    4.43    0.93
   2  -9   5    3.79    1.00
  -3   9  -5   -0.08    0.66
   3  -9   5    1.22    0.96
   4  -9   5    0.68    0.89
   5  -9   5    3.22    0.81
   5  -9   5    1.38    0.95
   6  -9   5   -0.15    1.14
   6  -9   5   -0.41    0.80
   7  -9   5   -1.32    1.59
   7  -9   5    2.21    1.02
   6   8  -5   -0.13    1.25
   6   8  -5    0.48    0.81
   5   8  -5    0.03    1.00
   5   8  -5    0.17    0.70
   4   8  -5    0.60    0.55
   4   8  -5    1.46    0.84
   3   8  -5    0.07    0.71
   3   8  -5   -0.14    0.48
   2   8  -5    1.56    0.49
   2   8  -5    1.43    0.64
  -2  -8   5    2.69    0.65
   1   8  -5    0.56    0.57
  -1  -8   5    1.14    0.68
   0   8  -5    2.67    0.67
  -1   8  -5    8.41    1.10
   1  -8   5   10.49    1.35
  -2   8  -5    1.28    0.60
   2  -8   5    1.12    0.81
  -3   8  -5    8.05    1.10
   3  -8   5   10.33    1.33
   4  -8   5    0.72    0.87
   5  -8   5    5.31    0.84
   5  -8   5    3.89    1.22
   6  -8   5   -0.36    0.70
   6  -8   5   -0.79    0.91
   7  -8   5    0.60    0.94
   7   7  -5    0.05    1.35
   7   7  -5   -1.81    0.92
   6   7  -5    0.72    0.84
   6   7  -5   -0.21    1.09
   5   7  -5    0.73    0.68
   5   7  -5    0.91    0.78
   4   7  -5    0.38    0.77
   4   7  -5    0.68    0.46
   3   7  -5    0.62    0.43
   3   7  -5    1.53    0.76
   2   7  -5    0.80    0.42
   2   7  -5    0.42    0.76
  -2  -7   5    0.20    0.50
   1   7  -5    7.33    0.89
   0   7  -5    0.65    0.46
   0  -7   5    0.58    0.67
  -1   7  -5   21.46    1.92
   1  -7   5   24.33    2.10
  -2   7  -5    9.53    1.07
   2  -7   5    6.05    1.46
   3  -7   5   18.48    1.78
   4  -7   5   15.20    1.73
   4  -7   5   20.91    1.68
   5  -7   5   14.76    1.77
   5  -7   5   16.27    1.49
   6  -7   5    2.30    1.07
   6  -7   5    3.46    0.79
   7  -7   5    0.63    0.87
   7  -7   5   -0.49    1.14
   8  -7   5    0.96    0.98
   8  -7   5    1.79    1.68
   7   6  -5   -2.17    0.83
   7   6  -5    1.46    1.29
   6   6  -5    1.11    0.74
   6   6  -5    2.27    0.99
   5   6  -5    1.57    0.80
   5   6  -5    2.50    0.61
   4   6  -5    0.12    0.40
   4   6  -5   -0.01    0.82
   3   6  -5    1.97    0.56
   3   6  -5    1.88    0.49
  -3  -6   5    1.54    0.49
   2   6  -5    0.79    0.38
   2   6  -5    1.11    0.43
  -2  -6   5    0.51    0.50
   1   6  -5    0.38    0.30
   1   6  -5    0.90    0.39
  -1  -6   5    0.90    0.52
   0   6  -5    0.68    0.36
   0  -6   5    0.20    0.57
  -1   6  -5    0.19    0.38
   1  -6   5   -0.32    0.57
   1  -6   5   -0.15    0.63
  -2   6  -5   11.75    1.10
   2  -6   5    8.83    1.38
   3  -6   5    2.23    0.89
   4  -6   5    0.83    0.82
   4  -6   5    0.46    0.37
   4  -6   5    0.00    0.62
   5  -6   5    1.83    1.17
   5  -6   5    3.68    0.99
   5  -6   5    3.48    0.87
   6  -6   5    0.50    0.88
   6  -6   5   -0.22    0.67
   7  -6   5    0.55    0.72
   7  -6   5    0.20    1.23
   8  -6   5    2.04    1.67
   8  -6   5    0.41    0.98
   7   5  -5   -0.21    1.07
   7   5  -5    0.02    0.80
   6   5  -5    0.69    0.66
   6   5  -5   -0.22    0.85
   5   5  -5   -0.83    0.68
   5   5  -5   -0.25    0.47
   4   5  -5    0.06    0.45
   4   5  -5   -0.37    0.38
   3   5  -5    0.28    0.46
   3   5  -5    0.27    0.38
   2   5  -5    1.02    0.38
   2   5  -5    1.03    0.35
   1   5  -5   -0.19    0.21
   1   5  -5   -0.02    0.29
   0   5  -5    0.53    0.29
   0  -5   5    0.39    0.46
  -1   5  -5   -0.41    0.34
   1  -5   5    0.49    0.35
   1  -5   5    0.50    0.51
   2  -5   5   18.01    1.44
   3  -5   5   -0.17    0.47
   3  -5   5    0.72    0.69
   4  -5   5    6.27    0.70
   4  -5   5    5.58    0.94
   4  -5   5    8.26    1.32
   5  -5   5    1.07    0.77
   5  -5   5    1.22    0.43
   5  -5   5    0.76    0.64
   6  -5   5   -0.34    1.22
   6  -5   5    0.24    0.65
   6  -5   5   -0.02    0.89
   7  -5   5    0.78    1.24
   7  -5   5    0.47    1.10
   7  -5   5    0.03    0.67
   8  -5   5   -1.14    0.88
   8   4  -5    0.10    0.88
   7   4  -5    2.86    1.15
   7   4  -5   -0.40    0.63
   6   4  -5    0.57    0.59
   6   4  -5    1.65    0.84
   5   4  -5   -0.30    0.52
   5   4  -5    0.51    0.53
   4   4  -5    1.96    0.54
   4   4  -5    2.54    0.54
   3   4  -5    0.42    0.34
   3   4  -5    0.16    0.31
   2   4  -5   81.19    5.97
   2   4  -5   85.49    5.97
   1   4  -5   31.43    2.30
   1   4  -5   29.16    2.25
   0   4  -5   -0.17    0.26
   0   4  -5    0.32    0.20
   1  -4   5    5.05    0.62
   1  -4   5    4.62    0.75
   2  -4   5    7.49    0.83
   2  -4   5    7.18    0.93
   3  -4   5    2.74    0.67
   3  -4   5    4.97    1.10
   3  -4   5    3.51    0.45
   4  -4   5    0.01    0.27
   4  -4   5   -0.02    0.59
   4  -4   5   -0.04    0.63
   5  -4   5    7.89    1.37
   5  -4   5   11.27    1.35
   5  -4   5   10.90    0.97
   6  -4   5   -1.04    0.76
   6  -4   5   -0.30    1.00
   6  -4   5    0.50    0.53
   7  -4   5   -0.42    1.22
   7  -4   5   -0.72    1.19
   7  -4   5   -0.32    0.63
   8  -4   5    1.62    1.75
   8  -4   5    0.97    1.48
   8   3  -5    0.33    0.93
   7   3  -5   -0.51    0.70
   6   3  -5   -0.03    0.59
   6   3  -5   -0.15    0.63
   5   3  -5   -0.02    0.51
   5   3  -5    0.38    0.46
   4   3  -5    0.13    0.34
   4   3  -5    0.06    0.39
   3   3  -5    9.57    0.94
   3   3  -5   10.45    0.90
   2   3  -5   32.85    2.45
   2   3  -5   33.03    2.44
   1   3  -5   98.89    6.93
   1   3  -5   95.96    6.90
   0   3  -5   32.14    2.29
   0   3  -5   28.48    2.19
   1  -3   5    7.37    0.77
   1  -3   5    6.54    0.58
   2  -3   5   36.10    2.68
   2  -3   5   31.15    2.59
   3  -3   5    7.93    1.14
   3  -3   5   10.99    1.11
   3  -3   5   10.25    0.80
   4  -3   5    8.03    1.22
   4  -3   5    7.53    1.05
   4  -3   5    7.95    0.72
   5  -3   5    8.61    1.27
   5  -3   5    7.01    0.82
   5  -3   5   12.05    1.61
   6  -3   5    0.43    0.42
   6  -3   5    0.05    0.71
   6  -3   5   -0.64    1.01
   7  -3   5   -0.14    0.70
   7  -3   5   -0.13    1.11
   7  -3   5    1.93    1.32
   8  -3   5    0.03    1.63
   8  -3   5    1.88    1.57
   8   2  -5   -0.03    0.85
   7   2  -5   -1.54    1.22
   7   2  -5    2.22    0.80
   6   2  -5    0.21    0.64
   6   2  -5    0.71    0.58
   6   2  -5    0.32    1.18
   5   2  -5   -0.14    0.46
   5   2  -5    0.63    0.39
   5   2  -5   -0.38    0.74
   4   2  -5    2.86    0.57
   3   2  -5   -0.04    0.24
   3   2  -5    0.16    0.23
  -3  -2   5    0.93    0.28
   2   2  -5   12.65    1.04
   2   2  -5   12.58    0.99
  -2  -2   5   12.52    1.00
   1   2  -5    2.42    0.33
   0   2  -5   26.86    1.93
   0  -2   5   27.68    1.94
   0  -2   5   25.32    2.11
   1  -2   5    0.96    0.17
   1  -2   5    1.69    0.45
   2  -2   5   24.89    1.78
   2  -2   5   24.73    1.78
   2  -2   5   25.47    2.08
   3  -2   5    6.00    0.53
   3  -2   5    6.10    0.98
   3  -2   5    6.75    1.03
   4  -2   5    2.53    0.90
   4  -2   5    1.87    0.32
   4  -2   5    2.08    0.87
   5  -2   5    5.31    0.66
   5  -2   5    7.30    1.31
   5  -2   5    5.39    1.05
   6  -2   5    1.89    0.50
   6  -2   5    1.82    0.95
   6  -2   5    1.89    1.06
   7  -2   5    2.63    1.30
   7  -2   5    0.13    0.84
   7  -2   5   -0.22    1.17
   8  -2   5   -1.14    1.57
   8  -2   5    1.12    1.59
   8   1  -5   -1.43    1.57
   7   1  -5   -1.00    1.25
   7   1  -5    1.35    0.74
   6   1  -5    0.31    0.49
   6   1  -5    0.12    1.02
   6   1  -5    0.67    0.56
   5   1  -5    1.18    0.51
   5   1  -5    0.26    0.30
   5   1  -5   -0.07    1.15
   4   1  -5    1.26    0.81
   4   1  -5    0.38    0.47
   4   1  -5    0.46    0.23
   3   1  -5    0.53    0.28
   3   1  -5    0.31    0.68
   2   1  -5    2.44    0.38
   1   1  -5   38.76    2.69
  -1  -1   5   35.69    2.69
   0   1  -5    2.60    0.29
   0  -1   5    3.61    0.61
   0  -1   5    2.50    0.32
   1  -1   5    0.62    0.42
   2  -1   5    5.60    0.97
   3  -1   5    8.89    0.65
   3  -1   5    7.48    1.19
   3  -1   5    7.69    1.06
   4  -1   5    2.39    1.22
   4  -1   5    2.54    0.83
   4  -1   5    1.46    0.31
   5  -1   5    1.15    0.38
   5  -1   5    1.14    0.89
   5  -1   5    0.65    0.96
   6  -1   5    4.51    0.64
   6  -1   5    6.06    1.33
   6  -1   5    1.74    1.09
   7  -1   5    0.33    1.20
   7  -1   5   -0.10    1.48
   7  -1   5    0.77    1.20
   8  -1   5   -0.61    1.71
   8  -1   5   -0.88    1.59
   8  -1   5    0.60    1.44
   8   0  -5   -0.06    1.69
   7   0  -5    0.72    1.24
   7   0  -5    0.35    0.77
   6   0  -5   -1.12    1.08
   6   0  -5    0.45    0.58
   5   0  -5    0.18    0.47
   5   0  -5    0.47    0.90
   4   0  -5    7.33    0.92
   4   0  -5    4.91    1.20
   3   0  -5    1.12    0.73
   3   0  -5    0.48    0.31
   2   0  -5    0.14    0.23
  -2   0   5    0.47    0.14
   1   0  -5    7.37    0.65
  -1   0   5    8.33    0.94
   0   0  -5    0.83    0.16
   0   0   5    0.51    0.17
   0   0   5    0.25    0.45
   1   0   5    0.41    0.46
   2   0   5    1.43    0.78
   3   0   5    0.94    0.98
  -4   0  -5    4.21    0.53
   4   0   5    6.61    1.13
   4   0   5    4.88    0.52
   5   0   5    1.60    0.89
   5   0   5    1.07    1.14
   5   0   5    1.35    0.41
   6   0   5    0.15    0.99
   6   0   5    2.39    1.17
   6   0   5    1.32    1.31
   6   0   5    0.83    0.49
   7   0   5    1.41    1.56
   7   0   5    1.88    1.15
   7   0   5    1.67    1.24
   8   0   5   -1.34    1.59
   8   0   5    0.12    1.90
   8   0   5   -0.53    1.21
   8  -1  -5    0.43    1.78
   8  -1  -5    0.69    1.03
   7  -1  -5    2.06    0.85
   7  -1  -5    0.65    1.46
   6  -1  -5    0.04    1.08
   6  -1  -5   -0.16    0.59
   5  -1  -5    0.39    0.46
   5  -1  -5    0.07    0.91
   4  -1  -5    0.84    0.55
   4  -1  -5    0.34    0.87
   3  -1  -5   11.72    1.39
   3  -1  -5   10.35    0.96
   2  -1  -5   14.19    1.20
   2  -1  -5   16.71    1.46
  -2   1   5   14.13    1.09
  -2   1   5   15.55    1.10
   1  -1  -5   26.87    1.90
  -1   1   5   27.50    1.91
  -1   1   5   21.84    2.11
   0  -1  -5   19.07    1.37
   0   1   5   17.57    1.60
  -1  -1  -5    1.93    0.21
  -1  -1  -5    1.90    0.22
   1   1   5    2.72    0.79
   2   1   5    0.10    0.81
   3   1   5    5.15    1.14
   4   1   5    4.01    0.52
   4   1   5    4.90    1.16
   4   1   5    3.87    0.94
   5   1   5   -0.38    0.84
   5   1   5   -0.76    1.09
   5   1   5    0.04    0.37
   5   1   5    0.44    0.95
   6   1   5    0.24    1.04
   6   1   5    0.41    1.04
   6   1   5    0.10    1.35
   7   1   5   -0.79    1.67
   7   1   5   -1.33    1.14
   7   1   5   -1.37    1.20
   8  -2  -5   -1.09    1.88
   8  -2  -5    0.62    0.83
   7  -2  -5    3.07    0.88
   7  -2  -5    3.52    1.59
   6  -2  -5    4.11    0.82
   6  -2  -5    3.67    1.35
   5  -2  -5    1.21    0.56
   5  -2  -5    1.49    1.05
   4  -2  -5    4.75    1.08
   4  -2  -5    2.62    0.57
   3  -2  -5   -0.69    0.30
   2  -2  -5   14.51    1.18
   2  -2  -5   15.82    1.56
  -2   2   5   13.59    1.08
  -2   2   5   14.44    1.47
   1  -2  -5    2.62    0.35
  -1   2   5    2.39    0.38
  -1   2   5    1.94    0.69
   0  -2  -5    4.29    0.42
   0   2   5    4.49    0.54
   0   2   5    2.61    0.73
  -1  -2  -5    1.26    0.24
  -1  -2  -5    0.88    0.20
   1   2   5    1.90    0.89
   1   2   5    0.84    0.39
  -2  -2  -5    0.20    0.22
   2   2   5    0.53    0.73
   2   2   5    0.88    0.50
  -3  -2  -5    5.29    0.57
   3   2   5    6.69    1.04
   3   2   5    5.52    1.17
   4   2   5    3.82    1.20
   4   2   5    6.82    1.15
   5   2   5    1.30    0.44
   5   2   5    0.76    0.86
   5   2   5    1.29    1.38
   5   2   5    2.18    0.89
   6   2   5    5.43    1.69
   6   2   5    4.78    1.31
   7   2   5    0.86    1.23
   8  -3  -5    1.89    2.08
   8  -3  -5   -0.02    0.93
   7  -3  -5    2.43    1.76
   7  -3  -5    1.07    0.77
   6  -3  -5    0.02    1.06
   6  -3  -5    1.39    0.71
   5  -3  -5    1.69    0.52
   5  -3  -5    1.68    1.02
   4  -3  -5    1.26    0.88
   4  -3  -5    0.57    0.49
   3  -3  -5   16.40    1.37
   3  -3  -5   15.30    1.65
  -3   3   5   16.56    2.63
   2  -3  -5    3.95    0.51
  -2   3   5    3.82    0.48
  -2   3   5    5.09    1.05
   1  -3  -5   13.36    1.08
  -1   3   5   12.82    1.44
  -1   3   5   13.27    1.11
   0  -3  -5   23.28    1.74
   0   3   5   24.08    1.85
   0   3   5   22.43    2.16
   1   3   5    2.43    0.96
   1   3   5    3.82    0.65
   2   3   5   23.25    1.83
   2   3   5   16.15    1.85
   3   3   5    1.93    0.73
   3   3   5    1.85    0.95
   4   3   5    1.33    1.14
   4   3   5   -0.16    0.71
   5   3   5    1.48    0.98
   5   3   5    1.97    1.00
   5   3   5    1.43    1.32
   6   3   5    1.70    1.75
   6   3   5    2.01    1.16
   6   3   5    2.92    1.24
   7   3   5   -0.24    1.10
   7   3   5    1.83    2.08
   8  -4  -5    4.66    2.29
   8  -4  -5   -1.75    0.89
   7  -4  -5    0.08    0.68
   7  -4  -5    1.57    1.65
   6  -4  -5    2.44    1.41
   6  -4  -5    1.90    0.82
   5  -4  -5    2.14    0.67
   5  -4  -5    0.29    1.11
   4  -4  -5    0.89    1.06
   4  -4  -5    1.53    0.54
  -4   4   5    2.15    0.80
   3  -4  -5   -0.62    0.73
   3  -4  -5    0.48    0.48
  -3   4   5    1.68    0.85
  -3   4   5   -0.13    0.26
   2  -4  -5   -0.02    0.28
   2  -4  -5    0.22    0.78
  -2   4   5   -0.05    0.29
   1  -4  -5    0.72    0.87
   1  -4  -5    0.23    0.27
  -1   4   5   -0.62    0.32
   0  -4  -5    4.47    0.56
   0   4   5    4.86    0.67
   0   4   5    7.09    1.21
   1   4   5   -0.02    0.45
   1   4   5    1.37    0.83
   2   4   5    1.91    0.66
   2   4   5    1.80    0.89
   3   4   5    0.36    0.61
   3   4   5    0.87    0.92
   4   4   5    0.79    1.20
   4   4   5    0.82    0.79
   5   4   5   -0.06    0.84
   5   4   5    1.27    1.47
   5   4   5    1.73    1.08
   6   4   5    1.74    1.95
   8  -5  -5    0.07    2.21
   7  -5  -5   -1.63    1.64
   7  -5  -5    0.54    1.01
   6  -5  -5   -1.81    1.38
   6  -5  -5    1.34    0.77
   5  -5  -5    0.46    0.55
   5  -5  -5    1.43    1.27
  -5   5   5    0.02    0.96
   4  -5  -5   21.39    1.85
   4  -5  -5   22.22    2.25
  -4   5   5   22.07    2.12
   3  -5  -5    0.28    0.89
   3  -5  -5    3.19    0.61
  -3   5   5    2.60    0.46
  -3   5   5    1.84    0.84
   2  -5  -5    3.81    1.15
   2  -5  -5    3.94    0.69
  -2   5   5    6.11    1.02
  -2   5   5    4.32    0.62
   1  -5  -5    1.72    0.39
   1  -5  -5    0.02    0.83
  -1   5   5    1.04    0.77
  -1   5   5    0.66    0.42
   0   5   5    0.23    1.00
   0   5   5    1.35    0.53
   1   5   5   -0.30    0.88
   1   5   5    3.30    0.74
   2   5   5    2.34    0.66
   2   5   5    0.34    0.87
   3   5   5   -0.08    1.02
   3   5   5    1.45    0.75
   4   5   5    1.55    0.89
   5   5   5    0.27    1.66
   5   5   5   -0.32    0.86
   6   5   5    0.87    1.88
   6   5   5    1.56    1.05
   7  -6  -5    2.58    0.85
   7  -6  -5   -0.12    1.74
  -7   6   5    3.82    1.66
   6  -6  -5   -0.99    1.50
   6  -6  -5   -0.81    0.72
  -6   6   5    1.37    1.19
   5  -6  -5    2.18    1.49
   5  -6  -5    2.76    0.77
  -5   6   5    3.36    1.27
   4  -6  -5    1.23    1.08
   4  -6  -5    0.48    0.60
  -4   6   5   -1.06    0.86
   3  -6  -5    1.88    0.55
   3  -6  -5   -0.18    1.02
  -3   6   5    3.60    0.93
  -3   6   5    1.24    0.46
   2  -6  -5    0.54    1.02
   2  -6  -5    1.34    0.53
  -2   6   5    0.17    0.44
  -2   6   5    1.07    0.88
   1  -6  -5    0.02    0.54
   1  -6  -5   -0.17    0.90
  -1   6   5    1.16    1.02
  -1   6   5    0.52    0.54
   0   6   5    0.96    0.69
   0   6   5   -0.45    1.02
   1   6   5    0.47    0.94
   1   6   5    2.06    0.66
   2   6   5    0.54    1.04
   2   6   5    0.67    0.70
   3   6   5    0.47    0.82
   3   6   5    0.43    1.32
   4   6   5   -0.05    1.36
   4   6   5   -0.56    0.90
   5   6   5   -0.66    1.70
   5   6   5    0.53    1.09
   7  -7  -5   -2.91    1.78
   7  -7  -5   -0.11    0.92
  -7   7   5   -1.20    1.55
   6  -7  -5    0.42    0.83
  -6   7   5   -1.23    1.24
   5  -7  -5    2.09    1.47
   5  -7  -5    0.62    0.79
  -5   7   5    1.43    1.15
   4  -7  -5    0.75    0.64
   4  -7  -5    2.13    1.42
  -4   7   5    0.68    0.95
   3  -7  -5   -0.11    1.17
   3  -7  -5   -0.25    0.56
  -3   7   5    1.40    1.03
  -3   7   5    1.27    0.53
   2  -7  -5    0.11    0.51
   2  -7  -5   -0.72    1.14
  -2   7   5   -0.56    1.08
  -2   7   5    1.32    0.58
   1  -7  -5   -0.66    1.14
   1  -7  -5    2.54    0.65
  -1   7   5   -0.77    1.12
   0   7   5   -1.06    1.16
   1   7   5    0.64    1.29
   1   7   5    0.85    0.77
   2   7   5    0.18    1.28
   2   7   5    1.40    0.82
   3   7   5    0.69    0.90
   3   7   5    1.27    1.46
   4   7   5   -0.39    0.97
   5   7   5   -2.15    1.17
   5   7   5   -0.53    2.12
   6  -8  -5   -0.98    0.87
   6  -8  -5   -2.42    1.63
  -6   8   5    1.38    1.41
   5  -8  -5   -0.40    1.73
   5  -8  -5    1.98    0.93
  -5   8   5    1.83    1.21
   4  -8  -5    1.03    0.80
   4  -8  -5    1.87    1.53
  -4   8   5   -0.11    1.24
   3  -8  -5   -1.19    0.59
   3  -8  -5   -1.23    1.35
  -3   8   5   -0.44    1.25
   2  -8  -5    0.13    0.62
   2  -8  -5    0.62    1.39
  -2   8   5    0.07    1.29
  -2   8   5   -0.36    0.73
   1  -8  -5   -2.01    1.29
   1  -8  -5   -0.45    0.55
  -1   8   5   -0.82    0.73
  -1   8   5    0.09    1.29
   0   8   5    0.34    0.77
   0   8   5   -0.08    1.36
   1   8   5   -0.45    0.87
   1   8   5   -1.29    1.36
   2   8   5   -1.28    1.34
   2   8   5    1.32    0.89
   3   8   5    0.11    1.07
   3   8   5    0.25    1.59
   4   8   5    1.66    1.13
   4   8   5    2.68    2.08
   5  -9  -5    1.51    0.92
   5  -9  -5   -1.15    1.88
  -5   9   5    1.96    1.71
   4  -9  -5    2.73    1.89
   4  -9  -5   -0.29    0.81
  -4   9   5    0.56    1.73
   3  -9  -5    0.51    1.65
   3  -9  -5    1.95    0.85
  -3   9   5   -0.79    1.66
  -3   9   5    1.88    0.85
   2  -9  -5    0.04    0.73
   2  -9  -5    1.14    1.57
  -2   9   5    0.79    0.81
  -2   9   5    0.51    1.62
   1  -9  -5    0.73    0.74
  -1   9   5   -0.54    1.54
  -1   9   5    1.91    0.90
   0   9   5    1.24    1.62
   0   9   5    0.53    1.00
   1   9   5    1.01    1.74
   1   9   5    1.22    1.02
   2   9   5    0.47    0.98
   2   9   5   -0.87    1.79
   3   9   5    3.91    2.08
   3   9   5   -1.99    1.08
   4 -10  -5   -0.90    0.88
   4 -10  -5    1.18    2.11
  -4  10   5    2.53    2.10
   3 -10  -5   -1.91    2.08
   3 -10  -5    0.59    0.89
  -3  10   5    0.90    1.89
   2 -10  -5   -0.49    0.76
   2 -10  -5   -3.19    1.69
  -2  10   5    2.05    1.84
  -2  10   5    0.58    1.03
   1 -10  -5    0.03    0.88
  -1  10   5    2.74    1.81
  -1  10   5    0.95    1.06
   0  10   5    2.62    1.94
   0  10   5   -1.26    1.05
   1  10   5    1.10    1.22
   1  10   5   -0.25    2.10
   2  10   5    1.78    2.20
   1  14  -6    0.12    1.15
   0  14  -6   -0.91    0.92
  -1  14  -6    1.28    1.08
  -2  14  -6   -1.01    0.99
   2 -14   6    1.17    1.91
  -3  14  -6   -0.32    1.24
   3 -14   6   -1.42    2.07
   2  13  -6    0.79    0.98
   0  13  -6   -0.73    0.86
  -1  13  -6    2.54    1.13
   1 -13   6   -0.33    1.42
  -2  13  -6    1.92    1.08
   2 -13   6   -2.04    1.58
  -3  13  -6    0.86    1.38
   3 -13   6    1.41    1.81
  -4  13  -6    0.36    1.14
   4 -13   6    1.46    2.34
   4  12  -6    1.34    1.33
   3  12  -6    0.91    1.05
   2  12  -6    0.79    0.99
   1  12  -6   -0.45    0.93
   0  12  -6   -0.95    0.82
   0 -12   6   -1.05    1.12
  -1  12  -6    2.67    0.93
   1 -12   6    1.88    1.23
  -2  12  -6    1.91    1.02
   2 -12   6    0.06    1.39
  -3  12  -6   -0.07    0.80
   3 -12   6   -0.83    1.39
  -4  12  -6    0.79    1.06
   4 -12   6   -0.30    1.55
   5 -12   6    0.26    1.77
   5 -12   6    0.44    0.96
   4  11  -6    0.88    1.22
   3  11  -6    1.13    1.09
   2  11  -6    2.08    1.11
   1  11  -6    1.27    0.89
  -1 -11   6    1.27    1.02
   0  11  -6    0.50    0.87
   0 -11   6   -0.90    1.84
  -1  11  -6   -0.45    0.71
   1 -11   6   -0.63    1.11
  -2  11  -6    0.06    0.84
   2 -11   6    2.07    1.29
  -3  11  -6    0.77    0.79
   3 -11   6    2.23    1.33
   4 -11   6    0.69    1.45
   5 -11   6    0.68    0.89
   5 -11   6   -0.07    1.35
   6 -11   6    0.83    1.01
   6 -11   6   -1.41    1.68
   5  10  -6    0.77    0.89
   5  10  -6    0.19    1.27
   4  10  -6   -0.09    0.71
   4  10  -6    0.01    1.12
   3  10  -6    4.66    1.15
   2  10  -6    2.27    0.96
   1  10  -6    0.81    0.78
  -1 -10   6    0.68    0.93
   0  10  -6    0.35    0.65
   0 -10   6    0.08    1.27
  -1  10  -6    0.27    0.70
   1 -10   6    1.08    0.98
  -2  10  -6    0.75    0.66
   2 -10   6    0.60    1.05
  -3  10  -6    3.58    0.90
   3 -10   6    3.80    1.27
   4 -10   6    0.65    1.10
   5 -10   6   -1.95    1.20
   5 -10   6    0.28    0.79
   6 -10   6   -0.76    1.44
   6 -10   6   -0.65    0.90
   6   9  -6   -0.32    1.43
   6   9  -6   -1.34    0.87
   5   9  -6   -0.95    0.81
   5   9  -6    0.27    1.19
   4   9  -6    1.45    0.68
   4   9  -6    0.98    0.97
   3   9  -6   -1.31    0.49
   3   9  -6    1.08    0.68
   2   9  -6    1.48    0.73
  -2  -9   6   -0.65    0.73
   1   9  -6    2.66    0.71
  -1  -9   6    2.76    0.90
   0   9  -6    3.66    0.80
   0  -9   6    3.34    1.09
  -1   9  -6    1.82    0.67
   1  -9   6    2.35    1.00
  -2   9  -6    6.56    1.07
   2  -9   6    6.60    1.26
  -3   9  -6   14.44    1.62
   3  -9   6   17.73    1.89
   4  -9   6   -0.64    0.93
   5  -9   6    3.31    0.81
   5  -9   6    1.58    1.02
   6  -9   6    0.94    1.32
   6  -9   6    1.27    0.88
   7  -9   6    1.13    1.36
   7  -9   6    1.23    1.06
   6   8  -6    0.27    1.29
   5   8  -6    0.60    0.71
   5   8  -6   -0.29    1.04
   4   8  -6    0.31    0.80
   4   8  -6   -0.15    0.62
   3   8  -6    0.04    0.63
   3   8  -6    0.66    0.56
   2   8  -6    5.92    1.04
   2   8  -6    5.55    0.76
   1   8  -6    0.69    0.61
  -1  -8   6    0.03    0.69
   0   8  -6    0.76    0.55
   0  -8   6    1.38    0.89
  -1   8  -6    0.15    0.54
   1  -8   6   -0.04    1.04
   1  -8   6   -0.25    0.79
  -2   8  -6    4.56    0.91
   2  -8   6    2.94    1.05
   3  -8   6   -0.09    0.87
   4  -8   6    2.74    1.00
   5  -8   6    0.09    0.95
   5  -8   6    1.75    0.61
   6  -8   6    2.28    1.15
   6  -8   6    0.78    0.72
   7  -8   6   -0.38    1.11
   7  -8   6   -0.34    1.00
   7   7  -6    1.00    1.45
   7   7  -6    0.75    0.97
   6   7  -6   -0.07    0.71
   6   7  -6    1.60    1.15
   5   7  -6    0.17    0.65
   5   7  -6    0.46    0.92
   4   7  -6    0.99    0.79
   4   7  -6    0.43    0.56
   3   7  -6    2.34    0.88
   3   7  -6    2.12    0.53
  -3  -7   6    0.81    0.61
   2   7  -6   -0.48    0.45
   2   7  -6    0.29    0.67
  -2  -7   6    0.25    0.66
   1   7  -6    5.17    0.76
   1   7  -6    5.12    1.33
  -1  -7   6    3.10    0.79
   0  -7   6   -0.46    0.73
  -1   7  -6   10.70    1.23
  -2   7  -6    4.55    0.90
   2  -7   6    2.51    1.00
   3  -7   6   20.96    2.08
   4  -7   6    0.94    0.52
   4  -7   6    2.07    0.88
   5  -7   6    4.45    1.06
   5  -7   6    7.25    0.93
   6  -7   6    0.84    0.90
   6  -7   6   -0.82    0.62
   7  -7   6   -0.27    1.27
   7  -7   6    0.26    0.81
   7   6  -6    0.18    0.88
   6   6  -6   -1.32    0.69
   6   6  -6   -1.06    0.88
   5   6  -6    1.38    0.93
   5   6  -6    1.71    0.68
   4   6  -6    0.58    0.53
   3   6  -6    0.12    0.48
   3   6  -6    0.01    0.38
   2   6  -6    0.15    0.37
   2   6  -6   -0.19    0.46
  -2  -6   6   -0.20    0.58
   1   6  -6    2.02    0.50
   1   6  -6    2.28    0.44
  -1  -6   6    3.06    0.71
   0   6  -6    4.35    0.67
   0  -6   6    6.13    0.92
  -1   6  -6    5.12    0.75
   1  -6   6    4.23    0.89
   1  -6   6    4.17    0.68
   2  -6   6    1.43    0.95
   2  -6   6    1.06    0.49
   3  -6   6    0.49    0.85
   3  -6   6    0.17    0.51
   4  -6   6    0.62    0.38
   4  -6   6   -0.02    0.67
   4  -6   6    0.52    0.92
   5  -6   6    0.61    0.48
   5  -6   6    0.53    0.91
   5  -6   6    0.98    0.80
   6  -6   6   -1.11    0.65
   6  -6   6    0.73    0.84
   7  -6   6    2.51    0.86
   7  -6   6    0.17    1.11
   8  -6   6    1.46    1.71
   7   5  -6    0.73    0.82
   6   5  -6    2.08    0.81
   6   5  -6    0.67    1.05
   5   5  -6    1.51    0.68
   5   5  -6    1.37    0.56
   4   5  -6    0.13    0.46
   4   5  -6    0.86    0.44
   3   5  -6    2.44    0.53
   3   5  -6    2.76    0.56
   2   5  -6    2.10    0.49
   2   5  -6    2.74    0.49
   1   5  -6    0.64    0.27
   1   5  -6    1.40    0.41
   0   5  -6    5.81    0.77
   0  -5   6    7.61    0.89
  -1   5  -6    2.77    0.54
   1  -5   6    3.92    0.63
   1  -5   6    4.44    0.85
   2  -5   6    0.21    0.66
   2  -5   6    0.37    0.51
   3  -5   6    2.03    0.78
   3  -5   6    0.91    0.60
   4  -5   6    1.43    0.75
   4  -5   6    1.25    0.38
   4  -5   6    1.84    0.81
   5  -5   6    2.10    0.50
   5  -5   6    1.91    0.93
   5  -5   6    1.93    0.98
   6  -5   6    1.08    0.90
   6  -5   6    1.62    0.59
   6  -5   6   -1.05    2.11
   7  -5   6    0.71    0.79
   7  -5   6    1.54    1.30
   7  -5   6    2.83    1.59
   8  -5   6   -0.09    1.67
   8   4  -6    0.44    0.95
   7   4  -6   -1.38    0.78
   6   4  -6    0.03    0.69
   6   4  -6    2.12    0.73
   5   4  -6    0.01    0.53
   5   4  -6    0.10    0.52
   4   4  -6    0.92    0.46
   4   4  -6    1.07    0.43
   3   4  -6    5.99    0.91
   3   4  -6    6.27    0.70
   2   4  -6   17.01    1.37
   2   4  -6   16.61    1.37
   1   4  -6  140.51    9.83
   1   4  -6  136.24    9.78
   0   4  -6   10.94    0.92
   0   4  -6   11.64    1.03
   1  -4   6   63.85    4.68
   2  -4   6    1.80    0.78
   2  -4   6    0.89    0.58
   3  -4   6   26.22    1.90
   3  -4   6   29.96    2.28
   3  -4   6   21.49    2.08
   4  -4   6   -0.78    0.74
   4  -4   6    0.01    0.30
   4  -4   6   -0.63    0.80
   5  -4   6    1.45    0.95
   5  -4   6    0.83    0.40
   5  -4   6    1.27    1.14
   6  -4   6    0.06    1.05
   6  -4   6   -0.09    0.45
   6  -4   6   -0.16    1.00
   7  -4   6   -1.61    1.09
   7  -4   6    0.44    1.28
   8  -4   6   -0.64    1.84
   8   3  -6    0.72    0.98
   7   3  -6    1.04    0.82
   6   3  -6    1.12    0.57
   6   3  -6    0.97    0.67
   5   3  -6    1.10    0.50
   5   3  -6   -0.60    0.43
   4   3  -6    1.16    0.39
   4   3  -6    1.23    0.52
   3   3  -6    1.55    0.43
   3   3  -6    0.66    0.31
   2   3  -6   22.97    1.76
   2   3  -6   22.98    1.78
   1   3  -6   28.54    2.15
   1   3  -6   29.57    2.19
   0   3  -6   18.65    1.40
   1  -3   6    1.15    0.49
   1  -3   6    0.71    0.23
   2  -3   6    0.21    0.54
   2  -3   6    0.06    0.61
   2  -3   6    0.65    0.20
   3  -3   6    3.19    0.81
   3  -3   6    2.31    0.31
   3  -3   6    3.05    0.82
   4  -3   6    0.04    0.90
   4  -3   6    0.05    0.26
   4  -3   6   -0.83    0.64
   5  -3   6    7.16    1.32
   5  -3   6    4.76    0.62
   5  -3   6    4.62    1.17
   6  -3   6   -0.20    0.44
   6  -3   6   -1.41    0.93
   6  -3   6   -0.01    1.07
   7  -3   6    4.26    1.38
   7  -3   6    3.70    1.39
   8  -3   6   -0.46    1.65
   8  -3   6   -0.77    1.61
   8   2  -6    2.42    0.88
   7   2  -6   -1.01    1.28
   7   2  -6    0.39    0.77
   6   2  -6    0.56    1.05
   6   2  -6    1.73    0.73
   5   2  -6    0.83    0.53
   5   2  -6    1.11    0.39
   4   2  -6    0.61    0.48
   4   2  -6   -0.34    0.29
   3   2  -6    1.61    0.40
   3   2  -6    1.34    0.31
  -3  -2   6    1.36    0.31
   2   2  -6    3.95    0.51
  -2  -2   6    4.25    0.54
   1   2  -6    0.06    0.18
   0   2  -6   34.37    2.55
   0  -2   6   38.15    2.69
   0  -2   6   34.32    2.78
   1  -2   6    9.01    0.66
   1  -2   6    7.84    0.91
   2  -2   6    6.59    1.04
   3  -2   6    2.00    0.97
   3  -2   6    1.61    0.61
   5  -2   6   -0.95    0.98
   5  -2   6    0.41    0.94
   5  -2   6    0.22    0.34
   6  -2   6    0.31    1.10
   6  -2   6    1.77    1.16
   7  -2   6    1.70    1.32
   7  -2   6    2.44    1.42
   8  -2   6    0.01    1.80
   8  -2   6    2.79    1.78
   8   1  -6    0.04    1.57
   8   1  -6   -0.08    0.82
   7   1  -6   -0.46    1.28
   6   1  -6    0.51    0.70
   6   1  -6   -1.10    1.04
   5   1  -6    1.74    0.66
   5   1  -6   -0.15    0.94
   4   1  -6    0.64    1.04
   4   1  -6   -0.33    0.45
   3   1  -6    5.29    0.65
   2   1  -6    1.60    0.33
  -2  -1   6    2.42    0.34
   1   1  -6   -0.04    0.18
   0   1  -6    0.07    0.16
   0  -1   6    0.15    0.19
   0  -1   6    0.25    0.47
   1  -1   6   16.98    1.56
   2  -1   6   17.65    1.80
   3  -1   6    1.28    1.10
   4  -1   6   -0.17    0.63
   4  -1   6   -0.49    0.91
   5  -1   6    0.47    0.88
   5  -1   6    0.05    0.33
   5  -1   6    1.17    1.14
   6  -1   6    0.70    1.29
   6  -1   6    0.70    1.06
   7  -1   6   -1.46    1.24
   7  -1   6   -1.06    1.25
   7  -1   6   -0.35    1.54
   8   0  -6    0.73    0.92
   8   0  -6   -1.73    1.75
   7   0  -6   -0.13    0.69
   7   0  -6    1.24    1.39
   6   0  -6    0.77    0.63
   6   0  -6    2.49    1.27
   5   0  -6    0.15    0.56
   5   0  -6    0.33    0.97
   4   0  -6    3.68    0.65
   4   0  -6    2.29    0.94
   3   0  -6    0.95    0.34
   3   0  -6   -0.61    0.98
   2   0  -6    0.75    0.28
   1   0  -6    8.09    0.75
  -1   0   6   10.56    1.20
   0   0  -6    1.03    0.21
   0   0   6    0.89    0.62
   1   0   6    0.37    0.57
   2   0   6    3.11    1.12
   3   0   6    0.12    0.86
   4   0   6    1.50    0.80
   4   0   6    1.52    0.97
   5   0   6    5.90    1.19
   5   0   6    5.32    1.42
   6   0   6    1.66    1.22
   6   0   6   -0.22    1.43
   6   0   6   -1.41    1.12
   7   0   6    4.14    1.83
   7   0   6    4.12    1.78
   7   0   6    1.86    1.45
   8  -1  -6    0.49    0.79
   8  -1  -6   -1.08    1.99
   7  -1  -6    1.23    1.61
   7  -1  -6    0.89    0.71
   6  -1  -6    3.40    1.48
   6  -1  -6    1.54    0.69
   5  -1  -6    2.57    1.09
   5  -1  -6    2.08    0.65
   4  -1  -6   10.34    1.12
   4  -1  -6   12.70    1.48
   3  -1  -6    4.33    0.59
   3  -1  -6    4.78    0.94
   2  -1  -6    1.48    0.34
  -2   1   6    1.58    0.29
  -2   1   6    1.43    0.25
  -2   1   6    0.99    0.79
   1  -1  -6   22.44    1.64
  -1   1   6   25.75    2.01
  -1   1   6   18.37    1.65
   0  -1  -6    0.12    0.18
   0   1   6    0.16    0.32
   0   1   6   -0.43    0.53
  -1  -1  -6    2.77    0.28
  -1  -1  -6    2.31    0.28
   1   1   6    3.86    1.09
   2   1   6    2.38    0.91
   3   1   6    3.84    1.09
   4   1   6    0.61    0.76
   4   1   6    0.89    1.07
   4   1   6    2.30    0.85
   5   1   6    0.73    0.93
   5   1   6    1.27    0.93
   5   1   6    0.06    1.30
   6   1   6    0.99    1.62
   6   1   6   -0.36    1.16
   6   1   6   -0.13    1.24
   7   1   6    0.44    1.19
   7   1   6   -0.38    1.39
   8  -2  -6   -2.39    2.13
   8  -2  -6   -1.93    0.85
   7  -2  -6    1.43    1.73
   7  -2  -6   -0.71    0.77
   6  -2  -6    0.30    0.61
   6  -2  -6    0.38    1.37
   5  -2  -6   -0.42    0.56
   5  -2  -6    0.65    1.18
   4  -2  -6   -0.42    0.50
   4  -2  -6    0.06    0.90
   3  -2  -6    1.90    0.82
   3  -2  -6    1.88    0.46
   2  -2  -6   -0.89    0.76
   2  -2  -6    0.39    0.28
  -2   2   6    0.15    0.23
  -2   2   6   -0.11    0.64
   1  -2  -6    2.03    0.36
  -1   2   6    1.11    1.22
  -1   2   6    1.16    0.37
   0  -2  -6    0.29    0.21
   0   2   6    0.29    0.33
  -1  -2  -6    0.34    0.24
  -1  -2  -6    0.25    0.19
   1   2   6    1.52    0.90
   1   2   6    0.51    0.42
  -2  -2  -6   12.33    0.91
   2   2   6    8.44    1.36
   3   2   6    2.99    0.98
   3   2   6    3.35    1.09
   4   2   6    8.76    1.63
   5   2   6    3.82    1.06
   5   2   6    2.43    1.46
   5   2   6    2.01    1.01
   6   2   6    4.22    1.89
   6   2   6    3.48    1.28
   6   2   6    1.12    1.39
   7   2   6    0.56    1.16
   7   2   6   -0.83    1.97
   8  -3  -6    0.49    2.28
   8  -3  -6    0.34    0.95
   7  -3  -6    0.21    0.74
   7  -3  -6   -1.97    1.81
   6  -3  -6    0.98    1.61
   6  -3  -6    1.29    0.78
   5  -3  -6    7.59    1.69
   5  -3  -6    3.66    0.76
   4  -3  -6    1.55    1.06
   4  -3  -6    1.08    0.50
   3  -3  -6    0.58    0.75
   3  -3  -6    0.84    0.49
  -3   3   6   -0.09    0.80
   2  -3  -6    0.49    0.71
   2  -3  -6    1.31    0.39
  -2   3   6    1.34    0.68
  -2   3   6    2.13    0.38
   1  -3  -6    0.20    0.27
  -1   3   6    1.43    0.69
  -1   3   6    0.92    0.37
   0  -3  -6    4.65    0.51
   0   3   6    4.30    0.65
   0   3   6    4.55    0.97
  -1  -3  -6   -0.20    0.23
   1   3   6    0.39    0.48
   1   3   6   -0.37    0.87
   2   3   6    1.07    0.91
   3   3   6    3.23    1.12
   4   3   6    0.85    0.87
   4   3   6    0.73    1.20
   5   3   6    3.88    1.03
   5   3   6    3.87    1.21
   5   3   6    2.88    1.55
   6   3   6   -0.19    1.41
   7  -4  -6    0.47    1.40
   7  -4  -6   -1.18    1.93
   6  -4  -6    0.63    0.70
   6  -4  -6   -0.41    1.38
   5  -4  -6    0.52    0.54
   5  -4  -6    0.96    1.37
   4  -4  -6    6.86    1.58
   4  -4  -6    4.15    0.81
  -4   4   6    4.68    1.21
   3  -4  -6    0.25    0.50
   3  -4  -6    1.18    0.99
  -3   4   6    0.43    0.29
  -3   4   6   -0.96    0.67
   2  -4  -6    2.19    0.48
   2  -4  -6    1.15    0.76
  -2   4   6    2.61    0.78
  -2   4   6    2.00    0.44
   1  -4  -6    0.42    0.32
  -1   4   6    0.64    0.72
  -1   4   6    1.09    0.44
   0  -4  -6    0.15    0.30
   0   4   6    0.75    0.84
   0   4   6    0.81    0.43
  -1  -4  -6   -0.14    0.29
   1   4   6    0.52    0.99
   1   4   6    0.44    0.66
   2   4   6    5.78    1.48
   2   4   6    7.15    1.06
   3   4   6   -0.90    0.68
   3   4   6    0.73    1.11
   4   4   6   -0.30    1.20
   4   4   6    0.32    0.88
   5   4   6    0.77    1.21
   5   4   6    0.43    0.89
   5   4   6   -1.11    1.45
   6   4   6   -1.62    2.04
   6   4   6    1.68    1.34
   7  -5  -6    1.45    2.10
   7  -5  -6    0.37    0.75
   6  -5  -6    0.14    1.69
   6  -5  -6   -0.02    0.76
  -6   5   6   -0.14    1.25
   5  -5  -6    1.53    0.73
   5  -5  -6    1.76    1.54
  -5   5   6   -0.78    1.13
   4  -5  -6    7.47    1.66
   4  -5  -6    5.46    0.88
  -4   5   6    3.12    1.04
   3  -5  -6    2.86    1.26
   3  -5  -6    2.72    0.60
  -3   5   6    3.69    0.53
  -3   5   6    2.80    0.94
   2  -5  -6    6.90    0.93
   2  -5  -6    5.61    1.44
  -2   5   6    7.73    0.84
  -2   5   6    8.33    1.21
   1  -5  -6    1.00    0.44
  -1   5   6    0.31    0.48
  -1   5   6    1.31    0.87
   0  -5  -6    1.04    0.38
   0   5   6   -0.23    0.72
   0   5   6   -0.75    1.08
   1   5   6    0.15    0.96
   1   5   6   -0.13    0.58
   2   5   6    1.87    1.13
   2   5   6    1.74    0.73
   3   5   6    0.86    1.19
   3   5   6    0.60    0.78
   4   5   6    2.55    1.49
   4   5   6    1.10    0.86
   5   5   6    0.94    1.20
   5   5   6    0.60    1.91
   7  -6  -6    1.96    1.00
   7  -6  -6    2.76    2.37
  -7   6   6    1.74    1.64
   6  -6  -6   -1.96    0.77
  -6   6   6    0.34    1.41
   5  -6  -6    0.25    1.61
   5  -6  -6    1.92    0.85
  -5   6   6    1.51    1.16
   4  -6  -6   -0.06    0.66
   4  -6  -6    3.41    1.50
  -4   6   6   -1.36    0.95
   3  -6  -6    0.62    0.57
   3  -6  -6   -0.54    1.10
  -3   6   6   -0.06    0.89
  -3   6   6   -0.08    0.46
   2  -6  -6    2.04    0.60
   2  -6  -6    2.77    1.23
  -2   6   6    2.66    1.01
  -2   6   6    2.36    0.58
   1  -6  -6    1.04    0.61
  -1   6   6   -0.34    1.09
  -1   6   6    1.00    0.90
   0  -6  -6    1.16    0.70
   0   6   6    1.59    0.74
   0   6   6   -0.11    1.24
   1   6   6    0.17    0.67
   1   6   6    1.01    1.20
   2   6   6    1.05    1.14
   2   6   6    1.28    0.83
   3   6   6   -0.07    0.90
   3   6   6    1.42    1.29
   4   6   6   -0.05    1.97
   4   6   6    0.35    0.93
   5   6   6    3.19    1.89
   5   6   6    0.12    1.10
   6  -7  -6    0.63    0.95
   6  -7  -6   -1.02    2.03
  -6   7   6    0.44    1.51
   5  -7  -6   -0.11    1.80
   5  -7  -6    1.02    0.82
  -5   7   6   -0.86    1.26
   4  -7  -6    1.35    1.53
   4  -7  -6    0.33    0.76
  -4   7   6    0.11    1.06
   3  -7  -6   -0.29    0.63
   3  -7  -6   -1.07    1.33
  -3   7   6   -0.67    0.59
  -3   7   6    1.07    1.23
   2  -7  -6   -0.36    0.55
   2  -7  -6   -0.39    1.33
  -2   7   6    0.74    1.32
   1  -7  -6   -0.28    0.53
  -1   7   6   -0.40    0.78
  -1   7   6   -0.45    1.30
   0  -7  -6   -0.44    0.59
   0   7   6    0.88    0.74
   0   7   6    1.31    1.28
   1   7   6   -0.82    0.78
   1   7   6   -0.70    1.44
   2   7   6   -2.71    1.34
   2   7   6    1.25    0.96
   3   7   6   -0.36    0.96
   3   7   6   -1.29    1.60
   4   7   6    2.89    1.84
   4   7   6   -0.70    1.12
   5  -8  -6   -0.56    2.02
  -5   8   6   -0.76    1.33
   4  -8  -6    0.50    0.82
   4  -8  -6   -1.67    1.70
  -4   8   6    1.12    1.52
   3  -8  -6    0.12    1.46
   3  -8  -6    0.15    0.74
  -3   8   6   -0.37    1.50
   1  -8  -6   -0.26    0.61
  -1   8   6   -1.51    1.44
  -1   8   6   -0.18    0.85
   0  -8  -6   -0.43    0.68
   0   8   6    1.75    1.63
   0   8   6   -0.19    0.89
   1   8   6    0.62    1.57
   1   8   6    0.00    0.92
   2   8   6    2.74    1.90
   2   8   6   -0.82    0.94
   3   8   6    0.36    1.79
   3   8   6   -0.28    1.07
   4  -9  -6    1.70    1.35
   4  -9  -6    2.85    2.06
  -4   9   6   -1.41    1.95
   3  -9  -6    1.61    1.93
   3  -9  -6    1.53    0.89
  -3   9   6   -0.99    1.88
   2  -9  -6   -1.59    1.80
   2  -9  -6    1.20    0.86
  -2   9   6    0.18    0.88
  -2   9   6    3.14    1.85
   1  -9  -6    0.43    0.85
  -1   9   6   -0.22    0.96
  -1   9   6   -0.25    1.74
   0  -9  -6    1.63    0.88
   0   9   6   -1.48    1.81
   0   9   6    2.10    1.20
   1   9   6   -0.65    1.05
   1   9   6   -0.85    1.79
   2   9   6   -0.86    1.12
   2   9   6   -0.64    1.98
   3 -10  -6   -2.49    2.16
  -3  10   6    0.77    2.28
   2 -10  -6    0.77    1.08
  -2  10   6    4.46    2.19
   1 -10  -6    1.38    1.00
  -1  10   6    3.89    2.09
  -1  10   6    2.99    1.26
   0  10   6    2.80    3.36
   0  14  -7   -1.58    1.12
  -1  14  -7    0.13    1.14
  -2  14  -7    0.84    1.04
   2 -14   7    2.19    1.95
   3 -14   7    0.92    2.13
   2  13  -7   -0.59    1.16
   0  13  -7    0.24    1.04
  -1  13  -7    0.85    1.06
   1 -13   7    0.36    1.45
  -2  13  -7   -0.03    1.03
   2 -13   7    0.47    1.57
  -3  13  -7   -0.33    1.06
   3 -13   7   -0.77    1.78
   4 -13   7   -0.48    2.09
   3  12  -7   -0.90    1.25
   2  12  -7    1.17    0.96
   1  12  -7    0.57    1.02
   0  12  -7    0.16    0.97
   0 -12   7   -0.96    1.21
  -1  12  -7   -0.40    0.93
   1 -12   7   -1.22    1.42
  -2  12  -7    2.21    1.01
   2 -12   7    2.68    1.54
  -3  12  -7    1.31    1.00
   3 -12   7   -0.66    1.65
   4 -12   7    2.85    1.90
   5 -12   7   -2.55    1.93
   5 -12   7   -0.07    1.02
   4  11  -7    1.75    1.26
   3  11  -7   -0.57    0.97
   2  11  -7    0.06    0.97
   1  11  -7    0.18    0.87
  -1 -11   7    1.10    1.22
   0  11  -7    0.24    0.87
   0 -11   7    1.35    1.16
  -1  11  -7    1.63    0.93
   1 -11   7    1.22    1.29
  -2  11  -7    1.72    0.89
   2 -11   7   -2.52    1.28
  -3  11  -7   -0.09    0.78
   3 -11   7    0.95    1.45
   4 -11   7    0.43    1.20
   5 -11   7   -0.31    0.94
   6 -11   7    1.39    1.04
   6 -11   7    0.46    1.52
   5  10  -7    0.95    1.40
   5  10  -7    1.30    0.89
   4  10  -7   -0.31    0.80
   4  10  -7   -0.29    1.10
   3  10  -7    1.69    1.03
   2  10  -7   -0.52    0.80
   1  10  -7    3.58    0.96
  -1 -10   7    2.99    1.21
   0  10  -7    2.91    0.94
   0 -10   7    4.17    1.28
  -1  10  -7    0.23    0.72
   1 -10   7    1.56    1.01
  -2  10  -7    0.96    0.74
   2 -10   7    2.34    1.09
  -3  10  -7    0.78    0.81
   3 -10   7    0.17    1.10
   4 -10   7    2.08    1.22
   5 -10   7   -0.41    1.33
   5 -10   7    0.36    0.78
   6 -10   7   -0.56    0.95
   6 -10   7    0.03    1.55
   6   9  -7   -3.00    1.60
   6   9  -7    1.27    0.99
   5   9  -7   -0.34    0.81
   5   9  -7    1.63    1.39
   4   9  -7    0.35    0.71
   4   9  -7   -0.33    0.98
   3   9  -7    1.88    0.92
   3   9  -7    1.30    0.67
   2   9  -7    3.91    0.84
  -2  -9   7    1.71    0.86
   1   9  -7    0.60    0.68
  -1  -9   7    0.76    1.02
   0   9  -7   17.01    1.59
   0  -9   7   12.70    1.99
  -1   9  -7    7.13    1.06
  -2   9  -7   16.00    1.76
   2  -9   7   18.70    1.96
   3  -9   7    8.65    1.61
   4  -9   7    9.40    1.58
   5  -9   7    1.74    0.76
   5  -9   7    0.21    0.98
   6  -9   7    0.27    0.82
   7  -9   7    2.03    1.69
   6   8  -7   -1.08    1.36
   6   8  -7    0.35    0.89
   5   8  -7    0.38    1.05
   5   8  -7   -0.15    0.57
   4   8  -7    3.57    0.93
   4   8  -7    2.78    0.81
   3   8  -7   -0.19    0.72
   3   8  -7    0.62    0.62
  -3  -8   7   -0.31    0.91
   2   8  -7    0.74    0.55
   2   8  -7    0.05    0.66
  -2  -8   7   -0.27    0.80
   1   8  -7   -0.22    0.56
  -1  -8   7   -0.83    0.80
   0   8  -7   -0.01    0.59
   0  -8   7    0.12    1.13
  -1   8  -7   -0.29    0.57
   1  -8   7   -0.58    0.53
   1  -8   7   -0.28    0.97
   2  -8   7    2.00    0.95
   3  -8   7    4.39    1.29
   4  -8   7    4.57    1.21
   5  -8   7    1.75    1.07
   5  -8   7    0.54    0.69
   6  -8   7    1.60    0.73
   6  -8   7    1.36    1.04
   7  -8   7   -0.98    1.26
   6   7  -7    0.03    1.08
   6   7  -7    0.43    0.71
   5   7  -7    0.96    0.68
   5   7  -7    0.18    0.93
   4   7  -7    0.97    0.64
   4   7  -7    0.27    0.80
   3   7  -7    4.53    1.00
   3   7  -7    5.07    0.82
  -3  -7   7    6.03    1.00
   2   7  -7   -0.17    0.68
   2   7  -7    0.16    0.43
  -2  -7   7    0.35    0.73
   1   7  -7   11.29    1.20
   1   7  -7   13.63    1.40
  -1  -7   7   10.65    1.31
   0   7  -7    5.27    0.95
   0  -7   7    4.79    1.04
  -1   7  -7   37.61    2.86
   1  -7   7   29.08    2.88
   1  -7   7   37.13    2.69
   2  -7   7    5.04    0.77
   2  -7   7    2.77    0.96
   3  -7   7    0.33    0.59
   3  -7   7    1.63    0.98
   4  -7   7    5.96    1.36
   4  -7   7    7.71    0.89
   5  -7   7    0.59    0.77
   5  -7   7    1.61    1.14
   6  -7   7    0.55    1.14
   6  -7   7   -1.56    0.72
   7  -7   7    1.77    1.36
   7   6  -7    0.36    0.94
   6   6  -7    1.24    0.78
   6   6  -7    1.57    1.11
   5   6  -7    0.18    0.62
   5   6  -7    1.38    1.00
   4   6  -7   -0.10    0.59
   4   6  -7   -0.72    0.49
   3   6  -7    9.69    1.01
   3   6  -7    9.61    1.06
   2   6  -7    2.20    0.57
   2   6  -7    1.79    0.60
   1   6  -7    2.14    0.50
   1   6  -7    1.53    0.43
   0   6  -7   -0.22    0.45
   0  -6   7    0.40    0.74
  -1   6  -7    5.02    1.09
   1  -6   7    5.45    1.42
   1  -6   7    5.26    0.79
   2  -6   7   -0.06    0.57
   2  -6   7   -0.40    0.68
   3  -6   7    0.98    0.71
   3  -6   7    1.94    0.93
   4  -6   7    1.62    0.74
   4  -6   7    0.95    0.43
   4  -6   7   -0.16    0.90
   5  -6   7    1.03    1.16
   5  -6   7    0.53    0.47
   5  -6   7    0.68    0.89
   6  -6   7   -0.07    0.84
   6  -6   7    1.59    1.13
   7   5  -7   -0.33    0.80
   6   5  -7    0.33    0.71
   6   5  -7    2.18    1.12
   5   5  -7    0.51    0.62
   5   5  -7    0.57    0.55
   4   5  -7    1.13    0.54
   4   5  -7    0.91    0.49
   3   5  -7    5.65    0.78
   3   5  -7    6.72    0.88
   2   5  -7    2.89    0.53
   2   5  -7    2.86    0.54
   1   5  -7    1.88    0.49
   1   5  -7    2.50    0.43
   0   5  -7    0.34    0.35
   0   5  -7    0.63    0.27
   1  -5   7    0.88    0.74
   1  -5   7    1.09    0.51
   2  -5   7    1.91    0.81
   2  -5   7    2.46    0.68
   3  -5   7    4.40    0.98
   3  -5   7    2.29    0.73
   4  -5   7    5.48    0.63
   4  -5   7    3.83    0.95
   4  -5   7    5.39    1.25
   5  -5   7   -0.12    1.02
   5  -5   7   -0.99    0.41
   5  -5   7    0.11    1.13
   6  -5   7   -0.12    1.12
   6  -5   7    2.13    1.25
   7  -5   7   -0.19    1.35
   7   4  -7    0.03    0.79
   6   4  -7    0.02    0.63
   5   4  -7    2.34    0.72
   5   4  -7    1.98    0.60
   4   4  -7    0.08    0.46
   4   4  -7    0.46    0.42
   3   4  -7    6.77    0.77
   3   4  -7    6.93    0.93
   2   4  -7    1.46    0.42
   2   4  -7    2.03    0.43
   1   4  -7    2.55    0.42
   1   4  -7    3.22    0.52
   0   4  -7    0.78    0.26
   1  -4   7    4.65    0.78
   2  -4   7    8.07    1.09
   2  -4   7    9.70    1.15
   3  -4   7   -0.63    0.55
   3  -4   7    0.09    0.24
   3  -4   7   -0.09    0.72
   4  -4   7    1.31    0.90
   4  -4   7    1.49    0.35
   4  -4   7    1.39    0.96
   5  -4   7    0.51    1.10
   5  -4   7   -0.16    0.36
   5  -4   7   -0.29    0.98
   6  -4   7    0.97    1.23
   6  -4   7    1.92    1.04
   7  -4   7    0.87    1.39
   7  -4   7    0.99    1.34
   7   3  -7    0.41    0.83
   6   3  -7    0.39    0.70
   5   3  -7    0.17    0.56
   5   3  -7    0.42    0.44
   4   3  -7    0.04    0.36
   4   3  -7    0.10    0.49
   3   3  -7   -0.31    0.32
   3   3  -7    0.46    0.46
   2   3  -7    4.40    0.58
   2   3  -7    4.48    0.57
   1   3  -7    6.37    0.64
   0   3  -7    0.81    0.25
   0  -3   7    1.75    0.68
   1  -3   7    4.79    0.84
   1  -3   7    6.18    0.56
   2  -3   7   11.57    1.39
   3  -3   7    0.39    0.99
   3  -3   7   -0.11    0.66
   3  -3   7    0.70    0.23
   4  -3   7   -0.05    1.26
   4  -3   7    0.71    0.26
   4  -3   7    1.89    0.75
   5  -3   7    6.03    1.23
   5  -3   7    3.80    1.26
   6  -3   7   -0.38    1.16
   6  -3   7    0.21    1.16
   7  -3   7   -0.89    1.35
   7  -3   7   -0.93    1.35
   8   2  -7    1.00    0.98
   7   2  -7   -0.60    0.85
   6   2  -7    0.29    0.65
   5   2  -7    4.35    0.82
   4   2  -7    2.35    0.57
   3   2  -7    2.06    0.49
  -3  -2   7    1.53    0.34
   2   2  -7   12.34    1.06
   1   2  -7    1.00    0.28
   0   2  -7    1.13    0.24
   0  -2   7    1.14    0.60
   1  -2   7    1.14    0.20
   1  -2   7    1.99    0.65
   2  -2   7    0.00    0.88
   3  -2   7    1.25    0.58
   3  -2   7    0.47    1.89
   4  -2   7    2.75    1.09
   4  -2   7    3.67    0.96
   5  -2   7    4.51    1.19
   5  -2   7    3.80    1.29
   6  -2   7    2.37    1.27
   6  -2   7    1.16    1.30
   7  -2   7    1.86    1.52
   7  -2   7    0.89    1.44
   8   1  -7   -0.77    0.98
   8   1  -7   -3.88    1.77
   7   1  -7   -1.64    1.44
   7   1  -7    0.09    0.88
   6   1  -7    0.45    1.21
   6   1  -7    0.87    0.71
   5   1  -7    2.51    0.70
   4   1  -7    2.16    0.62
   3   1  -7    0.98    0.40
   2   1  -7    0.18    0.29
  -2  -1   7   -0.07    0.28
   1   1  -7    2.28    0.35
  -1  -1   7    1.28    0.94
   0   1  -7    8.25    0.66
   0  -1   7    7.33    1.16
   0  -1   7    7.29    0.67
   1  -1   7    1.79    0.85
   2  -1   7    1.82    1.93
   3  -1   7    4.08    1.11
   4  -1   7    1.32    1.09
   4  -1   7    1.52    0.85
   5  -1   7   -0.35    1.21
   5  -1   7    0.55    0.90
   6  -1   7    1.36    1.38
   6  -1   7    0.02    1.41
   7  -1   7   -0.10    1.56
   7  -1   7    0.56    1.35
   7  -1   7    0.52    1.61
   8   0  -7    1.37    0.97
   8   0  -7    1.07    1.88
   7   0  -7    2.55    1.47
   7   0  -7    1.35    0.94
   6   0  -7   -0.07    1.21
   6   0  -7    0.85    0.66
   5   0  -7    0.31    0.55
   5   0  -7    1.85    1.08
   4   0  -7    1.74    1.01
   4   0  -7    2.42    0.62
   3   0  -7    3.56    0.59
   2   0  -7    0.29    0.28
  -2   0   7    0.50    0.27
  -2   0   7    0.39    0.30
   1   0  -7   13.61    1.01
  -1   0   7    9.57    1.55
   0   0  -7   -0.14    0.19
   1   0   7   11.59    1.43
   2   0   7    2.44    0.96
   3   0   7   33.01    2.94
   4   0   7    1.30    1.21
   4   0   7    1.08    0.82
   5   0   7   12.46    1.97
   5   0   7   14.66    1.73
   6   0   7    0.64    1.64
   6   0   7    1.50    1.36
   6   0   7    0.56    1.10
   7   0   7   -0.21    2.72
   7   0   7    1.32    1.53
   7   0   7    2.56    1.68
   8  -1  -7    1.22    2.17
   8  -1  -7   -1.60    1.01
   7  -1  -7    1.69    0.78
   7  -1  -7   -0.02    1.70
   6  -1  -7   -0.59    1.43
   6  -1  -7    0.86    0.78
   5  -1  -7    0.30    0.61
   5  -1  -7   -0.28    1.11
   4  -1  -7    0.90    0.54
   4  -1  -7    1.26    1.03
  -3   1   7   -3.06   13.92
  -3   1   7  -18.52   12.38
   2  -1  -7    1.88    0.40
  -2   1   7    2.20    0.35
  -2   1   7    0.91    0.77
  -2   1   7    2.20    0.39
   1  -1  -7   16.96    1.31
  -1   1   7   17.02    1.36
  -1   1   7   14.85    1.69
   0  -1  -7    0.40    0.22
   0   1   7    0.06    0.43
   0   1   7    0.66    0.63
   1   1   7    8.46    1.36
   2   1   7    1.93    0.97
   3   1   7    1.54    0.80
   3   1   7    2.29    1.06
   4   1   7    1.48    0.90
   4   1   7    4.14    1.38
   4   1   7    1.89    0.91
   5   1   7   -0.08    1.44
   5   1   7   -0.05    1.03
   5   1   7    1.79    1.21
   6   1   7   -0.50    1.77
   6   1   7   -0.17    1.11
   6   1   7   -0.11    1.46
   7   1   7    0.67    1.70
   7   1   7   -0.72    2.16
   7  -2  -7    0.84    0.79
   7  -2  -7   -0.38    1.88
   6  -2  -7    3.76    1.68
   5  -2  -7    3.28    0.78
   5  -2  -7    5.62    1.52
   4  -2  -7    0.98    0.54
   4  -2  -7    1.12    1.05
   3  -2  -7    0.44    0.93
   3  -2  -7    1.04    0.55
  -3   2   7   -0.49    0.79
   2  -2  -7    0.04    0.32
  -2   2   7    0.66    0.67
  -2   2   7    0.32    0.30
   1  -2  -7    3.27    0.46
  -1   2   7    2.07    0.76
  -1   2   7    3.22    0.53
   0  -2  -7    3.87    0.48
   0   2   7    3.32    0.89
   0   2   7    3.30    0.60
  -1  -2  -7    0.54    0.23
  -1  -2  -7    0.22    0.27
   1   2   7   -0.56    0.52
   1   2   7    2.04    0.96
   2   2   7    6.56    1.04
   2   2   7    1.19    1.08
   3   2   7    1.28    0.76
   3   2   7   -1.32    1.10
   4   2   7    0.06    0.82
   4   2   7    0.24    1.28
   5   2   7    0.21    1.60
   5   2   7    0.80    1.16
   5   2   7    1.10    1.06
   6   2   7    0.42    1.60
   6   2   7    1.15    1.24
   7  -3  -7   -0.03    0.81
   7  -3  -7    2.07    2.14
   6  -3  -7   -1.30    0.75
   6  -3  -7    1.90    1.78
   5  -3  -7    5.27    1.00
   5  -3  -7    7.17    1.70
   4  -3  -7    0.89    1.22
   4  -3  -7    2.05    0.55
  -4   3   7    1.13    0.95
   3  -3  -7    1.05    1.01
   3  -3  -7    0.62    0.49
  -3   3   7    1.37    0.95
   2  -3  -7    1.45    0.47
  -2   3   7    0.59    0.74
  -2   3   7    2.22    0.43
   1  -3  -7    0.48    0.36
  -1   3   7    0.97    0.41
  -1   3   7   -0.21    0.63
   0  -3  -7    1.06    0.33
   0   3   7    1.37    0.50
   0   3   7    0.97    0.87
  -1  -3  -7    9.58    0.80
   1   3   7    5.92    1.43
   1   3   7   10.92    1.27
  -2  -3  -7    7.93    0.66
   2   3   7    4.98    1.39
   2   3   7    7.52    1.11
   3   3   7    1.26    0.85
   3   3   7    0.62    1.17
   4   3   7   -0.80    0.88
   4   3   7    1.11    1.34
   5   3   7   -0.54    1.70
   5   3   7   -0.10    1.11
   5   3   7   -0.71    1.24
   6   3   7   -1.20    2.08
   6   3   7    0.16    1.13
   7  -4  -7   -0.68    2.41
   7  -4  -7   -0.53    0.87
   6  -4  -7    0.94    1.60
   6  -4  -7    0.05    0.79
   5  -4  -7    1.20    1.32
   5  -4  -7    0.57    0.69
  -5   4   7    0.25    1.21
   4  -4  -7   -0.27    0.57
   4  -4  -7    1.59    1.28
  -4   4   7    1.28    1.09
   3  -4  -7    1.00    1.15
   3  -4  -7    1.61    0.61
  -3   4   7   -0.64    0.81
   2  -4  -7    3.81    0.74
  -2   4   7    2.55    0.56
  -2   4   7    4.05    1.04
   1  -4  -7    1.51    0.44
  -1   4   7    2.34    0.55
  -1   4   7    3.10    1.01
   0  -4  -7    1.57    0.43
   0   4   7    3.28    1.15
  -1  -4  -7    0.37    0.36
   1   4   7    0.95    0.67
   1   4   7    1.50    1.25
   2   4   7    0.50    0.93
   2   4   7    0.80    0.74
   3   4   7    1.63    0.94
   3   4   7    0.81    1.20
   4   4   7   -0.47    1.44
   4   4   7    0.12    0.87
   5   4   7   -1.29    1.46
   5   4   7    1.37    1.23
   5   4   7    0.78    1.84
   7  -5  -7    0.91    2.31
  -7   5   7    0.90    1.80
   6  -5  -7   -0.22    0.80
  -6   5   7    0.39    1.42
   5  -5  -7   -0.41    1.58
   5  -5  -7    1.27    0.75
  -5   5   7    2.63    1.36
   4  -5  -7    0.52    1.34
   4  -5  -7   -0.13    0.66
  -4   5   7   -0.43    1.01
   3  -5  -7    2.10    0.68
   3  -5  -7    2.52    1.27
  -3   5   7    2.79    1.04
   2  -5  -7    0.77    0.53
  -2   5   7    0.49    0.52
  -2   5   7    1.14    0.88
  -1   5   7    8.67    1.08
  -1   5   7    8.64    1.56
   0  -5  -7    3.49    0.54
   0   5   7    0.40    1.26
   0   5   7    2.58    0.76
  -1  -5  -7    2.43    0.49
   1   5   7    1.51    0.76
   1   5   7    0.03    1.11
   2   5   7    0.59    1.30
   2   5   7    1.80    0.84
   3   5   7    1.80    0.98
   3   5   7    0.15    1.64
   4   5   7   -0.54    0.96
   5   5   7    1.42    2.19
   5   5   7    0.30    1.08
   6  -6  -7    0.77    2.11
   6  -6  -7    0.27    0.88
  -6   6   7    2.61    1.57
   5  -6  -7   -1.03    0.76
   5  -6  -7    1.18    1.52
  -5   6   7    0.46    1.33
   4  -6  -7   -0.66    0.80
   4  -6  -7    1.02    1.48
  -4   6   7    1.14    1.14
   3  -6  -7   -1.69    1.24
   3  -6  -7   -0.13    0.62
  -3   6   7   -0.24    0.99
   2  -6  -7    3.19    0.71
  -2   6   7    3.06    1.18
  -2   6   7    2.58    0.66
   1  -6  -7    1.88    0.68
  -1   6   7    3.27    1.42
  -1   6   7    1.35    0.82
   0  -6  -7   -0.39    0.69
   0   6   7    0.30    0.70
   0   6   7   -0.68    1.46
  -1  -6  -7    0.22    0.56
   1   6   7    0.23    1.21
   1   6   7   -0.16    0.75
   2   6   7    2.09    1.37
   2   6   7    0.40    0.92
   3   6   7   -0.20    0.93
   3   6   7   -0.06    1.66
   4   6   7    1.77    1.95
   4   6   7   -0.18    1.06
   5  -7  -7   -0.11    0.86
   5  -7  -7    1.40    1.96
  -5   7   7    1.31    1.49
   4  -7  -7   -0.41    0.83
   4  -7  -7    0.71    1.47
  -4   7   7    0.98    1.24
   3  -7  -7    0.26    1.47
   3  -7  -7   -0.38    0.75
  -3   7   7    2.41    1.46
   2  -7  -7    0.22    0.67
  -2   7   7   -0.48    0.85
  -2   7   7    0.89    1.53
   1  -7  -7    0.43    0.63
  -1   7   7    0.58    0.80
  -1   7   7    0.83    1.61
   0  -7  -7    1.28    0.78
   0   7   7   -0.29    1.40
   0   7   7    1.12    0.88
   1   7   7    0.26    1.56
   1   7   7    0.31    0.90
   2   7   7   -0.03    0.99
   2   7   7   -0.98    1.66
   3   7   7   -0.48    1.22
   3   7   7   -1.35    1.62
   5  -8  -7    0.29    1.85
   4  -8  -7    0.55    0.94
   4  -8  -7    0.30    1.91
  -4   8   7    0.91    1.74
   3  -8  -7    0.44    0.88
   3  -8  -7    0.70    2.03
  -3   8   7    1.80    1.80
   2  -8  -7    1.08    0.90
  -2   8   7   -2.15    1.77
   1  -8  -7    0.79    0.81
  -1   8   7    2.19    1.82
  -1   8   7    0.14    0.95
   0  -8  -7   -1.70    0.75
   0   8   7    1.42    1.82
   0   8   7    1.33    1.82
   0   8   7    0.72    1.09
   1   8   7    1.65    1.09
   1   8   7    2.91    3.13
   2   8   7    0.64    2.05
   3  -9  -7    0.90    0.95
   3  -9  -7    1.03    2.19
  -3   9   7    0.85    2.28
   2  -9  -7    1.36    1.00
  -2   9   7    0.70    2.14
   1  -9  -7    0.55    0.96
  -1   9   7    0.55    1.08
  -1   9   7    0.44    2.17
   0   9   7    3.49    2.31
   0   9   7   -0.32    1.16
   0  14  -8    1.06    1.22
  -1  14  -8    1.02    1.04
   2 -14   8    2.87    2.00
   2  13  -8   -1.56    1.22
   1  13  -8    0.28    1.02
   1 -13   8   -0.06    1.64
  -2  13  -8    0.84    1.07
   2 -13   8    0.62    1.87
  -3  13  -8    0.90    1.17
   3 -13   8    1.55    2.16
   4 -13   8    0.30    2.08
   3  12  -8    0.97    1.36
   2  12  -8   -0.21    1.07
   1  12  -8   -0.43    0.96
   0  12  -8    0.24    0.98
   0 -12   8    0.15    1.34
  -1  12  -8   -0.89    0.93
   1 -12   8    0.71    1.50
  -2  12  -8    0.32    0.92
   2 -12   8   -0.60    1.50
  -3  12  -8    0.95    0.99
   3 -12   8   -0.61    1.76
   4 -12   8   -1.82    1.84
   5 -12   8    0.30    1.92
   4  11  -8    0.05    1.25
   3  11  -8   -0.25    1.12
   2  11  -8   -0.46    0.97
   1  11  -8    0.69    0.97
   0  11  -8    1.54    0.98
   0 -11   8    0.13    1.15
  -1  11  -8    0.14    0.78
   1 -11   8    0.65    1.30
   2 -11   8    4.72    1.46
   3 -11   8    0.54    1.27
   4 -11   8   -1.08    1.24
   5 -11   8    2.77    1.52
   5 -11   8    0.16    0.96
   5  10  -8   -0.19    1.48
   5  10  -8   -0.93    0.76
   4  10  -8    0.30    1.23
   4  10  -8    1.01    0.86
   3  10  -8    1.97    0.80
   3  10  -8    1.34    1.00
   2  10  -8   -0.17    0.85
   1  10  -8    0.81    0.89
  -1 -10   8    0.27    1.52
   0 -10   8    4.01    1.26
  -1  10  -8    0.27    0.79
   1 -10   8    2.84    1.24
  -2  10  -8    1.46    0.95
   2 -10   8    0.22    1.26
   3 -10   8    0.86    1.12
   4 -10   8    0.34    1.21
   5 -10   8    1.59    1.38
   5 -10   8    0.12    0.84
   6 -10   8   -0.45    0.99
   6 -10   8   -0.39    1.28
   5   9  -8   -0.54    1.32
   5   9  -8    0.08    1.02
   4   9  -8    4.38    1.30
   4   9  -8    5.38    0.99
   3   9  -8   -0.21    0.63
   3   9  -8    1.19    0.84
   2   9  -8    4.84    1.02
   2   9  -8    4.86    0.88
   1   9  -8    0.56    0.70
  -1  -9   8    0.69    1.40
   0   9  -8    6.98    1.06
   0  -9   8    1.60    1.18
  -1   9  -8    0.07    0.69
   1  -9   8   -0.39    0.98
   1  -9   8    0.54    0.64
  -2   9  -8    5.82    1.05
   2  -9   8    5.00    1.40
   3  -9   8   -0.98    1.21
   4  -9   8    1.41    1.18
   5  -9   8   -0.33    0.78
   5  -9   8   -1.62    0.96
   6  -9   8    0.83    1.34
   6  -9   8    0.78    0.86
   6   8  -8    0.76    0.93
   6   8  -8    3.10    1.45
   5   8  -8    0.31    1.03
   5   8  -8   -1.31    0.76
   4   8  -8    0.39    0.81
   4   8  -8   -0.69    0.67
   3   8  -8    1.27    0.70
   3   8  -8    1.43    0.74
  -3  -8   8    1.80    0.91
   2   8  -8   -0.13    0.54
   2   8  -8    0.04    0.66
  -2  -8   8    1.76    0.93
   1   8  -8    0.12    0.63
  -1  -8   8    0.38    1.01
   0   8  -8    3.60    0.79
   0  -8   8    2.87    1.05
  -1   8  -8    5.60    1.07
   1  -8   8    5.76    0.90
   2  -8   8    0.26    1.00
   2  -8   8   -0.12    0.64
   3  -8   8   -0.23    1.05
   4  -8   8    0.34    0.75
   4  -8   8    3.10    1.32
   5  -8   8    0.45    0.73
   5  -8   8   -0.46    0.98
   7  -8   8    0.95    1.42
   6   7  -8    3.06    1.05
   5   7  -8    0.39    0.74
   5   7  -8    2.27    1.00
   4   7  -8    0.46    0.72
   4   7  -8   -0.04    0.82
   3   7  -8    0.51    0.77
   3   7  -8    1.03    0.64
   2   7  -8    0.25    0.70
   2   7  -8    0.14    0.50
  -2  -7   8   -0.08    0.87
   1   7  -8   11.69    1.22
   1   7  -8   11.91    1.35
  -1  -7   8   12.07    1.59
   0   7  -8    0.41    0.64
   0  -7   8    1.51    0.86
  -1   7  -8   -0.21    0.54
   1  -7   8   -0.59    0.55
   1  -7   8   -0.08    0.69
   2  -7   8    0.34    0.66
   2  -7   8    1.35    0.86
   4  -7   8    2.28    0.54
   4  -7   8    1.24    0.93
   4  -7   8    1.33    1.17
   5  -7   8    0.29    1.34
   5  -7   8    1.33    0.59
   6  -7   8   -0.07    1.00
   7  -7   8    0.94    1.32
   7   6  -8    1.22    1.11
   6   6  -8    0.54    0.71
   5   6  -8    0.86    0.75
   5   6  -8   -0.04    0.93
   4   6  -8    3.11    0.76
   4   6  -8    4.64    0.87
   3   6  -8    0.19    0.54
   3   6  -8    1.20    0.56
   2   6  -8   26.50    2.15
   2   6  -8   25.97    2.16
   1   6  -8   14.45    1.30
   1   6  -8   13.77    1.35
   0   6  -8    2.25    0.90
   1  -6   8    0.36    0.74
   1  -6   8    0.18    0.57
   2  -6   8    1.01    0.82
   2  -6   8    2.48    0.71
   3  -6   8    0.76    0.72
   3  -6   8    0.74    0.88
   4  -6   8    2.24    0.93
   4  -6   8    2.74    0.51
   4  -6   8    1.48    1.09
   5  -6   8   -0.61    1.10
   5  -6   8    1.31    1.08
   5  -6   8   -0.20    0.52
   6  -6   8   -0.18    1.43
   7  -6   8   -0.22    1.40
   7   5  -8    0.14    0.86
   6   5  -8   -0.13    0.65
   5   5  -8   -0.33    0.62
   5   5  -8   -0.45    0.60
   4   5  -8    0.95    0.59
   4   5  -8    0.83    0.57
   3   5  -8    4.09    0.74
   3   5  -8    4.75    0.75
   2   5  -8   22.73    1.84
   2   5  -8   22.58    1.91
   1   5  -8    1.70    0.48
   1   5  -8    2.05    0.42
   0   5  -8    0.12    0.29
   0  -5   8   -0.26    0.68
   1  -5   8    0.20    0.63
   2  -5   8    0.34    0.66
   2  -5   8   -0.49    0.70
   3  -5   8    0.74    0.85
   3  -5   8    0.42    0.76
   3  -5   8    0.15    0.31
   4  -5   8   14.53    1.81
   4  -5   8   14.32    1.16
   4  -5   8   12.99    1.72
   5  -5   8    3.82    1.30
   5  -5   8    4.39    1.23
   6  -5   8   -0.03    1.30
   6  -5   8   -0.05    1.08
   7  -5   8   -0.18    1.47
   7   4  -8   -0.81    0.79
   6   4  -8    0.43    0.77
   5   4  -8    1.12    0.63
   4   4  -8    0.49    0.46
   4   4  -8    0.57    0.47
   3   4  -8    5.23    0.82
   3   4  -8    6.13    0.75
   2   4  -8    0.32    0.41
   2   4  -8    0.77    0.39
   1   4  -8    5.10    0.64
   0   4  -8    3.97    0.50
   0  -4   8    3.98    1.02
   1  -4   8    0.99    0.66
   2  -4   8    0.56    0.60
   2  -4   8    1.01    0.82
   2  -4   8    1.24    0.31
   3  -4   8   -0.47    0.74
   3  -4   8    0.03    0.22
   3  -4   8   -0.70    1.02
   4  -4   8    3.04    1.03
   4  -4   8    1.21    1.06
   5  -4   8    2.70    1.32
   5  -4   8    6.23    1.29
   6  -4   8    0.45    1.27
   6  -4   8    0.93    1.23
   7  -4   8   -0.51    1.47
   7   3  -8    0.71    1.03
   6   3  -8    0.28    0.74
   5   3  -8    0.44    0.63
   4   3  -8    2.79    0.59
   3   3  -8    0.17    0.51
   2   3  -8    0.31    0.34
   1   3  -8   -0.09    0.27
   0   3  -8    6.30    0.63
   0  -3   8    6.79    1.21
   1  -3   8    4.31    0.96
   1  -3   8    3.29    0.41
   2  -3   8    4.74    1.29
   3  -3   8    1.74    1.04
   3  -3   8    0.69    0.66
   4  -3   8    0.05    1.01
   4  -3   8   -0.29    0.81
   5  -3   8   -0.72    1.10
   5  -3   8    1.21    1.14
   6  -3   8    0.02    1.37
   6  -3   8   -0.19    1.29
   7  -3   8    1.00    1.89
   7  -3   8    2.04    1.54
   6   2  -8   -0.24    0.77
   5   2  -8    0.90    0.69
   4   2  -8    1.14    0.56
   3   2  -8   -0.08    0.52
  -3  -2   8    0.42    0.30
   2   2  -8    0.63    0.31
   1   2  -8    0.38    0.28
  -1  -2   8    0.78    0.79
   0   2  -8    0.67    0.27
   0  -2   8    1.07    0.79
   1  -2   8    1.07    0.71
   1  -2   8    0.49    0.17
   2  -2   8    4.45    1.15
   3  -2   8    5.62    1.24
   4  -2   8    2.77    1.26
   4  -2   8    2.50    0.97
   5  -2   8    0.85    1.30
   5  -2   8   -0.49    1.00
   6  -2   8    2.96    1.52
   6  -2   8    2.37    1.53
   7  -2   8    2.46    1.75
   7  -2   8    1.04    1.75
   7   1  -8    0.17    1.32
   6   1  -8    0.15    0.73
   5   1  -8    0.42    0.67
   4   1  -8    0.00    0.50
   3   1  -8    1.68    0.61
   2   1  -8   10.75    0.97
   1   1  -8    1.19    0.31
  -1  -1   8    2.22    0.83
   0   1  -8    3.36    0.41
   0  -1   8    2.88    0.89
   1  -1   8    0.20    0.73
   2  -1   8    1.44    1.05
   3  -1   8    0.89    1.12
   4  -1   8   -0.44    1.14
   4  -1   8    0.07    0.94
   5  -1   8    0.29    1.44
   5  -1   8    0.95    1.11
   6  -1   8   -0.48    1.71
   6  -1   8    1.87    1.59
   7  -1   8    3.27    1.89
   7   0  -8   -1.48    1.72
   6   0  -8    0.65    0.83
   5   0  -8   -1.71    0.59
   4   0  -8   -0.50    0.48
   3   0  -8    3.84    0.75
   2   0  -8    3.21    0.49
  -2   0   8    3.74    1.02
   1   0  -8    4.64    0.52
  -1   0   8    2.99    0.90
   0   0  -8    4.98    0.54
   0   0   8    6.09    1.08
   1   0   8   51.93    4.18
   2   0   8    1.66    1.07
   3   0   8   17.15    2.07
   4   0   8   -0.75    1.31
   4   0   8   -0.70    0.89
   5   0   8    0.74    1.06
   5   0   8    0.16    1.57
   5   0   8    3.57    1.25
   6   0   8    0.06    1.97
   6   0   8   -0.33    2.06
   6   0   8    0.99    1.53
   7  -1  -8   -1.32    0.96
   6  -1  -8    0.07    1.53
   6  -1  -8    1.01    0.79
   5  -1  -8   -0.95    0.68
   5  -1  -8   -0.20    1.27
   4  -1  -8    1.94    0.60
   3  -1  -8    0.80    0.61
  -3   1   8    2.02    0.95
   2  -1  -8    1.66    0.39
  -2   1   8    0.40    0.82
  -2   1   8    0.42    0.34
   1  -1  -8    0.23    0.31
  -1   1   8    0.36    0.39
  -1   1   8    0.06    0.71
   0  -1  -8    0.81    0.26
   0   1   8    0.17    0.65
   0   1   8   -0.20    0.47
   1   1   8   -0.25    0.88
   1   1   8    0.75    0.76
   2   1   8    1.90    0.81
   2   1   8    1.54    1.25
   3   1   8    3.23    0.98
   3   1   8    1.03    1.21
   4   1   8    1.33    1.51
   4   1   8    0.60    1.10
   5   1   8    1.66    1.21
   5   1   8   -1.10    1.18
   5   1   8    0.48    1.70
   6   1   8    1.92    2.45
   6   1   8    0.98    1.38
   6   1   8    0.82    1.70
   7  -2  -8   -0.36    0.85
   7  -2  -8    2.17    2.12
   6  -2  -8    1.85    0.79
   6  -2  -8    0.96    1.83
   5  -2  -8    5.45    1.61
   5  -2  -8    0.72    0.75
   4  -2  -8   -0.81    0.51
  -4   2   8    1.13    0.94
   3  -2  -8    0.06    0.51
  -3   2   8    0.28    0.91
   2  -2  -8    1.91    0.46
  -2   2   8    0.49    0.90
  -2   2   8    1.43    0.39
   1  -2  -8    1.29    0.38
  -1   2   8    2.25    0.87
  -1   2   8    1.28    0.48
   0  -2  -8    8.18    0.78
   0   2   8    7.24    0.98
   0   2   8   11.17    1.43
  -1  -2  -8    6.54    0.61
   1   2   8    7.25    1.51
   1   2   8    9.76    1.17
   2   2   8    6.27    1.05
   3   2   8   -0.11    0.80
   3   2   8    0.06    1.14
   4   2   8    2.45    1.62
   4   2   8    2.44    1.14
   5   2   8   -0.04    1.75
   5   2   8   -0.75    1.37
   5   2   8    0.41    0.97
   6   2   8   -0.89    1.17
   6   2   8   -0.68    2.31
   6   2   8   -0.01    1.75
   7  -3  -8   -1.76    0.94
   7  -3  -8   -0.09    2.36
   6  -3  -8    0.05    1.83
   6  -3  -8    0.59    0.79
   5  -3  -8    9.05    1.29
   5  -3  -8   12.34    2.12
  -5   3   8   10.30    1.81
   4  -3  -8    6.04    1.46
   4  -3  -8    2.73    0.74
  -4   3   8    3.50    1.34
   3  -3  -8    5.87    0.82
  -3   3   8    3.30    1.09
   2  -3  -8   -0.01    0.62
  -2   3   8    0.79    0.85
  -2   3   8    0.54    0.42
   1  -3  -8    5.77    0.74
  -1   3   8    5.68    0.77
  -1   3   8    4.50    1.08
   0  -3  -8    3.81    0.53
   0   3   8    3.66    1.22
  -1  -3  -8    0.46    0.36
   1   3   8    0.06    0.69
   1   3   8    1.18    1.18
   2   3   8    1.86    0.82
   2   3   8    1.49    1.22
   3   3   8   -0.86    1.24
   3   3   8    0.56    0.91
   4   3   8    1.66    1.12
   4   3   8   -1.26    1.38
   5   3   8   -1.35    1.02
   5   3   8   -1.69    1.84
   5   3   8   -0.55    1.48
   6  -4  -8    0.08    0.76
   6  -4  -8    2.41    2.39
  -6   4   8   -0.38    1.54
   5  -4  -8    2.01    1.63
   5  -4  -8   -0.05    0.77
  -5   4   8    0.65    1.36
   4  -4  -8    1.25    0.70
   4  -4  -8    0.94    1.39
  -4   4   8    0.45    1.05
   3  -4  -8    1.46    0.62
  -3   4   8   -0.02    1.00
   2  -4  -8    0.61    0.61
  -2   4   8    0.39    0.47
  -2   4   8    0.69    0.88
   1  -4  -8   -0.32    0.48
  -1   4   8   -0.48    0.90
  -1   4   8    0.36    0.53
   0  -4  -8    0.43    0.45
   0   4   8    1.65    0.72
   0   4   8    2.48    1.19
   1   4   8    0.18    0.70
   1   4   8    2.26    1.51
   2   4   8    0.32    0.81
   2   4   8    0.69    1.26
   3   4   8   -0.17    0.95
   3   4   8    1.22    1.43
   4   4   8    1.20    1.17
   5   4   8    1.06    1.66
   5   4   8    2.18    2.14
   5   4   8   -1.44    1.30
   6  -5  -8   -3.19    1.85
   6  -5  -8   -1.55    0.83
  -6   5   8    0.21    1.66
   5  -5  -8    0.08    0.77
  -5   5   8    0.65    1.35
   4  -5  -8   -1.41    1.21
   4  -5  -8    0.50    0.76
  -4   5   8    0.78    1.17
   3  -5  -8    0.04    0.63
  -3   5   8   -0.02    1.02
   2  -5  -8    1.36    0.69
  -2   5   8    2.39    0.62
  -2   5   8    2.15    1.21
   1  -5  -8   -0.49    0.69
  -1   5   8    1.22    1.30
  -1   5   8   -0.29    0.85
   0  -5  -8    0.86    0.53
   0   5   8    0.67    1.39
   0   5   8    0.92    0.69
   1   5   8    0.45    1.32
   1   5   8   -1.73    0.73
   2   5   8   -0.41    0.85
   2   5   8    2.66    1.68
   3   5   8   -1.59    0.87
   3   5   8   -0.45    1.87
   4   5   8    0.90    1.16
   4   5   8    0.87    1.89
   5  -6  -8    1.96    0.95
   5  -6  -8    1.45    2.02
  -5   6   8    1.91    1.50
   4  -6  -8    0.53    0.81
   4  -6  -8    0.40    1.84
  -4   6   8    0.42    1.28
   3  -6  -8    0.82    0.83
  -3   6   8    0.17    1.23
   2  -6  -8    0.31    0.68
  -2   6   8    0.96    1.36
   1  -6  -8    0.47    0.73
  -1   6   8    1.03    0.84
  -1   6   8    0.45    1.51
   0  -6  -8   -0.39    0.70
   0   6   8   -0.74    0.84
   0   6   8    1.75    1.70
   1   6   8   -0.72    1.45
   1   6   8    1.68    0.97
   2   6   8    0.34    0.98
   3   6   8   -0.03    1.70
   5  -7  -8    3.08    2.24
   4  -7  -8    0.47    0.91
   4  -7  -8   -0.10    2.05
  -4   7   8    0.99    1.50
   3  -7  -8   -0.36    0.96
  -3   7   8   -0.72    1.56
   2  -7  -8    2.00    0.88
  -2   7   8    1.48    1.85
   1  -7  -8    0.78    0.78
  -1   7   8   -1.12    0.90
  -1   7   8    0.84    1.83
   0   7   8    0.36    0.96
   0   7   8   -1.50    1.73
   1   7   8    0.25    1.04
   1   7   8   -0.45    1.90
   2   7   8    0.77    1.14
   2   7   8    0.50    1.96
   3  -8  -8   -0.27    0.96
  -3   8   8    0.21    2.19
   2  -8  -8    0.74    0.98
  -2   8   8    0.65    2.19
   1  -8  -8    0.14    0.97
  -1   8   8    0.54    1.07
   0   8   8    0.10    2.13
   0   8   8   -1.57    1.15
   1   8   8   -0.48    1.99
   1  13  -9    0.58    1.20
   0  13  -9    0.47    1.12
  -1  13  -9   -1.71    0.98
   1 -13   9    0.71    1.78
  -2  13  -9    0.68    0.96
   2 -13   9    2.67    2.01
   3 -13   9   -0.66    2.22
   2  12  -9    0.21    1.19
   1  12  -9   -0.05    1.07
   0  12  -9   -0.50    1.03
   0 -12   9   -1.59    1.50
  -1  12  -9    1.03    1.09
   1 -12   9    0.22    1.61
  -2  12  -9    1.10    1.02
   2 -12   9   -2.12    1.63
   3 -12   9    3.38    1.72
   4 -12   9    1.21    1.96
   4  11  -9   -0.24    0.89
   4  11  -9   -0.38    1.51
   3  11  -9    1.41    1.19
   2  11  -9    0.76    1.10
   1  11  -9    1.51    1.09
  -1 -11   9    2.44    1.29
   0  11  -9   -0.10    0.88
   0 -11   9    1.08    1.31
  -1  11  -9    0.21    0.91
   1 -11   9   -2.24    1.31
  -2  11  -9    0.44    0.99
   2 -11   9   -0.31    1.44
   3 -11   9    3.70    1.51
   4 -11   9   -0.17    1.34
   5 -11   9    0.30    1.50
   5 -11   9    0.02    1.00
   4  10  -9   -0.01    1.35
   4  10  -9   -1.10    1.31
   3  10  -9   -0.37    0.72
   3  10  -9    1.76    1.07
   2  10  -9    1.33    0.96
   1  10  -9   -0.11    0.89
  -1 -10   9    0.21    1.16
   0  10  -9    0.24    0.88
   0 -10   9    1.13    1.27
  -1  10  -9    3.65    0.99
   1 -10   9    0.97    1.26
   2 -10   9   -1.30    1.28
   3 -10   9    6.14    1.66
   4 -10   9   -0.44    1.54
   5 -10   9    0.82    1.19
   5 -10   9    1.72    0.89
   5   9  -9    0.89    0.86
   5   9  -9    0.11    1.36
   4   9  -9    0.70    0.77
   4   9  -9    1.73    1.11
   3   9  -9   -0.95    0.61
   3   9  -9   -0.65    0.83
   2   9  -9    4.27    0.92
   2   9  -9    4.79    1.06
  -2  -9   9    1.90    1.49
   1   9  -9    1.07    0.81
  -1  -9   9    0.96    1.15
   0   9  -9    6.32    1.07
   0  -9   9    1.55    1.13
  -1   9  -9    2.19    0.84
   1  -9   9   -0.08    0.69
   1  -9   9    0.81    1.25
   2  -9   9    0.40    1.24
   3  -9   9    1.26    1.33
   4  -9   9    1.81    1.44
   5  -9   9   -0.01    1.38
   5  -9   9    1.02    0.91
   6  -9   9    1.82    1.13
   6   8  -9    0.45    1.06
   5   8  -9   -0.88    1.07
   5   8  -9    0.91    0.88
   4   8  -9    2.20    0.77
   4   8  -9    1.29    0.92
   3   8  -9    1.35    0.78
   3   8  -9    0.33    0.70
  -3  -8   9    1.87    1.31
   2   8  -9    2.19    0.76
   2   8  -9    1.38    0.72
  -2  -8   9    4.03    1.48
   1   8  -9    1.49    0.67
  -1  -8   9    3.93    1.10
   0   8  -9    0.89    0.72
   0  -8   9    1.51    0.99
   1  -8   9   -0.37    0.72
   1  -8   9    0.18    0.95
   2  -8   9    0.38    0.70
   2  -8   9   -0.03    0.92
   3  -8   9    2.57    1.32
   4  -8   9    1.13    1.27
   5  -8   9   -0.29    1.18
   6  -8   9    1.28    1.01
   6   7  -9    0.76    0.96
   5   7  -9    0.68    1.01
   5   7  -9    0.75    0.68
   4   7  -9    0.02    0.64
   4   7  -9    1.18    0.89
   3   7  -9   -0.23    0.57
   3   7  -9    1.13    0.82
   2   7  -9   -0.08    0.51
   2   7  -9    0.57    0.70
   1   7  -9    0.31    0.53
   1   7  -9    0.42    0.65
  -1  -7   9    1.16    0.94
   0   7  -9    1.42    0.68
   0  -7   9   -0.17    0.89
   1  -7   9   -0.02    0.71
   1  -7   9    0.04    0.84
   2  -7   9   -0.36    0.91
   2  -7   9    1.42    0.76
   3  -7   9   -0.44    1.05
   3  -7   9   -0.70    0.76
   4  -7   9   -0.07    0.49
   4  -7   9    1.47    1.31
   5  -7   9    0.86    1.31
   6  -7   9   -1.91    1.22
   6   6  -9    1.40    1.40
   5   6  -9    1.60    0.83
   4   6  -9    0.72    0.67
   4   6  -9    1.00    0.71
   3   6  -9    2.82    0.68
   3   6  -9    3.37    0.78
   2   6  -9    1.68    0.66
   2   6  -9    2.56    0.63
   1   6  -9    2.00    0.86
   1   6  -9    1.86    0.75
   0  -6   9   -0.94    0.96
   1  -6   9    1.55    0.83
   1  -6   9    1.27    0.80
   2  -6   9    1.29    0.84
   2  -6   9   -0.27    0.77
   3  -6   9   -0.34    0.86
   3  -6   9   -1.11    0.89
   4  -6   9    1.87    1.28
   4  -6   9    0.40    1.23
   5  -6   9    0.20    1.11
   5  -6   9    0.03    1.38
   6   5  -9    1.24    0.90
   5   5  -9    0.28    0.79
   4   5  -9    0.54    0.59
   4   5  -9    0.22    0.61
   3   5  -9    0.69    0.55
   3   5  -9    0.60    0.52
   2   5  -9    8.40    1.10
   2   5  -9    7.63    0.97
   1   5  -9    1.84    0.48
   0   5  -9    4.44    0.64
   0  -5   9    7.79    1.33
   1  -5   9    4.19    1.04
   2  -5   9    5.94    1.36
   3  -5   9    1.02    0.89
   3  -5   9    0.14    1.25
   3  -5   9    0.34    0.31
   4  -5   9    0.13    1.00
   4  -5   9    0.64    1.00
   5  -5   9   -0.13    1.32
   5  -5   9    0.49    1.19
   6  -5   9    1.93    1.49
   6  -5   9   -1.33    1.26
   7   4  -9   -1.02    0.85
   6   4  -9   -0.13    0.72
   5   4  -9    2.64    0.86
   4   4  -9    0.06    0.58
   3   4  -9    2.28    0.64
   1   4  -9    0.01    0.38
   0   4  -9    0.78    0.34
   0  -4   9    0.67    0.79
   1  -4   9    1.37    0.74
   2  -4   9    0.99    0.90
   3  -4   9    0.99    0.90
   3  -4   9    0.83    0.95
   4  -4   9    1.86    1.06
   4  -4   9    1.87    1.07
   5  -4   9   -0.91    1.18
   5  -4   9   -0.13    1.26
   6  -4   9    1.12    1.40
   6  -4   9   -0.20    1.47
   7   3  -9   -0.80    0.91
   6   3  -9    1.81    0.89
   5   3  -9    0.05    0.68
   4   3  -9   -0.02    0.48
   3   3  -9    1.07    0.55
   2   3  -9    1.24    0.44
   1   3  -9    2.25    0.45
  -1  -3   9    1.47    0.88
   0   3  -9    0.64    0.32
   0  -3   9   -0.92    0.69
   1  -3   9    2.30    0.34
   1  -3   9    1.49    0.69
   2  -3   9    0.96    0.94
   3  -3   9   -0.06    0.78
   3  -3   9    1.42    1.00
   4  -3   9   -0.35    0.97
   4  -3   9   -0.52    1.19
   5  -3   9    0.24    1.21
   5  -3   9    0.81    1.31
   6  -3   9   -1.05    1.49
   6  -3   9   -1.11    1.59
   7   2  -9    1.46    0.99
   6   2  -9   -1.28    0.76
   5   2  -9    1.58    0.79
   4   2  -9   -0.15    0.55
   3   2  -9    1.67    0.56
   2   2  -9    7.39    0.83
   1   2  -9    0.40    0.34
  -1  -2   9   -0.50    0.83
   0   2  -9   13.92    1.10
   0  -2   9   12.67    1.57
   1  -2   9    6.65    1.21
   2  -2   9   21.73    2.25
   3  -2   9    0.87    1.13
   4  -2   9    2.72    1.10
   4  -2   9    1.29    1.34
   5  -2   9    1.29    1.48
   5  -2   9    1.43    1.24
   6  -2   9    2.02    1.73
   6  -2   9    1.09    1.77
   7   1  -9   -1.26    0.76
   6   1  -9    0.84    0.79
   5   1  -9    1.75    0.82
   4   1  -9    3.57    0.73
   3   1  -9    1.27    0.54
   2   1  -9    5.37    0.72
  -2  -1   9    7.15    1.40
   1   1  -9    9.07    0.81
  -1  -1   9    6.84    1.23
   0   1  -9    3.25    0.44
   0  -1   9    3.58    0.98
   1  -1   9   11.61    1.53
   2  -1   9    2.38    1.25
   3  -1   9    4.45    1.45
   4  -1   9   -0.11    0.98
   4  -1   9   -0.14    1.40
   5  -1   9    0.63    1.61
   5  -1   9   -1.33    1.12
   6  -1   9   -1.58    1.73
   6  -1   9    0.44    1.92
   7   0  -9    1.35    0.94
   6   0  -9   -0.67    0.78
   5   0  -9   -0.54    0.66
   4   0  -9    3.35    0.72
   3   0  -9    2.39    0.58
  -3   0   9    1.21    0.87
   2   0  -9   -0.01    0.36
  -2   0   9    0.15    0.40
  -2   0   9    0.39    0.88
   1   0  -9   13.30    1.03
  -1   0   9    8.82    1.48
   0   0  -9    0.65    0.30
   0   0   9    0.18    0.72
   1   0   9   11.93    1.70
   2   0   9    0.14    1.13
   3   0   9    2.46    1.47
   4   0   9    2.60    1.66
   4   0   9    0.00    1.04
   5   0   9    0.54    1.31
   5   0   9    0.07    1.18
   5   0   9    0.85    1.88
   6   0   9   -1.04    1.77
   6   0   9    1.44    1.35
   6   0   9   -0.50    2.18
   7  -1  -9   -1.14    0.93
   6  -1  -9    0.50    0.86
   5  -1  -9    0.26    0.70
   4  -1  -9    0.75    0.61
   3  -1  -9    2.74    0.62
  -3   1   9    2.08    1.15
   2  -1  -9    0.09    0.43
  -2   1   9    0.95    0.88
  -2   1   9    0.04    0.40
   1  -1  -9    1.53    0.40
  -1   1   9    1.57    0.53
  -1   1   9    1.57    0.88
   0  -1  -9    3.25    0.42
   0   1   9    1.55    0.72
   0   1   9    2.92    1.06
   1   1   9   11.36    1.79
   2   1   9    1.49    0.86
   2   1   9   -0.23    1.34
   3   1   9    1.33    1.46
   3   1   9    1.32    1.04
   4   1   9    1.82    1.54
   4   1   9    2.46    1.20
   5   1   9    2.53    1.58
   5   1   9   -1.19    1.89
   6  -2  -9   -0.46    0.84
   5  -2  -9    0.13    0.80
   4  -2  -9   -0.42    0.65
  -4   2   9   -0.39    1.24
   3  -2  -9    0.17    0.55
  -3   2   9    0.72    0.94
  -2   2   9    0.19    0.41
  -2   2   9    0.85    0.92
   1  -2  -9    1.31    0.44
  -1   2   9    1.62    0.87
  -1   2   9    0.75    0.53
   0  -2  -9    1.52    0.37
   0   2   9    1.64    1.04
   0   2   9    1.22    0.80
   1   2   9    4.27    0.89
   1   2   9    1.47    1.31
   2   2   9    1.19    0.86
   2   2   9    0.03    1.30
   3   2   9    1.17    1.39
   3   2   9    0.85    1.02
   4   2   9   -0.87    0.97
   4   2   9   -1.48    1.69
   5   2   9    1.58    2.27
   5   2   9    1.55    1.59
   5   2   9    2.04    1.11
   6  -3  -9   -0.18    1.06
   6  -3  -9   -0.30    2.07
  -6   3   9    0.06    2.70
   5  -3  -9   -1.68    0.75
  -5   3   9    1.11    1.52
   4  -3  -9    3.04    0.86
  -4   3   9    1.04    1.28
   3  -3  -9   -0.66    0.61
  -3   3   9   -0.40    1.04
   2  -3  -9    4.65    0.89
  -2   3   9    4.63    0.91
  -2   3   9    5.00    1.26
   1  -3  -9    5.20    0.67
  -1   3   9    4.69    1.29
  -1   3   9    3.62    0.73
   0  -3  -9    1.72    0.53
   0   3   9    2.58    1.34
   0   3   9    1.84    0.76
   1   3   9    1.04    1.36
   1   3   9    1.59    0.80
   2   3   9    1.32    1.45
   2   3   9   -2.00    0.80
   3   3   9    0.93    1.07
   3   3   9   -1.41    1.47
   4   3   9   -0.10    1.14
   4   3   9    1.81    1.93
   5   3   9    2.14    1.81
   6  -4  -9    0.35    0.91
   6  -4  -9   -1.77    2.24
  -6   4   9    1.69    1.82
   5  -4  -9    0.48    0.84
  -5   4   9    0.97    1.60
   4  -4  -9   -0.54    0.73
  -4   4   9   -0.11    1.14
   3  -4  -9    0.37    0.66
  -3   4   9    1.05    1.14
   2  -4  -9    1.78    0.69
  -2   4   9    2.29    1.12
   1  -4  -9    0.11    0.58
  -1   4   9   -0.87    1.20
  -1   4   9    0.02    1.06
   0   4   9   -0.12    0.63
   0   4   9    0.11    1.39
   1   4   9    0.29    1.60
   1   4   9   -0.58    0.79
   2   4   9   -0.80    0.92
   2   4   9   -1.01    1.44
   3   4   9    0.03    1.65
   3   4   9    0.71    1.05
   4   4   9    1.77    1.94
   4   4   9    3.03    1.22
   5  -5  -9    0.23    0.93
  -5   5   9   -0.25    1.64
   4  -5  -9    0.50    0.87
  -4   5   9    0.74    1.35
   3  -5  -9    2.06    0.82
  -3   5   9   -0.21    1.14
   2  -5  -9    1.10    0.75
  -2   5   9    1.38    1.31
   1  -5  -9   -0.17    0.75
  -1   5   9    3.23    1.52
  -1   5   9   -0.17    0.83
   0   5   9   -0.62    1.55
   0   5   9    0.47    0.79
   1   5   9   -1.25    0.91
   1   5   9    0.46    1.56
   2   5   9   -1.69    1.82
   2   5   9   -0.01    0.96
   3   5   9    1.46    2.09
   4  -6  -9   -1.72    0.92
  -4   6   9    0.37    2.28
   3  -6  -9    0.27    0.99
  -3   6   9    0.85    1.66
   2  -6  -9   -2.12    0.84
  -2   6   9   -0.19    1.68
  -1   6   9   -0.88    1.79
  -1   6   9    0.77    0.90
   0   6   9   -1.11    1.89
   0   6   9    0.18    0.98
   1   6   9   -0.09    1.00
   1   6   9   -1.72    1.59
   2   6   9    0.16    1.93
   2   6   9   -0.47    1.13
   3  -7  -9   -1.15    1.09
  -3   7   9    0.52    2.05
   2  -7  -9   -0.41    1.04
  -2   7   9    0.10    2.22
  -1   7   9   -1.87    2.09
   0   7   9   -0.80    1.92
   0   7   9    0.79    1.10
   1  13 -10    1.13    1.27
   0  13 -10    0.60    0.99
  -1  13 -10    0.30    1.20
   1 -13  10    0.63    1.94
  -2  13 -10    1.21    1.24
   2 -13  10   -0.24    2.17
   2  12 -10    1.82    1.29
   1  12 -10   -0.33    1.17
   0  12 -10   -0.14    1.07
   0 -12  10   -1.36    1.62
  -1  12 -10    1.78    1.00
   1 -12  10   -0.66    1.57
   2 -12  10    1.38    1.73
   3 -12  10   -0.06    1.84
   4 -12  10    0.02    1.84
   3  11 -10    1.26    1.38
   2  11 -10    0.85    1.13
   1  11 -10   -0.82    1.01
  -1 -11  10   -0.46    1.37
   0  11 -10   -0.49    1.00
   0 -11  10    0.69    1.43
  -1  11 -10   -1.15    0.92
   1 -11  10   -1.55    1.41
   2 -11  10    1.88    1.69
   3 -11  10    1.05    1.57
   4 -11  10   -0.01    1.33
   4  10 -10    0.31    1.40
   4  10 -10   -0.30    0.97
   3  10 -10   -0.52    0.81
   3  10 -10   -0.11    1.24
   2  10 -10    0.32    1.04
   1  10 -10    0.07    1.01
  -1 -10  10   -1.03    1.31
   0  10 -10    1.19    0.86
   0 -10  10   -0.31    1.41
  -1  10 -10   -0.50    0.91
   1 -10  10   -1.75    1.37
   2 -10  10   -2.72    1.24
   3 -10  10    2.03    1.55
   4 -10  10   -0.29    1.59
   5 -10  10    1.25    1.15
   5   9 -10   -0.12    0.99
   4   9 -10   -0.27    1.06
   4   9 -10   -0.60    0.82
   3   9 -10    0.19    0.99
   3   9 -10   -0.80    0.83
   2   9 -10    1.24    0.78
   2   9 -10    0.60    0.93
  -2  -9  10    0.24    1.15
   1   9 -10   -0.23    0.79
  -1  -9  10   -1.24    1.05
   0   9 -10    1.00    0.82
   0  -9  10   -0.96    1.12
   1  -9  10    0.30    1.23
   1  -9  10    0.86    0.90
   2  -9  10    0.68    1.43
   3  -9  10    1.48    1.50
   4  -9  10   -0.47    1.30
   5  -9  10    1.41    1.53
   5   8 -10   -1.39    0.89
   4   8 -10   -0.52    0.75
   4   8 -10    0.59    0.93
   3   8 -10    2.69    0.87
   3   8 -10    3.15    0.95
  -3  -8  10    2.88    1.36
   2   8 -10    3.21    0.93
   2   8 -10    2.88    0.88
  -2  -8  10    2.80    1.15
   1   8 -10    0.68    0.75
  -1  -8  10    0.38    1.00
   0  -8  10   -0.20    0.98
   0  -8  10   -0.62    0.82
   1  -8  10    0.78    1.07
   1  -8  10    0.29    1.03
   2  -8  10    0.64    0.94
   2  -8  10    0.01    1.15
   3  -8  10   -1.12    1.32
   4  -8  10   -1.48    1.40
   5  -8  10    0.34    1.45
   6  -8  10    1.09    1.63
   6   7 -10   -0.85    1.00
   5   7 -10    0.87    0.89
   4   7 -10   -0.06    0.92
   4   7 -10   -0.66    0.80
   3   7 -10    3.77    0.99
   3   7 -10    5.45    0.95
   2   7 -10    1.99    0.83
   2   7 -10    1.22    0.66
   1   7 -10    0.61    0.61
   0  -7  10   -0.97    0.89
   0  -7  10   -1.16    0.78
   1  -7  10    0.83    0.98
   2  -7  10    0.54    1.12
   2  -7  10    1.79    1.05
   3  -7  10    4.24    1.20
   3  -7  10    2.31    1.22
   4  -7  10    1.17    1.47
   5  -7  10    1.45    2.14
   6  -7  10    5.13    1.95
   6   6 -10    1.61    0.99
   5   6 -10   -0.81    0.79
   4   6 -10    0.36    0.78
   4   6 -10    1.15    0.79
   3   6 -10    0.13    0.62
   3   6 -10    0.31    0.76
   2   6 -10    0.71    0.61
   1   6 -10   -0.15    0.69
   0  -6  10    0.53    0.80
   1  -6  10    1.64    0.88
   1  -6  10    0.34    0.75
   2  -6  10    3.08    1.00
   2  -6  10    1.77    1.04
   3  -6  10   -0.49    0.97
   3  -6  10    1.03    1.04
   4  -6  10    2.20    1.15
   4  -6  10    2.91    1.30
   5  -6  10   -1.20    1.55
   6  -6  10    0.88    1.65
   6   5 -10    0.21    0.90
   5   5 -10   -0.68    0.75
   4   5 -10    0.38    0.69
   3   5 -10    0.67    0.61
   2   5 -10    0.21    0.56
   1   5 -10   -0.06    0.47
   0  -5  10   -0.35    0.74
   1  -5  10    1.80    0.75
   2  -5  10    0.30    0.86
   2  -5  10    1.68    0.91
   3  -5  10   -0.99    1.00
   3  -5  10   -1.51    0.87
   4  -5  10   -0.31    1.12
   4  -5  10   -0.75    1.12
   5  -5  10   -2.13    1.32
   5  -5  10    2.30    1.49
   6  -5  10    0.72    1.66
   6   4 -10    0.90    1.09
   5   4 -10    0.57    0.70
   4   4 -10    0.50    0.66
   3   4 -10    1.07    0.56
   2   4 -10    1.06    0.62
   1   4 -10   -0.34    0.39
  -1  -4  10    1.27    0.98
   0   4 -10    1.15    0.40
   0  -4  10    0.98    0.79
   1  -4  10   -0.62    0.68
   2  -4  10    3.45    1.11
   3  -4  10   -0.65    0.93
   3  -4  10   -0.33    0.99
   4  -4  10    0.15    0.99
   4  -4  10    1.88    1.27
   5  -4  10   -0.85    1.35
   5  -4  10    1.79    1.50
   6  -4  10   -0.96    1.71
   6  -4  10    0.49    1.87
   6   3 -10   -0.20    0.89
   5   3 -10    1.27    0.81
   4   3 -10    0.09    0.65
   3   3 -10    1.09    0.52
   2   3 -10    2.08    0.80
   1   3 -10   -0.40    0.40
  -1  -3  10   -0.15    0.91
   0   3 -10    3.18    0.46
   0  -3  10    1.23    0.90
   1  -3  10    1.57    0.89
   2  -3  10    0.79    1.10
   3  -3  10   -0.20    1.15
   3  -3  10   -0.55    0.87
   4  -3  10   -0.08    1.12
   4  -3  10    0.90    1.34
   5  -3  10   -0.29    1.57
   5  -3  10    0.77    1.37
   6  -3  10   -0.91    1.81
   6  -3  10    1.02    2.00
   6   2 -10    0.52    0.79
   5   2 -10    0.16    0.73
   4   2 -10    5.54    0.95
   3   2 -10    0.40    0.57
   2   2 -10    3.97    0.69
  -2  -2  10    3.42    1.19
   1   2 -10    1.34    0.44
  -1  -2  10    1.01    0.88
   0   2 -10   16.56    1.26
   0  -2  10   13.96    1.76
   1  -2  10    3.23    1.12
   2  -2  10    4.62    1.42
   3  -2  10    0.73    1.27
   4  -2  10    2.59    1.60
   4  -2  10   -0.91    1.18
   5  -2  10    0.90    1.66
   5  -2  10   -2.70    1.35
   6  -2  10    1.13    1.91
   6  -2  10   -0.31    1.99
   6   1 -10    1.73    0.94
   5   1 -10    1.12    0.84
   4   1 -10    1.33    0.72
   3   1 -10    4.41    0.76
  -3  -1  10    3.22    1.16
   2   1 -10    0.38    0.50
  -2  -1  10   -0.95    0.99
   1   1 -10   -0.33    0.41
  -1  -1  10   -0.14    0.91
   0   1 -10    2.16    0.40
   0  -1  10    1.98    0.95
   1  -1  10    2.46    1.16
   2  -1  10    0.17    1.30
   3  -1  10   -0.03    1.37
   4  -1  10   -2.29    1.08
   4  -1  10    0.81    1.73
   5  -1  10    0.38    1.89
   5  -1  10    0.74    1.54
   6   0 -10    2.98    1.01
   5   0 -10   -0.29    0.84
   4   0 -10   -0.79    0.68
   3   0 -10    2.73    0.64
  -3   0  10    1.74    1.22
   2   0 -10    3.62    0.67
  -2   0  10    2.95    1.09
  -2   0  10    4.52    0.64
   1   0 -10   10.15    0.99
   0   0  10    4.86    1.15
   1   0  10    7.42    1.80
   2   0  10   -1.31    1.37
   3   0  10    0.92    1.53
   4   0  10    0.35    1.83
   4   0  10   -0.95    1.06
   5   0  10   -0.88    1.58
   5   0  10    0.97    1.19
   6  -1 -10    1.61    1.20
   5  -1 -10    3.13    0.88
   4  -1 -10    0.57    0.67
  -4   1  10   -0.35    1.34
   3  -1 -10    0.26    0.56
  -3   1  10   -0.46    1.10
   2  -1 -10    1.39    0.70
  -2   1  10    0.65    1.03
   1  -1 -10    4.41    0.63
  -1   1  10    4.40    0.74
  -1   1  10    4.75    1.24
   0   1  10    1.53    0.88
   0   1  10    1.18    1.04
   1   1  10    1.59    0.86
   1   1  10   -0.25    1.27
   2   1  10   -0.41    0.92
   2   1  10    0.07    1.62
   3   1  10    0.76    1.56
   3   1  10   -0.47    1.09
   4   1  10    1.31    1.29
   4   1  10    2.24    1.95
   5   1  10   -0.79    1.36
   5   1  10   -1.62    2.27
   5   1  10    0.41    1.71
   6  -2 -10   -1.15    0.88
  -6   2  10    2.84    1.83
   5  -2 -10    2.31    0.88
  -5   2  10   -0.39    1.52
   4  -2 -10    2.03    0.84
  -4   2  10    0.29    1.31
   3  -2 -10    0.02    0.61
  -3   2  10    0.54    1.14
   2  -2 -10    2.71    0.73
  -2   2  10    0.00    0.99
   1  -2 -10    2.85    0.54
  -1   2  10    1.76    0.68
  -1   2  10    2.77    1.05
   0   2  10   -1.10    0.72
   0   2  10    0.78    1.25
   1   2  10    0.98    1.60
   1   2  10   -0.94    0.77
   2   2  10    0.58    1.00
   2   2  10    2.13    1.51
   3   2  10    0.35    1.74
   3   2  10   -0.16    1.03
   4   2  10    0.14    1.26
   4   2  10    0.86    2.22
   5  -3 -10    1.06    0.96
  -5   3  10    0.56    1.85
   4  -3 -10    1.74    0.90
  -4   3  10   -0.70    1.33
   3  -3 -10    0.80    0.67
  -3   3  10    0.60    1.21
   2  -3 -10    0.49    0.67
  -2   3  10    1.38    1.07
  -1   3  10    1.94    1.24
   0   3  10   -0.24    1.34
   0   3  10   -0.10    0.77
   1   3  10    0.92    0.88
   1   3  10    0.34    1.70
   2   3  10    0.42    1.01
   2   3  10   -1.63    1.47
   3   3  10    1.90    1.20
   3   3  10    0.74    1.82
   4   3  10   -0.91    2.08
   5  -4 -10    1.52    1.01
  -5   4  10    0.14    1.62
   4  -4 -10    0.54    0.95
   3  -4 -10    0.44    0.84
  -3   4  10   -0.15    1.25
   2  -4 -10    0.70    0.73
  -2   4  10    0.40    1.26
  -1   4  10    0.39    1.44
  -1   4  10    0.10    1.26
   0   4  10    0.84    1.69
   0   4  10    0.03    0.77
   1   4  10    0.03    1.89
   1   4  10   -0.76    0.95
   2   4  10    1.81    1.08
   2   4  10   -1.37    1.78
   3   4  10   -1.84    1.08
   3   4  10    0.73    1.95
   4  -5 -10    0.05    0.99
  -4   5  10   -0.01    1.55
   3  -5 -10    1.40    0.98
  -3   5  10    2.78    1.60
   2  -5 -10   -0.15    1.43
   0   5  10   -1.25    1.81
   0   5  10    1.42    0.98
   1   5  10    0.89    1.97
   1   5  10    0.19    1.03
   2   5  10   -0.08    2.06
   2   5  10   -0.46    1.06
  -2   6  10   -1.60    2.02
  -1   6  10   -0.97    2.12
   0   6  10    1.97    2.09
   0   6  10   -1.32    1.08
   0  12 -11   -0.23    1.34
   0 -12  11    3.41    1.94
  -1  12 -11   -1.90    1.08
   1 -12  11   -0.10    1.75
   2 -12  11    2.31    2.09
   3 -12  11    3.60    2.12
   3  11 -11   -0.25    1.30
   2  11 -11   -0.26    1.22
   1  11 -11   -0.29    1.07
  -1 -11  11    0.86    1.58
   0  11 -11    0.70    1.16
   0 -11  11    0.34    1.61
   1 -11  11   -0.15    1.63
   2 -11  11    4.16    1.87
   4 -11  11    3.44    1.84
   3  10 -11   -0.36    0.90
   3  10 -11    1.40    1.23
   2  10 -11   -0.92    1.07
   1  10 -11   -0.32    1.03
  -1 -10  11   -2.50    1.41
   0  10 -11    0.71    1.05
   0 -10  11    0.64    0.94
   0 -10  11   -1.67    1.50
   1 -10  11    1.69    1.61
   2 -10  11    1.94    1.75
   3 -10  11   -0.49    1.74
   4 -10  11    2.65    1.97
   4   9 -11   -0.51    1.17
   4   9 -11   -0.69    1.06
   3   9 -11   -0.27    0.87
   3   9 -11    0.99    1.09
   2   9 -11   -0.88    0.79
   2   9 -11   -0.06    0.97
  -2  -9  11    0.15    1.36
   1   9 -11    0.60    0.98
  -1  -9  11    1.34    1.29
   0  -9  11   -0.06    1.17
   0  -9  11    0.00    0.91
   1  -9  11    1.49    1.29
   1  -9  11    1.62    0.92
   2  -9  11    2.91    1.56
   3  -9  11   -0.90    1.64
   4  -9  11   -0.68    1.73
   5  -9  11    0.09    1.89
   5   8 -11    0.07    0.97
   4   8 -11    0.73    0.95
   3   8 -11    1.19    0.85
   3   8 -11    0.98    0.90
   2   8 -11    0.15    0.78
   2   8 -11    2.41    0.98
  -2  -8  11    0.80    1.28
  -1  -8  11    0.93    1.28
   0  -8  11   -0.60    1.15
   0  -8  11   -0.32    0.83
   1  -8  11   -0.36    1.15
   1  -8  11    0.50    0.79
   2  -8  11   -0.94    1.08
   2  -8  11    0.40    0.96
   3  -8  11    0.00    1.44
   5  -8  11   -0.89    1.60
   5   7 -11    0.17    0.93
   4   7 -11    1.50    0.93
   3   7 -11    6.19    1.23
   3   7 -11    4.95    1.07
   2   7 -11    2.98    0.82
   1   7 -11   -0.07    0.66
   0  -7  11    0.37    1.02
   0  -7  11    0.64    0.90
   1  -7  11    2.21    1.19
   1  -7  11    0.24    0.79
   2  -7  11    1.30    0.93
   2  -7  11    1.62    1.05
   3  -7  11   -0.71    1.00
   3  -7  11    1.04    1.16
   4  -7  11   -0.03    1.55
   5  -7  11    0.76    1.93
   5   6 -11   -0.15    0.90
   4   6 -11   -0.90    0.80
   3   6 -11    0.68    0.73
   2   6 -11    2.30    0.72
   1   6 -11    0.54    0.70
  -1  -6  11    0.35    0.96
   0  -6  11    1.04    0.92
   1  -6  11    1.07    0.82
   2  -6  11    0.62    1.14
   2  -6  11    2.23    0.97
   3  -6  11    1.43    1.24
   3  -6  11   -1.36    1.02
   4  -6  11   -0.99    1.20
   4  -6  11    0.48    1.22
   5  -6  11   -0.83    1.88
   6   5 -11    0.66    1.01
   5   5 -11   -0.52    0.85
   4   5 -11    1.35    0.83
   3   5 -11    0.04    0.64
   2   5 -11   -0.37    0.64
  -1  -5  11   -0.30    1.03
   0  -5  11    0.00    0.97
   1  -5  11   -0.45    0.76
   2  -5  11    0.27    0.94
   2  -5  11    0.67    1.04
   3  -5  11   -0.38    1.17
   3  -5  11   -1.67    1.07
   4  -5  11    2.59    1.46
   4  -5  11    0.23    1.34
   5  -5  11    2.83    1.67
   5  -5  11   -0.33    1.50
   5   4 -11    0.14    0.86
   4   4 -11    1.22    0.84
   3   4 -11   -0.01    0.63
   2   4 -11    0.50    0.63
   1   4 -11    0.09    0.50
  -1  -4  11    1.38    1.09
   0  -4  11   -0.27    0.97
   1  -4  11    0.59    0.89
   2  -4  11    1.27    1.15
   3  -4  11    1.07    1.17
   3  -4  11    1.12    1.23
   4  -4  11   -0.20    1.32
   4  -4  11   -0.84    1.25
   5  -4  11    0.46    1.69
   5  -4  11   -1.70    1.44
   6   3 -11    3.48    1.06
   5   3 -11    1.11    0.89
   4   3 -11    2.18    0.88
   3   3 -11    2.74    0.74
   2   3 -11    4.58    0.89
  -2  -3  11    4.71    1.50
   1   3 -11    0.30    0.48
  -1  -3  11    0.23    0.95
   0   3 -11    2.26    0.54
   0  -3  11    2.59    1.07
   1  -3  11    0.06    1.00
   2  -3  11    0.85    1.32
   3  -3  11   -0.04    1.24
   4  -3  11   -1.10    1.40
   4  -3  11   -0.48    1.32
   5  -3  11   -0.38    1.74
   5  -3  11   -0.09    1.52
   6   2 -11    0.27    0.95
   5   2 -11    0.80    0.87
   4   2 -11    0.98    0.78
   3   2 -11   -0.09    0.59
  -3  -2  11    0.58    1.14
   2   2 -11    4.42    0.83
  -2  -2  11    2.81    1.30
   1   2 -11    0.16    0.48
  -1  -2  11    0.12    1.09
   0  -2  11   -0.13    0.91
   1  -2  11    0.09    1.06
   2  -2  11    0.40    1.44
   3  -2  11    0.07    1.45
   4  -2  11   -0.79    1.37
   4  -2  11    0.17    1.64
   5  -2  11   -1.45    1.50
   5  -2  11    0.49    2.01
   6   1 -11    0.03    0.99
   5   1 -11    0.97    0.85
   4   1 -11    2.30    0.84
   3   1 -11   -0.41    0.62
  -3  -1  11   -1.52    1.18
   2   1 -11    3.23    0.80
  -2  -1  11    2.01    1.15
   1   1 -11    0.46    0.48
  -1  -1  11   -1.73    1.01
   0  -1  11    2.80    1.16
   1  -1  11    3.40    1.41
   2  -1  11   -0.07    1.55
   3  -1  11    0.39    1.61
   4  -1  11    0.07    1.28
   4  -1  11   -0.32    2.01
   5  -1  11    0.75    1.79
   5  -1  11    1.68    2.29
   5   0 -11    0.43    0.96
   4   0 -11   -1.73    0.76
  -4   0  11   -0.16    1.37
   3   0 -11    0.98    0.66
  -3   0  11    0.23    1.26
   2   0 -11   -0.21    0.72
  -2   0  11   -0.34    1.05
  -1   0  11    0.16    1.09
  -1   0  11    1.23    0.71
   0   0  11    0.48    0.94
   0   0  11    1.58    1.30
   1   0  11   -0.01    0.88
   1   0  11    2.34    1.47
   2   0  11   -1.47    1.05
   2   0  11   -1.34    1.69
   3   0  11   -0.43    1.14
   3   0  11    1.17    1.76
   4   0  11    2.94    2.49
   4   0  11    0.79    1.96
   5  -1 -11    0.36    0.93
  -5   1  11    0.95    1.86
   4  -1 -11    2.10    0.92
  -4   1  11    0.24    1.36
   3  -1 -11   -0.36    0.65
  -3   1  11   -0.45    1.21
   2  -1 -11    0.93    0.74
  -2   1  11   -1.26    1.14
  -1   1  11    0.53    0.71
  -1   1  11    0.41    1.06
   0   1  11   -0.91    1.22
   0   1  11   -0.22    0.85
   1   1  11    0.71    0.95
   1   1  11    0.24    1.61
   2   1  11    0.00    1.05
   2   1  11   -0.40    1.68
   3   1  11    0.00    1.22
   4   1  11   -0.54    1.35
   4   1  11    0.24    2.27
   5  -2 -11   -0.93    0.97
  -5   2  11    0.64    1.71
   4  -2 -11    0.18    0.88
  -4   2  11   -0.15    1.40
   3  -2 -11   -0.26    0.73
  -3   2  11    0.14    1.35
   2  -2 -11   -0.66    0.70
  -2   2  11    0.12    1.12
  -1   2  11   -1.20    1.34
   0   2  11   -0.39    1.57
   0   2  11   -0.58    0.82
   1   2  11    1.43    1.83
   1   2  11   -0.30    1.01
   2   2  11    0.43    2.46
   2   2  11    1.76    1.11
   3   2  11   -0.70    1.81
   3   2  11    1.49    1.24
   4  -3 -11    0.53    0.95
  -4   3  11    0.87    1.62
   3  -3 -11    0.17    0.82
  -3   3  11   -0.01    1.41
  -2   3  11    2.08    1.71
  -1   3  11   -0.76    1.48
   0   3  11   -0.85    0.79
   1   3  11   -0.12    1.08
   1   3  11   -1.84    2.03
   2   3  11    1.35    1.20
   2   3  11    1.83    2.07
   3  -4 -11    0.83    0.99
  -3   4  11    0.04    1.47
  -2   4  11    0.44    1.83
  -1   4  11    0.82    2.00
   0   4  11    0.81    0.97
   0   4  11    0.32    2.05
   1   4  11    2.08    1.87
   1   4  11   -1.19    1.07
  -1   5  11    0.56    2.01
   2  11 -12    0.20    1.38
   1  11 -12    0.01    1.28
  -1 -11  12   -1.29    1.84
   0 -11  12    1.84    1.98
   1 -11  12   -1.72    1.89
   3  10 -12    0.08    0.99
   3  10 -12    1.75    1.34
   2  10 -12    1.81    1.34
  -1 -10  12    0.51    1.56
   0 -10  12   -0.77    1.24
   0 -10  12   -0.59    1.61
   1 -10  12    1.53    1.72
   2 -10  12    0.40    1.94
   3 -10  12   -0.41    1.92
   3   9 -12   -0.21    1.20
   3   9 -12   -0.93    1.00
   2   9 -12    0.49    0.98
  -2  -9  12    0.86    1.60
  -1  -9  12    1.35    1.47
   0  -9  12    0.48    1.35
   1  -9  12   -1.53    1.09
   1  -9  12   -0.27    1.36
   2  -9  12    0.49    1.55
   3  -9  12   -2.00    1.71
   4  -9  12    2.09    2.07
   3   8 -12   -0.06    0.92
   2   8 -12    1.24    1.07
  -1  -8  12    1.05    1.15
  -1  -8  12    2.08    1.44
   0  -8  12    0.75    1.38
   0  -8  12   -0.19    0.99
   1  -8  12    0.89    1.41
   1  -8  12   -1.32    0.82
   2  -8  12   -0.46    1.14
   2  -8  12   -0.87    1.23
   4  -8  12    1.16    1.90
   4   7 -12   -1.57    0.90
   3   7 -12    0.22    0.88
   2   7 -12    1.53    0.86
   1   7 -12   -0.05    0.69
  -1  -7  12   -0.52    1.10
   0  -7  12    1.34    1.05
   1  -7  12   -0.72    0.87
   1  -7  12   -0.54    1.21
   2  -7  12   -0.89    1.02
   2  -7  12    0.73    1.39
   3  -7  12    1.25    1.43
   3  -7  12    0.57    1.23
   4  -7  12    1.31    1.63
   5   6 -12   -0.03    0.96
   4   6 -12    0.69    0.90
   3   6 -12    0.50    0.92
   2   6 -12    2.28    0.80
   1   6 -12    0.69    0.80
  -1  -6  12   -0.15    1.09
   0  -6  12    0.54    1.05
   1  -6  12   -0.08    0.88
   2  -6  12    0.79    1.25
   2  -6  12    2.94    1.21
   3  -6  12    1.17    1.44
   3  -6  12    1.28    1.25
   4  -6  12   -0.24    1.55
   4  -6  12   -1.17    1.44
   5   5 -12   -0.06    1.15
   4   5 -12    1.27    0.91
   3   5 -12    2.07    0.88
   2   5 -12   -0.55    0.71
  -2  -5  12    0.34    1.24
   1   5 -12    0.03    0.80
  -1  -5  12    0.90    1.23
   0  -5  12   -0.51    1.05
   1  -5  12    0.42    0.91
   2  -5  12   -1.37    1.15
   2  -5  12   -0.46    1.08
   3  -5  12   -0.09    1.26
   3  -5  12   -0.36    1.40
   4  -5  12   -0.15    1.34
   4  -5  12   -0.42    1.47
   5   4 -12    1.84    1.01
   4   4 -12    0.30    0.89
   3   4 -12    0.12    0.80
   2   4 -12    1.39    0.73
  -2  -4  12   -1.76    1.27
   1   4 -12    1.66    0.66
  -1  -4  12    1.91    1.20
   0  -4  12    0.78    1.11
   2  -4  12    1.36    1.44
   3  -4  12   -1.58    1.29
   3  -4  12    0.27    1.28
   4  -4  12   -0.79    1.55
   4  -4  12    0.55    1.43
   5   3 -12    1.49    1.02
   4   3 -12    1.86    1.01
   3   3 -12    0.10    0.71
  -3  -3  12    0.53    1.29
   2   3 -12    0.34    0.75
  -2  -3  12   -0.11    1.24
  -1  -3  12    1.07    1.23
   0  -3  12    1.23    1.15
   1  -3  12    1.49    1.23
   2  -3  12    0.53    1.51
   3  -3  12    0.55    1.44
   4  -3  12   -0.02    1.54
   4  -3  12    0.64    1.71
   5   2 -12    0.30    1.02
   4   2 -12   -0.41    0.90
   3   2 -12    1.48    0.72
  -3  -2  12    1.71    1.48
   2   2 -12    0.31    0.76
  -2  -2  12    1.10    1.26
  -1  -2  12   -0.98    1.25
   0  -2  12   -0.13    1.08
   1  -2  12    2.00    1.49
   2  -2  12   -0.50    1.67
   3  -2  12    0.55    1.70
   4  -2  12   -1.38    1.52
   4  -2  12    0.00    2.25
   5   1 -12    0.04    1.09
   4   1 -12   -0.84    0.86
  -4  -1  12   -0.95    1.65
   3   1 -12    0.45    0.69
  -3  -1  12   -1.01    1.36
   2   1 -12   -0.67    0.71
  -2  -1  12    0.30    1.36
  -1  -1  12    0.38    1.19
  -1  -1  12    0.69    1.05
   0  -1  12    1.71    1.36
   1  -1  12    2.88    1.80
   2  -1  12   -0.98    1.84
   3  -1  12    1.06    2.04
   4  -1  12   -1.41    1.53
   4  -1  12    2.03    2.39
  -5   0  12   -0.77    1.85
   4   0 -12    0.53    0.94
  -4   0  12    0.73    1.58
   3   0 -12    0.63    0.76
  -2   0  12    0.56    1.41
  -1   0  12    1.02    1.22
   0   0  12   -0.68    1.42
   0   0  12    0.36    1.06
   1   0  12    4.51    2.12
   1   0  12    1.58    1.16
   2   0  12   -0.01    2.97
   2   0  12    1.21    1.29
   3   0  12   -1.09    2.03
   3   0  12    0.42    1.35
   4  -1 -12   -2.08    0.97
  -4   1  12    1.95    1.44
   3  -1 -12    2.32    0.91
  -3   1  12    0.51    1.45
  -1   1  12   -0.40    1.33
   0   1  12   -0.21    2.05
   0   1  12    0.47    0.88
   1   1  12   -0.47    2.12
   1   1  12   -0.30    1.17
   2   1  12   -0.33    1.21
   2   1  12   -2.26    2.00
  -4   2  12    0.03    1.67
  -3   2  12   -0.10    1.36
  -2   2  12    1.18    1.34
  -1   2  12    0.53    1.48
   0   2  12   -0.07    1.01
   0   2  12    1.19    2.10
   1   2  12    0.48    1.21
   1   2  12    1.07    2.20
   2   2  12   -0.93    2.16
  -2   3  12   -0.57    1.68
  -1   3  12    0.21    1.82
   0   3  12   -4.06    2.01
  -1 -10  13   -1.42    1.75
  -1 -10  13   -2.07    1.22
   0 -10  13   -0.10    1.62
   1 -10  13   -1.89    1.97
   2 -10  13    1.68    2.20
  -2  -9  13    0.82    1.90
  -1  -9  13   -0.61    1.62
  -1  -9  13    1.33    1.33
   0  -9  13    0.34    1.65
   0  -9  13    0.04    1.20
   1  -9  13   -1.22    1.58
   2  -9  13    0.73    1.75
   3  -9  13    2.05    1.94
   3   8 -13    0.18    1.10
   2   8 -13   -0.02    0.94
  -1  -8  13    1.48    1.58
  -1  -8  13   -0.35    1.20
   0  -8  13    0.01    1.19
   0  -8  13    1.12    1.55
   1  -8  13    0.88    1.08
   1  -8  13    2.69    1.70
   2  -8  13    0.86    1.68
   3  -8  13    0.58    1.74
   3   7 -13    1.79    1.05
   2   7 -13    1.00    0.99
  -2  -7  13    0.04    1.32
  -1  -7  13    0.12    1.26
   0  -7  13    1.63    1.23
   1  -7  13   -0.30    1.08
   1  -7  13    0.42    1.47
   2  -7  13    1.28    1.36
   3  -7  13   -0.76    1.58
   4   6 -13   -0.72    1.07
   3   6 -13    1.77    1.00
   2   6 -13   -0.40    0.83
  -2  -6  13   -1.17    1.40
   1   6 -13   -1.91    1.14
  -1  -6  13   -0.74    1.23
   0  -6  13   -0.16    1.17
   1  -6  13    1.05    1.18
   2  -6  13   -0.01    1.41
   3  -6  13   -0.62    1.42
   3  -6  13    0.94    1.68
   4   5 -13    0.72    1.07
   3   5 -13   -1.26    0.98
   2   5 -13   -0.13    0.82
  -2  -5  13    2.29    1.55
  -1  -5  13    1.69    1.37
   0  -5  13    0.04    1.18
   1  -5  13    0.53    1.20
   2  -5  13   -1.39    1.42
   3  -5  13    1.39    1.59
   3  -5  13   -3.15    1.51
   4   4 -13   -0.58    0.99
   3   4 -13   -0.49    0.89
   2   4 -13    0.33    0.83
  -2  -4  13   -1.16    1.46
  -1  -4  13   -0.72    1.38
   0  -4  13    0.02    1.10
   1  -4  13    2.45    1.45
   2  -4  13    0.29    1.60
   3  -4  13   -0.21    1.62
   3  -4  13    2.01    1.54
   4   3 -13    0.59    0.99
  -4  -3  13    2.02    1.64
   3   3 -13    0.76    0.85
  -3  -3  13    1.34    1.62
  -2  -3  13    2.50    1.57
  -1  -3  13    0.85    1.45
   0  -3  13    0.27    1.28
   1  -3  13    2.50    1.63
   2  -3  13   -1.90    1.66
   3  -3  13   -0.14    1.71
   4   2 -13    1.32    0.97
  -4  -2  13    0.68    1.74
   3   2 -13    0.21    0.89
  -3  -2  13    2.20    1.58
  -2  -2  13   -0.64    2.38
  -1  -2  13   -1.36    1.32
   0  -2  13    0.45    1.41
   1  -2  13    0.97    1.90
   2  -2  13   -4.08    2.67
   3  -2  13    3.59    2.10
  -4  -1  13    1.76    1.73
  -3  -1  13   -1.18    1.52
  -2  -1  13    1.41    1.61
   0  -1  13   -0.48    1.13
   1  -1  13    0.15    1.34
   1  -1  13   -1.12    2.05
   2  -1  13    1.58    2.32
   2  -1  13    0.11    1.34
  -3   0  13    0.17    1.64
  -2   0  13    0.61    1.47
  -1   0  13    0.07    1.43
   0   0  13    2.25    1.91
   1   0  13    1.71    2.23
   1   0  13    0.83    1.34
   2   0  13    0.86    2.09
  -2   1  13    2.83    1.50
  -1   1  13    0.78    1.82
   0   1  13   -0.23    2.19
  -1  -9  14    1.83    1.47
   0  -9  14   -0.15    1.28
   0  -9  14    2.63    2.15
  -1  -8  14   -1.68    1.80
  -1  -8  14   -0.14    1.38
   0  -8  14    0.19    1.32
   0  -8  14    2.44    3.09
   1  -8  14    0.86    1.32
   1  -8  14    1.13    1.86
  -1  -7  14    0.43    1.47
   0  -7  14    1.87    1.35
   1  -7  14   -1.67    1.59
   1  -7  14   -0.89    1.29
   2  -7  14    0.52    1.64
   2  -7  14    1.51    1.77
  -3  -6  14    1.58    1.65
  -2  -6  14    0.31    1.55
  -1  -6  14   -2.21    1.44
   0  -6  14    0.80    1.39
   1  -6  14    1.68    1.39
   2  -6  14   -1.05    1.56
   2  -6  14    1.56    1.72
  -3  -5  14   -1.32    1.75
  -2  -5  14   -1.10    1.58
  -1  -5  14   -0.23    1.62
   0  -5  14    1.28    1.41
   1  -5  14    1.32    1.54
   2  -5  14   -0.87    1.76
   2  -5  14    0.30    1.54
  -3  -4  14   -0.31    1.59
  -2  -4  14   -0.46    1.73
  -1  -4  14    0.64    1.72
   1  -4  14    0.97    2.80
   2  -4  14    1.91    2.53
  -3  -3  14    0.20    1.73
  -2  -3  14   -0.71    1.70
  -1  -3  14   -0.16    1.64
   0  -3  14   -1.47    1.62
   1  -3  14    0.53    1.97
  -2  -2  14   -1.05    1.60
  -1  -2  14   -0.97    1.50
   0  -2  14    3.23    1.87
   1  -2  14    5.08    2.40
  -1  -1  14   -1.00    1.55
   0   0   0    0.00    0.00
;
_shelx_hkl_checksum              85410
loop_
_space_group_symop_operation_xyz
'x, y, z'
'-x, -y, -z'
loop_
_atom_site_label
_atom_site_type_symbol
_atom_site_fract_x
_atom_site_fract_y
_atom_site_fract_z
_atom_site_U_iso_or_equiv
_atom_site_adp_type
_atom_site_occupancy
_atom_site_site_symmetry_order
_atom_site_calc_flag
_atom_site_refinement_flags_posn
_atom_site_refinement_flags_adp
_atom_site_refinement_flags_occupancy
_atom_site_disorder_assembly
_atom_site_disorder_group
C1 C 0.2130(7) 0.8782(6) 0.3543(5) 0.0555(16) Uani 1 1 d . . . . .
H1 H 0.1803 0.8973 0.2802 0.067 Uiso 1 1 calc R U . . .
C2 C 0.2345(8) 0.9767(6) 0.4741(6) 0.0636(18) Uani 1 1 d . . . . .
H2 H 0.2194 1.0637 0.4831 0.076 Uiso 1 1 calc R U . . .
C3 C 0.2785(8) 0.9468(7) 0.5806(6) 0.069(2) Uani 1 1 d . . . . .
H3 H 0.2930 1.0137 0.6640 0.083 Uiso 1 1 calc R U . . .
C4 C 0.3016(8) 0.8217(6) 0.5676(5) 0.0552(16) Uani 1 1 d . . . . .
H4 H 0.3318 0.8028 0.6422 0.066 Uiso 1 1 calc R U . . .
C5 C 0.2817(7) 0.7227(6) 0.4478(5) 0.0508(15) Uani 1 1 d . . . . .
H5 H 0.2977 0.6360 0.4395 0.061 Uiso 1 1 calc R U . . .
C6 C 0.2382(6) 0.7514(5) 0.3400(5) 0.0394(13) Uani 1 1 d . . . . .
C7 C 0.2025(7) 0.6468(6) 0.2092(5) 0.0453(14) Uani 1 1 d . . . . .
C8 C 0.3198(7) 0.5385(6) 0.1685(5) 0.0442(14) Uani 1 1 d . . . . .
C9 C 0.5065(7) 0.5265(6) 0.2054(5) 0.0445(14) Uani 1 1 d . . . . .
C10 C 0.5386(7) 0.3987(6) 0.1253(5) 0.0473(15) Uani 1 1 d . . . . .
C11 C 0.3669(8) 0.3367(6) 0.0397(5) 0.0482(15) Uani 1 1 d . . . . .
C12 C 0.3491(9) 0.2118(7) -0.0516(5) 0.070(2) Uani 1 1 d . . . . .
H12 H 0.2346 0.1743 -0.1093 0.084 Uiso 1 1 calc R U . . .
C13 C 0.5026(10) 0.1434(7) -0.0561(6) 0.074(2) Uani 1 1 d . . . . .
H13 H 0.4935 0.0556 -0.1155 0.089 Uiso 1 1 calc R U . . .
C14 C 0.6762(9) 0.2038(7) 0.0282(6) 0.074(2) Uani 1 1 d . . . . .
H14 H 0.7835 0.1565 0.0217 0.089 Uiso 1 1 calc R U . . .
C15 C 0.6913(8) 0.3255(6) 0.1164(5) 0.0615(17) Uani 1 1 d . . . . .
H15 H 0.8068 0.3623 0.1733 0.074 Uiso 1 1 calc R U . . .
C16 C 0.6568(7) 0.6274(5) 0.3026(5) 0.0438(14) Uani 1 1 d . . . . .
H16A H 0.7775 0.6360 0.2602 0.053 Uiso 1 1 calc R U . . .
H16B H 0.6084 0.7131 0.3301 0.053 Uiso 1 1 calc R U . . .
C17 C 0.7062(8) 0.5981(7) 0.4189(6) 0.0543(16) Uani 1 1 d . . . . .
C18 C 0.8148(9) 0.6865(6) 0.6416(5) 0.0675(19) Uani 1 1 d . . . . .
H18A H 0.9356 0.6459 0.6342 0.081 Uiso 1 1 calc R U . . .
H18B H 0.7094 0.6286 0.6600 0.081 Uiso 1 1 calc R U . . .
C19 C 0.8468(9) 0.8199(7) 0.7474(5) 0.085(2) Uani 1 1 d . . . . .
H19A H 0.9487 0.8769 0.7268 0.127 Uiso 1 1 calc R U . . .
H19B H 0.8873 0.8119 0.8291 0.127 Uiso 1 1 calc R U . . .
H19C H 0.7251 0.8579 0.7554 0.127 Uiso 1 1 calc R U . . .
N1 N 0.2393(6) 0.4283(5) 0.0682(4) 0.0529(13) Uani 1 1 d . . . . .
H1A H 0.1232 0.4170 0.0274 0.063 Uiso 1 1 calc R U . . .
O1 O 0.0642(5) 0.6463(4) 0.1352(4) 0.0641(12) Uani 1 1 d . . . . .
O2 O 0.7071(8) 0.4910(5) 0.4205(4) 0.0992(18) Uani 1 1 d . . . . .
O3 O 0.7609(5) 0.7048(4) 0.5229(4) 0.0578(11) Uani 1 1 d . . . . .
loop_
_atom_site_aniso_label
_atom_site_aniso_U_11
_atom_site_aniso_U_22
_atom_site_aniso_U_33
_atom_site_aniso_U_23
_atom_site_aniso_U_13
_atom_site_aniso_U_12
C1 0.055(3) 0.070(5) 0.046(4) 0.024(3) 0.004(3) 0.019(3)
C2 0.062(4) 0.063(5) 0.067(5) 0.022(4) 0.010(3) 0.022(3)
C3 0.060(4) 0.089(6) 0.043(4) 0.003(4) 0.013(3) 0.019(4)
C4 0.059(4) 0.059(5) 0.041(3) 0.011(3) -0.001(3) 0.012(3)
C5 0.048(3) 0.062(4) 0.048(4) 0.026(3) 0.003(3) 0.013(3)
C6 0.037(3) 0.051(4) 0.037(3) 0.020(3) 0.005(2) 0.017(3)
C7 0.037(3) 0.062(4) 0.043(3) 0.026(3) 0.006(3) 0.006(3)
C8 0.037(3) 0.065(4) 0.034(3) 0.020(3) 0.004(2) 0.010(3)
C9 0.044(3) 0.062(4) 0.033(3) 0.022(3) 0.007(2) 0.011(3)
C10 0.043(3) 0.071(5) 0.040(3) 0.029(3) 0.018(3) 0.021(3)
C11 0.059(3) 0.045(4) 0.038(3) 0.010(3) 0.012(3) 0.012(3)
C12 0.073(4) 0.101(6) 0.038(3) 0.024(4) 0.008(3) 0.023(4)
C13 0.107(5) 0.071(5) 0.049(4) 0.015(3) 0.025(4) 0.041(4)
C14 0.073(4) 0.096(6) 0.057(4) 0.019(4) 0.012(4) 0.047(4)
C15 0.061(4) 0.075(5) 0.049(4) 0.016(3) 0.009(3) 0.028(3)
C16 0.042(3) 0.050(4) 0.045(3) 0.022(3) 0.002(2) 0.013(3)
C17 0.052(3) 0.072(5) 0.054(4) 0.039(4) -0.001(3) 0.016(3)
C18 0.072(4) 0.091(6) 0.040(4) 0.032(4) -0.012(3) -0.001(4)
C19 0.091(5) 0.106(7) 0.044(4) 0.020(4) 0.002(4) -0.008(4)
N1 0.045(3) 0.070(4) 0.039(3) 0.015(3) -0.004(2) 0.013(3)
O1 0.048(2) 0.087(3) 0.052(2) 0.015(2) -0.0103(19) 0.025(2)
O2 0.166(5) 0.078(4) 0.058(3) 0.033(3) -0.028(3) 0.018(4)
O3 0.064(2) 0.069(3) 0.042(2) 0.023(2) -0.0030(19) 0.009(2)
loop_
_atom_type_symbol
_atom_type_description
_atom_type_scat_dispersion_real
_atom_type_scat_dispersion_imag
_atom_type_scat_source
C C 0.0033 0.0016 'International Tables Vol C Tables 4.2.6.8 and 6.1.1.4'
H H 0.0000 0.0000 'International Tables Vol C Tables 4.2.6.8 and 6.1.1.4'
N N 0.0061 0.0033 'International Tables Vol C Tables 4.2.6.8 and 6.1.1.4'
O O 0.0106 0.0060 'International Tables Vol C Tables 4.2.6.8 and 6.1.1.4'
loop_
_geom_angle_atom_site_label_1
_geom_angle_atom_site_label_2
_geom_angle_atom_site_label_3
_geom_angle
_geom_angle_site_symmetry_1
_geom_angle_site_symmetry_3
_geom_angle_publ_flag
C2 C1 C6 121.0(5) . . ?
C2 C1 H1 119.5 . . ?
C6 C1 H1 119.5 . . ?
C1 C2 C3 118.7(6) . . ?
C1 C2 H2 120.6 . . ?
C3 C2 H2 120.6 . . ?
C4 C3 C2 120.7(6) . . ?
C4 C3 H3 119.7 . . ?
C2 C3 H3 119.7 . . ?
C3 C4 C5 120.9(6) . . ?
C3 C4 H4 119.5 . . ?
C5 C4 H4 119.5 . . ?
C4 C5 C6 119.0(6) . . ?
C4 C5 H5 120.5 . . ?
C6 C5 H5 120.5 . . ?
C5 C6 C1 119.6(5) . . ?
C5 C6 C7 121.3(5) . . ?
C1 C6 C7 118.9(5) . . ?
O1 C7 C8 119.0(5) . . ?
O1 C7 C6 119.3(5) . . ?
C8 C7 C6 121.6(4) . . ?
N1 C8 C9 110.1(5) . . ?
N1 C8 C7 116.6(4) . . ?
C9 C8 C7 133.2(5) . . ?
C8 C9 C10 106.1(5) . . ?
C8 C9 C16 128.8(5) . . ?
C10 C9 C16 124.9(4) . . ?
C15 C10 C11 117.1(5) . . ?
C15 C10 C9 134.8(5) . . ?
C11 C10 C9 108.0(4) . . ?
C12 C11 N1 131.1(5) . . ?
C12 C11 C10 123.2(5) . . ?
N1 C11 C10 105.7(5) . . ?
C13 C12 C11 117.6(6) . . ?
C13 C12 H12 121.2 . . ?
C11 C12 H12 121.2 . . ?
C12 C13 C14 120.1(6) . . ?
C12 C13 H13 119.9 . . ?
C14 C13 H13 119.9 . . ?
C15 C14 C13 121.5(6) . . ?
C15 C14 H14 119.3 . . ?
C13 C14 H14 119.3 . . ?
C14 C15 C10 120.5(6) . . ?
C14 C15 H15 119.8 . . ?
C10 C15 H15 119.8 . . ?
C17 C16 C9 114.6(5) . . ?
C17 C16 H16A 108.6 . . ?
C9 C16 H16A 108.6 . . ?
C17 C16 H16B 108.6 . . ?
C9 C16 H16B 108.6 . . ?
H16A C16 H16B 107.6 . . ?
O2 C17 O3 121.9(5) . . ?
O2 C17 C16 125.0(6) . . ?
O3 C17 C16 113.0(6) . . ?
O3 C18 C19 107.0(5) . . ?
O3 C18 H18A 110.3 . . ?
C19 C18 H18A 110.3 . . ?
O3 C18 H18B 110.3 . . ?
C19 C18 H18B 110.3 . . ?
H18A C18 H18B 108.6 . . ?
C18 C19 H19A 109.5 . . ?
C18 C19 H19B 109.5 . . ?
H19A C19 H19B 109.5 . . ?
C18 C19 H19C 109.5 . . ?
H19A C19 H19C 109.5 . . ?
H19B C19 H19C 109.5 . . ?
C8 N1 C11 110.0(4) . . ?
C8 N1 H1A 125.0 . . ?
C11 N1 H1A 125.0 . . ?
C17 O3 C18 117.2(5) . . ?
loop_
_geom_bond_atom_site_label_1
_geom_bond_atom_site_label_2
_geom_bond_distance
_geom_bond_site_symmetry_2
_geom_bond_publ_flag
C1 C2 1.375(8) . ?
C1 C6 1.387(7) . ?
C1 H1 0.9500 . ?
C2 C3 1.376(8) . ?
C2 H2 0.9500 . ?
C3 C4 1.367(8) . ?
C3 H3 0.9500 . ?
C4 C5 1.378(7) . ?
C4 H4 0.9500 . ?
C5 C6 1.381(6) . ?
C5 H5 0.9500 . ?
C6 C7 1.488(7) . ?
C7 O1 1.237(5) . ?
C7 C8 1.476(7) . ?
C8 N1 1.359(6) . ?
C8 C9 1.378(6) . ?
C9 C10 1.425(8) . ?
C9 C16 1.503(7) . ?
C10 C15 1.394(7) . ?
C10 C11 1.426(7) . ?
C11 C12 1.376(8) . ?
C11 N1 1.386(6) . ?
C12 C13 1.371(8) . ?
C12 H12 0.9500 . ?
C13 C14 1.427(8) . ?
C13 H13 0.9500 . ?
C14 C15 1.340(8) . ?
C14 H14 0.9500 . ?
C15 H15 0.9500 . ?
C16 C17 1.484(7) . ?
C16 H16A 0.9900 . ?
C16 H16B 0.9900 . ?
C17 O2 1.191(7) . ?
C17 O3 1.323(7) . ?
C18 O3 1.451(6) . ?
C18 C19 1.505(8) . ?
C18 H18A 0.9900 . ?
C18 H18B 0.9900 . ?
C19 H19A 0.9800 . ?
C19 H19B 0.9800 . ?
C19 H19C 0.9800 . ?
N1 H1A 0.8800 . ?
