#------------------------------------------------------------------------------
#$Date: 2020-10-04 06:40:14 +0300 (Sun, 04 Oct 2020) $
#$Revision: 257149 $
#$URL: file:///home/coder/svn-repositories/cod/cif/4/03/87/4038792.cif $
#------------------------------------------------------------------------------
#
# This file is available in the Crystallography Open Database (COD),
# http://www.crystallography.net/
#
# All data on this site have been placed in the public domain by the
# contributors.
#
data_4038792
loop_
_publ_author_name
'Wang, Jian'
'Li, Jiang-Hua'
'Guo, Yidong'
'Dong, Hongbo'
'Liu, Qiang'
'Yu, Xiao-Qi'
_publ_section_title
;
 TEMPO-Mediated C-H Amination of Benzoxazoles with N-Heterocycles.
;
_journal_issue                   19
_journal_name_full               'The Journal of organic chemistry'
_journal_page_first              12797
_journal_page_last               12803
_journal_paper_doi               10.1021/acs.joc.0c01921
_journal_volume                  85
_journal_year                    2020
_chemical_formula_moiety         'C11 H9 N3 O'
_chemical_formula_sum            'C11 H9 N3 O'
_chemical_formula_weight         199.21
_space_group_crystal_system      triclinic
_space_group_IT_number           2
_space_group_name_Hall           '-P 1'
_space_group_name_H-M_alt        'P -1'
_atom_sites_solution_hydrogens   geom
_atom_sites_solution_primary     direct
_audit_creation_date             2019-11-06
_audit_creation_method
;
Olex2 1.2
(compiled 2018.05.29 svn.r3508 for OlexSys, GUI svn.r5506)
;
_cell_angle_alpha                86.895(7)
_cell_angle_beta                 81.037(8)
_cell_angle_gamma                71.308(8)
_cell_formula_units_Z            2
_cell_length_a                   7.0730(7)
_cell_length_b                   8.1167(7)
_cell_length_c                   8.7016(9)
_cell_measurement_reflns_used    2252
_cell_measurement_temperature    150.01(10)
_cell_measurement_theta_max      71.6970
_cell_measurement_theta_min      6.6900
_cell_volume                     467.42(8)
_computing_cell_refinement       'CrysAlisPro 1.171.39.46e (Rigaku OD, 2018)'
_computing_data_collection       'CrysAlisPro 1.171.39.46e (Rigaku OD, 2018)'
_computing_data_reduction        'CrysAlisPro 1.171.39.46e (Rigaku OD, 2018)'
_computing_molecular_graphics    'Olex2 (Dolomanov et al., 2009)'
_computing_publication_material  'Olex2 (Dolomanov et al., 2009)'
_computing_structure_refinement  'ShelXL (Sheldrick, 2015)'
_computing_structure_solution    'ShelXT (Sheldrick, 2015)'
_diffrn_ambient_environment      N~2~
_diffrn_ambient_temperature      150.01(10)
_diffrn_detector                 'CCD plate'
_diffrn_detector_area_resol_mean 15.9595
_diffrn_detector_type            EosS2
_diffrn_measured_fraction_theta_full 0.997
_diffrn_measured_fraction_theta_max 0.979
_diffrn_measurement_details
;
List of Runs (angles in degrees, time in seconds):

  # Type    Start    End  Width  t~exp~   \w     \q     \k     \f   Frames
--------------------------------------------------------------------------
  1  \w    -63.00  32.00   1.00    1.00    --  -36.04  77.00  60.00   95
  2  \w   -104.00  -9.00   1.00    1.00    --  -36.04 -77.00 -60.00   95
  3  \w    -35.00  65.00   1.00    1.00    --   36.04 -19.00 120.00  100
  4  \w      1.00  75.00   1.00    1.00    --   36.04 -99.00 120.00   74
  5  \w     23.00  89.00   1.00    1.00    --   36.04-125.00 -90.00   66
  6  \w    100.00 176.00   1.00    1.00    --  106.21 111.00   0.00   76
  7  \w     35.00 145.00   1.00    1.00    --  106.21 -15.00  90.00  110
  8  \w     37.00 109.00   1.00    1.00    --  106.21 -94.00  30.00   72
  9  \w     38.00 124.00   1.00    1.00    --  106.21 -45.00  90.00   86
 10  \w    100.00 176.00   1.00    1.00    --  106.21 111.00  30.00   76
 11  \w     39.00 133.00   1.00    1.00    --  106.21 -77.00 -30.00   94
 12  \w     39.00 133.00   1.00    1.00    --  106.21 -77.00-180.00   94
 13  \w     37.00 109.00   1.00    1.00    --  106.21 -94.00 120.00   72
 14  \w     89.00 175.00   1.00    1.00    --  106.21  45.00 -90.00   86
 15  \w     36.00 128.00   1.00    1.00    --  106.21 -30.00-120.00   92
 16  \w     37.00 119.00   1.00    1.00    --  106.21-128.00 -27.00   82
 17  \w     36.00 128.00   1.00    1.00    --  106.21 -30.00 -30.00   92
 18  \w   -104.00  -9.00   1.00    1.00    --  -36.04 -77.00 150.00   95
 19  \w   -103.00 -19.00   1.00    1.00    --  -36.04 -57.00-180.00   84
;
_diffrn_measurement_device       'four-circle diffractometer'
_diffrn_measurement_device_type  'New Gemini, Dual, Cu at home/near, EosS2'
_diffrn_measurement_method       '\w scans'
_diffrn_orient_matrix_type
'CrysAlisPro convention (1999,Acta A55,543-557)'
_diffrn_orient_matrix_UB_11      0.0040264000
_diffrn_orient_matrix_UB_12      0.0035576000
_diffrn_orient_matrix_UB_13      0.1762747000
_diffrn_orient_matrix_UB_21      -0.1696766000
_diffrn_orient_matrix_UB_22      -0.0835200000
_diffrn_orient_matrix_UB_23      0.0309087000
_diffrn_orient_matrix_UB_31      0.1588139000
_diffrn_orient_matrix_UB_32      -0.1820997000
_diffrn_orient_matrix_UB_33      -0.0098407000
_diffrn_radiation_monochromator  graphite
_diffrn_radiation_probe          x-ray
_diffrn_radiation_type           CuK\a
_diffrn_radiation_wavelength     1.54184
_diffrn_reflns_av_R_equivalents  0.0265
_diffrn_reflns_av_unetI/netI     0.0261
_diffrn_reflns_Laue_measured_fraction_full 0.997
_diffrn_reflns_Laue_measured_fraction_max 0.979
_diffrn_reflns_limit_h_max       8
_diffrn_reflns_limit_h_min       -8
_diffrn_reflns_limit_k_max       8
_diffrn_reflns_limit_k_min       -9
_diffrn_reflns_limit_l_max       10
_diffrn_reflns_limit_l_min       -10
_diffrn_reflns_number            3582
_diffrn_reflns_point_group_measured_fraction_full 0.997
_diffrn_reflns_point_group_measured_fraction_max 0.979
_diffrn_reflns_theta_full        67.684
_diffrn_reflns_theta_max         71.498
_diffrn_reflns_theta_min         5.755
_diffrn_source                   'fine-focus sealed X-ray tube'
_diffrn_source_type              'Enhance (Cu) X-ray Source'
_exptl_absorpt_coefficient_mu    0.778
_exptl_absorpt_correction_T_max  1.00000
_exptl_absorpt_correction_T_min  0.88026
_exptl_absorpt_correction_type   multi-scan
_exptl_absorpt_process_details
;
CrysAlisPro 1.171.39.46e (Rigaku Oxford Diffraction, 2018)
Empirical absorption correction using spherical harmonics,
 implemented in SCALE3 ABSPACK scaling algorithm.
;
_exptl_crystal_colour            'clear light colourless'
_exptl_crystal_colour_lustre     clear
_exptl_crystal_colour_modifier   light
_exptl_crystal_colour_primary    colourless
_exptl_crystal_density_diffrn    1.415
_exptl_crystal_description       block
_exptl_crystal_F_000             208
_exptl_crystal_size_max          0.7
_exptl_crystal_size_mid          0.5
_exptl_crystal_size_min          0.5
_refine_diff_density_max         0.321
_refine_diff_density_min         -0.448
_refine_diff_density_rms         0.097
_refine_ls_extinction_method     none
_refine_ls_goodness_of_fit_ref   1.082
_refine_ls_hydrogen_treatment    constr
_refine_ls_matrix_type           full
_refine_ls_number_parameters     137
_refine_ls_number_reflns         1777
_refine_ls_number_restraints     0
_refine_ls_restrained_S_all      1.082
_refine_ls_R_factor_all          0.0607
_refine_ls_R_factor_gt           0.0594
_refine_ls_shift/su_max          0.000
_refine_ls_shift/su_mean         0.000
_refine_ls_structure_factor_coef Fsqd
_refine_ls_weighting_details
'w=1/[\s^2^(Fo^2^)+(0.1027P)^2^+0.1612P] where P=(Fo^2^+2Fc^2^)/3'
_refine_ls_weighting_scheme      calc
_refine_ls_wR_factor_gt          0.1536
_refine_ls_wR_factor_ref         0.1553
_reflns_Friedel_coverage         0.000
_reflns_number_gt                1692
_reflns_number_total             1777
_reflns_threshold_expression     'I > 2\s(I)'
_cod_data_source_file            jo0c01921_si_002.cif
_cod_data_source_block           wj-wj-wj0143-150k
_cod_depositor_comments          'Adding full bibliography for 4038792.cif.'
_cod_database_code               4038792
_shelx_shelxl_version_number     2014/7
_shelx_space_group_comment
;
The symmetry employed for this shelxl refinement is uniquely defined
by the following loop, which should always be used as a source of
symmetry information in preference to the above space-group names.
They are only intended as comments.
;
_reflns_odcompleteness_completeness 99.94
_reflns_odcompleteness_iscentric 1
_reflns_odcompleteness_theta     66.97
_olex2_refinement_description
;
1. Fixed Uiso
 At 1.2 times of:
  All C(H) groups
 At 1.5 times of:
  All C(H,H,H) groups
2.a Aromatic/amide H refined with riding coordinates:
 C008(H008), C00A(H00D), C00C(H00E), C00D(H00F), C00E(H00G), C00F(H00H)
2.b Idealised Me refined as rotating group:
 C005(H00A,H00B,H00C)
;
_shelx_res_file
;
    wj-wj-wj0143-150k.res created by SHELXL-2014/7

TITL wj-wj-wj0143-150k_a.res in P-1
REM Old TITL wj-wj-wj0143-150k in P-1 #2
REM SHELXT solution in P-1
REM R1 0.160, Rweak 0.011, Alpha 0.098, Orientation as input
REM Formula found by SHELXT: C11 N3 O
CELL 1.54184 7.072998 8.116732 8.701579 86.8954 81.0371 71.3082
ZERR 2 0.000662 0.000658 0.000891 0.0074 0.0082 0.0078
LATT 1
SFAC C H N O
UNIT 22 18 6 2

L.S. 10
PLAN  20
BOND $H
LIST 6
fmap 2
acta
OMIT 1 -1 2
OMIT 1 1 1
OMIT 0 -2 1
OMIT 0 0 1
REM <olex2.extras>
REM <HklSrc "%.\\wj-wj-wj0143-150k.hkl">
REM </olex2.extras>

WGHT    0.102700    0.161200
FVAR       2.01173
O001  4    0.661678    0.663827    0.497171    11.00000    0.02308    0.02070 =
         0.02090   -0.00412    0.00041   -0.00871
N002  3    0.991892    0.556271    0.280157    11.00000    0.02416    0.01986 =
         0.02028   -0.00328   -0.00259   -0.00737
N003  3    0.965943    0.692661    0.376593    11.00000    0.02317    0.01981 =
         0.01951   -0.00327   -0.00106   -0.00825
N004  3    0.759796    0.879020    0.579331    11.00000    0.02315    0.02057 =
         0.02108   -0.00255   -0.00059   -0.00808
C005  1    1.241776    0.412190    0.060599    11.00000    0.02798    0.02996 =
         0.02347   -0.00452   -0.00008   -0.00756
AFIX 137
H00A  2    1.167448    0.330797    0.074440    11.00000   -1.50000
H00B  2    1.381609    0.351761    0.065855    11.00000   -1.50000
H00C  2    1.228387    0.468035   -0.039037    11.00000   -1.50000
AFIX   0
C006  1    1.160570    0.546159    0.186093    11.00000    0.02274    0.02246 =
         0.01877   -0.00032   -0.00214   -0.00528
C007  1    0.573165    0.884832    0.664491    11.00000    0.02416    0.01840 =
         0.02088   -0.00014   -0.00465   -0.00697
C008  1    0.337965    0.718005    0.675653    11.00000    0.02671    0.02409 =
         0.02657   -0.00197   -0.00282   -0.01094
AFIX  43
H008  2    0.302767    0.627094    0.640660    11.00000   -1.20000
AFIX   0
C009  1    0.798617    0.750127    0.486854    11.00000    0.02180    0.01931 =
         0.01971    0.00136   -0.00335   -0.00686
C00A  1    0.450495    0.994683    0.782839    11.00000    0.03322    0.02209 =
         0.02676   -0.00557   -0.00198   -0.01009
AFIX  43
H00D  2    0.486868    1.084591    0.818521    11.00000   -1.20000
AFIX   0
C00B  1    0.513494    0.751515    0.614511    11.00000    0.02372    0.01883 =
         0.01790   -0.00160   -0.00291   -0.00551
C00C  1    1.116297    0.766111    0.341729    11.00000    0.02656    0.02402 =
         0.03053   -0.00212   -0.00158   -0.01280
AFIX  43
H00E  2    1.128910    0.860103    0.391016    11.00000   -1.20000
AFIX   0
C00D  1    0.217055    0.829419    0.793256    11.00000    0.02568    0.03234 =
         0.03076   -0.00109    0.00293   -0.01041
AFIX  43
H00F  2    0.096117    0.813299    0.838471    11.00000   -1.20000
AFIX   0
C00E  1    1.243359    0.674049    0.220640    11.00000    0.02550    0.02958 =
         0.03101   -0.00206    0.00334   -0.01350
AFIX  43
H00G  2    1.361430    0.691658    0.170408    11.00000   -1.20000
AFIX   0
C00F  1    0.271705    0.964734    0.845508    11.00000    0.03198    0.02639 =
         0.02809   -0.00699    0.00399   -0.00474
AFIX  43
H00H  2    0.186182    1.036680    0.924317    11.00000   -1.20000
AFIX   0
HKLF 4

REM  wj-wj-wj0143-150k_a.res in P-1
REM R1 =  0.0594 for    1692 Fo > 4sig(Fo)  and  0.0607 for all    1777 data
REM    137 parameters refined using      0 restraints

END

WGHT      0.1020      0.1616

REM Highest difference peak  0.321,  deepest hole -0.448,  1-sigma level  0.097
Q1    1   0.2506  0.8624  0.8964  11.00000  0.05    0.32
Q2    1   0.1850  0.9524  0.7841  11.00000  0.05    0.32
Q3    1   1.4946  0.5162  0.1391  11.00000  0.05    0.31
Q4    1   0.0613  0.9995  1.0757  11.00000  0.05    0.31
Q5    1   1.5884  0.4261  0.0140  11.00000  0.05    0.30
Q6    1   1.5218  0.4776  0.0846  11.00000  0.05    0.29
Q7    1   1.3188  0.5418 -0.0083  11.00000  0.05    0.28
Q8    1   0.2465  0.9789  0.9853  11.00000  0.05    0.27
Q9    1   0.4667  0.8722  0.6080  11.00000  0.05    0.27
Q10   1   0.8218  0.7576  0.5839  11.00000  0.05    0.26
Q11   1   0.1352  0.7498  0.8712  11.00000  0.05    0.25
Q12   1   1.2813  0.5560  0.2333  11.00000  0.05    0.25
Q13   1   0.0885  0.9662  0.8429  11.00000  0.05    0.25
Q14   1   1.1925  0.6440  0.1392  11.00000  0.05    0.25
Q15   1   0.5681  0.7822  0.7009  11.00000  0.05    0.25
Q16   1   0.4817  1.0016  0.6729  11.00000  0.05    0.24
Q17   1   0.6835  0.5419  0.4933  11.00000  0.05    0.24
Q18   1   0.0230  0.8669  0.8145  11.00000  0.05    0.24
Q19   1   0.6556  0.6490  0.3658  11.00000  0.05    0.24
Q20   1   1.1346  0.8063  0.4674  11.00000  0.05    0.24
;
_shelx_res_checksum              69125
_shelx_hkl_file
;
   0   0   1 1900.64    5.31
   0   0   1 1920.50    6.85
   0   0   2 1497.36    7.09
   0   0   2 1454.22    8.67
   0   0   3  171.22    3.01
   0   0   3  171.12    3.61
   0   0  -3  177.36    3.99
   0   0   3  167.04    2.79
   0   0   4    2.92    0.52
   0   0   4    3.21    0.64
   0   0   5  178.33    5.13
   0   0  -5  171.65    5.54
   0   0  -6  565.65   11.48
   0   0   6  589.30   10.92
   0   0  -7 1096.22   17.69
   0   0   7 1066.10   17.58
   0   0   8    0.79    0.63
   0   0  -8    0.35    0.66
   0   0   9  117.70    5.26
   0   0  -9   95.67    4.83
   0   0 -10   88.95    3.93
   0  -1  10   23.86    1.90
   0   1 -10   23.85    1.96
   0  -1   9   28.19    2.61
   0   1  -9   29.52    2.76
   0  -1   8   28.47    2.84
   0   1  -8   25.89    2.79
   0   1  -7   74.24    4.70
   0  -1   7   81.11    4.84
   0   1  -6    4.52    1.15
   0  -1   6    3.73    1.02
   0   1  -5  521.87    9.64
   0  -1   5  508.32    9.09
   0  -1   4  368.20    6.32
   0   1  -4  369.26    6.84
   0  -1   4  371.34    6.29
   0   1  -3   92.10    2.88
   0  -1   3   94.97    2.62
   0  -1   2  248.20    3.39
   0   1  -2  266.25    3.89
   0  -1   1   13.22    0.76
   0   1  -1   13.38    0.64
   0   1   0  143.75    1.20
   0   1   0  149.78    1.86
   0  -1  -1  373.91    3.46
   0   1   1  339.17    3.34
   0  -1  -1  360.98    3.69
   0   1   1  345.59    3.74
   0  -1  -2  203.56    3.26
   0   1   2  199.38    3.48
   0   1   3 1329.26   10.65
   0  -1  -3 1326.17    9.46
   0   1   3 1329.99   10.20
   0  -1  -3 1313.04   11.21
   0  -1  -4 1149.45   12.45
   0   1   4 1169.41   10.60
   0   1   4 1168.02   11.37
   0   1   5  610.79    9.65
   0  -1  -5  601.59   10.54
   0  -1  -6    5.58    1.22
   0   1   6    6.55    1.21
   0  -1  -7   29.90    3.02
   0  -1  -7   26.53    2.75
   0  -1  -8   89.41    5.04
   0  -1  -8   82.32    4.73
   0  -1  -9  945.17   14.84
   0  -1 -10  244.75    6.44
   0  -2  10   12.01    1.32
   0   2  -9   24.50    2.39
   0  -2   9   25.05    2.35
   0   2  -8  276.62    8.94
   0  -2   8  288.54    8.58
   0  -2   7  368.39   10.06
   0   2  -7  444.30   11.42
   0  -2   6   96.89    5.04
   0  -2   5    2.46    0.69
   0   2  -5    3.18    0.83
   0   2  -4  594.52    9.17
   0  -2   4  606.60    9.50
   0  -2   3 1178.10    9.18
   0  -2   3 1226.04   12.27
   0   2  -2 2575.43   12.64
   0  -2   2 2628.28   15.38
   0  -2   1 7197.26   20.59
   0  -2   1 7162.19   21.95
   0   2   0 1514.67    5.63
   0  -2   0 1527.58    9.41
   0   2   1  189.30    2.87
   0  -2  -1  179.06    2.99
   0   2   1  174.49    3.44
   0  -2  -1  164.23    2.89
   0   2   2   64.80    2.13
   0   2   2   70.04    2.38
   0  -2  -2   71.97    2.19
   0  -2  -2   70.56    2.42
   0  -2  -3   87.40    2.92
   0  -2  -3   91.14    2.91
   0  -2  -3   92.40    3.28
   0   2   3   91.10    3.03
   0   2   4 2399.22   17.66
   0   2   4 2402.59   16.41
   0  -2  -5  134.57    5.30
   0   2   5  139.54    4.76
   0   2   6  360.23    8.99
   0  -2  -6  376.90   10.17
   0  -2  -7  665.26   14.22
   0  -2  -7  650.16   13.60
   0  -2  -8  345.14    9.92
   0  -2  -8  335.30    9.54
   0  -2  -9    6.06    1.20
   0  -2  -9    3.41    0.99
   0  -2 -10   60.95    3.11
   0  -3   9    7.69    1.31
   0  -3   9    7.18    1.25
   0  -3   8   34.88    2.96
   0  -3   7  104.78    5.38
   0  -3   6  162.67    6.70
   0  -3   5   56.95    3.57
   0  -3   4  126.27    4.87
   0  -3   3  207.63    5.71
   0  -3   2   41.08    2.03
   0  -3   2   47.27    2.66
   0  -3   1   53.72    2.51
   0  -3   1   50.59    2.20
   0   3   0 1094.94    9.02
   0  -3   0 1112.96   10.67
   0  -3   0 1086.01    9.81
   0   3   1  123.27    2.73
   0  -3  -1  146.12    3.58
   0  -3  -1  128.91    3.62
   0   3   1  136.22    3.59
   0  -3  -1  151.90    3.71
   0   3   2  509.27    6.96
   0   3   2  506.47    7.45
   0  -3  -2  495.14    7.59
   0   3   3 2414.35   16.74
   0   3   3 2390.28   17.33
   0  -3  -4   81.18    3.93
   0   3   4   76.86    3.50
   0  -3  -4   78.20    3.44
   0   3   4   74.41    3.29
   0   3   5   54.51    3.39
   0  -3  -5   57.24    3.80
   0   3   5   53.62    3.19
   0  -3  -6   33.18    3.16
   0  -3  -6   32.43    3.08
   0  -3  -7  679.06   14.09
   0  -3  -7  669.67   14.00
   0  -3  -8  725.53   13.55
   0  -3  -8  589.02   12.63
   0  -3  -9  143.34    5.43
   0  -3  -9  148.50    5.39
   0  -4   9   62.85    3.21
   0  -4   9   58.88    2.96
   0  -4   8  297.10    8.24
   0  -4   8  289.59    8.07
   0  -4   7   42.50    3.40
   0  -4   6   85.14    5.14
   0  -4   5   65.91    4.02
   0  -4   5   76.50    4.73
   0  -4   4   28.29    2.62
   0  -4   3  161.65    5.60
   0  -4   2  570.36    9.40
   0  -4   2  569.78    9.88
   0  -4   1   91.02    3.78
   0  -4   1   85.15    3.46
   0  -4   0  209.25    5.56
   0  -4   0  201.17    5.33
   0  -4  -1   84.73    3.50
   0   4   1   80.20    3.02
   0  -4  -1   94.79    3.63
   0  -4  -1   98.52    3.77
   0  -4  -2  325.90    7.37
   0  -4  -2  353.63    7.49
   0   4   3  207.55    5.63
   0   4   3  206.53    5.67
   0  -4  -4  239.97    7.04
   0   4   4  239.61    6.98
   0   4   4  237.36    6.64
   0   4   5  124.85    5.64
   0  -4  -5  150.54    6.61
   0  -4  -6 1141.21   20.43
   0  -4  -6 1132.00   18.21
   0  -4  -7  221.27    7.80
   0  -4  -7  169.63    7.46
   0  -4  -8    3.21    1.04
   0  -4  -8    1.91    0.87
   0  -4  -9    1.58    0.61
   0  -4  -9    0.34    0.45
   0  -5   8    1.12    0.62
   0  -5   8    0.86    0.53
   0  -5   7  123.46    5.56
   0  -5   7  121.92    5.36
   0  -5   7  126.13    5.88
   0  -5   6    1.18    0.71
   0  -5   6    0.61    0.61
   0  -5   6    0.59    0.62
   0  -5   5   21.18    2.48
   0  -5   5   20.37    2.31
   0  -5   5   21.69    2.56
   0  -5   4   91.23    5.01
   0  -5   4   95.93    5.30
   0  -5   4   90.94    4.68
   0  -5   3    3.58    1.02
   0  -5   2    5.24    1.12
   0  -5   2    6.17    1.24
   0  -5   1  383.63    8.88
   0  -5   1  384.92    9.18
   0  -5   0  207.26    6.95
   0  -5   0  275.34    7.45
   0  -5  -1 1737.85   18.91
   0   5   1 1747.56   17.43
   0   5   2  158.18    5.56
   0  -5  -2  173.72    6.28
   0  -5  -3  361.41    9.33
   0   5   3  389.32    9.23
   0  -5  -4  145.86    6.32
   0  -5  -4  153.92    6.79
   0  -5  -5   59.62    4.11
   0  -5  -5   64.00    4.44
   0  -5  -6  196.18    7.56
   0  -5  -7   83.01    4.56
   0  -5  -8   76.20    3.83
   0  -5  -9   72.14    2.92
   0  -6   7  110.23    4.66
   0  -6   7  114.73    4.63
   0  -6   6   20.41    2.30
   0  -6   6   24.76    2.48
   0  -6   6   21.32    2.13
   0  -6   5  158.24    6.10
   0  -6   5  159.09    6.61
   0  -6   5  163.02    7.05
   0  -6   4    3.47    1.13
   0  -6   4    3.23    0.98
   0  -6   3  945.10   14.68
   0  -6   3 1015.20   16.66
   0  -6   2  140.97    6.15
   0  -6   2  135.22    5.73
   0  -6   1  208.51    7.71
   0  -6   1  208.57    7.23
   0  -6   1  206.73    6.87
   0  -6   1  192.94    7.53
   0  -6   1  206.64    6.71
   0  -6   0    0.77    0.63
   0  -6   0    0.83    0.71
   0  -6   0    1.79    0.82
   0  -6   0    0.83    0.59
   0  -6   0   -0.03    0.46
   0  -6  -1   31.98    2.67
   0  -6  -1   30.88    2.82
   0  -6  -1   32.55    2.74
   0  -6  -1   30.33    2.58
   0  -6  -2  710.68   13.47
   0  -6  -2  750.56   12.93
   0  -6  -2  748.51   12.67
   0  -6  -3  262.77    8.33
   0  -6  -3  223.12    7.09
   0  -6  -4  497.96   13.33
   0  -6  -4  632.25   13.20
   0  -6  -5  116.83    5.58
   0  -6  -5  127.69    6.20
   0  -6  -6   30.62    2.64
   0  -6  -6   28.56    2.70
   0  -6  -7   15.70    1.79
   0  -6  -7   16.61    1.90
   0  -6  -8   19.48    1.66
   0  -6  -8   18.99    1.64
   0  -7   6  183.19    5.02
   0  -7   6  199.55    5.75
   0  -7   5   22.90    2.28
   0  -7   5   21.36    2.03
   0  -7   4   16.30    2.02
   0  -7   4   19.38    2.08
   0  -7   3    0.13    0.60
   0  -7   3    0.10    0.60
   0  -7   2   14.07    1.95
   0  -7   2   12.55    1.71
   0  -7   1  195.45    6.55
   0  -7   1  194.70    6.88
   0  -7   0  472.67   11.58
   0  -7   0  459.50   10.34
   0  -7  -1  263.41    7.62
   0  -7  -1  270.73    8.42
   0  -7  -2  895.90   13.95
   0  -7  -2  856.98   14.85
   0  -7  -3  244.39    7.87
   0  -7  -3  256.13    7.46
   0  -7  -4    1.49    0.77
   0  -7  -5  130.03    5.34
   0  -7  -5   80.45    4.59
   0  -7  -6   20.02    1.79
   0  -7  -6   21.92    2.14
   0  -8   5    0.40    0.28
   0  -8   5    1.66    0.53
   0  -8   4   42.41    2.66
   0  -8   4   43.31    2.56
   0  -8   3    0.77    0.54
   0  -8   3    0.90    0.54
   0  -8   2  303.29    7.84
   0  -8   2  293.56    7.32
   0  -8   1   20.69    2.10
   0  -8   1   21.64    2.05
   0  -8   0    6.35    1.21
   0  -8   0    7.89    1.49
   0  -8   0    5.97    1.20
   0  -8  -1  845.14   12.82
   0  -8  -1  812.87   13.61
   0  -8  -2    0.09    0.65
   0  -8  -2    1.21    0.81
   0  -8  -3  104.20    4.58
   0  -8  -4   34.18    2.51
   0  -8  -5    6.52    0.99
   0  -9   3    4.98    0.77
   0  -9   2  109.58    3.64
   0  -9   2   79.64    3.17
   0  -9   1   24.62    1.84
   0  -9   1   24.62    1.84
   0  -9   0  436.92    7.82
   0  -9   0  390.59    7.85
   0  -9  -1  266.98    6.66
   0  -9  -1  289.97    6.29
   0  -9  -2    9.47    1.23
   0  -9  -3   40.60    2.29
   1  -8  -4   16.34    1.53
   1  -8  -3   40.59    2.65
   1  -8  -2    2.69    0.85
   1  -8  -1  119.90    4.64
   1  -8  -1  122.30    5.05
   1  -8   0  355.83    8.89
   1  -8   0  536.51    9.69
   1  -8   1  122.71    4.66
   1  -8   1  124.30    4.69
   1  -8   2  353.53    7.61
   1  -8   2  328.82    7.53
   1  -8   3  101.29    3.90
   1  -8   3   97.76    3.94
   1  -8   4   14.18    1.39
   1  -8   4   14.13    1.43
   1  -7  -5    9.79    1.34
   1  -7  -4   28.32    2.51
   1  -7  -3  193.61    6.73
   1  -7  -2  496.43   11.04
   1  -7  -2  521.93   10.61
   1  -7  -1  143.50    5.57
   1  -7  -1  144.38    6.12
   1  -7  -1  147.09    5.65
   1  -7   0  402.64    9.41
   1  -7   0  381.71    9.13
   1  -7   1   13.22    1.77
   1  -7   1   11.26    1.67
   1  -7   1   15.25    1.94
   1  -7   2    1.78    0.86
   1  -7   2    2.07    0.79
   1  -7   3   64.40    3.88
   1  -7   3   65.25    3.66
   1  -7   4   49.84    3.07
   1  -7   4   47.10    3.18
   1  -7   5  413.20    8.84
   1  -7   5  423.11    8.29
   1  -7   6    0.67    0.51
   1  -7   6    1.08    0.39
   1  -6  -7   93.34    3.88
   1  -6  -7   67.08    3.25
   1  -6  -6   90.73    4.62
   1  -6  -6   82.81    3.88
   1  -6  -6   90.74    4.33
   1  -6  -5  143.54    5.95
   1  -6  -5  144.14    6.55
   1  -6  -4  343.08   10.42
   1  -6  -4  298.42    8.89
   1  -6  -3   62.23    3.81
   1  -6  -3   58.75    3.94
   1  -6  -3   53.55    3.86
   1  -6  -2   29.13    2.83
   1  -6  -2   27.70    2.65
   1  -6  -2   28.30    2.60
   1  -6  -1  289.92    8.84
   1  -6  -1  300.57    8.43
   1  -6  -1  313.69    8.46
   1  -6   0  173.85    6.77
   1  -6   0  157.80    6.11
   1  -6   0  154.54    6.68
   1  -6   1  737.94   13.30
   1  -6   1  800.48   13.72
   1  -6   2  117.10    5.16
   1  -6   2  117.50    5.41
   1  -6   2  115.76    5.46
   1  -6   3  155.99    6.45
   1  -6   3  146.79    6.00
   1  -6   3  141.39    5.67
   1  -6   4    1.86    0.82
   1  -6   4    1.11    0.80
   1  -6   5    0.56    0.76
   1  -6   5   -0.05    0.62
   1  -6   6   56.70    3.33
   1  -6   6   53.97    3.48
   1  -6   7    0.25    0.41
   1  -6   7    1.02    0.51
   1  -5  -8    0.05    0.34
   1  -5  -8   -0.06    0.36
   1  -5  -7    1.14    0.71
   1  -5  -7    0.17    0.55
   1  -5  -6   10.84    1.68
   1  -5  -6   11.42    1.81
   1  -5  -5  209.07    7.66
   1  -5  -5  221.80    8.38
   1  -5  -4  843.24   17.52
   1  -5  -4 1065.64   17.07
   1  -5  -3   69.08    3.93
   1  -5  -3   67.90    4.26
   1  -5  -3   70.93    4.54
  -1   5   2   91.91    4.38
   1  -5  -2  110.60    5.47
   1  -5  -2  102.85    5.08
   1  -5  -2  104.41    4.67
   1  -5  -2   99.50    5.09
   1  -5  -1  217.63    7.53
  -1   5   1  250.20    6.89
   1  -5   0  111.25    5.23
   1  -5   1   12.66    1.78
   1  -5   1   12.77    1.90
   1  -5   2   84.12    4.56
   1  -5   2   80.54    4.53
   1  -5   3   17.90    2.13
   1  -5   3   15.62    1.93
   1  -5   3   14.03    1.91
   1  -5   4   20.46    2.34
   1  -5   4   25.88    2.51
   1  -5   5  124.99    5.57
   1  -5   5  115.85    5.59
   1  -5   6    0.21    0.68
   1  -5   6    1.57    0.82
   1  -5   6    0.81    0.55
   1  -5   7   51.30    3.43
   1  -5   7   53.16    3.59
   1  -5   7   49.90    3.12
   1  -5   8   26.43    2.15
   1  -5   8   23.24    2.06
   1  -4  -9    9.90    1.15
   1  -4  -9    7.51    1.01
   1  -4  -8   25.98    2.28
   1  -4  -8   26.48    2.34
   1  -4  -7  222.68    7.58
   1  -4  -6 1124.45   18.06
   1  -4  -5  926.90   16.54
   1  -4  -5  893.54   15.81
   1  -4  -4   85.10    4.96
   1  -4  -4   79.63    4.62
   1  -4  -3   77.36    4.06
  -1   4   3   79.36    4.05
   1  -4  -3   88.06    4.51
  -1   4   2  103.07    4.42
   1  -4  -2   99.68    4.50
   1  -4  -2  110.36    4.77
  -1   4   1 1880.26   17.83
   1  -4  -1 1828.89   18.17
   1  -4   0   88.58    3.90
   1  -4   0   83.62    3.85
  -1   4   0   89.30    3.63
   1  -4   1   71.93    3.49
   1  -4   1   82.03    3.82
   1  -4   2  249.75    6.82
   1  -4   2  264.03    7.00
   1  -4   3   45.76    3.09
   1  -4   4   34.77    2.96
   1  -4   5   10.06    1.65
   1  -4   6   42.00    3.87
   1  -4   6   51.13    3.66
   1  -4   7    4.07    1.14
   1  -4   7    5.89    1.24
   1  -4   8   69.92    3.95
   1  -4   8   71.50    4.01
   1  -4   9   18.07    1.73
   1  -4   9   23.56    1.89
   1  -3  -9    5.04    1.01
   1  -3  -9    5.21    1.03
   1  -3  -9    5.69    1.01
   1  -3  -8  126.20    5.43
   1  -3  -8  129.45    5.71
   1  -3  -7    2.64    1.06
   1  -3  -7    0.44    0.74
   1  -3  -6  244.89    8.40
   1  -3  -6  265.82    9.60
  -1   3   5  518.27   10.02
   1  -3  -5  626.70   13.31
   1  -3  -5  692.70   15.15
  -1   3   5  568.60   11.47
   1  -3  -4  777.04   13.25
   1  -3  -4  767.36   12.70
  -1   3   4  757.82   12.28
  -1   3   3  238.95    6.20
   1  -3  -3  256.99    6.70
   1  -3  -3  248.67    6.52
   1  -3  -3  241.19    6.24
  -1   3   3  233.15    5.88
  -1   3   2 2715.78   19.18
  -1   3   2 2688.64   17.99
  -1   3   1  145.62    3.73
   1  -3  -1  155.80    4.46
   1  -3  -1  156.04    4.17
   1  -3  -1  147.00    4.38
   1  -3   0   48.53    2.44
   1  -3   0   50.00    2.35
   1  -3   0   53.71    2.52
   1  -3   1   16.60    1.43
   1  -3   1   15.90    1.36
   1  -3   1   15.16    1.37
   1  -3   2  796.90   10.47
   1  -3   2  748.11    9.60
   1  -3   3 6545.85   32.24
   1  -3   4 1235.51   15.50
   1  -3   5  353.37    9.37
   1  -3   6  113.30    5.72
   1  -3   6   95.09    4.95
   1  -3   7   -0.12    0.61
   1  -3   8   18.74    2.20
   1  -3   9  176.99    5.85
   1  -2  -9    0.75    0.53
   1  -2  -9    2.24    0.81
   1  -2  -9    0.71    0.59
   1  -2  -8  419.97   10.33
   1  -2  -8  344.83    9.48
   1  -2  -7 1354.98   19.84
   1  -2  -7 1342.11   19.60
   1  -2  -6  184.60    7.24
   1  -2  -6  184.48    7.24
  -1   2   5   65.32    3.46
   1  -2  -5   75.33    4.05
  -1   2   5   61.75    3.54
   1  -2  -5   65.75    4.10
   1  -2  -4    3.20    0.86
  -1   2   4    1.76    0.62
   1  -2  -4    2.99    0.80
  -1   2   4    1.86    0.64
   1  -2  -3  897.38   10.58
  -1   2   3  879.77   10.22
   1  -2  -2 1101.62   10.00
   1  -2  -2 1057.14   10.21
  -1   2   1 1564.29   10.38
   1  -2  -1 1557.99   11.74
   1  -2   0   44.65    1.93
   1  -2   0   40.77    1.77
   1  -2   0   47.69    1.99
   1  -2   1   27.96    1.46
   1  -2   1   26.41    1.51
   1  -2   1   22.91    1.43
   1  -2   2  173.34    4.18
   1  -2   2  144.52    3.27
   1  -2   3  144.14    4.26
   1  -2   4  228.96    5.97
   1  -2   5   37.59    2.79
   1  -2   6   91.53    4.99
   1  -2   7   91.33    5.08
   1  -2   8    9.27    1.70
   1  -2   9   19.27    2.08
   1  -2  10    9.91    1.25
   1  -2  10   10.59    1.27
   1  -1 -10    9.38    1.19
   1  -1  -9  113.60    4.84
   1  -1  -9  117.52    5.13
   1  -1  -8  130.22    5.99
   1  -1  -8  135.76    6.03
   1  -1  -7  124.88    5.96
   1  -1  -7  128.81    6.12
   1  -1  -6   13.94    2.09
  -1   1   6   11.46    1.62
   1  -1  -6   13.57    2.00
   1  -1  -6   14.07    1.98
  -1   1   5 1748.62   17.60
  -1   1   5 1681.03   17.76
  -1   1   4 1425.78   13.39
   1  -1  -4 1483.65   15.20
   1  -1  -3  125.55    3.68
  -1   1   3  121.62    3.46
   1  -1  -2    2.14    0.45
  -1   1   2    2.04    0.44
   1  -1  -1  519.74    5.41
  -1   1   1  490.57    4.37
   1  -1   0 2117.05   10.49
  -1   1  -1 3097.57    8.82
   1  -1   1 3091.88   13.72
  -1   1  -2 9951.83   24.93
   1  -1   2 9999.00   27.47
   1  -1   3 3151.45   17.26
   1  -1   3 3168.97   16.70
   1  -1   4  467.68    7.83
   1  -1   4  446.51    7.51
  -1   1  -4  455.70    7.59
  -1   1  -5   58.85    3.19
   1  -1   5   57.68    3.07
   1  -1   5   67.48    3.62
  -1   1  -6    8.25    1.41
   1  -1   6    3.60    0.90
  -1   1  -7   90.97    5.16
   1  -1   7  103.34    5.44
  -1   1  -8  227.89    8.16
   1  -1   8  247.05    8.25
   1  -1   9  450.51   10.29
  -1   1  -9  490.58   10.76
   1  -1  10    3.71    0.86
   1   0 -10    8.56    1.19
   1   0  -9  351.89    8.57
   1   0  -9  386.65    9.44
  -1   0   8    3.12    1.06
   1   0  -8    2.04    0.92
   1   0  -8    1.67    0.86
   1   0  -7   23.34    2.57
  -1   0   7   29.50    2.90
   1   0  -7   30.02    2.95
   1   0  -6   36.82    3.15
  -1   0   6   33.22    2.66
   1   0  -5  262.25    7.78
  -1   0   5  230.33    6.16
  -1   0   4    0.03    0.37
   1   0  -4    0.30    0.43
  -1   0   3 1228.47    7.74
   1   0  -3 1221.62   11.26
  -1   0   2  713.09    5.04
  -1   0   2  687.79    6.66
  -1   0   1  270.99    2.97
  -1   0   0    4.86    0.45
   1   0   1   23.26    0.80
  -1   0  -1   25.88    1.08
  -1   0  -2    2.33    0.48
   1   0   2    1.78    0.32
   1   0   2    2.83    0.42
   1   0   2    2.14    0.44
  -1   0  -3  128.62    3.47
  -1   0  -3  127.10    3.08
   1   0   3  121.50    2.96
   1   0   3  122.82    3.31
   1   0   3  115.49    2.61
   1   0   4   20.60    1.34
   1   0   4   29.32    1.69
  -1   0  -4   22.92    1.59
  -1   0  -4   33.44    2.14
   1   0   4   30.12    1.91
  -1   0  -5  241.61    6.49
   1   0   5  260.08    6.58
  -1   0  -6  517.18   10.79
   1   0   6  619.08   12.27
  -1   0  -7  236.13    8.33
   1   0   7  257.83    8.65
  -1   0  -8   10.45    1.83
   1   0   8   11.80    1.94
   1   0   9    1.89    0.85
  -1   0  -9    2.58    0.95
   1   0  10   33.67    2.34
  -1   0 -10   33.38    2.40
   1   1 -10   40.29    2.44
   1   1  -9  210.28    7.14
  -1  -1   8   15.66    2.14
   1   1  -8   15.27    2.16
   1   1  -7   23.88    2.62
  -1  -1   7   24.20    2.65
   1   1  -7   23.81    2.66
  -1  -1   6  468.85   10.62
   1   1  -6  430.52   10.78
   1   1  -5 1417.26   17.04
  -1  -1   5 1484.29   15.90
  -1  -1   4  587.21    8.47
   1   1  -4  592.18    9.66
  -1  -1   3   13.09    1.04
   1   1  -3   12.36    1.20
  -1  -1   3   14.06    1.06
   1   1  -2 1814.61   11.59
  -1  -1   2 1824.50    9.98
  -1  -1   2 1848.33   10.43
  -1  -1   1 2451.18    9.73
  -1  -1   0 2242.76    8.67
   1   1   0 2144.94    8.89
  -1  -1  -1 5577.63   17.65
   1   1   1 5557.34   15.74
  -1  -1  -2 1513.77    7.44
   1   1   2 1545.98    9.88
  -1  -1  -2 1542.68    9.51
   1   1   3  120.34    3.17
  -1  -1  -3  125.31    2.21
  -1  -1  -3  133.42    3.61
   1   1   3  119.33    2.85
  -1  -1  -3  135.40    3.17
   1   1   4  157.84    3.82
   1   1   4  152.37    4.15
   1   1   5   47.87    2.77
  -1  -1  -5   46.75    2.90
   1   1   5   38.94    2.37
  -1  -1  -6  991.99   15.23
   1   1   6 1053.57   15.17
   1   1   7   33.46    3.15
  -1  -1  -7   35.95    3.23
  -1  -1  -8  145.02    6.46
   1   1   8  136.92    6.31
  -1  -1  -9  396.89    9.90
   1   1   9  456.83   10.25
  -1  -1 -10  242.57    6.46
  -1  -2   9  816.61   13.15
   1   2  -9  870.76   13.86
  -1  -2   8   75.79    4.47
   1   2  -8   82.55    4.94
  -1  -2   7    9.64    1.66
   1   2  -7    9.19    1.78
  -1  -2   6   45.34    3.45
   1   2  -6   46.12    3.47
   1   2  -6   45.77    3.59
   1   2  -5  348.16    8.67
  -1  -2   4  260.58    5.86
   1   2  -4  242.84    6.44
  -1  -2   3  152.36    3.57
  -1  -2   3  174.68    4.41
   1   2  -2  392.91    5.72
  -1  -2   2  401.43    5.64
  -1  -2   1 1114.20    8.15
   1   2  -1 1123.51    6.35
   1   2   0   47.47    1.43
  -1  -2   0   49.37    1.60
  -1  -2  -1    9.33    0.78
   1   2   1    6.90    0.63
  -1  -2  -1    6.81    0.57
   1   2   1    9.68    0.72
   1   2   2 1615.60   10.26
   1   2   2 1645.78   10.61
  -1  -2  -2 1613.11   10.49
  -1  -2  -2 1632.23   11.46
   1   2   3   61.98    2.48
  -1  -2  -3   73.06    1.75
  -1  -2  -3   62.22    2.04
  -1  -2  -3   85.65    3.11
   1   2   3   81.45    2.60
  -1  -2  -3   84.04    2.56
   1   2   4  843.33    9.49
  -1  -2  -4  862.16   11.67
  -1  -2  -5 1774.82   19.09
   1   2   5 1725.24   17.31
  -1  -2  -6   20.86    2.30
   1   2   6   26.62    2.51
  -1  -2  -7   14.21    2.13
  -1  -2  -7    8.17    1.58
  -1  -2  -8    8.03    1.55
  -1  -2  -8    4.21    1.20
  -1  -2  -9  345.11    8.89
  -1  -2 -10  327.93    7.30
  -1  -3   9   22.81    2.11
  -1  -3   8   26.07    2.56
  -1  -3   8   18.81    2.28
   1   3  -8   21.87    2.44
  -1  -3   7   91.01    4.94
   1   3  -7   83.25    5.06
   1   3  -6  667.07   14.18
  -1  -3   6  709.61   13.70
  -1  -3   5  167.90    6.29
  -1  -3   4  383.05    8.48
   1   3  -4  333.88    7.44
  -1  -3   3  114.99    4.13
   1   3  -3  111.76    3.68
  -1  -3   2  159.86    4.26
  -1  -3   1  300.29    5.34
   1   3  -1  265.40    3.50
   1   3   0 2558.08   12.53
  -1  -3   0 2540.19   14.20
  -1  -3  -1  109.74    2.81
   1   3   1  116.17    2.97
  -1  -3  -2  164.13    3.37
  -1  -3  -2  206.52    4.65
   1   3   2  226.94    4.59
  -1  -3  -2  196.44    3.93
  -1  -3  -2  266.51    5.37
   1   3   2  249.50    4.62
  -1  -3  -3  338.26    6.75
   1   3   3  327.12    6.23
  -1  -3  -3  344.67    6.34
   1   3   4  262.50    5.89
   1   3   4  260.48    6.36
  -1  -3  -4  266.92    6.05
   1   3   5   30.12    2.51
  -1  -3  -5   27.04    2.60
   1   3   5   31.36    2.31
   1   3   6  237.15    7.99
  -1  -3  -6  251.90    8.59
   1   3   6  239.66    7.27
  -1  -3  -7  247.85    8.45
  -1  -3  -7  257.61    8.93
  -1  -3  -8  807.69   14.68
  -1  -3  -8  776.79   14.88
  -1  -3  -9  191.05    6.34
  -1  -3  -9  189.38    6.38
  -1  -3 -10    0.50    0.32
  -1  -4   9    4.06    0.92
  -1  -4   8    0.90    0.69
  -1  -4   7   16.58    2.18
  -1  -4   7   16.25    2.17
  -1  -4   6    0.74    0.76
  -1  -4   6    0.00    0.67
  -1  -4   5  350.80    9.70
  -1  -4   4    3.36    1.03
  -1  -4   3  164.10    5.58
  -1  -4   3  195.85    5.89
  -1  -4   2  201.63    5.33
  -1  -4   2  196.30    5.50
  -1  -4   1   12.30    1.30
  -1  -4   1   13.95    1.45
   1   4   0    4.26    0.66
  -1  -4   0    4.44    0.80
   1   4   1  883.72    9.73
  -1  -4  -1  894.00   10.85
   1   4   2  377.43    6.82
  -1  -4  -2  385.38    7.50
   1   4   3 2425.25   19.08
   1   4   3 2416.57   18.38
   1   4   4   87.70    4.21
  -1  -4  -4   86.76    4.03
  -1  -4  -5  410.29   10.44
   1   4   5  407.42   10.20
  -1  -4  -5  394.44   10.54
  -1  -4  -5  420.43   11.02
   1   4   5  405.69    9.04
  -1  -4  -6  255.38    8.93
  -1  -4  -6  243.80    8.51
  -1  -4  -7   32.63    3.10
  -1  -4  -7   32.85    3.21
  -1  -4  -8   99.16    4.94
  -1  -4  -8   77.36    4.51
  -1  -4  -9   32.45    2.44
  -1  -4  -9   34.28    2.61
  -1  -5   8  174.49    5.69
  -1  -5   7  153.49    6.07
  -1  -5   7  152.09    6.02
  -1  -5   6  383.51   10.10
  -1  -5   6  368.04   10.19
  -1  -5   5  368.85    9.54
  -1  -5   5  395.24   10.36
  -1  -5   5  369.57   10.39
  -1  -5   4  157.59    6.12
  -1  -5   4  156.48    6.39
  -1  -5   4  155.33    6.55
  -1  -5   3  268.69    8.49
  -1  -5   2   24.94    2.30
  -1  -5   2   28.97    2.66
  -1  -5   1 2255.24   21.18
  -1  -5   1 2102.17   20.26
  -1  -5   0  342.71    8.27
  -1  -5   0  315.57    7.73
   1   5   1  620.89    9.63
  -1  -5  -1  626.96   10.80
   1   5   2    6.39    1.10
  -1  -5  -2    6.88    1.18
  -1  -5  -3   60.72    3.59
   1   5   3   57.11    3.33
  -1  -5  -4  918.46   14.67
  -1  -5  -4  907.86   15.30
   1   5   4  935.82   14.16
  -1  -5  -5  263.04    8.80
  -1  -5  -6  729.87   16.55
  -1  -5  -6  724.34   14.52
  -1  -5  -7   45.76    3.79
  -1  -5  -7   33.99    3.11
  -1  -5  -8   15.23    1.90
  -1  -5  -8   22.94    2.27
  -1  -5  -9   12.07    1.34
  -1  -6   8    9.78    1.17
  -1  -6   7   70.51    3.73
  -1  -6   6  230.28    7.51
  -1  -6   6  221.04    7.21
  -1  -6   5  138.46    6.04
  -1  -6   5  141.64    6.30
  -1  -6   5  136.94    5.65
  -1  -6   4  516.29   11.20
  -1  -6   4  533.77   12.38
  -1  -6   4  542.16   12.53
  -1  -6   3   17.01    2.28
  -1  -6   3   24.81    2.43
  -1  -6   2   56.42    3.52
  -1  -6   2   62.61    4.13
  -1  -6   1    0.94    0.59
  -1  -6   1   -0.01    0.59
  -1  -6   1    0.93    0.67
  -1  -6   1    0.72    0.56
  -1  -6   0    4.05    1.03
  -1  -6  -1  284.97    8.01
  -1  -6  -1  286.15    8.50
  -1  -6  -2  464.16   10.14
  -1  -6  -2  435.75   10.48
  -1  -6  -2  423.58   10.57
  -1  -6  -2  449.14    9.86
  -1  -6  -3  435.85   10.79
  -1  -6  -3  441.66    9.99
  -1  -6  -4 1044.32   16.85
  -1  -6  -4 1109.16   18.50
  -1  -6  -5  374.30   10.49
  -1  -6  -5  339.28    9.64
  -1  -6  -6    0.36    0.63
  -1  -6  -7  162.19    6.08
  -1  -6  -8   24.67    2.06
  -1  -7   6    9.43    1.40
  -1  -7   6    8.49    1.24
  -1  -7   5  110.62    4.61
  -1  -7   5  101.44    4.90
  -1  -7   5  110.57    5.00
  -1  -7   4   10.40    1.60
  -1  -7   4   12.13    1.94
  -1  -7   4   13.40    1.96
  -1  -7   3    3.66    1.05
  -1  -7   3    3.67    1.14
  -1  -7   2   54.58    3.47
  -1  -7   2   57.80    3.99
  -1  -7   1    7.15    1.63
  -1  -7   1   11.22    1.66
  -1  -7   1   10.23    1.69
  -1  -7   0  661.00   12.75
  -1  -7   0  682.71   12.20
  -1  -7  -1   42.98    3.18
  -1  -7  -1   43.96    3.45
  -1  -7  -1   48.11    3.38
  -1  -7  -2    2.14    1.14
  -1  -7  -2    2.52    1.02
  -1  -7  -3  895.69   14.25
  -1  -7  -3  844.54   14.82
  -1  -7  -4    1.29    0.85
  -1  -7  -4   12.01    1.82
  -1  -7  -5  129.90    5.62
  -1  -7  -5  132.62    5.89
  -1  -7  -6   58.67    3.68
  -1  -7  -7    5.80    1.06
  -1  -8   5  315.52    6.26
  -1  -8   5  280.74    5.98
  -1  -8   4   87.50    3.78
  -1  -8   4   82.99    3.81
  -1  -8   3   60.33    3.35
  -1  -8   3   66.23    3.70
  -1  -8   2    4.31    1.05
  -1  -8   2    5.62    1.19
  -1  -8   1    1.17    0.67
  -1  -8   1    2.62    0.95
  -1  -8   0  174.25    5.94
  -1  -8   0  160.00    6.29
  -1  -8  -1   88.98    4.42
  -1  -8  -1   81.12    4.28
  -1  -8  -2  564.89   10.89
  -1  -8  -2  648.19   12.23
  -1  -8  -3  393.58    9.41
  -1  -8  -4    6.60    1.24
  -1  -8  -5   80.54    4.00
  -1  -8  -5   77.49    3.60
  -1  -9   3   50.67    2.51
  -1  -9   3   39.50    2.11
  -1  -9   2  133.71    4.26
  -1  -9   2  155.84    4.73
  -1  -9   1  491.37    8.65
  -1  -9   1  535.65    9.11
  -1  -9   0    0.00    0.55
  -1  -9   0    0.61    0.56
  -1  -9   0    0.14    0.50
  -1  -9  -1    0.91    0.57
  -1  -9  -1    0.81    0.57
  -1  -9  -2   17.96    1.84
  -1  -9  -3  103.91    3.98
  -1  -9  -4   40.23    2.25
   2  -8  -2   13.12    1.35
   2  -8  -1  139.40    4.50
   2  -8   0  259.72    6.20
   2  -8   1   48.85    2.67
   2  -8   2   84.37    3.41
   2  -8   3    3.51    0.68
   2  -7  -5   80.80    2.99
   2  -7  -4   67.24    3.27
   2  -7  -3  187.11    6.04
   2  -7  -2  302.62    8.11
   2  -7  -1   61.30    3.76
   2  -7  -1   62.00    3.55
   2  -7  -1   58.50    3.35
   2  -7   0    0.95    0.63
   2  -7   0    1.15    0.74
   2  -7   0    1.77    0.88
   2  -7   1  151.03    5.53
   2  -7   1  157.35    5.68
   2  -7   2   85.29    4.15
   2  -7   2   87.71    4.16
   2  -7   2   80.48    4.06
   2  -7   3  291.03    7.19
   2  -7   3  293.44    7.60
   2  -7   4   46.69    2.78
   2  -7   4   45.09    2.86
   2  -7   5   53.21    2.68
   2  -7   5   50.40    2.81
   2  -6  -6    0.69    0.40
   2  -6  -6    0.44    0.40
   2  -6  -5    4.27    1.03
   2  -6  -5    3.23    0.88
   2  -6  -4   30.94    2.70
   2  -6  -4   29.71    2.70
   2  -6  -3  145.39    6.06
   2  -6  -3  168.82    6.51
   2  -6  -2  752.92   13.22
   2  -6  -2  729.94   13.85
   2  -6  -2  723.45   13.42
   2  -6  -1   16.89    2.19
   2  -6  -1   16.30    2.12
   2  -6  -1   20.46    2.23
   2  -6   0   25.95    2.89
   2  -6   0   31.72    2.75
   2  -6   0   33.73    2.93
   2  -6   1  229.20    7.32
   2  -6   1  232.37    7.55
   2  -6   2  105.22    4.98
   2  -6   2  103.02    5.06
   2  -6   2  112.01    5.33
   2  -6   3    4.05    1.06
   2  -6   3    5.82    1.24
   2  -6   4   41.53    2.94
   2  -6   4   45.58    3.35
   2  -6   5    2.51    0.83
   2  -6   5    2.97    0.92
   2  -6   6    3.79    0.91
   2  -6   6    4.19    1.05
   2  -6   7   79.33    2.91
   2  -6   7   59.41    2.90
   2  -5  -7   11.19    1.45
   2  -5  -7   11.98    1.44
   2  -5  -6   24.48    2.44
   2  -5  -6   25.15    2.21
   2  -5  -6   24.00    2.25
   2  -5  -5  204.74    7.03
   2  -5  -5  181.30    6.71
   2  -5  -4 1317.53   18.83
   2  -5  -4 1334.74   19.12
   2  -5  -3  584.28   12.89
   2  -5  -3  549.05   12.93
   2  -5  -2   96.85    5.53
   2  -5  -2   96.46    4.97
   2  -5  -1   47.10    3.64
   2  -5  -1   41.23    3.18
   2  -5  -1   39.60    3.13
   2  -5  -1   37.01    3.12
   2  -5   0   81.54    4.46
   2  -5   0   86.80    4.62
   2  -5   0   79.66    4.74
   2  -5   1  606.43   12.27
   2  -5   1  587.66   12.03
   2  -5   1  617.11   12.53
   2  -5   2    1.89    0.80
   2  -5   2    3.15    1.03
   2  -5   2    2.96    0.94
   2  -5   3   18.84    2.24
   2  -5   3   20.52    2.39
   2  -5   3   20.55    2.22
   2  -5   4   40.44    3.12
   2  -5   4   47.12    3.61
   2  -5   5   56.12    3.60
   2  -5   5   60.35    4.00
   2  -5   6   21.58    2.21
   2  -5   6   28.12    2.65
   2  -5   7    1.45    0.68
   2  -5   7    2.19    0.83
   2  -5   8   20.62    1.77
   2  -4  -8   91.61    3.83
   2  -4  -8  125.53    4.28
   2  -4  -7    9.41    1.43
   2  -4  -7    9.26    1.50
   2  -4  -6  134.15    5.97
   2  -4  -6  134.05    5.74
   2  -4  -6  130.49    5.50
   2  -4  -5    3.24    1.18
   2  -4  -5    4.11    1.21
   2  -4  -5    2.16    0.93
   2  -4  -4  205.70    7.59
   2  -4  -4  199.31    7.29
   2  -4  -3  294.85    9.27
   2  -4  -3  285.74    9.26
   2  -4  -3  283.41    8.66
   2  -4  -3  276.53    8.34
   2  -4  -2  585.29   12.51
  -2   4   2  842.08   14.66
   2  -4  -1   92.62    4.62
   2  -4  -1  100.95    4.89
   2  -4   0  937.64   14.31
   2  -4   0  934.18   14.15
   2  -4   1  127.64    5.68
   2  -4   1  126.13    5.19
   2  -4   2   26.21    2.53
   2  -4   3    0.34    0.42
   2  -4   3    1.12    0.58
   2  -4   4  225.02    7.65
   2  -4   4  214.21    7.10
   2  -4   5 2888.27   26.67
   2  -4   6  483.20   10.93
   2  -4   7   88.14    4.47
   2  -4   7   98.68    5.38
   2  -4   8   11.22    1.37
   2  -4   8   12.53    1.65
   2  -4   8   12.09    1.66
   2  -4   8   12.69    1.62
   2  -4   9    0.13    0.23
   2  -3  -9   12.12    1.22
   2  -3  -8   43.47    2.95
   2  -3  -8   42.71    2.92
   2  -3  -7    0.99    0.64
   2  -3  -7    0.88    0.60
   2  -3  -6  571.15   12.72
   2  -3  -5 1464.04   20.64
   2  -3  -5 1481.72   19.99
  -2   3   4  192.78    6.83
   2  -3  -4  225.94    7.94
   2  -3  -4  209.87    7.47
   2  -3  -4  204.31    7.63
  -2   3   4  181.34    6.44
  -2   3   3  113.89    4.71
  -2   3   3  116.49    4.83
  -2   3   2   11.96    1.49
   2  -3  -2   16.71    2.04
  -2   3   1  702.68    9.71
   2  -3  -1  726.43   11.18
   2  -3   0  185.90    5.47
  -2   3   0  194.33    5.48
   2  -3   0  174.75    5.26
   2  -3   1  503.73    8.84
   2  -3   1  485.27    8.57
   2  -3   1  496.99    9.16
   2  -3   2   11.97    1.50
   2  -3   3    3.37    0.94
   2  -3   4  115.41    5.27
   2  -3   5   69.52    4.14
   2  -3   5   80.06    4.95
   2  -3   6  163.49    6.53
   2  -3   6  187.53    7.87
   2  -3   7   10.29    1.79
   2  -3   7    9.69    1.64
   2  -3   8   33.17    2.83
   2  -3   9    8.23    1.28
   2  -2  -9   31.03    2.18
   2  -2  -9   29.04    2.20
   2  -2  -8   18.24    2.09
   2  -2  -8   17.72    2.04
   2  -2  -8   17.41    2.14
   2  -2  -7   76.41    4.48
   2  -2  -7   61.40    4.42
   2  -2  -6  164.64    6.75
   2  -2  -6  112.20    6.26
   2  -2  -5   94.92    5.14
   2  -2  -5   90.41    5.04
   2  -2  -5   94.84    5.54
  -2   2   5   87.99    4.63
   2  -2  -5   89.02    5.03
   2  -2  -5   85.57    4.56
  -2   2   4   40.85    2.83
  -2   2   4   43.35    2.96
  -2   2   3 2603.41   20.44
   2  -2  -3 2402.26   20.24
  -2   2   2 1626.37   14.57
   2  -2  -2 1567.17   15.21
   2  -2  -1   15.99    1.53
  -2   2   1   23.41    1.63
   2  -2   0    5.56    0.82
   2  -2   0    4.10    0.74
  -2   2   0    4.99    0.80
   2  -2   1  481.66    7.84
   2  -2   1  484.15    7.24
   2  -2   2 1370.65   13.79
   2  -2   3 1519.74   15.72
   2  -2   4 9816.10   43.85
   2  -2   5 1100.35   16.45
  -2   2  -5 1184.49   16.78
   2  -2   6   53.86    3.88
   2  -2   7    2.58    0.96
   2  -2   7    3.77    1.16
   2  -2   8    0.99    0.72
   2  -2   9   70.60    3.85
   2  -2  10   69.37    3.06
   2  -1  -9   10.23    1.47
   2  -1  -9   11.16    1.43
   2  -1  -8   15.99    2.02
   2  -1  -8   17.33    2.12
   2  -1  -7  510.40   11.85
   2  -1  -7  513.97   12.05
   2  -1  -6   19.07    2.49
   2  -1  -6   24.57    2.63
   2  -1  -6   17.68    2.28
   2  -1  -5   38.62    3.44
  -2   1   5   35.78    2.96
   2  -1  -5   36.11    3.17
  -2   1   4   63.51    3.22
   2  -1  -4   64.39    3.71
   2  -1  -4   60.99    3.56
   2  -1  -3  398.89    8.15
   2  -1  -3  383.11    7.86
   2  -1  -2    3.97    0.72
  -2   1   2    4.80    0.76
   2  -1  -2    2.83    0.63
   2  -1  -1 1413.22   10.61
  -2   1   1 1454.39   11.79
   2  -1   0  506.99    6.68
  -2   1   0  571.82    7.31
   2  -1   1  417.90    6.09
  -2   1  -1  438.21    6.59
  -2   1  -2  248.59    4.29
  -2   1  -2  252.10    5.15
   2  -1   2  240.69    5.18
  -2   1  -3   39.10    1.98
   2  -1   3   38.36    2.28
  -2   1  -3   40.09    2.29
  -2   1  -4   17.37    1.53
  -2   1  -4   17.66    1.72
  -2   1  -5   27.76    2.54
   2  -1   6    5.65    1.28
   2  -1   7   30.98    3.00
   2  -1   8  280.57    8.64
   2  -1   9   78.32    4.23
   2  -1  10   12.01    1.38
   2   0  -9   44.34    2.84
   2   0  -9   49.32    3.20
   2   0  -8  150.25    6.19
   2   0  -8  160.26    6.53
   2   0  -7  245.01    8.34
   2   0  -7  247.77    8.42
   2   0  -6   27.09    2.79
   2   0  -6   25.15    2.64
   2   0  -6   28.51    2.79
  -2   0   5   15.55    1.77
   2   0  -5   14.52    1.97
  -2   0   4  732.49   10.32
   2   0  -4  810.31   12.96
  -2   0   3 2710.26   18.07
   2   0  -3 2778.24   20.29
   2   0  -2 1266.54   11.32
  -2   0   2 1353.60    8.90
  -2   0   1   19.64    1.40
   2   0  -1   18.36    1.18
   2   0   0 2033.65   11.47
  -2   0   0 2031.72   13.62
   2   0   1 2244.97   11.34
  -2   0  -1 2158.51   13.91
   2   0   2 1901.52   12.87
  -2   0  -2 1830.44   13.20
  -2   0  -3 4477.41   23.60
  -2   0  -3 4523.40   22.52
   2   0   4  524.35    8.39
  -2   0  -4  495.32    8.43
  -2   0  -5   82.92    3.98
  -2   0  -5  113.26    5.16
  -2   0  -6   91.42    4.60
  -2   0  -7    9.13    1.72
   2   0   7   13.35    2.03
  -2   0  -8  317.36    9.64
   2   0   8  346.98    9.91
   2   0   9   15.92    2.01
  -2   0  -9   11.15    1.63
   2   0  10   20.92    1.84
   2   1  -9  339.67    8.32
   2   1  -9  284.69    7.00
   2   1  -8   44.79    3.41
   2   1  -8   47.28    3.58
   2   1  -7 1670.89   21.78
   2   1  -7 1606.40   21.39
   2   1  -6  143.76    6.31
  -2  -1   6  129.81    6.01
   2   1  -6  138.79    6.13
  -2  -1   5   23.69    2.28
   2   1  -5   22.36    2.29
   2   1  -4  113.41    4.64
  -2  -1   4  101.12    3.82
   2   1  -3  521.28    8.30
  -2  -1   3  548.11    8.01
  -2  -1   3  529.85    6.94
  -2  -1   2  146.70    3.14
   2   1  -2  145.84    3.80
  -2  -1   1  350.27    4.73
  -2  -1   0  550.38    7.10
  -2  -1  -1 1587.90   12.60
   2   1   1 1557.82    6.72
   2   1   2    5.08    0.65
  -2  -1  -2    2.77    0.60
  -2  -1  -3    1.63    0.49
   2   1   3    2.23    0.49
   2   1   4  887.59   11.05
   2   1   4  899.78   10.14
  -2  -1  -4  919.59   11.66
   2   1   5   77.31    3.81
  -2  -1  -5   76.99    3.98
   2   1   6  407.23    9.69
  -2  -1  -6  395.98    9.58
   2   1   7  735.21   14.69
  -2  -1  -7  722.95   14.78
  -2  -1  -8    2.55    1.02
   2   1   8    2.33    0.99
  -2  -1  -9    2.68    0.93
   2   1   9    1.59    0.82
  -2  -1 -10    0.56    0.49
   2   1  10    0.50    0.41
   2   2  -9  558.65   10.40
   2   2  -9  613.25   10.90
   2   2  -8    3.63    1.11
  -2  -2   7   73.00    4.65
   2   2  -7   72.90    4.57
   2   2  -7   78.57    4.94
   2   2  -6   46.05    3.61
  -2  -2   6   47.17    3.63
   2   2  -6   53.19    3.96
   2   2  -5  183.44    6.52
   2   2  -4 1640.30   17.23
  -2  -2   4 1667.36   16.91
  -2  -2   3  509.61    7.60
   2   2  -3  501.66    8.38
  -2  -2   2 1365.73   10.30
   2   2  -2 1301.55   11.84
  -2  -2   1   73.24    2.32
  -2  -2   0  362.17    5.09
   2   2   0  388.68    5.55
  -2  -2  -1  170.77    3.51
   2   2   1  161.41    3.44
  -2  -2  -2 3555.00   17.28
   2   2   2 3550.04   17.32
   2   2   3  243.14    5.53
  -2  -2  -3  281.50    5.41
   2   2   3  259.24    5.08
  -2  -2  -3  256.14    5.51
  -2  -2  -3  274.80    4.68
   2   2   4  311.43    6.23
  -2  -2  -4  317.63    7.24
   2   2   4  315.07    7.08
   2   2   5  300.23    7.75
   2   2   5  321.63    7.36
  -2  -2  -5  299.55    7.94
   2   2   6   40.62    3.25
  -2  -2  -6   40.37    3.27
  -2  -2  -7    4.84    1.30
   2   2   7    3.45    1.17
  -2  -2  -8  164.17    6.82
  -2  -2  -9  231.19    7.47
  -2  -2 -10  357.09    7.62
   2   3  -9    5.00    1.00
   2   3  -9    6.89    1.21
  -2  -3   8  572.27   11.65
   2   3  -8  599.69   12.31
   2   3  -7    2.34    1.00
  -2  -3   7    2.22    0.89
   2   3  -6    0.66    0.65
  -2  -3   6    1.22    0.81
  -2  -3   6    1.26    0.71
  -2  -3   5   44.08    3.36
  -2  -3   5   47.35    3.58
   2   3  -5   42.32    3.18
   2   3  -4   11.00    1.48
  -2  -3   4   12.55    1.69
  -2  -3   3 1024.42   12.85
  -2  -3   2   12.61    1.26
  -2  -3   1  647.18    7.91
  -2  -3   0  244.34    4.61
  -2  -3   0  253.03    4.80
  -2  -3  -1   27.94    1.51
   2   3   1   24.01    1.51
  -2  -3  -2    5.64    0.81
   2   3   2    5.29    0.77
  -2  -3  -2    4.99    0.68
   2   3   3  779.54   10.65
  -2  -3  -3  797.17    8.76
  -2  -3  -3  791.49   10.74
   2   3   3  755.58    9.48
  -2  -3  -3  772.29    9.28
  -2  -3  -4  364.93    8.24
   2   3   4  374.27    8.36
   2   3   5 1828.41   20.62
   2   3   5 1804.61   18.13
   2   3   6   28.43    2.87
   2   3   6   28.18    2.58
  -2  -3  -6   27.04    2.86
  -2  -3  -6   26.31    2.80
  -2  -3  -6   27.42    2.81
  -2  -3  -7  378.75   10.87
  -2  -3  -8  220.87    7.70
  -2  -3  -8  212.45    7.72
  -2  -3  -9    9.81    1.52
  -2  -3 -10   35.39    2.30
   2   4  -9   97.71    3.80
  -2  -4   9  118.03    3.75
  -2  -4   8   33.89    2.71
  -2  -4   7   38.12    3.23
   2   4  -7   38.57    3.29
  -2  -4   6  362.07   10.05
   2   4  -6  347.44   10.34
  -2  -4   5  237.18    8.07
  -2  -4   5  239.43    8.04
  -2  -4   4  802.98   13.73
  -2  -4   3 1189.56   15.35
  -2  -4   2  754.76   10.97
  -2  -4   1  367.66    7.00
  -2  -4   0   91.85    3.54
   2   4   0   96.06    3.18
   2   4   1 3186.07   19.71
  -2  -4  -1 3238.18   19.19
  -2  -4  -2  497.42    7.89
  -2  -4  -2  498.76    8.52
   2   4   3 1112.00   12.97
  -2  -4  -3 1162.55   13.58
   2   4   4   13.08    1.77
  -2  -4  -4   14.20    1.84
   2   4   4    9.35    1.33
   2   4   5   16.90    1.86
   2   4   5   18.70    2.28
  -2  -4  -5   14.02    2.06
  -2  -4  -6  963.58   17.02
  -2  -4  -6  938.88   16.13
  -2  -4  -7  271.03    8.81
  -2  -4  -7  252.53    8.86
  -2  -4  -8  541.81   11.75
  -2  -4  -8  568.28   12.38
  -2  -4  -9    3.02    0.87
  -2  -4  -9    2.68    0.78
  -2  -4 -10    8.72    1.06
  -2  -5   8  175.58    5.47
  -2  -5   7   23.54    2.36
  -2  -5   6   29.64    2.81
  -2  -5   5  155.34    6.45
  -2  -5   4  250.91    8.06
  -2  -5   3  313.12    8.70
  -2  -5   2 1158.93   15.59
  -2  -5   2  907.45   14.23
  -2  -5   1   33.05    2.53
  -2  -5   1   34.34    2.56
  -2  -5   0  201.75    6.08
  -2  -5   0  208.55    6.24
   2   5   1    5.77    1.02
  -2  -5  -1    5.45    1.09
  -2  -5  -1    6.40    1.09
  -2  -5  -2    4.88    1.01
   2   5   2    6.08    1.03
  -2  -5  -2    3.24    0.95
   2   5   3  415.52    8.96
  -2  -5  -3  399.33    9.00
   2   5   4  265.40    7.59
  -2  -5  -4  274.50    8.58
  -2  -5  -4  275.46    8.85
  -2  -5  -5  477.48   11.55
  -2  -5  -6 1063.28   17.19
  -2  -5  -6 1024.26   17.36
  -2  -5  -7  326.83    9.52
  -2  -5  -7  316.36    9.48
  -2  -5  -8    1.21    0.71
  -2  -5  -8    1.48    0.67
  -2  -5  -9  122.64    4.49
  -2  -5  -9  117.32    4.18
  -2  -6   8   26.99    1.83
  -2  -6   7  144.85    5.16
  -2  -6   6   56.33    3.61
  -2  -6   5   17.78    2.20
  -2  -6   4   25.72    2.53
  -2  -6   4   27.27    2.75
  -2  -6   3  244.38    7.62
  -2  -6   3  251.23    8.09
  -2  -6   2    0.34    0.48
  -2  -6   2   -0.20    0.75
  -2  -6   2    1.13    0.52
  -2  -6   1    9.63    1.44
  -2  -6   1    6.17    1.30
  -2  -6   1    9.28    1.57
  -2  -6   1    8.16    1.48
  -2  -6   0   46.07    3.48
  -2  -6   0   28.75    2.75
  -2  -6  -1   30.62    2.80
   2   6   2  991.84   15.34
  -2  -6  -2 1048.43   15.17
  -2  -6  -2 1002.96   15.82
  -2  -6  -2 1047.04   14.82
  -2  -6  -3   70.28    4.08
  -2  -6  -3   82.54    5.02
  -2  -6  -3   72.81    4.41
  -2  -6  -3   74.28    4.22
  -2  -6  -4    1.06    0.76
  -2  -6  -4    0.13    0.60
  -2  -6  -5  697.45   14.19
  -2  -6  -5  721.92   14.28
  -2  -6  -6    7.47    1.72
  -2  -6  -6    7.01    1.50
  -2  -6  -7  100.59    5.16
  -2  -6  -7   96.66    4.82
  -2  -6  -8   49.58    2.98
  -2  -6  -8   54.44    3.14
  -2  -7   7    0.86    0.40
  -2  -7   6   19.05    1.93
  -2  -7   5   90.34    4.49
  -2  -7   4  226.22    7.01
  -2  -7   4  215.21    7.30
  -2  -7   3  600.72   11.80
  -2  -7   3  623.31   13.21
  -2  -7   2  191.65    6.57
  -2  -7   2  144.35    6.72
  -2  -7   1  154.68    5.76
  -2  -7   1  162.28    6.44
  -2  -7   0   51.30    3.34
  -2  -7   0   53.52    3.65
  -2  -7  -1    0.91    0.67
  -2  -7  -1    1.65    0.90
  -2  -7  -2  185.75    6.75
  -2  -7  -2  184.09    6.92
  -2  -7  -2  203.51    6.91
  -2  -7  -3  264.09    8.40
  -2  -7  -3  206.25    7.64
  -2  -7  -4  747.76   14.06
  -2  -7  -4  784.80   14.95
  -2  -7  -5  407.89    9.95
  -2  -7  -5  446.53   10.93
  -2  -7  -6    0.33    0.58
  -2  -7  -7  114.45    4.63
  -2  -8   5  269.07    6.83
  -2  -8   5  227.05    5.17
  -2  -8   4    1.64    0.68
  -2  -8   4    2.05    0.85
  -2  -8   3   40.76    2.84
  -2  -8   3   43.84    3.39
  -2  -8   2  261.58    7.25
  -2  -8   2  258.25    7.44
  -2  -8   1  100.34    4.54
  -2  -8   1   96.67    5.10
  -2  -8   1   96.57    4.67
  -2  -8   0  313.13    8.88
  -2  -8   0  321.32    8.22
  -2  -8  -1  769.69   13.35
  -2  -8  -1  746.90   13.70
  -2  -8  -2    2.04    0.92
  -2  -8  -2    2.87    1.04
  -2  -8  -2    0.55    0.58
  -2  -8  -3    2.75    0.95
  -2  -8  -3    2.53    1.07
  -2  -8  -4    0.66    0.67
  -2  -8  -4    0.06    0.51
  -2  -8  -5  135.90    5.44
  -2  -8  -5  123.77    4.75
  -2  -8  -6   31.79    2.37
  -2  -9   3  298.70    6.24
  -2  -9   2  241.29    6.01
  -2  -9   1   79.61    3.53
  -2  -9   1   87.62    4.19
  -2  -9   1   93.38    3.90
  -2  -9   0  132.78    4.72
  -2  -9   0  135.40    5.20
  -2  -9   0  142.01    4.93
  -2  -9  -1   34.02    2.61
  -2  -9  -1   36.62    2.59
  -2  -9  -2  200.00    6.08
  -2  -9  -3  107.44    4.29
  -2  -9  -4   -0.25    0.36
   3  -7  -3    4.55    0.78
   3  -7  -2   34.07    2.29
   3  -7  -1   62.43    3.25
   3  -7   0  302.54    6.89
   3  -7   1    2.68    0.75
   3  -7   1    0.66    0.51
   3  -7   2    2.80    0.77
   3  -7   3  120.61    3.96
   3  -7   3  119.91    4.17
   3  -7   4   40.96    2.19
   3  -7   4   39.06    2.18
   3  -6  -5    8.79    1.07
   3  -6  -4   16.70    1.66
   3  -6  -4   16.67    1.69
   3  -6  -3  157.66    5.53
   3  -6  -2 1195.46   16.12
   3  -6  -2 1272.48   15.97
   3  -6  -1  471.54    9.85
   3  -6  -1  482.79   10.70
   3  -6   0  128.64    5.67
   3  -6   0  134.02    6.09
   3  -6   1   21.85    2.22
   3  -6   1   25.63    2.57
   3  -6   2   33.53    2.75
   3  -6   2   28.78    2.63
   3  -6   3  218.55    6.64
   3  -6   3  221.93    7.10
   3  -6   4    2.04    0.70
   3  -6   4    1.79    0.71
   3  -6   5    4.28    0.90
   3  -6   5    4.60    1.05
   3  -6   6    5.93    0.88
   3  -6   6    5.54    0.92
   3  -5  -6  131.44    4.44
   3  -5  -5   12.81    1.62
   3  -5  -5   14.45    1.69
   3  -5  -4  113.04    5.00
   3  -5  -4  103.29    4.71
   3  -5  -3   12.51    1.83
   3  -5  -3   10.58    1.82
   3  -5  -3   13.22    1.88
   3  -5  -2   70.92    4.32
   3  -5  -2   77.66    4.68
   3  -5  -2   71.09    4.35
   3  -5  -1   65.28    4.19
   3  -5  -1   64.52    4.10
   3  -5  -1   65.31    4.29
   3  -5   0  577.46   11.97
   3  -5   0  448.02   12.09
   3  -5   1   82.22    4.54
   3  -5   1   62.38    4.44
   3  -5   2  202.86    7.51
   3  -5   2  215.44    8.14
   3  -5   3   44.66    3.26
   3  -5   3   49.25    3.56
   3  -5   3   41.30    3.53
   3  -5   4    5.91    1.22
   3  -5   4    4.55    1.20
   3  -5   5    2.12    0.90
   3  -5   5    1.57    0.79
   3  -5   6   69.11    3.53
   3  -5   6   71.23    3.88
   3  -5   7 1323.65   13.15
   3  -5   7 1174.19   14.18
   3  -4  -7   19.51    1.77
   3  -4  -7   21.63    1.79
   3  -4  -6   13.04    1.79
   3  -4  -6   19.55    1.97
   3  -4  -5    2.52    0.91
   3  -4  -5    1.45    0.79
   3  -4  -4  555.54   11.94
   3  -4  -4  545.89   11.86
   3  -4  -3 1126.99   17.06
   3  -4  -3 1137.83   17.11
   3  -4  -2   93.33    5.41
   3  -4  -2  133.95    6.12
   3  -4  -2  124.07    5.63
   3  -4  -2  102.62    5.47
   3  -4  -2  138.48    6.10
   3  -4  -1  116.93    5.64
   3  -4  -1  119.54    5.62
   3  -4  -1  118.88    5.60
   3  -4  -1  123.55    5.80
   3  -4  -1  112.55    5.37
   3  -4   0    9.82    1.67
   3  -4   0   10.05    1.65
   3  -4   0    9.44    1.67
   3  -4   0   10.45    1.68
   3  -4   1  301.82    8.81
   3  -4   1  303.16    9.02
   3  -4   2   23.80    2.49
   3  -4   2   24.25    2.56
   3  -4   2   25.56    2.72
   3  -4   2   29.62    2.95
   3  -4   3  117.82    5.31
   3  -4   3  122.62    5.83
   3  -4   4   12.87    1.83
   3  -4   4   13.96    2.11
   3  -4   5    2.52    1.09
   3  -4   5    3.35    1.10
   3  -4   6   87.71    4.41
   3  -4   6   89.56    4.73
   3  -4   7   39.77    2.79
   3  -4   7   37.89    2.90
   3  -4   8  101.08    3.56
   3  -4   8   99.34    4.09
   3  -3  -8  239.54    5.89
   3  -3  -8  298.37    5.83
   3  -3  -7   22.20    2.17
   3  -3  -7   24.95    2.21
   3  -3  -6   14.34    1.97
   3  -3  -6   11.73    1.74
   3  -3  -5   20.32    2.54
   3  -3  -5   18.78    2.42
   3  -3  -5   26.09    2.67
   3  -3  -5   25.61    2.61
   3  -3  -4  157.68    6.80
   3  -3  -4  165.52    7.64
   3  -3  -4  145.60    6.22
   3  -3  -3   24.42    2.56
   3  -3  -3   23.74    2.50
   3  -3  -3   24.00    2.49
  -3   3   2   40.03    3.08
   3  -3  -2   42.04    3.30
   3  -3  -2   45.39    3.39
  -3   3   1 1192.57   15.27
   3  -3  -1 1228.65   16.76
   3  -3   0  860.11   13.62
  -3   3   0  950.74   15.48
   3  -3   1   71.40    3.86
  -3   3  -1   76.70    4.32
  -3   3  -2   21.83    2.39
  -3   3  -3  141.81    6.19
   3  -3   4  377.45    9.46
   3  -3   5  360.85    9.34
   3  -3   6 2906.34   32.45
   3  -3   6 3305.53   28.55
   3  -3   7  273.96    7.99
   3  -3   7  299.43    9.19
   3  -3   8    4.83    1.01
   3  -3   8    5.91    1.27
   3  -3   9    0.46    0.42
   3  -3   9    0.37    0.42
   3  -2  -8   13.18    1.56
   3  -2  -8   13.03    1.43
   3  -2  -7   15.63    1.97
   3  -2  -7   16.11    1.98
   3  -2  -6   38.29    3.23
   3  -2  -6   38.99    3.32
   3  -2  -5  519.77   12.00
   3  -2  -5  546.24   12.56
   3  -2  -5  547.91   11.91
   3  -2  -5  518.03   12.09
   3  -2  -4  144.32    6.02
   3  -2  -4  140.46    6.32
   3  -2  -4  130.78    5.81
   3  -2  -4  124.84    5.76
  -3   2   3   42.13    3.12
   3  -2  -3   26.92    2.50
  -3   2   2   47.44    2.94
   3  -2  -2   50.04    3.16
   3  -2  -1  122.61    4.95
   3  -2   0   14.51    1.57
  -3   2   0   16.71    1.85
   3  -2   1  364.71    7.65
  -3   2  -1  417.73    9.04
   3  -2   2  226.09    6.01
  -3   2  -2  241.55    6.96
  -3   2  -3  104.90    4.73
  -3   2  -4  147.20    6.06
   3  -2   5   24.22    2.66
   3  -2   6   13.42    2.13
   3  -2   7   19.38    2.28
   3  -2   7   20.03    2.46
   3  -2   8    0.35    0.44
   3  -2   8   -0.08    0.59
   3  -2   9    2.86    0.86
   3  -1  -9   84.62    3.22
   3  -1  -8   16.79    1.86
   3  -1  -8   18.97    2.10
   3  -1  -7   94.87    5.10
   3  -1  -7  122.26    5.50
   3  -1  -7  102.17    5.48
   3  -1  -7  124.89    5.61
   3  -1  -6  295.73    9.00
   3  -1  -6  307.22    9.37
   3  -1  -6  307.66    9.40
   3  -1  -5  213.43    7.66
   3  -1  -5  207.52    7.40
   3  -1  -5  231.41    8.84
   3  -1  -5  208.58    7.68
   3  -1  -4   47.41    3.55
  -3   1   4   44.66    3.16
   3  -1  -4   38.23    3.04
  -3   1   3   -0.13    0.38
   3  -1  -3    0.20    0.35
   3  -1  -2  477.08    8.85
  -3   1   1 2629.63   21.59
   3  -1  -1 2642.22   19.56
   3  -1   0  661.86    9.83
  -3   1   0  557.91    9.84
   3  -1   1   67.25    2.95
  -3   1  -1   71.91    3.49
   3  -1   2  534.29    8.17
  -3   1  -2  556.04    9.61
  -3   1  -3  533.28    9.83
  -3   1  -4  447.94    9.96
  -3   1  -5  987.54   16.59
   3  -1   6   86.06    4.88
   3  -1   7   37.19    3.24
   3  -1   8   98.35    5.08
   3  -1   8   77.69    4.29
   3  -1   9    2.45    0.81
   3  -1  10   61.32    2.82
   3   0  -9    0.34    0.33
   3   0  -8   17.70    2.00
   3   0  -8   17.59    1.99
   3   0  -8   17.01    2.02
   3   0  -7  588.81   12.55
   3   0  -7  573.56   12.64
   3   0  -6   11.09    1.78
   3   0  -6   11.60    1.90
   3   0  -6   11.76    1.98
   3   0  -5 2410.31   25.39
   3   0  -5 2421.12   26.48
   3   0  -4  167.64    6.37
  -3   0   4  247.27    7.15
   3   0  -3   52.15    3.12
  -3   0   3   48.92    2.80
   3   0  -2   43.39    2.48
  -3   0   2   48.17    2.23
  -3   0   1  488.17    8.62
   3   0  -1  450.93    7.38
   3   0   0    9.22    1.01
  -3   0   0    7.41    1.15
   3   0   1  476.03    7.09
  -3   0  -1  454.64    8.28
   3   0   2   59.12    2.28
  -3   0  -2   68.85    3.35
  -3   0  -3  547.01    8.39
  -3   0  -3  625.11   10.52
  -3   0  -4   10.41    1.35
  -3   0  -4    6.43    1.27
  -3   0  -5    8.66    1.65
   3   0   6  223.68    7.73
   3   0   7   18.00    2.26
   3   0   8  231.20    7.96
   3   0   9  252.90    7.46
   3   0  10    0.46    0.45
   3   1  -9    0.52    0.40
   3   1  -9    0.90    0.49
   3   1  -8  402.98    9.44
   3   1  -8  403.92    9.40
   3   1  -8  408.38    9.80
   3   1  -7 1019.85   16.60
   3   1  -7 1013.54   16.67
   3   1  -7 1026.38   16.89
   3   1  -6   40.36    3.37
   3   1  -6   41.53    3.51
   3   1  -6   40.75    3.51
  -3  -1   5  147.24    5.88
   3   1  -5  154.59    6.34
   3   1  -5  149.51    6.56
   3   1  -5  165.34    6.86
  -3  -1   4   88.11    4.27
   3   1  -4   75.02    4.14
  -3  -1   3  421.25    8.01
   3   1  -3  401.39    8.48
  -3  -1   3  410.95    7.44
  -3  -1   2 2529.88   16.39
  -3  -1   1  828.41    9.27
  -3  -1   0 1675.18   15.61
   3   1   0 1778.53   12.27
  -3  -1  -1   66.44    3.25
   3   1   1   71.73    2.31
   3   1   2  363.50    6.86
  -3  -1  -2  355.36    7.53
   3   1   3    0.29    0.38
  -3  -1  -3    0.98    0.60
   3   1   4 2003.13   18.87
  -3  -1  -4 1987.86   19.76
  -3  -1  -5  200.99    6.51
   3   1   5  178.48    6.81
  -3  -1  -6  177.84    7.06
   3   1   6  174.12    6.85
  -3  -1  -7  213.84    8.11
   3   1   7  224.51    8.04
  -3  -1  -8    2.58    1.09
   3   1   8    2.89    0.99
  -3  -1  -9   31.96    2.72
   3   1   9   36.01    2.89
   3   1  10   81.91    3.40
   3   2  -9    7.00    1.00
   3   2  -9   11.88    1.37
   3   2  -8  711.51   12.64
   3   2  -8  729.62   12.90
   3   2  -7   23.16    2.55
   3   2  -7   24.25    2.68
   3   2  -7   25.54    2.74
   3   2  -6  694.48   14.01
   3   2  -6  670.63   13.82
   3   2  -5   -0.42    0.73
   3   2  -5   -0.02    0.62
   3   2  -4   17.87    2.02
  -3  -2   4   17.64    2.06
  -3  -2   3   82.45    3.80
  -3  -2   3  102.86    3.96
  -3  -2   2   77.09    3.04
  -3  -2   1 1701.57   13.35
  -3  -2   0   11.85    1.15
   3   2   1  998.31   11.07
  -3  -2  -1 1023.49   10.48
  -3  -2  -2   79.80    3.41
   3   2   2   77.76    3.18
  -3  -2  -3   49.85    3.02
   3   2   3   45.61    2.64
  -3  -2  -4   15.96    1.98
  -3  -2  -4   19.59    1.95
  -3  -2  -5  216.90    6.97
   3   2   5  267.30    7.94
  -3  -2  -6  159.49    7.06
   3   2   6  140.63    6.23
   3   2   7  728.72   14.60
  -3  -2  -8   -0.24    0.60
   3   2   8    0.78    0.81
  -3  -2  -9  241.79    7.50
   3   2   9  226.49    6.97
  -3  -2 -10  138.29    4.45
   3   3  -9  100.89    3.53
   3   3  -8  404.05    9.22
   3   3  -8  424.55    9.48
  -3  -3   7  291.77    8.62
   3   3  -7  288.78    9.00
  -3  -3   6   38.45    3.34
   3   3  -6   42.64    3.63
  -3  -3   5   25.85    2.72
   3   3  -5   32.42    3.01
   3   3  -5   28.00    2.89
  -3  -3   4  668.73   12.33
  -3  -3   3  399.47    8.31
  -3  -3   2 1850.77   16.52
  -3  -3   1 2282.72   16.85
  -3  -3   1 2325.21   17.60
   3   3   0 1392.62   14.05
  -3  -3   0 1668.92   13.36
  -3  -3  -1  316.96    6.02
   3   3   1  329.18    6.83
  -3  -3  -2  166.14    4.52
   3   3   2  155.67    4.72
  -3  -3  -3 2450.33   17.70
   3   3   3 2443.99   18.70
   3   3   4  313.60    7.29
  -3  -3  -4  333.82    8.32
   3   3   5  790.14   12.65
  -3  -3  -5  598.31   12.18
  -3  -3  -6   10.40    1.82
  -3  -3  -7   14.97    2.15
  -3  -3  -8  650.15   13.21
  -3  -3  -9  135.84    5.44
  -3  -3 -10  257.14    5.92
   3   4  -8    3.01    0.86
  -3  -4   8    1.51    0.62
   3   4  -8    3.32    0.97
  -3  -4   7  345.78    9.16
   3   4  -7  370.55    9.74
  -3  -4   6  479.88   11.69
   3   4  -6  491.08   12.01
  -3  -4   5  110.16    5.63
   3   4  -5  110.67    5.80
  -3  -4   4   27.39    2.73
  -3  -4   4   26.46    2.70
   3   4  -4   28.83    2.88
  -3  -4   3  245.00    7.45
  -3  -4   2  247.18    6.52
  -3  -4   1  642.73    9.83
   3   4   0 1956.63   17.51
  -3  -4   0 2234.38   18.10
   3   4   1   29.39    2.28
  -3  -4  -1   23.36    1.82
  -3  -4  -1   24.72    1.91
  -3  -4  -2  325.04    7.15
  -3  -4  -2  324.80    6.90
  -3  -4  -3   33.90    2.49
   3   4   3   27.00    2.16
  -3  -4  -3   30.55    2.26
   3   4   4   32.82    2.54
  -3  -4  -4   29.17    2.87
   3   4   5  270.41    7.92
  -3  -4  -5  282.45    8.81
  -3  -4  -5  287.26    9.11
  -3  -4  -6   77.34    4.87
  -3  -4  -6   79.09    4.79
  -3  -4  -7  477.30   11.96
  -3  -4  -7  481.92   11.87
  -3  -4  -8  702.92   13.11
  -3  -4  -8  682.97   13.12
  -3  -4  -9  192.63    6.05
  -3  -5   8   74.06    3.12
   3   5  -8   67.09    3.21
   3   5  -7    4.05    1.01
  -3  -5   7    4.60    1.12
  -3  -5   6   24.06    2.52
   3   5  -6   27.81    2.75
  -3  -5   5  179.88    7.02
   3   5  -5  166.25    7.00
  -3  -5   4  151.18    6.36
   3   5  -4  141.39    6.45
  -3  -5   3   35.39    3.13
  -3  -5   3   28.93    2.74
  -3  -5   2   32.40    2.80
  -3  -5   1  531.87   10.28
  -3  -5   0   20.70    1.94
  -3  -5   0   22.05    2.14
  -3  -5  -1    9.19    1.39
   3   5   1   10.27    1.55
  -3  -5  -1    8.56    1.33
   3   5   2   20.43    2.04
  -3  -5  -2   20.57    2.06
   3   5   3   67.86    3.89
  -3  -5  -3   76.24    4.51
  -3  -5  -3   68.70    3.81
  -3  -5  -4 1196.40   18.60
  -3  -5  -4 1257.10   19.97
  -3  -5  -4 1226.08   18.14
  -3  -5  -5   51.03    3.78
  -3  -5  -6    0.45    0.70
  -3  -5  -6    0.36    0.64
  -3  -5  -7  284.74    9.06
  -3  -5  -7  360.95    9.81
  -3  -5  -8    7.75    1.40
  -3  -5  -8    8.00    1.40
  -3  -5  -9   37.00    2.47
  -3  -6   7  684.06   10.58
  -3  -6   6   84.18    4.28
  -3  -6   5   16.14    2.06
  -3  -6   4   24.74    2.53
  -3  -6   3  305.07    8.56
  -3  -6   3  313.92    9.00
  -3  -6   2  323.51    8.66
  -3  -6   2  329.90    9.25
  -3  -6   1  830.22   13.60
  -3  -6   1  840.88   14.69
  -3  -6   0  322.25    9.32
  -3  -6   0  312.01    8.83
  -3  -6   0  319.45    9.27
  -3  -6   0  310.69    8.09
  -3  -6  -1  313.21    9.03
  -3  -6  -1  305.57    8.80
  -3  -6  -1  312.10    8.03
   3   6   2  158.44    6.48
  -3  -6  -2  174.06    6.99
  -3  -6  -2  174.92    7.04
  -3  -6  -2  171.50    6.06
  -3  -6  -3   15.47    2.14
  -3  -6  -3   13.81    2.10
  -3  -6  -3   11.43    1.62
  -3  -6  -4  177.81    7.14
  -3  -6  -4  160.73    6.60
  -3  -6  -5  387.10   10.36
  -3  -6  -6  666.24   13.72
  -3  -6  -6  692.81   13.41
  -3  -6  -7  308.56    8.65
  -3  -6  -7  317.22    8.80
  -3  -6  -8    0.24    0.42
  -3  -6  -8   -0.14    0.47
  -3  -7   6   10.18    1.40
  -3  -7   5  304.02    8.10
  -3  -7   4  277.66    8.19
  -3  -7   3  636.37   12.90
  -3  -7   3  648.74   12.22
  -3  -7   2    0.16    0.74
  -3  -7   2    0.00    0.63
  -3  -7   1  107.12    5.43
  -3  -7   1   98.75    4.77
  -3  -7   0  395.86   10.80
  -3  -7   0  343.47    8.69
  -3  -7  -1  103.20    5.85
  -3  -7  -1  145.95    5.67
  -3  -7  -2  352.53   11.14
  -3  -7  -2  465.85   10.21
  -3  -7  -3  823.92   14.91
  -3  -7  -3  888.88   14.39
  -3  -7  -4    5.74    1.41
  -3  -7  -4    6.18    1.32
  -3  -7  -5   12.88    1.96
  -3  -7  -5   12.38    1.81
  -3  -7  -6   14.55    1.91
  -3  -7  -7  102.64    4.41
  -3  -8   5   25.98    2.08
  -3  -8   4  509.79   10.06
  -3  -8   4  456.95    8.28
  -3  -8   3    0.33    0.58
  -3  -8   3    1.03    0.76
  -3  -8   2  171.15    6.57
  -3  -8   2  132.82    5.24
  -3  -8   1  403.80   10.76
  -3  -8   1  512.78   10.35
  -3  -8   0  560.13   13.21
  -3  -8   0  477.54    9.92
  -3  -8  -1  235.53    7.07
  -3  -8  -2  162.91    6.30
  -3  -8  -2  172.64    6.07
  -3  -8  -3   15.98    1.99
  -3  -8  -4  185.07    6.72
  -3  -8  -4  180.61    6.25
  -3  -8  -5   84.25    4.29
  -3  -8  -5   71.26    3.55
  -3  -8  -6    6.21    1.14
  -3  -9   3    2.47    0.59
  -3  -9   2    7.48    1.14
  -3  -9   1  249.50    7.04
  -3  -9   1  253.99    6.44
  -3  -9   0   16.32    1.84
  -3  -9   0   16.15    1.71
  -3  -9  -1  144.49    5.37
  -3  -9  -1  150.63    5.16
  -3  -9  -2  108.70    4.51
  -3  -9  -3  119.63    4.95
  -3  -9  -3  109.90    4.34
  -3  -9  -4    0.84    0.49
  -3  -9  -4    0.70    0.42
   4  -6  -2   56.64    2.80
   4  -6  -1   10.12    1.35
   4  -6   0    6.19    1.11
   4  -6   1    4.60    0.97
   4  -6   2  287.12    6.85
   4  -6   3   48.70    2.60
   4  -6   4   59.34    2.72
   4  -5  -5   14.35    1.34
   4  -5  -4    5.08    0.98
   4  -5  -3    5.68    1.12
   4  -5  -3    6.28    1.15
   4  -5  -2  429.72    9.43
   4  -5  -2  456.37    9.77
   4  -5  -2  442.34    9.70
   4  -5  -1  607.70   11.33
   4  -5  -1  623.68   11.79
   4  -5  -1  641.97   12.40
   4  -5   0   63.24    3.79
   4  -5   0   73.61    4.39
   4  -5   1   73.05    4.08
   4  -5   2    1.58    0.78
   4  -5   3  120.55    5.18
   4  -5   3  123.78    5.18
   4  -5   4    6.66    1.16
   4  -5   4    7.81    1.25
   4  -5   5   33.89    2.41
   4  -5   6   14.77    1.44
   4  -4  -6  302.42    6.21
   4  -4  -5    8.15    1.35
   4  -4  -5    6.33    1.11
   4  -4  -4    4.75    1.14
   4  -4  -4    4.65    1.00
   4  -4  -3    0.92    0.70
   4  -4  -3    0.74    0.64
   4  -4  -3    0.48    0.61
   4  -4  -2   90.42    5.09
   4  -4  -2  119.93    5.66
   4  -4  -2   85.81    4.91
   4  -4  -2  113.75    5.28
   4  -4  -2  107.47    5.04
   4  -4  -1   -0.13    0.61
   4  -4  -1   -0.88    1.00
   4  -4  -1   -0.12    0.60
   4  -4  -1    0.54    0.68
   4  -4   0   22.74    2.48
   4  -4   0   24.99    2.62
   4  -4   0   17.63    2.34
   4  -4   0   23.90    2.61
   4  -4   0   17.06    2.24
   4  -4   1  526.10   11.58
   4  -4   1  504.67   11.61
   4  -4   1  538.48   12.64
   4  -4   2  394.94   10.52
   4  -4   3   44.46    3.42
   4  -4   3   60.66    4.10
   4  -4   4   11.94    1.72
   4  -4   4   12.40    1.82
   4  -4   5   54.77    3.39
   4  -4   6  164.71    5.47
   4  -4   6  114.00    5.11
   4  -4   7  130.80    4.34
   4  -4   7  135.10    4.75
   4  -3  -7  144.13    4.01
   4  -3  -6   24.37    2.25
   4  -3  -6   24.85    2.26
   4  -3  -6   23.64    2.06
   4  -3  -5   17.54    2.11
   4  -3  -5   16.20    1.87
   4  -3  -4   39.42    3.09
   4  -3  -4   38.60    3.19
   4  -3  -4   34.14    2.86
   4  -3  -3  415.97   10.62
   4  -3  -3  416.30   10.05
   4  -3  -3  402.54    9.91
   4  -3  -2  343.15   10.04
   4  -3  -2  334.18    9.58
   4  -3  -2  338.80    9.12
   4  -3  -2  306.84    8.66
   4  -3  -1   14.24    1.97
   4  -3  -1   11.39    1.81
   4  -3  -1   16.71    2.09
   4  -3  -1   15.07    1.92
   4  -3  -1   14.64    2.05
   4  -3   0   32.43    2.95
   4  -3   0   34.19    3.07
   4  -3   0   36.04    3.10
   4  -3   0   41.74    3.37
   4  -3   0   36.31    2.90
   4  -3   1    8.78    1.58
   4  -3   1    8.51    1.61
   4  -3   1    7.63    1.51
   4  -3   1    8.20    1.49
   4  -3   2    0.89    0.72
   4  -3   2    1.57    0.67
   4  -3   3   37.69    3.16
   4  -3   3   43.98    3.50
   4  -3   3   41.46    3.51
   4  -3   4   50.15    3.56
   4  -3   4   55.98    4.05
   4  -3   5   63.04    3.86
   4  -3   6   87.44    4.37
   4  -3   6  105.03    5.51
   4  -3   7   12.85    1.60
   4  -3   7    8.91    1.49
   4  -3   8    9.01    1.15
   4  -3   8    7.64    1.15
   4  -2  -7   72.56    3.56
   4  -2  -7   73.44    3.67
   4  -2  -7   67.22    3.17
   4  -2  -6   19.19    2.13
   4  -2  -6   17.29    2.04
   4  -2  -6   20.29    2.13
   4  -2  -5  203.40    7.19
   4  -2  -5  195.22    7.07
   4  -2  -4  422.12   10.66
   4  -2  -4  408.32   10.30
   4  -2  -3  139.56    6.11
   4  -2  -3  142.31    5.88
   4  -2  -3  130.34    5.72
   4  -2  -2   41.00    3.33
   4  -2  -2   45.48    3.44
   4  -2  -2   41.62    3.46
   4  -2  -2   45.94    3.30
   4  -2  -2   39.45    3.11
   4  -2  -1   16.28    2.07
   4  -2  -1   15.53    2.04
   4  -2  -1   15.93    1.97
   4  -2  -1   19.07    2.11
   4  -2  -1   17.69    2.02
   4  -2   0  132.35    5.53
   4  -2   1 1169.96   16.04
  -4   2  -1 1203.37   19.53
  -4   2  -2  101.46    5.66
   4  -2   3   17.41    2.17
   4  -2   3   15.12    2.07
   4  -2   3   17.89    1.98
   4  -2   4   92.25    4.82
   4  -2   5  102.96    5.99
   4  -2   6  111.24    5.89
   4  -2   7  107.60    4.95
   4  -2   7  156.21    6.41
   4  -2   8   22.68    2.02
   4  -2   8   26.38    2.37
   4  -2   9    9.56    1.21
   4  -1  -8   15.79    1.51
   4  -1  -7    0.58    0.49
   4  -1  -7    0.75    0.57
   4  -1  -6   60.83    3.84
   4  -1  -6   65.06    4.04
   4  -1  -6   64.65    3.96
   4  -1  -5  679.48   13.49
   4  -1  -5  685.70   13.70
   4  -1  -5  672.45   13.51
   4  -1  -4    0.40    0.72
   4  -1  -4   -0.03    0.57
   4  -1  -4    0.19    0.56
   4  -1  -3 2401.92   24.77
   4  -1  -3 2457.33   25.11
  -4   1   2  146.69    5.56
   4  -1  -2  162.00    6.07
   4  -1  -1   62.10    3.75
  -4   1   0    3.20    1.10
   4  -1   0   -0.27    0.60
   4  -1   1  132.01    4.88
  -4   1  -1  141.49    6.23
   4  -1   2   70.33    3.46
  -4   1  -2   76.90    4.61
  -4   1  -3  161.28    6.74
  -4   1  -4    5.32    1.42
   4  -1   4    5.35    1.15
   4  -1   5  178.54    7.08
   4  -1   5  173.93    6.27
   4  -1   6    2.65    0.99
   4  -1   7    1.72    0.96
   4  -1   8   81.71    4.09
   4  -1   8   97.28    4.86
   4  -1   9    2.85    0.78
   4   0  -8   26.02    2.03
   4   0  -8   24.17    2.02
   4   0  -7   -0.18    0.53
   4   0  -7    0.30    0.52
   4   0  -7    0.76    0.56
   4   0  -6  506.67   11.50
   4   0  -6  486.34   11.16
   4   0  -5 1200.91   18.05
   4   0  -5 1170.00   17.63
   4   0  -4  101.96    5.21
   4   0  -4   97.94    5.07
   4   0  -4  101.32    5.17
  -4   0   3  206.79    6.71
   4   0  -3  183.15    6.53
   4   0  -2   83.47    4.08
  -4   0   1  396.00    8.49
   4   0  -1  377.52    8.04
  -4   0   0 1846.12   21.98
   4   0   0 1917.86   18.40
   4   0   1  685.40    9.94
  -4   0  -1  693.89   13.13
  -4   0  -2  861.57   14.38
  -4   0  -3  129.81    5.90
  -4   0  -4  100.24    5.53
   4   0   5    2.65    0.89
  -4   0  -5    2.22    1.14
   4   0   6  527.47   12.04
   4   0   7  100.02    5.15
   4   0   8   93.38    4.76
   4   0   9  173.71    5.76
   4   1  -8   41.19    2.64
   4   1  -8   41.20    2.75
   4   1  -7   51.99    3.46
   4   1  -7   51.39    3.40
   4   1  -7   53.40    3.60
   4   1  -6  785.32   14.24
   4   1  -6  821.81   14.84
   4   1  -6  813.18   15.19
   4   1  -5   45.55    3.54
   4   1  -5   41.46    3.44
   4   1  -5   43.00    3.66
   4   1  -4  612.70   12.73
   4   1  -4  605.00   13.00
   4   1  -4  648.03   13.86
   4   1  -4  669.28   14.05
  -4  -1   3   11.73    1.57
   4   1  -3   11.59    1.70
  -4  -1   2  101.02    3.97
   4   1  -2   93.22    4.36
  -4  -1   1   99.88    3.93
   4   1  -1   96.29    3.88
  -4  -1   0  129.21    4.87
   4   1   0  124.96    4.07
  -4  -1  -1 1043.23   15.58
  -4  -1  -2    8.79    1.64
  -4  -1  -3  555.44   12.11
  -4  -1  -4   21.80    2.62
  -4  -1  -4   19.29    2.18
  -4  -1  -5   15.12    2.52
  -4  -1  -5   10.05    1.61
   4   1   5   11.28    1.73
   4   1   5   11.38    1.55
   4   1   6    6.63    1.51
   4   1   7   44.93    3.52
   4   1   8   51.56    3.67
   4   1   9  302.20    7.76
   4   2  -8    3.15    0.81
   4   2  -8    2.52    0.77
   4   2  -7   96.76    4.76
   4   2  -7  109.18    5.06
   4   2  -6  542.62   11.94
   4   2  -6  567.43   12.47
   4   2  -6  580.76   12.73
   4   2  -5  455.88   10.97
   4   2  -5  479.31   11.60
   4   2  -4   13.62    1.87
   4   2  -4   15.41    2.13
   4   2  -4   17.90    2.23
  -4  -2   3    6.32    1.23
  -4  -2   3   12.92    1.72
  -4  -2   2  839.17   11.78
  -4  -2   1  332.52    7.22
  -4  -2   0 1637.23   15.46
  -4  -2  -1 2107.12   17.96
  -4  -2  -2 1347.09   15.78
  -4  -2  -3   73.70    4.31
   4   2   3   71.26    3.88
  -4  -2  -4   86.94    5.16
   4   2   4   85.00    4.48
   4   2   5  792.97   14.52
  -4  -2  -5  814.49   14.70
   4   2   6  107.21    5.55
   4   2   7  444.45   11.24
  -4  -2  -8    8.54    1.58
   4   2   8   10.19    1.72
  -4  -2  -9    0.99    0.56
   4   2   9    1.54    0.70
   4   3  -8    0.99    0.55
   4   3  -8    0.58    0.46
   4   3  -7   28.71    2.59
   4   3  -7   27.79    2.55
   4   3  -6    9.63    1.72
   4   3  -6    8.53    1.59
   4   3  -5  657.83   13.53
   4   3  -4  960.59   16.05
   4   3  -3  287.67    8.61
  -4  -3   3  287.31    7.90
  -4  -3   2   14.39    1.75
  -4  -3   1  273.05    6.66
  -4  -3   0   68.81    3.24
  -4  -3  -1  720.86   10.63
   4   3   2 1651.97   18.31
  -4  -3  -2 1827.95   17.21
   4   3   3   30.03    2.56
  -4  -3  -3   37.67    2.65
   4   3   4  133.61    5.71
  -4  -3  -4  124.07    5.34
  -4  -3  -4  115.15    5.15
   4   3   5   53.66    3.83
  -4  -3  -5   53.57    3.92
  -4  -3  -5   51.71    3.82
   4   3   6   43.21    3.54
  -4  -3  -6   42.94    3.58
   4   3   7  159.00    6.65
  -4  -3  -8    2.27    0.98
   4   3   8    4.56    1.13
  -4  -3  -9  283.07    7.31
   4   4  -8   16.01    1.51
   4   4  -8   21.18    1.68
   4   4  -7   22.59    2.20
   4   4  -7   20.58    2.11
  -4  -4   6  142.10    5.88
   4   4  -6  134.89    6.01
  -4  -4   5   47.05    3.64
   4   4  -5   44.44    3.60
  -4  -4   4   16.92    2.24
   4   4  -4   16.61    2.23
  -4  -4   3  123.42    5.72
   4   4  -3  129.21    5.92
  -4  -4   2  271.55    7.69
  -4  -4   1    6.13    1.18
  -4  -4   0   13.28    1.56
  -4  -4   0   13.62    1.63
   4   4   1  629.59   12.10
  -4  -4  -1  507.37    9.30
   4   4   2  118.40    5.25
  -4  -4  -2  106.98    4.29
   4   4   3   18.00    2.13
  -4  -4  -3   15.29    1.80
   4   4   4    6.83    1.43
  -4  -4  -4    6.76    1.39
  -4  -4  -4    5.60    1.25
  -4  -4  -4    6.55    1.36
  -4  -4  -5  101.13    5.36
  -4  -4  -6  951.81   16.79
  -4  -4  -7   32.03    3.04
  -4  -4  -8    3.22    1.02
  -4  -4  -9  105.60    4.26
  -4  -5   7   59.21    3.06
   4   5  -7   62.66    3.24
  -4  -5   6 1121.40   16.00
   4   5  -6 1199.60   16.84
  -4  -5   5 1025.98   16.55
   4   5  -5  968.35   16.61
  -4  -5   4  138.51    6.22
   4   5  -4  149.28    6.69
  -4  -5   3   77.77    4.67
   4   5  -3   84.46    4.98
  -4  -5   2   19.38    2.32
   4   5  -2   21.60    2.54
  -4  -5   1  575.17   12.13
   4   5  -1  575.95   12.33
  -4  -5   1  600.92   11.58
  -4  -5   0  393.79    9.19
  -4  -5  -1  977.29   15.01
   4   5   1  991.32   16.43
  -4  -5  -2  458.92   10.09
   4   5   2  504.27   11.83
  -4  -5  -2  440.60   10.66
  -4  -5  -2  537.57   11.44
  -4  -5  -3  353.00    9.73
  -4  -5  -3  347.33    9.17
  -4  -5  -4  347.09   10.05
  -4  -5  -4  335.51    9.37
  -4  -5  -5    5.38    1.36
  -4  -5  -6   99.81    5.43
  -4  -5  -6  102.62    5.35
  -4  -5  -7  313.79    9.03
  -4  -5  -7  260.64    8.15
  -4  -5  -8  429.43    9.42
  -4  -5  -9  100.20    3.80
  -4  -6   6   48.36    3.06
  -4  -6   5  126.10    5.49
   4   6  -5  120.21    5.37
  -4  -6   4   44.99    3.47
   4   6  -4   45.61    3.58
  -4  -6   3  429.04   10.75
   4   6  -3  427.74   11.14
  -4  -6   2  433.61   10.77
   4   6  -2  427.81   11.00
  -4  -6   2  427.70   10.19
   4   6  -1  941.27   16.25
  -4  -6   1  981.28   15.42
  -4  -6   0    2.32    0.90
  -4  -6   0    1.64    0.79
  -4  -6   0    2.97    1.09
  -4  -6  -1  181.53    7.06
  -4  -6  -1  191.04    7.29
  -4  -6  -1  173.04    6.30
  -4  -6  -2  377.36   10.19
  -4  -6  -2  370.35    9.83
  -4  -6  -3  103.92    5.45
  -4  -6  -3  106.44    5.36
  -4  -6  -4  493.73   12.14
  -4  -6  -4  511.14   11.92
  -4  -6  -5  747.02   14.31
  -4  -6  -6   14.49    2.03
  -4  -6  -6   18.77    2.20
  -4  -6  -7   18.42    2.09
  -4  -6  -7   19.40    2.10
  -4  -6  -8   20.18    1.90
  -4  -6  -8   16.49    1.61
  -4  -7   6  264.78    6.06
  -4  -7   5   -0.31    0.57
  -4  -7   4  193.86    6.65
  -4  -7   3   63.31    4.01
  -4  -7   2  722.82   13.71
  -4  -7   2  717.12   12.97
  -4  -7   1    5.71    1.36
  -4  -7   1    8.06    1.48
  -4  -7   0  189.44    7.28
  -4  -7   0  176.89    6.46
  -4  -7  -1  708.41   14.09
  -4  -7  -1  644.92   12.14
  -4  -7  -2  673.93   13.76
  -4  -7  -2  664.96   12.14
  -4  -7  -3  429.59   11.40
  -4  -7  -3  441.54   11.42
  -4  -7  -4  151.90    6.86
  -4  -7  -4  152.34    6.27
  -4  -7  -5    7.77    1.45
  -4  -7  -6  106.06    4.90
  -4  -7  -6  108.42    4.88
  -4  -7  -7   35.09    2.52
  -4  -7  -7   36.93    2.52
  -4  -8   5   57.91    2.83
  -4  -8   4   39.34    2.68
  -4  -8   3  320.00    8.23
  -4  -8   3  296.30    7.03
  -4  -8   2  877.79   14.32
  -4  -8   2  895.90   13.43
  -4  -8   1    1.35    0.74
  -4  -8   1    1.74    0.80
  -4  -8   0    8.77    1.56
  -4  -8   0   10.58    1.56
  -4  -8  -1  254.18    8.24
  -4  -8  -1  232.35    6.96
  -4  -8  -2    4.90    1.24
  -4  -8  -3  151.63    6.66
  -4  -8  -3  158.01    6.62
  -4  -8  -3  138.49    5.70
  -4  -8  -4   72.35    4.16
  -4  -8  -4   64.61    3.65
  -4  -8  -5  141.98    5.42
  -4  -8  -5  144.78    5.42
  -4  -8  -6    0.64    0.36
  -4  -9   3   58.10    2.96
  -4  -9   2   90.65    4.05
  -4  -9   1    0.30    0.44
  -4  -9   1    0.38    0.50
  -4  -9   1    0.27    0.44
  -4  -9   0  122.00    5.07
  -4  -9   0  117.84    4.71
  -4  -9  -1  349.17    8.09
  -4  -9  -2   42.33    2.77
  -4  -9  -3    9.55    1.41
  -4  -9  -3    8.97    1.22
  -4  -9  -4   13.91    1.57
  -4  -9  -4   14.78    1.37
   5  -5  -2   -0.20    0.51
   5  -5  -1    6.16    1.03
   5  -5  -1    6.57    1.04
   5  -5   0   53.46    2.98
   5  -5   1    1.51    0.62
   5  -5   2    6.35    1.05
   5  -5   3  161.87    4.75
   5  -4  -4   24.76    1.97
   5  -4  -4   25.28    1.91
   5  -4  -3   19.60    1.93
   5  -4  -3   19.17    1.82
   5  -4  -2   39.26    2.90
   5  -4  -2   39.56    2.88
   5  -4  -2   35.64    2.62
   5  -4  -1  216.71    6.81
   5  -4  -1  224.41    7.00
   5  -4  -1  205.44    6.61
   5  -4  -1  212.48    6.48
   5  -4   0  331.08    8.54
   5  -4   0  321.03    8.47
   5  -4   0  346.91    8.50
   5  -4   1   12.16    1.73
   5  -4   1   17.38    2.09
   5  -4   1   13.24    1.76
   5  -4   2   27.08    2.52
   5  -4   3    0.10    0.59
   5  -4   4    2.56    0.79
   5  -4   4    1.73    0.69
   5  -4   5    2.01    0.67
   5  -4   6    9.71    1.16
   5  -3  -5   42.87    2.74
   5  -3  -5   40.38    2.44
   5  -3  -4   14.77    1.83
   5  -3  -4   13.34    1.59
   5  -3  -3  238.50    7.45
   5  -3  -3  223.45    6.72
   5  -3  -2  430.49   10.46
   5  -3  -2  392.49   10.48
   5  -3  -2  417.49   10.18
   5  -3  -2  414.84    9.52
   5  -3  -1   53.48    3.74
   5  -3  -1   54.86    3.81
   5  -3  -1   54.90    3.83
   5  -3  -1   51.11    3.45
   5  -3   0   48.46    3.57
   5  -3   0   48.89    3.63
   5  -3   0   47.96    3.60
   5  -3   0   46.45    3.34
   5  -3   1   23.77    2.53
   5  -3   1   28.02    2.78
   5  -3   1   23.54    2.52
   5  -3   1   24.23    2.48
   5  -3   2   54.97    3.81
   5  -3   2   56.77    3.99
   5  -3   2   55.18    3.62
   5  -3   3  528.91   12.07
   5  -3   3  510.40   11.41
   5  -3   3  488.56   11.69
   5  -3   3  490.45   11.15
   5  -3   4   21.53    2.25
   5  -3   4   17.29    2.15
   5  -3   5    1.45    0.69
   5  -3   6   12.19    1.53
   5  -3   7   41.02    2.35
   5  -2  -6   20.11    1.84
   5  -2  -6   21.49    1.68
   5  -2  -5    2.68    0.88
   5  -2  -5    1.14    0.54
   5  -2  -4  108.97    5.06
   5  -2  -4   84.90    4.32
   5  -2  -3  620.66   12.55
   5  -2  -3  608.53   11.85
   5  -2  -2    6.43    1.39
   5  -2  -2    6.52    1.53
   5  -2  -2    4.51    1.19
   5  -2  -2    4.32    1.15
   5  -2  -1 1785.78   22.13
   5  -2  -1 1799.81   22.40
   5  -2  -1 1878.58   22.74
   5  -2  -1 1858.78   20.63
   5  -2   0   96.07    5.18
   5  -2   0   91.99    4.94
   5  -2   0   92.79    5.10
   5  -2   0   86.99    4.54
   5  -2   1   63.09    4.14
   5  -2   1   67.22    4.37
   5  -2   1   55.91    3.90
   5  -2   1   67.30    3.94
   5  -2   2    4.66    1.27
   5  -2   2    4.40    1.17
   5  -2   2    4.37    1.09
   5  -2   3   10.92    1.80
   5  -2   3   12.14    1.91
   5  -2   3   10.80    1.70
   5  -2   4   65.85    4.33
   5  -2   4   53.64    3.63
   5  -2   5   55.84    3.73
   5  -2   6    0.80    0.52
   5  -2   6    0.91    0.70
   5  -2   7   70.75    3.51
   5  -2   7   81.44    4.32
   5  -2   8    0.39    0.30
   5  -2   8    1.29    0.55
   5  -1  -6   27.90    2.32
   5  -1  -6   24.79    1.99
   5  -1  -5    0.80    0.63
   5  -1  -5    1.06    0.78
   5  -1  -5    2.36    0.80
   5  -1  -4  457.23   10.76
   5  -1  -4  432.50   10.35
   5  -1  -3  940.77   15.71
   5  -1  -3  976.74   15.77
   5  -1  -2  175.00    6.89
   5  -1  -2  185.35    7.18
   5  -1  -2  176.55    6.59
   5  -1  -1  189.09    7.23
   5  -1  -1  190.41    7.36
   5  -1  -1  185.47    6.65
   5  -1   0   37.46    3.14
   5  -1   0   40.47    3.33
   5  -1   0   39.91    3.35
   5  -1   0   33.90    2.84
   5  -1   1  207.79    7.57
   5  -1   1  200.40    7.40
   5  -1   1  201.55    7.34
   5  -1   1  210.28    6.75
   5  -1   2  542.26   12.29
   5  -1   2  537.63   12.31
   5  -1   2  571.82   10.99
   5  -1   3  245.56    8.17
   5  -1   3  236.87    8.39
   5  -1   3  256.56    7.41
   5  -1   4  310.24    9.58
   5  -1   4  324.48    8.50
   5  -1   5  123.10    6.11
   5  -1   5  109.40    4.99
   5  -1   6   41.61    3.34
   5  -1   7    3.29    0.90
   5  -1   8  218.15    5.81
   5  -1   8  267.73    7.14
   5   0  -7    1.65    0.55
   5   0  -6   78.97    4.06
   5   0  -5   95.31    4.88
   5   0  -5   86.92    4.62
   5   0  -4  668.11   13.99
   5   0  -4  622.90   12.83
   5   0  -4  637.78   12.64
   5   0  -3   51.49    3.93
   5   0  -3   34.33    3.46
   5   0  -3   40.77    3.34
   5   0  -3   44.35    3.40
   5   0  -2  327.50    9.50
   5   0  -2  320.79    9.33
   5   0  -2  339.04   10.49
   5   0  -2  308.79    8.76
   5   0  -1   30.04    2.84
   5   0  -1   23.68    2.55
   5   0  -1   24.59    2.58
   5   0  -1   26.15    2.65
   5   0  -1   29.47    2.65
  -5   0   0  174.39    7.09
   5   0   0  175.28    6.82
   5   0   0  164.07    6.56
   5   0   0  169.46    6.19
  -5   0  -1   39.94    3.94
   5   0   1   36.38    3.08
  -5   0  -2   98.20    6.14
   5   0   2   84.18    4.78
   5   0   2   87.55    4.24
   5   0   3  249.44    8.38
   5   0   3  241.18    7.91
   5   0   3  267.66    7.45
   5   0   4    1.47    0.81
   5   0   4    1.44    0.71
   5   0   5  174.81    6.98
   5   0   5  160.85    5.92
   5   0   6    4.75    1.24
   5   0   7    7.33    1.49
   5   0   8    3.83    1.02
   5   0   9    2.18    0.65
   5   1  -7   19.34    1.82
   5   1  -7   18.75    1.86
   5   1  -6    1.70    0.78
   5   1  -6    4.38    1.09
   5   1  -5   47.62    3.54
   5   1  -5   41.35    3.29
   5   1  -5   36.39    3.34
   5   1  -4  542.86   12.10
   5   1  -4  516.52   11.85
   5   1  -4  411.11   11.50
   5   1  -4  402.79   11.73
   5   1  -3  585.02   12.86
   5   1  -3  591.36   13.03
   5   1  -2    0.02    0.42
   5   1  -2    0.21    0.55
   5   1  -2    0.10    0.62
   5   1  -2    0.87    0.67
   5   1  -1    2.09    0.86
  -5  -1   1    4.07    1.10
  -5  -1   0  581.78   11.76
  -5  -1  -1   44.84    3.50
  -5  -1  -2  537.52   13.39
  -5  -1  -3 1046.54   19.51
   5   1   3  884.81   13.64
   5   1   4  475.71   10.94
   5   1   4  461.96    9.71
   5   1   5   10.42    1.72
   5   1   5   12.28    1.66
   5   1   6   32.34    2.94
   5   1   7  265.92    8.15
   5   1   8   48.68    3.25
   5   1   9  234.50    6.04
   5   2  -7    0.11    0.45
   5   2  -7    0.85    0.52
   5   2  -6    0.92    0.68
   5   2  -6    1.29    0.76
   5   2  -5    0.60    0.61
   5   2  -5    1.25    0.76
   5   2  -5    2.50    0.98
   5   2  -4   23.94    2.76
   5   2  -4   21.91    2.50
   5   2  -3  922.44   16.02
   5   2  -3  948.45   16.49
   5   2  -2 1207.65   17.99
   5   2  -2 1178.45   17.94
   5   2  -1  380.11    9.90
  -5  -2   1  423.99    9.66
  -5  -2   0    8.30    1.46
  -5  -2  -1  197.98    6.55
  -5  -2  -2    2.72    0.90
  -5  -2  -3  384.74   10.25
   5   2   4  617.72   12.37
   5   2   4  612.60   11.46
   5   2   5   23.60    2.58
   5   2   6   44.68    3.52
   5   2   7   52.79    3.73
   5   2   8   44.36    3.16
   5   2   9   78.63    3.44
   5   3  -7    6.10    1.01
   5   3  -7   11.70    1.48
   5   3  -6   67.80    3.94
   5   3  -6   65.23    3.86
   5   3  -5   17.01    2.28
   5   3  -5   17.94    2.30
   5   3  -5   21.03    2.40
   5   3  -4  238.37    8.16
   5   3  -4  237.24    8.46
   5   3  -4  231.45    8.04
   5   3  -3  142.75    6.59
   5   3  -3  156.43    6.62
   5   3  -2    5.22    1.27
  -5  -3   1   50.15    3.37
   5   3  -1   45.18    3.45
  -5  -3   0  363.84    8.83
  -5  -3  -1    5.55    1.16
  -5  -3  -2    0.91    0.48
  -5  -3  -3  157.61    6.86
  -5  -3  -3  175.66    6.36
  -5  -3  -3  159.11    6.28
   5   3   3  150.90    5.67
  -5  -3  -4  129.46    5.76
   5   3   5   16.40    2.21
  -5  -3  -5   16.34    2.18
   5   3   6    5.51    1.35
   5   3   7   81.24    4.63
  -5  -3  -8  549.16   10.88
   5   3   8  549.66   10.66
  -5  -3  -9    9.54    1.16
   5   4  -7   64.19    3.02
   5   4  -7   71.19    3.30
   5   4  -6  108.37    4.82
   5   4  -6  104.32    4.70
   5   4  -5   98.17    5.04
   5   4  -5   98.50    5.19
   5   4  -5   89.29    4.77
   5   4  -4 1500.66   21.07
   5   4  -4 1369.05   19.30
   5   4  -3 1468.43   20.95
   5   4  -3 1471.24   19.91
  -5  -4   2  150.81    6.54
   5   4  -2  126.90    5.88
  -5  -4   1  163.08    6.38
   5   4  -1  168.40    6.68
  -5  -4   0    6.89    1.39
  -5  -4   0    9.06    1.50
   5   4   0    7.14    1.40
  -5  -4  -1  702.36   14.07
  -5  -4  -1  718.96   13.09
  -5  -4  -2  250.91    8.42
  -5  -4  -2  252.31    7.86
  -5  -4  -3  676.02   14.04
  -5  -4  -3  678.30   13.08
  -5  -4  -4  399.62   10.91
   5   4   4  383.34   10.11
  -5  -4  -4  391.95   10.09
   5   4   5  272.22    8.80
  -5  -4  -5  295.32    9.19
   5   4   6  382.26   10.17
  -5  -4  -6  401.97   10.70
  -5  -4  -7    0.58    0.68
  -5  -4  -8   50.97    3.26
  -5  -4  -9  164.48    4.58
   5   5  -6   18.12    1.86
   5   5  -6   18.24    1.82
   5   5  -6   20.76    2.00
  -5  -5   5    8.92    1.48
   5   5  -5   10.62    1.66
   5   5  -5   10.27    1.65
  -5  -5   4  101.55    5.27
   5   5  -4  103.50    5.33
   5   5  -4  104.91    5.35
  -5  -5   3  138.10    6.36
   5   5  -3  138.13    6.23
  -5  -5   2  100.41    5.42
  -5  -5   2  111.10    5.72
   5   5  -2   99.88    5.29
  -5  -5   1  464.07   11.54
  -5  -5   1  481.95   11.28
   5   5  -1  451.08   10.91
  -5  -5   0  557.21   12.64
  -5  -5   0  571.55   12.16
   5   5   0  533.06   11.77
  -5  -5  -1 1286.24   19.10
  -5  -5  -1 1284.87   18.15
  -5  -5  -2    8.59    1.62
  -5  -5  -2    7.69    1.49
  -5  -5  -3  179.95    7.18
  -5  -5  -3  123.56    5.57
  -5  -5  -4  218.60    7.97
  -5  -5  -4  224.68    7.67
  -5  -5  -5   24.62    2.67
  -5  -5  -6  258.30    8.32
  -5  -5  -7  452.54   10.04
  -5  -5  -8   24.26    2.11
   5   6  -6   10.79    1.16
  -5  -6   5  392.06    8.62
   5   6  -5  390.01    8.54
   5   6  -5  391.62    8.55
  -5  -6   4  306.60    8.66
   5   6  -4  310.65    8.65
  -5  -6   3    8.61    1.58
   5   6  -3   11.80    1.81
  -5  -6   2  291.65    9.00
   5   6  -2  293.90    8.95
  -5  -6   1   58.63    4.06
  -5  -6   1   47.82    3.90
   5   6  -1   56.89    4.01
  -5  -6   0  734.01   14.44
  -5  -6   0  789.82   14.99
  -5  -6  -1   16.27    2.16
  -5  -6  -1   25.55    2.67
  -5  -6  -2  164.76    6.74
  -5  -6  -2  174.75    6.76
  -5  -6  -3  625.76   13.30
  -5  -6  -3  629.94   12.79
  -5  -6  -4  745.72   14.55
  -5  -6  -4  737.72   14.09
  -5  -6  -5  410.07   10.21
  -5  -6  -6  109.34    5.14
  -5  -6  -6  109.89    5.07
  -5  -6  -7    0.69    0.42
  -5  -6  -7    4.80    1.06
  -5  -6  -8   25.32    1.90
  -5  -7   5    2.44    0.68
  -5  -7   4   52.56    3.25
  -5  -7   3   63.52    3.83
  -5  -7   2   29.00    2.71
  -5  -7   1  404.28   10.24
  -5  -7   0 1063.98   16.97
  -5  -7   0 1201.92   19.17
  -5  -7  -1    1.79    0.86
  -5  -7  -1   -0.08    0.78
  -5  -7  -2   13.60    1.99
  -5  -7  -2   11.61    1.88
  -5  -7  -3  139.43    6.16
  -5  -7  -3  151.93    6.31
  -5  -7  -4    2.32    0.92
  -5  -7  -5   84.11    4.36
  -5  -7  -6   28.60    2.39
  -5  -7  -6   27.63    2.33
  -5  -7  -7   65.14    3.18
  -5  -7  -7   82.14    3.29
  -5  -8   4   58.23    2.90
  -5  -8   3   16.09    1.73
  -5  -8   2    8.13    1.40
  -5  -8   1   39.70    3.03
  -5  -8   0  124.41    5.43
  -5  -8  -1    1.25    0.74
  -5  -8  -2   85.08    4.55
  -5  -8  -2   65.54    4.13
  -5  -8  -3  376.89    9.43
  -5  -8  -3  370.45    8.70
  -5  -8  -4   27.67    2.42
  -5  -8  -4   24.76    2.08
  -5  -8  -5   -0.09    0.40
  -5  -8  -5    0.35    0.48
  -5  -8  -6   22.00    1.73
  -5  -9   2   35.65    2.30
  -5  -9   1    0.53    0.42
  -5  -9   1    0.12    0.24
  -5  -9   0   34.73    2.55
  -5  -9   0   36.04    2.45
  -5  -9  -1   33.36    2.56
  -5  -9  -1   31.06    2.26
  -5  -9  -2   15.73    1.72
  -5  -9  -2   16.55    1.62
  -5  -9  -3   17.33    1.53
  -5  -9  -4    6.16    1.00
   6  -4  -1  192.42    4.95
   6  -4  -1  178.04    4.73
   6  -4   0  232.57    5.86
   6  -4   0  278.85    6.09
   6  -4   1    7.87    1.15
   6  -4   1    8.31    1.13
   6  -4   2   29.98    2.10
   6  -4   3   18.05    1.49
   6  -3  -3    3.08    0.74
   6  -3  -3    2.99    0.72
   6  -3  -2  108.29    4.37
   6  -3  -2  107.85    4.34
   6  -3  -2  104.79    4.07
   6  -3  -1  447.67    9.33
   6  -3  -1  448.11    9.30
   6  -3  -1  439.46    9.29
   6  -3  -1  443.55    8.75
   6  -3   0    7.23    1.32
   6  -3   0    6.09    1.25
   6  -3   0    6.55    1.17
   6  -3   1 1019.86   14.37
   6  -3   1 1026.27   13.47
   6  -3   2   38.36    2.82
   6  -3   2   40.96    2.98
   6  -3   2   40.67    2.75
   6  -3   3   54.19    3.30
   6  -3   3   58.36    3.20
   6  -3   4    8.57    1.21
   6  -3   5    0.69    0.39
   6  -2  -4   19.20    1.79
   6  -2  -4   14.96    1.49
   6  -2  -3    3.69    0.98
   6  -2  -3    3.70    0.95
   6  -2  -3    2.49    0.82
   6  -2  -2  337.45    8.57
   6  -2  -2  357.04    8.97
   6  -2  -2  362.94    9.43
   6  -2  -2  349.76    8.28
   6  -2  -1  619.79   11.93
   6  -2  -1  629.32   12.24
   6  -2  -1  635.54   11.26
   6  -2   0  190.11    6.71
   6  -2   0  198.45    7.06
   6  -2   0  192.93    6.86
   6  -2   0  190.85    6.25
   6  -2   1  101.87    5.05
   6  -2   1   97.26    4.92
   6  -2   1   91.24    4.74
   6  -2   1   99.41    4.52
   6  -2   2   14.77    1.97
   6  -2   2   19.52    2.27
   6  -2   2   17.68    1.94
   6  -2   3  110.84    5.06
   6  -2   3  107.55    5.20
   6  -2   3  114.46    4.73
   6  -2   4  208.17    6.91
   6  -2   4  234.39    6.59
   6  -2   5  100.76    4.33
   6  -2   6  126.63    4.46
   6  -2   7   65.54    2.73
   6  -1  -5    6.53    1.08
   6  -1  -5    4.84    0.79
   6  -1  -4   87.27    4.16
   6  -1  -4   87.58    3.92
   6  -1  -3  100.94    4.91
   6  -1  -3   90.79    4.59
   6  -1  -3  103.30    4.67
   6  -1  -2  336.87    9.33
   6  -1  -2  339.73    8.75
   6  -1  -1   37.04    3.15
   6  -1  -1   36.79    3.22
   6  -1  -1   34.39    3.11
   6  -1  -1   33.40    2.81
   6  -1   0  103.42    5.25
   6  -1   0  110.41    5.47
   6  -1   0  101.04    4.81
   6  -1   1   39.89    3.31
   6  -1   1   34.41    3.12
   6  -1   1   31.16    2.95
   6  -1   1   34.91    2.79
   6  -1   2  170.87    6.79
   6  -1   2  150.20    6.47
   6  -1   2  158.61    5.83
   6  -1   3    8.29    1.56
   6  -1   3    6.48    1.39
   6  -1   3    6.22    1.26
   6  -1   4   47.94    3.55
   6  -1   4   59.32    4.31
   6  -1   4   53.05    3.29
   6  -1   5  104.29    5.28
   6  -1   5   87.22    4.02
   6  -1   6    0.50    0.47
   6  -1   6    1.26    0.73
   6  -1   7   71.45    3.22
   6  -1   7   81.03    3.81
   6   0  -6   21.94    1.69
   6   0  -5    6.15    1.08
   6   0  -4    2.15    0.82
   6   0  -4    0.89    0.59
   6   0  -3   13.16    1.86
   6   0  -3    8.53    1.51
   6   0  -3   12.37    1.78
   6   0  -2  354.08    9.70
   6   0  -2  360.37    9.97
   6   0  -2  367.52    9.50
   6   0  -1  470.16   11.22
   6   0  -1  501.42   11.83
   6   0  -1  508.86   12.17
   6   0  -1  501.74   11.13
   6   0   0   15.00    2.07
   6   0   0   13.45    2.03
   6   0   0   13.22    1.97
   6   0   0   14.63    1.92
   6   0   1   14.87    2.09
   6   0   1   12.44    1.89
   6   0   1   16.96    2.01
   6   0   2  258.97    8.61
   6   0   2  240.80    8.24
   6   0   2  235.48    7.21
   6   0   3    1.84    0.84
   6   0   3    2.08    0.96
   6   0   3    1.10    0.72
   6   0   4  156.80    6.67
   6   0   4  154.33    6.53
   6   0   4  139.87    5.42
   6   0   5  365.98    9.60
   6   0   5  335.15    8.16
   6   0   6  217.09    7.07
   6   0   7    1.85    0.66
   6   0   8   11.81    1.21
   6   0   8   11.78    1.38
   6   1  -6  116.16    4.10
   6   1  -5    5.06    1.06
   6   1  -4    0.10    0.53
   6   1  -4    0.68    0.58
   6   1  -3    9.79    1.68
   6   1  -3    8.16    1.54
   6   1  -2   24.90    2.68
   6   1  -2   28.19    3.11
   6   1  -2   27.15    2.61
   6   1  -1  801.57   14.83
   6   1  -1  807.17   14.97
   6   1  -1  827.48   15.66
   6   1  -1  828.96   14.19
   6   1   0 1093.43   17.56
   6   1   0 1071.88   17.42
  -6  -1   0 1026.80   16.76
   6   1   0 1067.90   16.02
   6   1   1  277.41    9.05
   6   1   1  281.13    8.07
   6   1   2    1.04    0.74
   6   1   2    1.12    0.62
   6   1   2    1.59    0.85
   6   1   3   84.95    5.00
   6   1   3   87.16    4.44
   6   1   4   24.99    2.75
   6   1   4   34.00    3.01
   6   1   4   27.65    2.53
   6   1   5  172.91    6.66
   6   1   5  154.55    5.58
   6   1   6  352.25    9.10
   6   1   7   21.14    2.14
   6   1   8   20.03    1.81
   6   2  -6   22.89    1.87
   6   2  -6   22.64    1.90
   6   2  -5    6.16    1.25
   6   2  -5    8.39    1.33
   6   2  -5   10.15    1.56
   6   2  -4  105.59    5.16
   6   2  -4  107.64    5.17
   6   2  -3   15.47    2.12
   6   2  -3   12.74    2.09
   6   2  -2  228.11    8.01
   6   2  -2  245.87    9.39
   6   2  -1  268.25    8.70
   6   2   0    0.63    0.70
  -6  -2   0    0.09    0.51
   6   2   0    0.29    0.54
   6   2   1    1.75    0.87
  -6  -2  -1    2.00    0.89
   6   2   2  270.97    8.76
  -6  -2  -2  263.78    8.40
   6   2   2  278.31    8.10
   6   2   3   26.70    2.54
   6   2   4   32.85    2.90
   6   2   4   29.76    2.64
   6   2   5   39.24    3.21
   6   2   6  114.30    5.25
   6   2   7    3.05    0.99
   6   2   8    7.91    1.20
   6   3  -6  206.30    5.45
  -6  -3   6  229.60    5.85
   6   3  -5  118.77    5.14
   6   3  -5  116.04    4.83
   6   3  -5  123.50    5.13
   6   3  -4  123.86    5.55
   6   3  -4  121.38    5.45
   6   3  -4  116.21    5.37
   6   3  -3   83.21    4.77
   6   3  -3   75.33    4.49
   6   3  -3   81.71    4.68
   6   3  -2 1342.68   19.20
   6   3  -2 1388.41   19.91
   6   3  -1 1386.16   19.85
   6   3  -1 1443.12   20.22
   6   3   0   91.29    5.17
  -6  -3   0   87.09    4.76
   6   3   0   90.06    5.14
   6   3   1  191.07    7.47
  -6  -3  -1  190.60    7.04
  -6  -3  -2    0.32    0.64
   6   3   2    0.25    0.52
  -6  -3  -3  557.68   12.19
   6   3   3  564.11   11.35
   6   3   4  119.87    5.54
  -6  -3  -4  112.40    5.44
   6   3   5  439.49   10.77
   6   3   6  233.76    7.58
   6   3   7  195.62    6.44
   6   3   8  277.36    6.50
   6   4  -6    0.23    0.26
   6   4  -6    0.07    0.34
   6   4  -5   46.57    3.11
   6   4  -5   39.29    2.69
  -6  -4   5   47.95    3.07
   6   4  -5   45.87    3.04
   6   4  -4   24.01    2.46
   6   4  -4   20.96    2.17
  -6  -4   4   26.04    2.47
   6   4  -4   24.96    2.45
   6   4  -3   26.29    2.69
  -6  -4   3   25.32    2.51
   6   4  -3   24.83    2.61
   6   4  -2  134.03    6.06
  -6  -4   2  153.49    6.29
   6   4  -2  148.72    6.28
   6   4  -1  121.83    5.92
  -6  -4   1  125.49    5.65
   6   4  -1  125.99    5.80
   6   4   0  166.16    6.96
  -6  -4   0  151.45    6.12
   6   4   0  151.85    6.38
  -6  -4  -1  316.78    9.85
   6   4   1  338.50    9.86
  -6  -4  -1  344.10    9.37
  -6  -4  -2  437.08   11.71
  -6  -4  -2  437.90   10.66
  -6  -4  -3 1326.75   20.49
  -6  -4  -3 1231.43   18.14
   6   4   4   16.52    2.16
  -6  -4  -4   15.43    2.08
   6   4   5   94.54    5.08
  -6  -4  -5  101.33    5.28
   6   4   6   87.71    4.59
  -6  -4  -6   86.76    4.59
   6   4   7    0.53    0.54
  -6  -4  -8  117.35    4.02
   6   5  -5    1.29    0.57
   6   5  -5    0.98    0.60
   6   5  -4    2.08    0.75
   6   5  -4    2.51    0.84
  -6  -5   4    2.58    0.85
   6   5  -3  462.46   10.57
  -6  -5   3  441.18   10.23
   6   5  -3  436.81   10.12
  -6  -5   2  224.92    7.97
  -6  -5   2  244.79    7.82
   6   5  -2  239.60    7.71
  -6  -5   1   39.28    3.44
  -6  -5   1   39.32    3.19
   6   5  -1   35.88    3.06
  -6  -5   0  304.97    9.57
   6   5   0  332.19    9.75
  -6  -5   0  316.86    9.02
  -6  -5  -1   39.95    3.53
  -6  -5  -1   43.61    3.34
  -6  -5  -2  512.80   12.50
  -6  -5  -2  496.70   11.13
  -6  -5  -3   44.98    3.73
  -6  -5  -3   43.98    3.36
   6   5   4  122.21    5.60
  -6  -5  -4  134.02    5.85
   6   5   5  373.35    9.40
  -6  -5  -5  327.81    9.19
  -6  -5  -6  614.79   11.76
  -6  -5  -7  268.68    6.74
  -6  -5  -8   39.04    2.17
   6   6  -5   19.39    1.71
   6   6  -4    3.63    0.88
   6   6  -4    4.94    1.06
   6   6  -3    0.40    0.56
  -6  -6   3    0.95    0.67
  -6  -6   2   41.64    3.33
  -6  -6   2   38.58    3.15
   6   6  -2   38.49    3.03
  -6  -6   1   51.46    3.83
  -6  -6   1   50.55    3.57
  -6  -6   0    8.38    1.58
  -6  -6   0    8.89    1.50
  -6  -6  -1  384.60   10.46
  -6  -6  -1  390.01    9.83
  -6  -6  -2  921.13   16.16
  -6  -6  -2  937.55   15.12
  -6  -6  -3    0.03    0.64
  -6  -6  -3   -0.34    0.84
  -6  -6  -4   14.93    1.94
  -6  -6  -5   39.29    3.00
  -6  -6  -6    1.32    0.74
  -6  -6  -7   24.85    1.89
   6   7  -4   65.67    3.11
  -6  -7   3   10.08    1.37
   6   7  -3   11.51    1.50
  -6  -7   2   96.31    4.57
  -6  -7   1    8.28    1.45
  -6  -7   1    5.58    1.18
  -6  -7   0    1.98    0.80
  -6  -7   0    0.58    0.62
  -6  -7  -1   10.36    1.69
  -6  -7  -1   10.38    1.57
  -6  -7  -2  116.18    5.39
  -6  -7  -2  120.12    5.22
  -6  -7  -3    2.69    0.95
  -6  -7  -3    2.87    0.92
  -6  -7  -4   36.00    2.80
  -6  -7  -5  276.14    7.19
  -6  -7  -6    5.94    0.94
  -6  -7  -6   14.33    1.50
  -6  -8   2   18.96    1.77
   6   8  -2   16.35    1.54
  -6  -8   1   92.73    4.12
   6   8  -1   83.14    3.63
  -6  -8   0   50.66    3.21
  -6  -8  -1   21.29    2.12
  -6  -8  -1   21.62    2.14
  -6  -8  -2   58.08    3.49
  -6  -8  -2   61.75    3.56
  -6  -8  -3   17.54    1.86
  -6  -8  -3   13.54    1.45
  -6  -8  -4   26.55    2.15
  -6  -8  -5   18.47    1.57
  -6  -8  -5   13.62    1.39
  -6  -9  -1   16.04    1.57
  -6  -9  -1   15.36    1.38
   7  -3   1  255.79    5.41
   7  -2  -2   55.81    2.68
   7  -2  -2   53.86    2.42
   7  -2  -1   47.65    2.66
   7  -2  -1   52.13    2.60
   7  -2   0  169.05    5.23
   7  -2   0  175.93    5.57
   7  -2   0  168.98    4.90
   7  -2   1   16.05    1.68
   7  -2   1   15.46    1.73
   7  -2   1   15.67    1.57
   7  -2   2   24.68    2.00
   7  -2   2   24.90    2.12
   7  -2   2   27.80    2.05
   7  -2   3   32.57    2.25
   7  -2   3   35.80    2.23
   7  -2   4   73.63    2.88
   7  -1  -3    0.17    0.34
   7  -1  -3    0.30    0.31
   7  -1  -3    0.33    0.23
   7  -1  -2    1.96    0.74
   7  -1  -2    1.14    0.55
   7  -1  -2    2.81    0.69
   7  -1  -1    0.83    0.54
   7  -1  -1    1.13    0.59
   7  -1  -1    0.37    0.39
   7  -1   0  160.02    5.51
   7  -1   0  168.50    5.81
   7  -1   0  160.93    5.81
   7  -1   0  178.21    5.50
   7  -1   1  317.11    8.10
   7  -1   1  318.97    7.41
   7  -1   2   48.35    3.14
   7  -1   2   44.49    3.08
   7  -1   2   48.21    2.92
   7  -1   3   14.65    1.63
   7  -1   3   15.94    1.84
   7  -1   3   18.92    1.84
   7  -1   4   78.03    3.70
   7  -1   4   87.48    3.64
   7  -1   5    2.76    0.70
   7   0  -4  115.73    3.83
   7   0  -3   16.07    1.73
   7   0  -3   16.12    1.67
  -7   0   3   13.13    1.43
   7   0  -3   14.02    1.38
   7   0  -2    6.72    1.23
   7   0  -2    5.65    1.15
   7   0  -2    6.76    1.10
   7   0  -1   26.18    2.41
   7   0  -1   27.87    2.48
   7   0  -1   26.00    2.46
   7   0  -1   30.05    2.41
   7   0   0   18.24    2.11
   7   0   0   15.86    1.96
   7   0   0   15.02    1.76
   7   0   1  504.60   11.01
   7   0   1  468.69    9.64
   7   0   2  757.51   13.21
   7   0   2  781.15   12.31
   7   0   3  132.07    5.63
   7   0   3  129.33    5.76
   7   0   3  127.19    4.77
   7   0   4   -0.58    0.71
   7   0   4    0.20    0.65
   7   0   4    0.18    0.49
   7   0   5   29.80    2.51
   7   0   6   21.74    1.81
   7   0   6   35.98    2.46
   7   1  -4   22.43    1.88
   7   1  -4   21.10    1.77
  -7  -1   4   20.47    1.77
   7   1  -3   11.79    1.57
   7   1  -3   11.26    1.51
  -7  -1   3   11.22    1.48
   7   1  -2   94.51    4.55
   7   1  -2   99.22    4.66
  -7  -1   2  103.25    4.70
   7   1  -1    5.84    1.19
   7   1  -1    9.57    1.59
  -7  -1   1    6.07    1.21
   7   1  -1    8.96    1.38
   7   1   0  143.42    5.99
   7   1   0  148.90    5.64
   7   1   1  305.92    8.90
   7   1   1  296.38    8.69
   7   1   1  276.30    7.80
   7   1   2    3.23    1.00
   7   1   2    0.60    0.63
   7   1   2    3.51    1.11
   7   1   2    1.40    0.77
   7   1   3    4.17    1.12
   7   1   3    4.82    1.11
   7   1   3    4.74    1.05
   7   1   4  165.13    6.29
   7   1   4  173.73    6.28
   7   1   4  166.19    5.49
   7   1   5   33.52    2.70
   7   1   6   55.67    3.22
   7   1   7    1.72    0.52
   7   2  -4  305.17    7.23
  -7  -2   4  302.31    6.93
   7   2  -3  135.18    5.36
   7   2  -3  126.83    4.94
  -7  -2   3  144.99    5.39
   7   2  -2  100.74    4.88
  -7  -2   2  104.39    4.80
   7   2  -1   37.90    3.12
   7   2  -1   43.38    3.37
  -7  -2   1   39.56    3.11
   7   2   0  916.48   15.44
  -7  -2   0  883.07   14.77
   7   2   0  917.97   14.14
   7   2   1  989.88   16.05
  -7  -2  -1  969.03   15.50
   7   2   1  985.32   14.83
   7   2   2   21.93    2.38
   7   2   2   20.64    2.39
   7   2   2   23.76    2.31
   7   2   3  101.32    5.21
   7   2   3  107.09    4.75
   7   2   4    2.97    1.02
   7   2   4    2.81    0.98
   7   2   4    1.96    0.79
   7   2   5  340.11    8.54
   7   2   6   42.32    2.84
   7   2   7  211.45    5.57
   7   3  -4   -0.04    0.33
  -7  -3   4    0.82    0.57
   7   3  -3   30.36    2.60
  -7  -3   3   28.33    2.37
   7   3  -3   26.93    2.42
   7   3  -2   19.30    2.17
  -7  -3   2   20.54    2.15
   7   3  -2   14.23    1.94
   7   3  -1   29.41    2.79
  -7  -3   1   25.57    2.49
   7   3   0  105.48    5.38
  -7  -3   0  107.23    5.14
   7   3   1   73.58    4.49
  -7  -3  -1   57.49    3.86
  -7  -3  -2  162.52    6.39
   7   3   2  158.58    5.76
  -7  -3  -3  177.36    6.52
   7   3   3  184.72    6.15
   7   3   4  277.95    8.43
   7   3   4  258.68    7.65
   7   3   5  994.78   14.59
   7   3   6   19.80    1.95
   7   3   7   39.61    2.39
   7   4  -4   46.22    2.85
  -7  -4   4   44.95    2.69
   7   4  -4   42.41    2.66
   7   4  -3    4.59    1.02
   7   4  -3    6.70    1.24
  -7  -4   3    6.33    1.17
   7   4  -2    1.68    0.76
   7   4  -2    1.65    0.78
   7   4  -1  304.17    8.83
  -7  -4   1  350.54    8.82
   7   4   0  142.56    6.22
  -7  -4   0  129.51    5.54
   7   4   1   48.34    3.59
  -7  -4  -1   51.39    3.56
  -7  -4  -2  183.99    6.68
  -7  -4  -3   14.01    1.90
   7   4   4  245.17    7.43
  -7  -4  -4  240.70    7.38
   7   4   5   45.55    3.10
  -7  -4  -5   43.37    3.01
   7   4   6   77.91    3.65
   7   4   7  149.44    4.22
   7   5  -4   12.19    1.38
   7   5  -3   14.05    1.71
  -7  -5   3   15.09    1.70
   7   5  -2    6.09    1.22
  -7  -5   2    7.47    1.33
   7   5  -1    0.85    0.66
  -7  -5   1    1.28    0.72
   7   5   0   15.43    2.02
  -7  -5   0   14.86    1.86
  -7  -5  -1   25.57    2.63
  -7  -5  -1   22.82    2.32
  -7  -5  -2    1.45    0.80
  -7  -5  -2    0.28    0.60
  -7  -5  -3  288.82    7.98
   7   5   4  603.13   11.26
  -7  -5  -4  634.20   11.65
   7   5   5    1.04    0.65
  -7  -5  -5    2.67    0.84
  -7  -5  -6   11.32    1.31
   7   6  -3   40.73    2.54
  -7  -6   3   36.81    2.25
   7   6  -2   83.39    3.94
  -7  -6   2   85.49    3.95
  -7  -6   1   17.95    1.92
   7   6  -1   20.26    2.07
  -7  -6   1   21.36    2.10
  -7  -6   0  100.67    4.78
   7   6   0  102.41    4.69
  -7  -6   0  110.04    4.78
  -7  -6  -1    0.43    0.60
  -7  -6  -1    0.81    0.63
  -7  -6  -2   11.90    1.77
  -7  -6  -2    9.43    1.43
   7   6   3    0.07    0.47
  -7  -6  -3    0.59    0.49
  -7  -6  -4   72.21    3.78
  -7  -6  -5    3.68    0.88
  -7  -6  -6    7.68    1.00
   7   7  -2    0.69    0.42
  -7  -7   1   85.24    3.71
   7   7  -1   83.31    3.58
  -7  -7   1   94.61    3.86
  -7  -7   0   30.03    2.36
  -7  -7   0   30.93    2.36
  -7  -7  -1  103.81    4.54
  -7  -7  -1  107.89    4.47
  -7  -7  -2   36.94    2.72
  -7  -7  -2   38.70    2.70
  -7  -7  -3   74.05    3.67
  -7  -7  -4   62.50    3.17
  -7  -7  -5    2.33    0.63
  -7  -8  -1    1.39    0.53
   8   0  -1    9.30    1.08
   8   0   0   53.95    2.68
   8   0   0   51.56    2.36
   8   0   1    0.72    0.38
   8   0   1    0.38    0.32
   8   0   2   64.40    2.76
   8   0   2   71.07    3.23
   8   0   3  197.83    5.07
   8   0   3  199.98    4.72
   8   1  -2  257.20    5.63
   8   1  -1  109.67    4.01
   8   1  -1   92.14    3.63
   8   1   0   54.40    2.93
   8   1   0   50.01    2.95
   8   1   0   51.52    2.54
   8   1   1    8.39    1.18
   8   1   1    8.37    1.28
   8   1   1    8.07    1.08
   8   1   2  466.89    9.01
   8   1   2  459.61    8.90
   8   1   2  477.90    7.97
   8   1   3  501.17    8.93
   8   1   3  507.33    9.28
   8   1   4    8.92    1.07
   8   1   4    3.69    0.79
   8   2  -2    0.89    0.38
  -8  -2   2    0.59    0.39
   8   2  -1    9.60    1.30
   8   2  -1   10.07    1.31
  -8  -2   1    8.29    1.10
   8   2   0   12.29    1.49
   8   2   0   12.48    1.57
   8   2   1   33.39    2.44
   8   2   1   32.97    2.56
   8   2   1   31.90    2.45
   8   2   1   32.62    2.14
   8   2   2   83.51    3.96
   8   2   2   76.86    3.33
   8   2   3   18.34    1.84
   8   2   3   23.56    2.13
   8   2   4   97.47    3.82
   8   2   4  107.09    4.26
   8   2   5   54.80    2.79
   8   3  -2   33.20    2.19
  -8  -3   2   37.42    2.26
   8   3  -1    6.13    1.05
   8   3  -1    5.84    1.02
  -8  -3   1    5.82    1.01
   8   3   0   10.90    1.39
   8   3   0   12.15    1.58
  -8  -3   0   10.57    1.38
   8   3   1  221.16    6.24
   8   3   1  229.91    6.74
  -8  -3  -1  222.03    6.11
   8   3   2   48.97    3.12
   8   3   2   50.23    3.07
   8   3   3   32.72    2.48
   8   3   3   37.56    2.63
   8   3   4   98.15    3.95
   8   3   4  120.60    4.45
   8   3   5    0.46    0.37
   8   4  -2   15.76    1.49
  -8  -4   2   13.51    1.37
   8   4  -1    7.00    1.08
   8   4  -1    7.12    1.12
  -8  -4   1    8.62    1.21
   8   4   0    8.11    1.20
   8   4   0    7.21    1.27
  -8  -4   0    8.64    1.28
   8   4   1    4.93    1.01
  -8  -4  -1    4.92    0.97
   8   4   2    0.09    0.63
  -8  -4  -2    0.99    0.61
   8   4   3   12.22    1.53
   8   4   3   15.78    1.64
  -8  -4  -3   12.14    1.40
   8   4   4    1.77    0.59
   8   4   4    2.08    0.62
   8   4   5  149.31    4.41
   8   5  -1   48.02    2.60
  -8  -5   1   41.57    2.45
   8   5   0   59.27    2.96
   8   5   0   47.46    2.96
   8   5   1   21.55    2.00
  -8  -5  -1   20.67    1.86
   8   5   2   59.97    3.08
  -8  -5  -2   62.13    3.13
   8   5   3    0.39    0.36
   8   5   3   -0.31    0.53
  -8  -5  -3    0.19    0.36
   8   5   4   17.23    1.53
   8   5   4   20.72    1.66
  -8  -5  -4   18.69    1.57
   8   6   0    2.14    0.59
  -8  -6   0   -0.12    0.32
  -8  -6  -1   93.36    3.61
   8   6   2   21.01    1.61
  -8  -6  -2   26.18    1.93
   8   6   3   68.10    3.03
  -8  -6  -3   81.48    3.33


TITL wj-wj-wj0143-150k in P-1
REM P-1 (#2 in standard setting)
CELL 1.54184   7.072998   8.116732   8.701579  86.8954  81.0371  71.3082
ZERR    2.00   0.000662   0.000658   0.000891   0.0074   0.0082   0.0078
LATT  1
SFAC C H N O
UNIT 22.00 20.00 2.00 2.00
TREF
HKLF 4
END
_computing_structure_solution     'SHELXT 2014/4 (Sheldrick, 2014)'
;
_shelx_hkl_checksum              73149
_olex2_submission_special_instructions 'No special instructions were received'
_oxdiff_exptl_absorpt_empirical_details
;
Empirical correction (ABSPACK) includes:
- Absorption correction using spherical harmonics
- Frame scaling
- Detector area scaling
;
_oxdiff_exptl_absorpt_empirical_full_max 1.662
_oxdiff_exptl_absorpt_empirical_full_min 0.710
loop_
_space_group_symop_operation_xyz
'x, y, z'
'-x, -y, -z'
loop_
_atom_site_label
_atom_site_type_symbol
_atom_site_fract_x
_atom_site_fract_y
_atom_site_fract_z
_atom_site_U_iso_or_equiv
_atom_site_adp_type
_atom_site_occupancy
_atom_site_site_symmetry_order
_atom_site_calc_flag
_atom_site_refinement_flags_posn
_atom_site_refinement_flags_adp
_atom_site_refinement_flags_occupancy
_atom_site_disorder_assembly
_atom_site_disorder_group
O001 O 0.66168(16) 0.66383(14) 0.49717(12) 0.0214(3) Uani 1 1 d . . . . .
N002 N 0.99189(19) 0.55627(17) 0.28016(15) 0.0213(4) Uani 1 1 d . . . . .
N003 N 0.96594(19) 0.69266(17) 0.37659(15) 0.0206(4) Uani 1 1 d . . . . .
N004 N 0.75980(19) 0.87902(17) 0.57933(15) 0.0215(4) Uani 1 1 d . . . . .
C005 C 1.2418(3) 0.4122(2) 0.06060(19) 0.0278(4) Uani 1 1 d . . . . .
H00A H 1.1674 0.3308 0.0744 0.042 Uiso 1 1 calc GR . . . .
H00B H 1.3816 0.3518 0.0659 0.042 Uiso 1 1 calc GR . . . .
H00C H 1.2284 0.4680 -0.0390 0.042 Uiso 1 1 calc GR . . . .
C006 C 1.1606(2) 0.5462(2) 0.18609(18) 0.0219(4) Uani 1 1 d . . . . .
C007 C 0.5732(2) 0.8848(2) 0.66449(18) 0.0209(4) Uani 1 1 d . . . . .
C008 C 0.3380(2) 0.7180(2) 0.67565(19) 0.0251(4) Uani 1 1 d . . . . .
H008 H 0.3028 0.6271 0.6407 0.030 Uiso 1 1 calc R . . . .
C009 C 0.7986(2) 0.7501(2) 0.48685(17) 0.0202(4) Uani 1 1 d . . . . .
C00A C 0.4505(3) 0.9947(2) 0.78284(19) 0.0271(4) Uani 1 1 d . . . . .
H00D H 0.4869 1.0846 0.8185 0.033 Uiso 1 1 calc R . . . .
C00B C 0.5135(2) 0.7515(2) 0.61451(17) 0.0204(4) Uani 1 1 d . . . . .
C00C C 1.1163(2) 0.7661(2) 0.3417(2) 0.0261(4) Uani 1 1 d . . . . .
H00E H 1.1289 0.8601 0.3910 0.031 Uiso 1 1 calc R . . . .
C00D C 0.2171(3) 0.8294(2) 0.7933(2) 0.0301(4) Uani 1 1 d . . . . .
H00F H 0.0961 0.8133 0.8385 0.036 Uiso 1 1 calc R . . . .
C00E C 1.2434(3) 0.6740(2) 0.2206(2) 0.0283(4) Uani 1 1 d . . . . .
H00G H 1.3614 0.6917 0.1704 0.034 Uiso 1 1 calc R . . . .
C00F C 0.2717(3) 0.9647(2) 0.8455(2) 0.0306(4) Uani 1 1 d . . . . .
H00H H 0.1862 1.0367 0.9243 0.037 Uiso 1 1 calc R . . . .
loop_
_atom_site_aniso_label
_atom_site_aniso_U_11
_atom_site_aniso_U_22
_atom_site_aniso_U_33
_atom_site_aniso_U_23
_atom_site_aniso_U_13
_atom_site_aniso_U_12
O001 0.0231(6) 0.0207(6) 0.0209(6) -0.0041(4) 0.0004(4) -0.0087(5)
N002 0.0242(7) 0.0199(7) 0.0203(7) -0.0033(5) -0.0026(5) -0.0074(5)
N003 0.0232(7) 0.0198(7) 0.0195(7) -0.0033(5) -0.0011(5) -0.0082(5)
N004 0.0231(7) 0.0206(7) 0.0211(7) -0.0026(5) -0.0006(5) -0.0081(5)
C005 0.0280(8) 0.0300(9) 0.0235(8) -0.0045(7) -0.0001(6) -0.0076(7)
C006 0.0227(7) 0.0225(8) 0.0188(7) -0.0003(6) -0.0021(6) -0.0053(6)
C007 0.0242(8) 0.0184(8) 0.0209(8) -0.0001(6) -0.0047(6) -0.0070(6)
C008 0.0267(8) 0.0241(8) 0.0266(8) -0.0020(6) -0.0028(6) -0.0109(6)
C009 0.0218(7) 0.0193(8) 0.0197(7) 0.0014(6) -0.0034(6) -0.0069(6)
C00A 0.0332(9) 0.0221(8) 0.0268(9) -0.0056(6) -0.0020(7) -0.0101(7)
C00B 0.0237(8) 0.0188(7) 0.0179(7) -0.0016(6) -0.0029(6) -0.0055(6)
C00C 0.0266(8) 0.0240(8) 0.0305(9) -0.0021(6) -0.0016(6) -0.0128(7)
C00D 0.0257(8) 0.0323(10) 0.0308(9) -0.0011(7) 0.0029(7) -0.0104(7)
C00E 0.0255(8) 0.0296(9) 0.0310(9) -0.0021(7) 0.0033(6) -0.0135(7)
C00F 0.0320(9) 0.0264(9) 0.0281(9) -0.0070(7) 0.0040(7) -0.0047(7)
loop_
_atom_type_symbol
_atom_type_description
_atom_type_scat_dispersion_real
_atom_type_scat_dispersion_imag
_atom_type_scat_source
C C 0.0181 0.0091 'International Tables Vol C Tables 4.2.6.8 and 6.1.1.4'
H H 0.0000 0.0000 'International Tables Vol C Tables 4.2.6.8 and 6.1.1.4'
N N 0.0311 0.0180 'International Tables Vol C Tables 4.2.6.8 and 6.1.1.4'
O O 0.0492 0.0322 'International Tables Vol C Tables 4.2.6.8 and 6.1.1.4'
loop_
_geom_angle_atom_site_label_1
_geom_angle_atom_site_label_2
_geom_angle_atom_site_label_3
_geom_angle
_geom_angle_site_symmetry_1
_geom_angle_site_symmetry_3
_geom_angle_publ_flag
C009 O001 C00B 102.89(12) . . ?
C006 N002 N003 104.12(13) . . ?
C009 N003 N002 121.65(13) . . ?
C00C N003 N002 112.22(13) . . ?
C00C N003 C009 126.00(14) . . ?
C009 N004 C007 103.12(13) . . ?
H00A C005 H00B 109.5 . . ?
H00A C005 H00C 109.5 . . ?
H00B C005 H00C 109.5 . . ?
C006 C005 H00A 109.5 . . ?
C006 C005 H00B 109.5 . . ?
C006 C005 H00C 109.5 . . ?
N002 C006 C005 120.93(15) . . ?
N002 C006 C00E 111.53(14) . . ?
C00E C006 C005 127.54(15) . . ?
C00A C007 N004 131.46(15) . . ?
C00A C007 C00B 119.60(16) . . ?
C00B C007 N004 108.93(14) . . ?
C00B C008 H008 122.3 . . ?
C00B C008 C00D 115.32(15) . . ?
C00D C008 H008 122.3 . . ?
O001 C009 N003 116.56(14) . . ?
N004 C009 O001 117.61(14) . . ?
N004 C009 N003 125.82(15) . . ?
C007 C00A H00D 121.4 . . ?
C00F C00A C007 117.30(15) . . ?
C00F C00A H00D 121.4 . . ?
O001 C00B C007 107.44(14) . . ?
C008 C00B O001 128.30(14) . . ?
C008 C00B C007 124.26(15) . . ?
N003 C00C H00E 127.0 . . ?
C00E C00C N003 105.94(15) . . ?
C00E C00C H00E 127.0 . . ?
C008 C00D H00F 119.0 . . ?
C008 C00D C00F 121.91(16) . . ?
C00F C00D H00F 119.0 . . ?
C006 C00E H00G 126.9 . . ?
C00C C00E C006 106.19(15) . . ?
C00C C00E H00G 126.9 . . ?
C00A C00F C00D 121.61(15) . . ?
C00A C00F H00H 119.2 . . ?
C00D C00F H00H 119.2 . . ?
loop_
_geom_bond_atom_site_label_1
_geom_bond_atom_site_label_2
_geom_bond_distance
_geom_bond_site_symmetry_2
_geom_bond_publ_flag
O001 C009 1.3557(18) . ?
O001 C00B 1.3837(18) . ?
N002 N003 1.3732(18) . ?
N002 C006 1.319(2) . ?
N003 C009 1.371(2) . ?
N003 C00C 1.366(2) . ?
N004 C007 1.397(2) . ?
N004 C009 1.287(2) . ?
C005 H00A 0.9600 . ?
C005 H00B 0.9600 . ?
C005 H00C 0.9600 . ?
C005 C006 1.496(2) . ?
C006 C00E 1.410(2) . ?
C007 C00A 1.391(2) . ?
C007 C00B 1.393(2) . ?
C008 H008 0.9300 . ?
C008 C00B 1.376(2) . ?
C008 C00D 1.389(2) . ?
C00A H00D 0.9300 . ?
C00A C00F 1.387(2) . ?
C00C H00E 0.9300 . ?
C00C C00E 1.355(2) . ?
C00D H00F 0.9300 . ?
C00D C00F 1.394(3) . ?
C00E H00G 0.9300 . ?
C00F H00H 0.9300 . ?
