#------------------------------------------------------------------------------
#$Date: 2016-02-16 22:30:59 +0200 (Tue, 16 Feb 2016) $
#$Revision: 176467 $
#$URL: svn://www.crystallography.net/cod/cif/4/07/19/4071975.cif $
#------------------------------------------------------------------------------
#
# This file is available in the Crystallography Open Database (COD),
# http://www.crystallography.net/
#
# All data on this site have been placed in the public domain by the
# contributors.
#
data_4071975
loop_
_publ_author_name
'Schnitzler, Verena'
'Nonglaton, Guillaume'
'Roussi\`ere, H\'el\`ene'
'Maillet, C\'eline'
'Evain, Michel'
'Janvier, Pascal'
'Bujoli, Bruno'
'Petit, Marc'
_publ_section_title
;
 Nitrogen-Based Chirality Effects in Novel Mixed Phosphorus/Nitrogen
 Ligands Applied to Palladium-Catalyzed Allylic Substitutions
;
_journal_issue                   22
_journal_name_full               Organometallics
_journal_page_first              5997
_journal_paper_doi               10.1021/om800498a
_journal_volume                  27
_journal_year                    2008
_chemical_formula_sum            'C28 H27 Br2 Cl2 N2 P Pd'
_chemical_formula_weight         759.6
_chemical_name_systematic        ' ?'
_space_group_IT_number           1
_symmetry_cell_setting           triclinic
_symmetry_space_group_name_Hall  'P 1'
_symmetry_space_group_name_H-M   'P 1'
_cell_angle_alpha                91.974
_cell_angle_beta                 108.419
_cell_angle_gamma                109.78
_cell_formula_units_Z            1
_cell_length_a                   8.0388
_cell_length_b                   8.1586
_cell_length_c                   12.571
_cell_volume                     726.797
_computing_publication_material
'Jana2006 (Petricek, Dusek & Palatinus, 2006)'
_computing_structure_refinement
'Jana2006 (Petricek, Dusek & Palatinus, 2006)'
_diffrn_ambient_temperature      293
_diffrn_measured_fraction_theta_full 0.98
_diffrn_measurement_device       'four-cycle diffractometer'
_diffrn_measurement_device_type  'Nonius CCD'
_diffrn_radiation_monochromator  graphite
_diffrn_radiation_source         'X-ray tube'
_diffrn_radiation_type           'Mo K\a'
_diffrn_radiation_wavelength     0.71069
_diffrn_reflns_av_R_equivalents  0.0345
_diffrn_reflns_av_sigmaI/netI    0.0241
_diffrn_reflns_limit_h_max       11
_diffrn_reflns_limit_h_min       -11
_diffrn_reflns_limit_k_max       12
_diffrn_reflns_limit_k_min       -12
_diffrn_reflns_limit_l_max       15
_diffrn_reflns_limit_l_min       -18
_diffrn_reflns_number            15568
_diffrn_reflns_theta_full        30.97
_diffrn_reflns_theta_max         32.00
_diffrn_reflns_theta_min         6.51
_exptl_absorpt_coefficient_mu    3.647
_exptl_absorpt_correction_T_max  1.000
_exptl_absorpt_correction_T_min  1.000
_exptl_absorpt_correction_type   none
_exptl_crystal_density_diffrn    1.735
_exptl_crystal_F_000             374
_refine_ls_extinction_method     none
_refine_ls_goodness_of_fit_gt    1.45
_refine_ls_goodness_of_fit_ref   1.49
_refine_ls_number_parameters     322
_refine_ls_number_reflns         7191
_refine_ls_R_factor_all          0.0483
_refine_ls_R_factor_gt           0.0392
_refine_ls_shift/su_max          0.0031
_refine_ls_shift/su_mean         0.0006
_refine_ls_structure_factor_coef Fsqd
_refine_ls_weighting_details     w=1/(\s^2^(I)+0.001936I^2^)
_refine_ls_weighting_scheme      sigma
_refine_ls_wR_factor_gt          0.0923
_refine_ls_wR_factor_ref         0.0986
_reflns_number_gt                6647
_reflns_number_total             7191
_reflns_threshold_expression     I>2\s(I)
_cod_data_source_file            om800498a_si_001.cif
_cod_data_source_block           (I)
_cod_depositor_comments
;
The following automatic conversions were performed:

'_exptl_absorpt_correction_type' value 'None' changed to 'none'
according to /home/saulius/struct/CIF-dictionaries/cif_core.dic
dictionary named 'cif_core.dic' version 2.4.1 from 2010-06-29.

Automatic conversion script
Id: cif_fix_values 1715 2011-07-08 13:25:40Z adriana 
;
_cod_original_cell_volume        726.7972
_cod_original_formula_sum        'C28 H27 Br2 Cl2 N2 P1 Pd1'
_cod_database_code               4071975
loop_
_symmetry_equiv_pos_site_id
_symmetry_equiv_pos_as_xyz
1 x,y,z
loop_
_atom_site_label
_atom_site_type_symbol
_atom_site_fract_x
_atom_site_fract_y
_atom_site_fract_z
_atom_site_adp_type
_atom_site_U_iso_or_equiv
_atom_site_symmetry_multiplicity
_atom_site_occupancy
_atom_site_calc_flag
Pd Pd 0.69761 0.7204 0.44415 Uani 0.02827(10) 1 1 d
P1 P 0.41807(16) 0.53363(15) 0.33259(9) Uani 0.0261(4) 1 1 d
Br1 Br 0.26332(13) 0.76432(11) 0.88431(7) Uani 0.0867(4) 1 1 d
Br2 Br 0.95563(14) 0.09880(14) 0.98114(7) Uani 0.0925(4) 1 1 d
Cl1 Cl 0.6608(2) 0.94215(18) 0.34369(12) Uani 0.0483(5) 1 1 d
Cl2 Cl 1.00124(19) 0.9071(2) 0.57078(13) Uani 0.0517(5) 1 1 d
N1 N 0.3162(5) 0.3849(5) 0.4024(3) Uani 0.0308(12) 1 1 d
N2 N 0.7505(5) 0.5237(5) 0.5321(3) Uani 0.0315(14) 1 1 d
C1 C 0.4056(5) 0.3562(5) 0.5183(3) Uani 0.0278(13) 1 1 d
C2 C 0.6043(5) 0.3549(5) 0.5394(3) Uani 0.0272(13) 1 1 d
C3 C 0.1148(6) 0.2762(6) 0.3497(4) Uani 0.0393(17) 1 1 d
C4 C 0.8912(7) 0.4779(8) 0.4941(5) Uani 0.048(2) 1 1 d
C5 C 0.4474(5) 0.4172(6) 0.2177(3) Uani 0.0318(15) 1 1 d
C6 C 0.5134(7) 0.5141(7) 0.1400(4) Uani 0.046(2) 1 1 d
C7 C 0.5415(9) 0.4265(9) 0.0540(5) Uani 0.060(3) 1 1 d
C8 C 0.5128(9) 0.2519(10) 0.0473(6) Uani 0.061(3) 1 1 d
C9 C 0.4569(8) 0.1578(8) 0.1276(5) Uani 0.054(2) 1 1 d
C10 C 0.4199(6) 0.2393(7) 0.2127(4) Uani 0.0394(18) 1 1 d
C11 C 0.2449(5) 0.6313(5) 0.2677(4) Uani 0.0295(14) 1 1 d
C12 C 0.1640(6) 0.6223(7) 0.1523(4) Uani 0.0411(18) 1 1 d
C13 C 0.0382(8) 0.7090(8) 0.1113(5) Uani 0.053(2) 1 1 d
C14 C -0.0120(7) 0.7938(7) 0.1848(5) Uani 0.049(2) 1 1 d
C15 C 0.0682(7) 0.8020(7) 0.3005(5) Uani 0.048(2) 1 1 d
C16 C 0.1975(7) 0.7233(7) 0.3422(4) Uani 0.042(2) 1 1 d
C17 C 0.3792(5) 0.4636(5) 0.6091(3) Uani 0.0286(13) 1 1 d
C18 C 0.2865(6) 0.3714(6) 0.6790(4) Uani 0.0394(18) 1 1 d
C19 C 0.2523(7) 0.4589(7) 0.7615(4) Uani 0.048(2) 1 1 d
C20 C 0.3104(7) 0.6409(8) 0.7743(4) Uani 0.047(2) 1 1 d
C21 C 0.4041(7) 0.7353(7) 0.7077(4) Uani 0.0432(19) 1 1 d
C22 C 0.4360(6) 0.6451(6) 0.6252(4) Uani 0.0360(17) 1 1 d
C23 C 0.6828(6) 0.2914(6) 0.6484(4) Uani 0.0314(15) 1 1 d
C24 C 0.7257(6) 0.1398(6) 0.6437(4) Uani 0.0375(17) 1 1 d
C25 C 0.8075(7) 0.0817(7) 0.7427(5) Uani 0.046(2) 1 1 d
C26 C 0.8442(7) 0.1786(8) 0.8462(5) Uani 0.044(2) 1 1 d
C27 C 0.8064(7) 0.3266(8) 0.8539(4) Uani 0.046(2) 1 1 d
C28 C 0.7312(6) 0.3871(6) 0.7554(4) Uani 0.0375(17) 1 1 d
H1 H 0.790834 0.536066 0.614293 Uiso 0.0378 1 1 d
H2 H 0.329449 0.232365 0.521995 Uiso 0.0333 1 1 d
H3 H 0.583166 0.268279 0.473691 Uiso 0.0326 1 1 d
H4 H 0.042844 0.310402 0.392642 Uiso 0.0472 1 1 d
H5 H 0.068093 0.295197 0.269219 Uiso 0.0472 1 1 d
H6 H 0.096451 0.148924 0.35152 Uiso 0.0472 1 1 d
H7 H 1.004755 0.586863 0.506389 Uiso 0.0577 1 1 d
H8 H 0.929414 0.389652 0.539013 Uiso 0.0577 1 1 d
H9 H 0.832811 0.426755 0.4116 Uiso 0.0577 1 1 d
H10 H 0.539994 0.643669 0.145859 Uiso 0.0552 1 1 d
H11 H 0.583569 0.490835 -0.004785 Uiso 0.0715 1 1 d
H12 H 0.53256 0.193081 -0.016292 Uiso 0.0728 1 1 d
H13 H 0.443323 0.031048 0.124126 Uiso 0.0642 1 1 d
H14 H 0.374467 0.171277 0.269216 Uiso 0.0473 1 1 d
H15 H 0.19592 0.554075 0.099271 Uiso 0.0493 1 1 d
H16 H -0.016766 0.710261 0.028151 Uiso 0.0641 1 1 d
H17 H -0.106947 0.84964 0.153952 Uiso 0.0591 1 1 d
H18 H 0.032718 0.865082 0.354265 Uiso 0.0574 1 1 d
H19 H 0.25669 0.732834 0.426216 Uiso 0.0506 1 1 d
H20 H 0.243698 0.239887 0.669815 Uiso 0.0473 1 1 d
H21 H 0.186739 0.391795 0.810924 Uiso 0.0574 1 1 d
H22 H 0.448199 0.866951 0.718868 Uiso 0.0518 1 1 d
H23 H 0.501757 0.712845 0.576035 Uiso 0.0432 1 1 d
H24 H 0.697408 0.071889 0.568339 Uiso 0.045 1 1 d
H25 H 0.838878 -0.026539 0.739533 Uiso 0.0558 1 1 d
H26 H 0.833359 0.389788 0.930564 Uiso 0.0554 1 1 d
H27 H 0.711711 0.501238 0.76174 Uiso 0.045 1 1 d
loop_
_atom_site_aniso_label
_atom_site_aniso_type_symbol
_atom_site_aniso_U_11
_atom_site_aniso_U_22
_atom_site_aniso_U_33
_atom_site_aniso_U_12
_atom_site_aniso_U_13
_atom_site_aniso_U_23
Pd Pd 0.02960(13) 0.02589(13) 0.02899(14) 0.00811(9) 0.01219(10) 0.00297(10)
P1 P 0.0281(5) 0.0259(5) 0.0250(5) 0.0098(4) 0.0107(4) 0.0029(4)
Br1 Br 0.1209(6) 0.0755(5) 0.0761(5) 0.0205(4) 0.0701(5) -0.0135(4)
Br2 Br 0.1143(6) 0.1144(7) 0.0538(4) 0.0644(5) 0.0088(4) 0.0415(4)
Cl1 Cl 0.0507(7) 0.0346(6) 0.0554(8) 0.0126(5) 0.0152(6) 0.0188(6)
Cl2 Cl 0.0383(6) 0.0452(8) 0.0533(8) 0.0026(5) 0.0076(5) -0.0077(6)
N1 N 0.0284(15) 0.0306(17) 0.0274(16) 0.0053(12) 0.0080(12) 0.0028(13)
N2 N 0.0308(18) 0.036(2) 0.0303(18) 0.0117(15) 0.0137(14) 0.0065(15)
C1 C 0.0315(18) 0.0251(18) 0.0268(18) 0.0097(14) 0.0110(14) 0.0056(14)
C2 C 0.0305(17) 0.0261(18) 0.0262(18) 0.0128(14) 0.0090(13) 0.0037(14)
C3 C 0.0315(19) 0.036(2) 0.042(2) 0.0073(16) 0.0083(17) 0.0052(19)
C4 C 0.042(2) 0.060(3) 0.063(3) 0.031(2) 0.031(2) 0.024(3)
C5 C 0.0288(18) 0.041(2) 0.0278(19) 0.0159(16) 0.0100(14) -0.0027(16)
C6 C 0.049(3) 0.047(3) 0.046(3) 0.012(2) 0.028(2) 0.002(2)
C7 C 0.067(3) 0.069(4) 0.050(3) 0.018(3) 0.039(3) 0.008(3)
C8 C 0.069(4) 0.073(4) 0.052(3) 0.031(3) 0.032(3) -0.007(3)
C9 C 0.067(3) 0.051(3) 0.047(3) 0.030(3) 0.017(2) -0.007(2)
C10 C 0.046(2) 0.040(2) 0.035(2) 0.0200(19) 0.0145(18) 0.0036(19)
C11 C 0.0333(18) 0.0273(19) 0.0310(19) 0.0128(15) 0.0131(15) 0.0072(15)
C12 C 0.044(2) 0.047(3) 0.034(2) 0.0236(19) 0.0096(18) 0.0054(19)
C13 C 0.051(3) 0.071(4) 0.045(3) 0.034(3) 0.011(2) 0.018(3)
C14 C 0.046(3) 0.051(3) 0.067(4) 0.031(2) 0.024(2) 0.023(3)
C15 C 0.056(3) 0.054(3) 0.058(3) 0.035(2) 0.035(2) 0.023(2)
C16 C 0.054(3) 0.048(3) 0.041(3) 0.031(2) 0.025(2) 0.014(2)
C17 C 0.0288(17) 0.031(2) 0.0254(18) 0.0103(14) 0.0101(13) 0.0035(14)
C18 C 0.043(2) 0.037(2) 0.040(2) 0.0086(18) 0.0230(19) 0.0084(19)
C19 C 0.052(3) 0.050(3) 0.040(3) 0.006(2) 0.028(2) 0.005(2)
C20 C 0.052(3) 0.054(3) 0.037(2) 0.011(2) 0.026(2) -0.004(2)
C21 C 0.051(3) 0.036(2) 0.042(3) 0.010(2) 0.022(2) -0.001(2)
C22 C 0.043(2) 0.031(2) 0.037(2) 0.0095(17) 0.0214(18) 0.0035(17)
C23 C 0.0338(19) 0.030(2) 0.032(2) 0.0128(15) 0.0121(15) 0.0073(16)
C24 C 0.045(2) 0.034(2) 0.034(2) 0.0175(19) 0.0114(18) 0.0049(18)
C25 C 0.051(3) 0.037(3) 0.053(3) 0.021(2) 0.014(2) 0.016(2)
C26 C 0.040(2) 0.051(3) 0.039(3) 0.019(2) 0.0057(19) 0.018(2)
C27 C 0.051(3) 0.060(3) 0.029(2) 0.023(2) 0.0126(19) 0.006(2)
C28 C 0.046(2) 0.038(2) 0.031(2) 0.0212(19) 0.0102(17) 0.0018(17)
loop_
_atom_type_symbol
_atom_type_scat_dispersion_real
_atom_type_scat_dispersion_imag
_atom_type_scat_source
C 0.003 0.002 'International Tables Vol C Tables  4.2.6.8 and 6.1.1.1'
H 0.000 0.000 'International Tables Vol C Tables  4.2.6.8 and 6.1.1.1'
Br -0.290 2.460 'International Tables Vol C Tables  4.2.6.8 and 6.1.1.1'
Cl 0.148 0.159 'International Tables Vol C Tables  4.2.6.8 and 6.1.1.1'
N 0.006 0.003 'International Tables Vol C Tables  4.2.6.8 and 6.1.1.1'
P 0.102 0.094 'International Tables Vol C Tables  4.2.6.8 and 6.1.1.1'
Pd -0.999 1.007 'International Tables Vol C Tables  4.2.6.8 and 6.1.1.1'
loop_
_refln_index_h
_refln_index_k
_refln_index_l
_refln_F_meas
_refln_F_calc
_refln_F_sigma
_refln_observed_status
3 -2 -18 0.00 20.72 73.65 <
4 -2 -18 44.86 41.00 2.81 o
5 -2 -18 58.62 58.87 2.66 o
6 -2 -18 0.00 20.89 71.89 <
2 -1 -18 0.00 14.25 76.21 <
3 -1 -18 36.01 29.33 3.32 o
4 -1 -18 40.56 37.50 3.12 o
5 -1 -18 48.60 51.64 2.81 o
6 -1 -18 28.93 2.06 4.26 o
1 0 -18 24.50 25.56 4.81 o
2 0 -18 28.57 25.27 5.86 o
3 0 -18 43.72 42.56 2.78 o
4 0 -18 37.68 28.65 3.24 o
5 0 -18 42.12 34.41 3.19 o
6 0 -18 12.12 9.19 9.28 <
1 1 -18 21.91 29.77 7.06 <
2 1 -18 38.45 43.38 4.53 o
3 1 -18 45.54 44.03 2.92 o
4 1 -18 24.05 29.43 4.56 o
5 1 -18 36.67 32.02 3.48 o
6 1 -18 26.69 31.59 4.02 o
1 2 -18 21.79 24.72 5.28 o
2 2 -18 47.10 43.02 3.74 o
3 2 -18 43.67 49.88 3.73 o
4 2 -18 27.23 29.34 4.43 o
5 2 -18 39.04 42.85 3.48 o
1 3 -18 0.00 26.68 87.86 <
2 3 -18 50.65 53.49 3.01 o
3 3 -18 36.42 18.94 4.49 o
3 -4 -17 52.95 51.44 2.53 o
4 -4 -17 0.00 18.33 72.47 <
5 -4 -17 46.41 50.01 2.78 o
6 -4 -17 54.89 49.20 2.56 o
7 -4 -17 31.15 33.99 3.82 o
2 -3 -17 23.29 33.62 3.28 o
3 -3 -17 40.89 38.83 4.40 o
4 -3 -17 23.90 19.54 4.58 o
5 -3 -17 70.73 61.85 2.39 o
6 -3 -17 55.83 58.93 2.40 o
7 -3 -17 0.00 18.00 72.92 <
1 -2 -17 52.36 49.89 3.37 o
2 -2 -17 36.80 39.66 2.53 o
3 -2 -17 43.98 37.28 2.80 o
4 -2 -17 43.11 44.85 2.63 o
5 -2 -17 51.48 42.78 2.62 o
6 -2 -17 44.30 40.28 2.50 o
7 -2 -17 0.00 29.06 73.91 <
0 -1 -17 29.58 30.24 4.09 o
1 -1 -17 52.54 54.22 2.95 o
2 -1 -17 27.40 27.54 3.58 o
3 -1 -17 48.15 46.89 2.67 o
4 -1 -17 60.33 64.00 2.48 o
5 -1 -17 29.55 37.69 3.80 o
6 -1 -17 46.01 42.85 2.45 o
7 -1 -17 39.66 41.75 3.06 o
0 0 -17 57.04 49.17 2.99 o
1 0 -17 27.46 25.23 4.07 o
2 0 -17 10.67 12.01 9.97 <
3 0 -17 42.10 40.18 2.46 o
4 0 -17 71.26 73.98 2.48 o
5 0 -17 12.12 10.55 6.67 <
6 0 -17 62.07 49.87 2.56 o
7 0 -17 40.17 35.94 2.90 o
-1 1 -17 54.38 51.03 3.63 o
0 1 -17 38.79 27.55 4.55 o
1 1 -17 38.09 29.16 4.36 o
2 1 -17 56.01 55.41 3.29 o
3 1 -17 52.47 56.41 2.26 o
4 1 -17 42.27 41.30 2.37 o
5 1 -17 37.06 27.11 3.22 o
6 1 -17 69.97 67.31 2.29 o
7 1 -17 9.62 23.61 8.78 <
-1 2 -17 30.67 28.60 4.09 o
0 2 -17 5.98 25.22 25.30 <
1 2 -17 34.47 44.63 4.55 o
2 2 -17 39.82 47.56 3.17 o
3 2 -17 17.56 26.99 6.28 <
4 2 -17 22.57 24.45 5.04 o
5 2 -17 48.22 44.15 2.53 o
6 2 -17 64.87 61.25 2.55 o
-1 3 -17 19.69 31.39 7.81 <
0 3 -17 35.66 26.87 4.08 o
1 3 -17 47.36 52.54 3.41 o
2 3 -17 57.53 51.82 3.40 o
3 3 -17 28.00 28.96 3.89 o
4 3 -17 63.03 63.71 2.38 o
5 3 -17 47.51 41.90 2.83 o
6 3 -17 28.13 33.33 4.10 o
1 4 -17 38.01 38.98 3.38 o
2 4 -17 20.65 29.59 7.01 <
3 4 -17 32.00 29.26 4.24 o
4 4 -17 47.59 44.00 3.38 o
5 4 -17 9.94 15.92 12.62 <
0 5 -17 44.31 42.53 3.82 o
1 5 -17 36.31 38.32 3.63 o
2 5 -17 27.25 21.95 6.01 o
3 5 -17 45.09 35.45 3.20 o
3 -5 -16 35.06 38.60 2.49 o
4 -5 -16 45.34 46.12 2.40 o
5 -5 -16 36.59 32.51 3.03 o
6 -5 -16 70.94 65.89 2.35 o
7 -5 -16 44.52 38.76 2.64 o
1 -4 -16 33.07 24.09 4.58 o
2 -4 -16 56.35 59.03 2.39 o
3 -4 -16 23.04 15.50 3.74 o
4 -4 -16 30.10 36.83 3.13 o
5 -4 -16 31.01 22.64 3.47 o
6 -4 -16 37.99 40.17 2.78 o
7 -4 -16 31.94 30.97 3.04 o
8 -4 -16 30.62 32.16 6.10 o
0 -3 -16 47.21 30.79 3.59 o
1 -3 -16 11.10 27.74 11.87 <
2 -3 -16 62.63 66.56 2.35 o
3 -3 -16 23.43 18.09 3.73 o
4 -3 -16 55.95 59.51 2.29 o
5 -3 -16 60.05 56.43 2.41 o
6 -3 -16 40.31 45.78 2.65 o
7 -3 -16 48.66 48.16 2.60 o
8 -3 -16 39.99 26.85 4.77 o
-1 -2 -16 0.00 21.18 86.93 <
0 -2 -16 36.34 39.86 4.08 o
1 -2 -16 50.33 53.22 3.18 o
2 -2 -16 65.64 64.86 2.38 o
3 -2 -16 0.00 12.14 59.16 <
4 -2 -16 61.89 65.46 2.29 o
5 -2 -16 73.42 71.38 2.32 o
6 -2 -16 39.45 33.24 2.66 o
7 -2 -16 53.66 58.04 2.41 o
8 -2 -16 26.24 26.68 5.78 o
-1 -1 -16 0.00 28.83 88.23 <
0 -1 -16 75.17 69.53 2.88 o
1 -1 -16 26.73 18.28 4.20 o
2 -1 -16 40.67 34.01 2.73 o
3 -1 -16 36.28 39.22 2.70 o
4 -1 -16 84.15 77.95 2.46 o
5 -1 -16 48.62 48.42 2.25 o
6 -1 -16 27.77 35.34 3.71 o
7 -1 -16 84.02 84.51 2.49 o
8 -1 -16 12.85 24.97 13.47 <
-2 0 -16 20.82 19.02 5.71 <
-1 0 -16 47.95 48.67 3.75 o
0 0 -16 26.62 34.18 4.21 o
1 0 -16 20.85 7.87 5.03 o
2 0 -16 60.47 63.71 2.37 o
3 0 -16 62.86 60.54 2.33 o
4 0 -16 41.60 39.62 2.77 o
5 0 -16 44.74 43.00 2.54 o
6 0 -16 49.71 52.79 2.28 o
7 0 -16 77.25 80.55 2.43 o
-2 1 -16 28.36 27.77 4.65 o
-1 1 -16 25.50 37.23 5.95 o
0 1 -16 40.46 42.72 3.61 o
1 1 -16 51.08 51.33 2.84 o
2 1 -16 59.73 53.02 2.40 o
3 1 -16 15.65 27.08 5.44 <
4 1 -16 28.69 27.37 3.61 o
5 1 -16 62.26 57.73 2.22 o
6 1 -16 34.36 33.27 3.12 o
7 1 -16 44.67 42.60 2.65 o
8 1 -16 2.61 12.68 49.72 <
-2 2 -16 23.00 28.00 6.74 <
-1 2 -16 70.44 62.20 3.11 o
0 2 -16 30.65 37.73 4.88 o
1 2 -16 34.56 29.21 4.41 o
2 2 -16 48.95 49.84 3.41 o
3 2 -16 65.75 63.44 2.39 o
4 2 -16 34.35 35.83 2.94 o
5 2 -16 54.10 53.82 2.56 o
6 2 -16 26.60 27.42 6.39 o
7 2 -16 30.71 33.31 3.81 o
-1 3 -16 44.20 40.82 3.00 o
0 3 -16 17.77 21.27 7.15 <
1 3 -16 60.14 61.85 3.26 o
2 3 -16 69.10 67.05 2.73 o
3 3 -16 45.34 41.13 2.79 o
4 3 -16 38.50 39.02 2.67 o
5 3 -16 64.42 64.26 2.49 o
6 3 -16 14.48 20.87 7.24 <
7 3 -16 39.68 51.27 3.71 o
-2 4 -16 23.78 4.73 5.57 o
-1 4 -16 13.55 20.92 10.69 <
0 4 -16 51.49 51.53 3.52 o
1 4 -16 50.86 50.34 3.42 o
2 4 -16 0.00 7.87 85.40 <
3 4 -16 25.00 42.91 5.78 o
4 4 -16 49.56 53.00 2.44 o
5 4 -16 25.79 31.99 3.85 o
6 4 -16 27.42 29.09 3.39 o
-2 5 -16 30.05 27.43 4.65 o
-1 5 -16 54.45 49.14 3.59 o
0 5 -16 32.55 30.50 4.32 o
1 5 -16 0.00 33.42 84.57 <
2 5 -16 25.62 10.66 5.94 o
3 5 -16 46.99 51.13 3.67 o
5 5 -16 25.23 17.36 5.24 o
-1 6 -16 48.94 33.57 3.97 o
0 6 -16 27.49 30.80 5.88 o
1 6 -16 27.01 31.20 6.04 o
2 6 -16 49.08 50.08 3.24 o
3 6 -16 49.32 54.29 3.67 o
3 -6 -15 54.16 46.09 3.51 o
4 -6 -15 19.04 22.66 5.01 <
5 -6 -15 48.01 47.33 2.41 o
6 -6 -15 5.24 17.03 17.57 <
7 -6 -15 65.20 65.34 2.23 o
8 -6 -15 30.18 14.47 3.78 o
1 -5 -15 22.53 23.36 6.88 <
2 -5 -15 54.75 50.18 3.44 o
3 -5 -15 102.05 98.40 2.69 o
4 -5 -15 17.78 1.37 7.17 <
5 -5 -15 73.16 70.58 2.38 o
6 -5 -15 50.20 45.94 2.18 o
7 -5 -15 58.42 59.33 2.43 o
8 -5 -15 45.64 31.63 3.73 o
0 -4 -15 9.27 20.25 16.44 <
1 -4 -15 45.46 34.08 3.75 o
2 -4 -15 35.61 38.82 2.64 o
3 -4 -15 49.46 45.76 2.42 o
4 -4 -15 7.16 19.95 13.01 <
5 -4 -15 101.04 96.53 2.68 o
6 -4 -15 41.56 40.97 2.60 o
7 -4 -15 47.50 52.45 2.27 o
8 -4 -15 48.74 45.80 2.26 o
9 -4 -15 55.44 45.44 3.87 o
-1 -3 -15 24.09 14.87 4.84 o
0 -3 -15 37.86 33.48 4.39 o
1 -3 -15 74.31 74.62 2.34 o
2 -3 -15 18.69 11.23 4.12 o
3 -3 -15 44.43 45.42 2.50 o
4 -3 -15 10.24 22.47 8.91 <
5 -3 -15 81.26 81.75 2.37 o
6 -3 -15 24.82 21.65 6.14 o
7 -3 -15 44.20 48.14 2.24 o
8 -3 -15 57.37 62.68 2.18 o
9 -3 -15 22.13 23.94 8.01 <
-2 -2 -15 28.93 26.14 5.57 o
-1 -2 -15 41.94 36.17 3.91 o
0 -2 -15 67.38 65.03 3.15 o
1 -2 -15 72.68 75.53 2.34 o
2 -2 -15 13.47 15.39 6.59 <
3 -2 -15 116.86 111.98 2.94 o
4 -2 -15 56.43 59.31 2.37 o
5 -2 -15 68.39 65.59 2.52 o
6 -2 -15 50.46 50.28 2.58 o
7 -2 -15 53.65 37.88 3.33 o
8 -2 -15 64.42 52.56 3.40 o
9 -2 -15 0.00 3.24 92.70 <
-2 -1 -15 22.16 23.65 6.76 <
-1 -1 -15 39.44 39.90 4.10 o
0 -1 -15 42.16 45.49 3.82 o
1 -1 -15 46.56 48.46 2.36 o
2 -1 -15 16.62 28.79 7.96 <
3 -1 -15 102.97 103.86 2.63 o
4 -1 -15 42.50 45.70 2.87 o
5 -1 -15 61.20 64.78 2.31 o
6 -1 -15 63.61 64.62 2.37 o
7 -1 -15 61.37 58.42 2.34 o
8 -1 -15 71.84 69.17 3.25 o
-3 0 -15 26.55 27.27 4.37 o
-2 0 -15 0.00 16.62 75.78 <
-1 0 -15 74.88 71.59 3.05 o
0 0 -15 38.89 37.25 3.42 o
1 0 -15 56.67 56.63 2.64 o
2 0 -15 22.65 21.18 3.61 o
3 0 -15 87.20 84.25 2.46 o
4 0 -15 38.54 32.49 3.02 o
5 0 -15 84.56 83.90 2.50 o
6 0 -15 82.28 84.90 2.49 o
7 0 -15 24.27 24.74 4.45 o
8 0 -15 57.84 48.06 3.53 o
9 0 -15 47.25 31.95 4.21 o
-3 1 -15 11.90 20.79 8.42 <
-2 1 -15 43.77 46.12 3.06 o
-1 1 -15 49.75 43.92 3.36 o
0 1 -15 51.59 44.28 2.75 o
1 1 -15 40.80 40.33 2.91 o
2 1 -15 65.23 67.41 2.18 o
3 1 -15 69.47 65.88 2.35 o
4 1 -15 15.22 25.46 6.57 <
5 1 -15 55.73 54.38 2.45 o
6 1 -15 57.91 55.74 2.51 o
7 1 -15 26.66 24.55 3.75 o
8 1 -15 60.86 50.30 3.62 o
9 1 -15 14.60 29.27 12.45 <
-3 2 -15 71.99 65.88 2.86 o
-2 2 -15 47.34 43.85 3.02 o
-1 2 -15 42.43 28.26 3.72 o
0 2 -15 53.93 53.03 2.74 o
1 2 -15 110.20 108.33 3.10 o
2 2 -15 48.75 48.99 2.45 o
3 2 -15 28.93 25.97 3.95 o
4 2 -15 59.05 58.20 2.48 o
5 2 -15 51.58 53.10 2.60 o
6 2 -15 56.03 51.90 2.36 o
7 2 -15 37.15 33.81 2.97 o
8 2 -15 57.79 65.49 3.04 o
-3 3 -15 34.59 35.53 4.12 o
-2 3 -15 0.00 3.92 85.56 <
-1 3 -15 43.40 49.77 3.52 o
0 3 -15 64.84 67.93 3.01 o
1 3 -15 47.38 47.29 3.39 o
2 3 -15 17.97 19.86 7.24 <
3 3 -15 73.33 73.02 2.28 o
4 3 -15 85.08 81.37 2.40 o
5 3 -15 39.50 39.85 2.90 o
6 3 -15 40.68 33.72 2.78 o
7 3 -15 43.04 37.05 3.43 o
8 3 -15 44.86 36.42 4.34 o
-3 4 -15 35.22 29.25 4.77 o
-2 4 -15 53.38 49.32 3.45 o
-1 4 -15 51.46 47.70 2.80 o
0 4 -15 22.43 27.02 5.62 o
1 4 -15 59.58 52.66 3.08 o
2 4 -15 44.73 43.32 2.88 o
3 4 -15 77.49 69.98 3.01 o
4 4 -15 56.16 52.83 2.44 o
5 4 -15 40.26 36.73 2.31 o
6 4 -15 36.62 35.38 2.82 o
7 4 -15 59.20 45.94 3.59 o
-3 5 -15 45.51 46.71 3.06 o
-2 5 -15 0.00 12.22 83.04 <
-1 5 -15 22.26 29.19 6.61 <
0 5 -15 73.37 72.22 3.07 o
1 5 -15 0.00 23.45 83.58 <
2 5 -15 34.73 18.91 3.83 o
3 5 -15 48.20 40.51 3.46 o
4 5 -15 46.94 50.37 3.44 o
5 5 -15 15.47 13.07 6.16 <
6 5 -15 39.79 37.80 2.56 o
-2 6 -15 0.00 23.68 81.58 <
-1 6 -15 52.12 54.79 3.54 o
0 6 -15 22.97 11.85 6.32 <
1 6 -15 22.23 21.03 6.67 <
2 6 -15 59.53 52.48 2.90 o
3 6 -15 47.61 44.84 3.35 o
4 6 -15 18.09 14.29 5.37 <
5 6 -15 19.27 19.10 7.05 <
-1 7 -15 40.85 32.31 3.44 o
0 7 -15 36.82 30.22 3.71 o
1 7 -15 59.30 63.73 3.24 o
2 7 -15 36.40 45.72 4.64 o
3 7 -15 26.45 23.40 5.85 o
3 -7 -14 48.61 44.96 3.89 o
4 -7 -14 41.54 45.39 4.13 o
5 -7 -14 22.79 26.91 5.18 o
6 -7 -14 56.55 49.99 2.29 o
7 -7 -14 0.00 14.85 70.39 <
8 -7 -14 34.48 34.48 3.09 o
1 -6 -14 31.79 26.26 5.37 o
2 -6 -14 39.23 46.84 3.59 o
3 -6 -14 53.81 54.08 2.19 o
4 -6 -14 63.00 63.73 2.17 o
5 -6 -14 20.18 5.27 5.09 <
6 -6 -14 62.27 63.48 2.32 o
7 -6 -14 48.72 44.97 2.44 o
8 -6 -14 37.29 39.21 3.09 o
9 -6 -14 46.71 40.20 4.10 o
0 -5 -14 16.96 14.11 9.57 <
1 -5 -14 35.89 44.88 4.57 o
2 -5 -14 57.04 57.90 2.03 o
3 -5 -14 37.16 38.82 2.67 o
4 -5 -14 49.22 52.66 2.25 o
5 -5 -14 24.61 29.05 3.46 o
6 -5 -14 122.15 118.48 3.03 o
7 -5 -14 40.43 37.95 2.77 o
8 -5 -14 55.20 55.09 2.35 o
9 -5 -14 51.56 54.02 4.02 o
-1 -4 -14 20.67 26.93 7.45 <
0 -4 -14 18.80 17.16 7.88 <
1 -4 -14 57.57 57.50 2.22 o
2 -4 -14 73.02 76.88 2.20 o
3 -4 -14 21.18 6.84 4.12 o
4 -4 -14 93.25 91.17 2.51 o
5 -4 -14 32.48 36.66 4.25 o
6 -4 -14 60.37 58.35 2.49 o
7 -4 -14 5.81 19.42 15.71 <
8 -4 -14 70.27 73.53 2.17 o
9 -4 -14 53.78 56.50 3.75 o
-2 -3 -14 31.30 26.56 3.96 o
-1 -3 -14 35.48 42.48 4.50 o
0 -3 -14 41.36 34.57 3.69 o
1 -3 -14 60.38 60.09 2.11 o
2 -3 -14 45.35 50.95 2.28 o
3 -3 -14 40.01 34.53 2.50 o
4 -3 -14 118.76 121.52 2.98 o
5 -3 -14 54.86 55.53 2.55 o
6 -3 -14 72.83 75.34 2.41 o
7 -3 -14 52.26 50.02 2.16 o
8 -3 -14 52.39 53.71 2.24 o
9 -3 -14 53.19 42.77 3.71 o
10 -3 -14 23.05 29.50 8.17 <
-2 -2 -14 43.65 42.81 3.84 o
-1 -2 -14 47.28 42.89 3.37 o
0 -2 -14 63.36 63.03 2.65 o
1 -2 -14 63.44 66.11 2.05 o
2 -2 -14 59.89 61.15 2.13 o
3 -2 -14 41.85 40.84 2.76 o
4 -2 -14 119.93 119.60 3.01 o
5 -2 -14 39.22 39.10 2.57 o
6 -2 -14 89.75 89.10 2.47 o
7 -2 -14 82.12 83.62 2.40 o
8 -2 -14 0.00 23.64 66.69 <
9 -2 -14 38.23 41.24 4.55 o
10 -2 -14 11.97 21.34 10.59 <
-3 -1 -14 33.18 26.38 4.81 o
-2 -1 -14 9.98 22.06 13.65 <
-1 -1 -14 69.16 64.50 2.72 o
0 -1 -14 81.00 79.90 2.90 o
1 -1 -14 48.02 43.04 2.27 o
2 -1 -14 93.93 94.10 2.62 o
3 -1 -14 87.37 86.52 2.43 o
4 -1 -14 95.63 98.03 2.55 o
5 -1 -14 27.47 20.10 3.46 o
6 -1 -14 99.18 102.68 2.63 o
7 -1 -14 72.72 72.29 2.22 o
8 -1 -14 42.49 34.19 4.26 o
9 -1 -14 63.63 49.61 2.96 o
10 -1 -14 28.20 33.46 5.01 o
-4 0 -14 24.39 20.44 5.96 o
-3 0 -14 18.16 32.31 7.03 <
-2 0 -14 53.17 49.37 3.04 o
-1 0 -14 58.11 56.91 3.15 o
0 0 -14 9.66 10.56 10.59 <
1 0 -14 48.72 43.58 2.53 o
2 0 -14 125.38 124.74 3.10 o
3 0 -14 26.25 23.64 3.73 o
4 0 -14 76.12 75.27 2.37 o
5 0 -14 66.97 65.93 2.28 o
6 0 -14 97.24 95.96 2.57 o
7 0 -14 50.23 48.54 2.30 o
8 0 -14 45.08 45.40 3.94 o
9 0 -14 77.65 80.52 2.96 o
-4 1 -14 17.20 27.98 7.13 <
-3 1 -14 0.00 14.83 71.54 <
-2 1 -14 35.54 40.94 3.19 o
-1 1 -14 44.68 44.98 3.61 o
0 1 -14 43.22 44.35 2.99 o
1 1 -14 91.22 86.21 2.60 o
2 1 -14 49.60 48.81 2.49 o
3 1 -14 24.46 26.60 3.47 o
4 1 -14 47.53 45.02 2.17 o
5 1 -14 83.37 84.83 2.44 o
6 1 -14 30.47 25.34 3.12 o
7 1 -14 33.17 36.47 2.37 o
8 1 -14 45.67 44.74 4.06 o
9 1 -14 48.64 48.87 3.97 o
-4 2 -14 32.35 38.03 3.46 o
-3 2 -14 40.89 50.64 3.70 o
-2 2 -14 90.78 88.07 2.99 o
-1 2 -14 46.23 48.75 2.82 o
0 2 -14 82.78 86.56 2.85 o
1 2 -14 62.08 65.92 2.73 o
2 2 -14 61.86 61.07 2.39 o
3 2 -14 37.23 36.55 2.75 o
4 2 -14 95.32 88.42 2.59 o
5 2 -14 94.19 94.47 2.59 o
6 2 -14 0.00 7.95 68.72 <
7 2 -14 64.23 64.69 2.29 o
8 2 -14 44.06 32.73 3.26 o
-4 3 -14 32.08 28.54 3.58 o
-3 3 -14 82.39 74.63 2.98 o
-2 3 -14 52.73 55.37 3.03 o
-1 3 -14 40.78 45.12 3.10 o
0 3 -14 80.98 73.28 2.82 o
1 3 -14 87.11 81.38 2.96 o
2 3 -14 75.13 80.32 2.40 o
3 3 -14 52.34 52.31 2.22 o
4 3 -14 70.82 70.73 2.28 o
5 3 -14 58.71 56.85 2.47 o
6 3 -14 4.75 18.74 22.39 <
7 3 -14 76.51 76.45 2.26 o
8 3 -14 25.73 22.78 6.13 o
-4 4 -14 50.04 55.54 3.23 o
-3 4 -14 18.23 29.85 5.48 <
-2 4 -14 0.00 14.14 66.01 <
-1 4 -14 48.69 48.80 3.37 o
0 4 -14 81.87 82.21 2.71 o
1 4 -14 63.06 58.93 2.58 o
2 4 -14 42.05 42.32 3.52 o
3 4 -14 89.60 89.29 2.44 o
4 4 -14 60.82 57.29 2.26 o
5 4 -14 55.87 55.40 2.34 o
6 4 -14 10.61 30.04 9.64 <
7 4 -14 47.56 46.24 3.18 o
-4 5 -14 25.70 12.94 5.66 o
-3 5 -14 24.97 6.66 5.74 o
-2 5 -14 68.92 60.37 2.98 o
-1 5 -14 61.18 62.01 2.67 o
0 5 -14 15.65 23.13 8.43 <
1 5 -14 28.82 26.02 4.51 o
2 5 -14 70.96 67.89 2.69 o
3 5 -14 46.37 54.38 3.39 o
4 5 -14 33.20 33.39 3.75 o
5 5 -14 58.79 56.68 2.24 o
6 5 -14 36.51 29.66 3.00 o
-4 6 -14 33.95 31.33 4.53 o
-3 6 -14 44.31 44.66 3.73 o
-2 6 -14 42.86 31.59 3.93 o
-1 6 -14 35.46 28.58 3.40 o
0 6 -14 32.45 38.48 4.53 o
1 6 -14 67.02 58.28 3.04 o
2 6 -14 31.52 35.46 4.31 o
3 6 -14 16.54 19.20 6.06 <
4 6 -14 32.31 30.80 4.26 o
5 6 -14 49.75 49.20 3.25 o
-3 7 -14 36.43 45.97 4.60 o
-2 7 -14 40.54 30.21 4.20 o
-1 7 -14 52.33 47.51 3.46 o
0 7 -14 55.15 56.07 2.83 o
1 7 -14 23.10 46.86 6.60 <
2 7 -14 28.26 36.46 5.21 o
3 7 -14 22.29 37.52 6.64 <
4 7 -14 43.89 44.04 3.25 o
-2 8 -14 36.29 37.03 3.76 o
-1 8 -14 45.68 44.74 3.86 o
1 8 -14 42.21 37.57 3.58 o
2 8 -14 27.00 29.32 5.79 o
4 -8 -13 40.39 41.97 4.03 o
5 -8 -13 34.59 29.80 2.96 o
6 -8 -13 38.00 38.21 2.69 o
7 -8 -13 71.34 70.64 2.44 o
1 -7 -13 18.51 11.95 8.88 <
2 -7 -13 42.29 48.39 3.66 o
3 -7 -13 44.59 44.88 3.20 o
4 -7 -13 41.31 39.92 2.14 o
5 -7 -13 48.95 45.28 2.43 o
6 -7 -13 13.96 21.94 6.80 <
7 -7 -13 51.85 45.81 2.45 o
8 -7 -13 7.42 17.07 12.96 <
9 -7 -13 39.77 45.92 4.94 o
0 -6 -13 45.75 46.92 3.97 o
1 -6 -13 54.29 41.58 3.68 o
2 -6 -13 71.15 75.51 3.03 o
3 -6 -13 47.30 52.69 2.08 o
4 -6 -13 44.91 44.04 2.17 o
5 -6 -13 87.57 84.98 2.48 o
6 -6 -13 30.17 32.14 3.25 o
7 -6 -13 74.75 70.63 2.37 o
8 -6 -13 0.00 11.99 69.71 <
9 -6 -13 44.65 42.98 3.42 o
-1 -5 -13 0.00 21.98 87.31 <
0 -5 -13 25.19 35.63 5.97 o
1 -5 -13 35.07 41.57 4.29 o
2 -5 -13 66.95 65.35 2.09 o
3 -5 -13 55.32 55.61 2.11 o
4 -5 -13 69.64 66.86 2.16 o
5 -5 -13 111.93 109.17 2.85 o
6 -5 -13 18.64 15.39 5.19 <
7 -5 -13 64.45 63.23 2.38 o
8 -5 -13 40.59 35.49 2.84 o
9 -5 -13 52.85 57.46 3.78 o
10 -5 -13 25.45 26.40 7.31 <
-2 -4 -13 39.88 33.98 3.47 o
-1 -4 -13 43.36 24.41 3.85 o
0 -4 -13 57.89 57.10 3.06 o
1 -4 -13 65.31 67.72 2.14 o
2 -4 -13 71.38 66.32 2.20 o
3 -4 -13 41.97 49.81 2.32 o
4 -4 -13 54.01 54.13 2.44 o
5 -4 -13 138.82 135.93 3.34 o
6 -4 -13 29.70 20.69 3.81 o
7 -4 -13 84.89 86.15 2.40 o
8 -4 -13 63.04 64.32 2.20 o
9 -4 -13 44.69 44.40 4.00 o
10 -4 -13 37.23 33.71 4.91 o
-3 -3 -13 43.35 41.34 2.50 o
-2 -3 -13 10.82 30.00 13.46 <
-1 -3 -13 38.10 38.82 3.43 o
0 -3 -13 76.99 76.29 2.71 o
1 -3 -13 56.80 56.52 1.97 o
2 -3 -13 48.33 55.45 2.45 o
3 -3 -13 81.79 86.94 2.38 o
4 -3 -13 53.11 51.70 2.36 o
5 -3 -13 65.39 70.53 2.28 o
6 -3 -13 25.82 30.36 4.63 o
7 -3 -13 108.48 111.13 2.75 o
8 -3 -13 77.74 71.99 2.31 o
9 -3 -13 21.99 21.85 5.35 o
10 -3 -13 52.72 47.62 3.16 o
-3 -2 -13 22.80 27.58 5.52 o
-2 -2 -13 29.81 35.90 4.63 o
-1 -2 -13 67.70 60.73 2.96 o
0 -2 -13 58.89 60.43 3.11 o
1 -2 -13 24.62 28.53 3.31 o
2 -2 -13 44.35 45.54 2.46 o
3 -2 -13 149.89 150.11 3.54 o
4 -2 -13 15.38 12.50 4.77 <
5 -2 -13 81.37 81.01 2.35 o
6 -2 -13 76.18 73.78 2.27 o
7 -2 -13 101.74 104.77 2.62 o
8 -2 -13 51.24 49.66 2.00 o
9 -2 -13 3.03 31.48 53.43 <
10 -2 -13 55.73 60.56 3.72 o
-4 -1 -13 27.90 35.07 4.05 o
-2 -1 -13 75.69 75.10 2.86 o
-1 -1 -13 70.60 68.91 2.87 o
0 -1 -13 59.50 53.26 3.12 o
1 -1 -13 92.21 92.94 2.59 o
2 -1 -13 121.67 116.90 3.01 o
3 -1 -13 142.59 140.88 3.40 o
4 -1 -13 38.26 36.78 2.60 o
5 -1 -13 131.71 129.98 3.16 o
6 -1 -13 68.81 64.94 2.13 o
7 -1 -13 52.59 53.80 2.10 o
8 -1 -13 40.77 42.54 2.44 o
9 -1 -13 51.73 50.81 3.54 o
10 -1 -13 55.53 50.40 3.79 o
-4 0 -13 41.22 42.25 3.69 o
-3 0 -13 17.80 24.29 7.15 <
-1 0 -13 64.79 74.33 2.92 o
0 0 -13 80.17 77.78 2.81 o
1 0 -13 70.46 68.00 2.27 o
2 0 -13 54.26 54.67 2.16 o
3 0 -13 97.49 97.87 2.56 o
4 0 -13 50.94 54.23 2.16 o
5 0 -13 139.69 139.61 3.30 o
6 0 -13 49.46 52.71 2.15 o
7 0 -13 58.93 64.12 2.08 o
8 0 -13 58.63 57.09 2.81 o
9 0 -13 72.10 62.27 3.18 o
10 0 -13 18.01 28.79 7.19 <
-5 1 -13 37.35 34.13 3.56 o
-4 1 -13 6.51 9.98 19.49 <
-3 1 -13 17.41 20.50 5.25 <
-2 1 -13 95.93 94.24 2.86 o
-1 1 -13 70.98 70.95 2.92 o
0 1 -13 35.36 42.90 3.78 o
1 1 -13 66.24 67.08 2.14 o
2 1 -13 68.98 67.56 2.25 o
3 1 -13 91.06 90.21 2.46 o
4 1 -13 33.91 32.33 2.81 o
5 1 -13 134.98 136.92 3.22 o
6 1 -13 77.39 76.07 2.28 o
7 1 -13 33.16 30.95 2.76 o
8 1 -13 66.82 69.85 3.17 o
9 1 -13 38.35 40.48 4.34 o
-5 2 -13 20.91 13.23 6.14 <
-4 2 -13 35.53 33.50 3.12 o
-3 2 -13 85.96 82.38 2.97 o
-2 2 -13 41.55 41.99 3.56 o
-1 2 -13 17.75 20.25 7.18 <
0 2 -13 59.39 61.95 2.85 o
1 2 -13 142.83 145.77 3.41 o
2 2 -13 42.48 31.56 3.27 o
3 2 -13 50.06 47.52 2.20 o
4 2 -13 53.25 55.54 2.25 o
5 2 -13 58.39 58.73 2.22 o
6 2 -13 14.72 11.74 5.35 <
7 2 -13 39.64 42.43 2.40 o
8 2 -13 59.98 58.68 2.79 o
9 2 -13 0.00 14.99 73.13 <
-5 3 -13 49.20 36.86 3.29 o
-4 3 -13 79.30 74.38 2.96 o
-3 3 -13 45.60 39.96 3.36 o
-2 3 -13 34.71 31.02 3.94 o
-1 3 -13 113.62 109.89 3.15 o
0 3 -13 105.81 105.53 3.06 o
1 3 -13 42.10 38.38 3.21 o
2 3 -13 39.36 42.26 2.69 o
3 3 -13 119.94 119.22 2.98 o
4 3 -13 64.03 62.91 2.32 o
5 3 -13 32.59 36.18 2.96 o
6 3 -13 67.27 63.77 2.29 o
7 3 -13 81.73 76.69 2.32 o
8 3 -13 36.67 29.26 3.39 o
-5 4 -13 40.24 38.78 3.70 o
-4 4 -13 41.81 33.00 3.71 o
-3 4 -13 48.16 39.88 3.29 o
-2 4 -13 78.76 75.49 2.89 o
-1 4 -13 83.40 83.04 2.91 o
0 4 -13 24.55 10.33 5.54 o
1 4 -13 57.59 63.00 3.00 o
2 4 -13 102.89 103.86 2.98 o
3 4 -13 89.79 84.98 2.54 o
4 4 -13 35.95 38.07 2.99 o
5 4 -13 49.97 53.66 2.41 o
6 4 -13 94.47 89.09 2.57 o
7 4 -13 36.36 34.78 4.35 o
8 4 -13 36.38 29.06 4.12 o
-5 5 -13 14.49 24.77 9.45 <
-4 5 -13 31.38 27.90 3.60 o
-3 5 -13 60.60 60.31 3.07 o
-2 5 -13 15.79 24.98 7.35 <
-1 5 -13 69.82 70.50 2.88 o
0 5 -13 52.17 47.74 3.03 o
1 5 -13 86.79 81.07 2.86 o
2 5 -13 53.57 54.49 2.95 o
3 5 -13 27.00 26.26 5.73 o
4 5 -13 36.50 41.36 2.81 o
5 5 -13 83.13 77.15 2.45 o
6 5 -13 50.15 49.94 2.28 o
7 5 -13 16.94 10.41 8.49 <
-5 6 -13 51.58 51.85 2.87 o
-4 6 -13 41.21 32.70 3.81 o
-3 6 -13 37.24 28.70 4.13 o
-2 6 -13 78.01 75.08 3.04 o
-1 6 -13 67.27 61.58 2.66 o
0 6 -13 22.82 26.59 5.19 o
1 6 -13 51.95 46.11 2.78 o
2 6 -13 47.48 54.10 3.42 o
3 6 -13 18.71 22.23 5.44 <
4 6 -13 58.07 51.12 3.12 o
5 6 -13 41.68 43.42 3.18 o
6 6 -13 25.83 29.17 3.75 o
-4 7 -13 9.63 8.78 14.93 <
-3 7 -13 58.47 60.98 3.32 o
-2 7 -13 40.26 42.84 4.10 o
-1 7 -13 21.60 10.37 6.82 <
0 7 -13 48.57 40.96 3.27 o
1 7 -13 78.74 72.24 3.10 o
2 7 -13 33.57 33.51 3.59 o
3 7 -13 35.28 23.94 4.41 o
4 7 -13 62.33 49.87 2.73 o
5 7 -13 27.74 22.17 4.97 o
-3 8 -13 41.00 47.72 4.21 o
-2 8 -13 2.72 9.82 50.18 <
-1 8 -13 49.76 50.92 3.17 o
0 8 -13 65.67 67.14 2.83 o
1 8 -13 30.76 33.33 4.77 o
2 8 -13 34.28 24.56 4.39 o
3 8 -13 57.63 50.29 3.25 o
-1 9 -13 44.70 49.43 3.68 o
0 9 -13 23.59 18.05 5.43 o
6 -9 -12 25.61 25.21 4.12 o
2 -8 -12 0.00 16.27 88.78 <
3 -8 -12 57.79 63.83 3.24 o
4 -8 -12 0.00 23.97 89.62 <
5 -8 -12 42.32 42.46 2.49 o
6 -8 -12 67.40 65.33 2.30 o
7 -8 -12 35.82 35.52 2.91 o
8 -8 -12 39.47 45.23 2.52 o
9 -8 -12 49.15 28.28 4.35 o
0 -7 -12 28.55 22.98 6.03 o
1 -7 -12 0.00 17.23 71.50 <
2 -7 -12 39.99 39.04 4.05 o
3 -7 -12 51.71 51.12 2.25 o
4 -7 -12 33.70 25.19 2.82 o
5 -7 -12 46.85 48.56 2.16 o
6 -7 -12 84.76 86.02 2.42 o
7 -7 -12 4.00 16.05 22.19 <
8 -7 -12 39.65 40.63 2.46 o
9 -7 -12 27.19 28.79 6.51 o
-1 -6 -12 64.53 58.28 3.30 o
0 -6 -12 22.34 20.38 6.61 <
1 -6 -12 70.02 74.03 2.79 o
2 -6 -12 74.88 76.19 2.25 o
3 -6 -12 55.35 53.37 2.13 o
4 -6 -12 32.36 43.81 2.52 o
5 -6 -12 62.78 63.55 2.08 o
6 -6 -12 92.95 91.59 2.60 o
7 -6 -12 30.41 34.39 3.57 o
8 -6 -12 75.62 75.49 2.34 o
9 -6 -12 25.96 33.89 4.81 o
10 -6 -12 47.52 35.19 3.36 o
-2 -5 -12 51.06 45.38 2.99 o
-1 -5 -12 38.37 32.00 4.20 o
1 -5 -12 114.29 113.16 2.81 o
2 -5 -12 54.49 52.17 2.08 o
3 -5 -12 75.65 74.20 2.42 o
4 -5 -12 104.29 100.33 2.75 o
5 -5 -12 64.79 65.36 2.29 o
6 -5 -12 88.69 89.01 2.50 o
7 -5 -12 0.00 13.05 67.47 <
8 -5 -12 104.07 104.32 2.67 o
9 -5 -12 36.07 31.42 4.52 o
10 -5 -12 37.72 21.36 4.49 o
-3 -4 -12 27.12 39.64 5.37 o
-2 -4 -12 28.23 17.41 3.04 o
-1 -4 -12 37.97 34.69 4.16 o
0 -4 -12 58.85 54.44 2.84 o
1 -4 -12 76.76 80.13 2.24 o
2 -4 -12 18.76 22.78 3.86 o
3 -4 -12 114.68 116.54 2.87 o
4 -4 -12 164.95 166.33 3.85 o
5 -4 -12 56.48 54.40 2.16 o
6 -4 -12 85.71 81.79 2.40 o
7 -4 -12 47.05 45.07 2.20 o
8 -4 -12 102.88 104.55 2.64 o
9 -4 -12 37.97 35.46 3.43 o
10 -4 -12 46.08 42.21 3.32 o
-4 -3 -12 33.60 41.67 3.04 o
-3 -3 -12 42.38 43.31 2.44 o
-2 -3 -12 24.02 30.07 5.65 o
-1 -3 -12 66.24 57.35 2.61 o
0 -3 -12 39.96 45.64 3.75 o
1 -3 -12 55.79 57.68 2.18 o
2 -3 -12 34.17 34.75 2.73 o
3 -3 -12 82.11 80.21 2.31 o
4 -3 -12 106.03 105.97 2.70 o
5 -3 -12 50.62 50.50 2.23 o
6 -3 -12 132.83 128.05 3.17 o
7 -3 -12 55.26 54.77 2.07 o
8 -3 -12 48.57 55.81 2.20 o
9 -3 -12 31.35 32.38 5.19 o
10 -3 -12 59.68 57.29 3.52 o
11 -3 -12 46.90 46.52 4.20 o
-4 -2 -12 56.26 56.31 2.57 o
-3 -2 -12 43.87 36.06 3.49 o
-2 -2 -12 33.22 29.57 3.29 o
-1 -2 -12 77.08 76.44 2.93 o
0 -2 -12 92.72 97.53 2.51 o
1 -2 -12 63.58 63.75 2.20 o
2 -2 -12 63.18 63.56 2.19 o
3 -2 -12 75.29 73.83 2.25 o
4 -2 -12 102.80 100.35 2.50 o
5 -2 -12 37.66 41.18 1.92 o
6 -2 -12 142.68 141.46 3.35 o
7 -2 -12 43.18 43.97 2.01 o
8 -2 -12 41.98 48.32 2.27 o
9 -2 -12 57.57 60.11 2.87 o
10 -2 -12 57.09 49.89 3.46 o
-5 -1 -12 39.93 45.36 3.43 o
-4 -1 -12 48.64 45.99 3.27 o
-3 -1 -12 48.70 45.42 3.15 o
-2 -1 -12 44.88 52.04 3.61 o
-1 -1 -12 115.92 116.30 2.85 o
0 -1 -12 68.76 68.11 2.25 o
1 -1 -12 86.67 88.22 2.41 o
2 -1 -12 151.57 149.28 3.47 o
3 -1 -12 80.70 81.15 2.08 o
4 -1 -12 104.19 105.97 2.50 o
5 -1 -12 44.74 41.02 1.82 o
6 -1 -12 127.68 128.47 3.05 o
7 -1 -12 46.18 41.53 1.97 o
8 -1 -12 52.00 55.39 2.08 o
9 -1 -12 43.90 55.85 3.09 o
-5 0 -12 31.41 21.40 4.20 o
-3 0 -12 49.03 46.19 3.12 o
-2 0 -12 103.19 100.11 2.98 o
-1 0 -12 81.98 74.96 2.82 o
0 0 -12 36.92 37.87 3.25 o
1 0 -12 75.68 71.00 2.24 o
2 0 -12 120.46 120.99 2.94 o
3 0 -12 67.84 70.31 2.13 o
4 0 -12 116.39 113.99 2.85 o
5 0 -12 75.87 75.97 2.17 o
6 0 -12 93.32 96.84 2.40 o
7 0 -12 50.93 49.23 1.96 o
8 0 -12 57.07 55.53 3.28 o
9 0 -12 66.43 60.44 3.22 o
10 0 -12 4.31 21.99 36.44 <
-5 1 -12 19.81 25.38 4.61 o
-4 1 -12 50.29 43.66 3.01 o
-3 1 -12 72.58 71.52 3.00 o
-2 1 -12 46.52 26.64 5.65 o
-1 1 -12 8.19 12.25 13.78 <
0 1 -12 125.69 124.77 3.25 o
1 1 -12 107.97 101.09 2.72 o
2 1 -12 95.93 97.70 2.48 o
3 1 -12 69.08 72.79 2.16 o
4 1 -12 182.63 179.46 4.18 o
5 1 -12 57.00 55.81 1.73 o
6 1 -12 104.40 103.91 2.63 o
7 1 -12 64.49 66.11 2.06 o
8 1 -12 73.63 70.52 2.77 o
9 1 -12 63.11 56.58 2.93 o
10 1 -12 23.30 24.45 6.64 <
-6 2 -12 19.43 25.89 6.60 <
-5 2 -12 39.41 44.33 3.55 o
-3 2 -12 58.75 51.62 2.86 o
-2 2 -12 32.73 40.13 4.29 o
-1 2 -12 95.67 98.09 2.86 o
0 2 -12 81.56 80.94 2.68 o
1 2 -12 22.84 29.35 3.21 o
2 2 -12 87.60 85.14 2.39 o
3 2 -12 37.24 41.58 1.92 o
4 2 -12 82.17 79.71 2.13 o
5 2 -12 69.20 68.62 1.93 o
6 2 -12 74.73 77.19 2.18 o
7 2 -12 80.47 75.60 2.28 o
8 2 -12 30.80 33.97 3.69 o
9 2 -12 17.47 21.85 6.63 <
-6 3 -12 42.86 34.81 5.47 o
-5 3 -12 37.09 36.35 3.37 o
-4 3 -12 63.72 61.71 2.81 o
-3 3 -12 94.47 95.34 3.04 o
-2 3 -12 98.84 99.56 3.01 o
-1 3 -12 46.77 36.73 3.00 o
0 3 -12 127.96 125.18 3.30 o
1 3 -12 73.60 65.78 2.69 o
2 3 -12 97.18 94.61 2.38 o
3 3 -12 57.88 59.81 1.83 o
4 3 -12 58.62 61.71 1.89 o
5 3 -12 41.48 37.77 2.07 o
6 3 -12 83.77 83.80 2.29 o
7 3 -12 70.28 69.29 2.19 o
8 3 -12 22.42 16.44 5.73 <
9 3 -12 35.70 30.06 4.32 o
-6 4 -12 19.98 18.88 4.92 o
-5 4 -12 73.47 65.82 2.74 o
-4 4 -12 60.00 62.46 2.92 o
-3 4 -12 56.02 60.22 2.91 o
-2 4 -12 25.17 29.94 5.39 o
-1 4 -12 126.91 125.64 3.37 o
0 4 -12 117.66 118.51 3.17 o
1 4 -12 62.28 61.07 2.79 o
2 4 -12 127.73 127.50 3.30 o
3 4 -12 102.03 106.13 2.68 o
4 4 -12 71.08 65.78 2.27 o
5 4 -12 57.67 56.57 2.25 o
6 4 -12 80.00 78.98 2.33 o
7 4 -12 56.16 48.32 3.12 o
8 4 -12 9.61 8.22 14.51 <
-6 5 -12 37.84 31.88 3.34 o
-5 5 -12 6.80 24.36 13.38 <
-4 5 -12 40.42 38.21 3.62 o
-3 5 -12 42.35 37.83 2.91 o
-2 5 -12 101.86 99.69 2.50 o
-1 5 -12 69.44 64.67 2.99 o
0 5 -12 37.33 41.14 3.76 o
1 5 -12 44.59 47.57 3.29 o
2 5 -12 127.07 123.13 3.39 o
3 5 -12 39.04 23.59 3.69 o
4 5 -12 58.56 57.43 2.31 o
5 5 -12 79.98 80.39 2.40 o
6 5 -12 41.98 41.90 2.43 o
7 5 -12 21.65 23.62 6.13 <
-5 6 -12 0.00 8.74 79.81 <
-4 6 -12 59.15 48.44 3.10 o
-3 6 -12 83.32 75.07 2.99 o
-2 6 -12 0.00 22.69 79.03 <
-1 6 -12 31.80 26.86 3.12 o
0 6 -12 62.73 62.90 2.86 o
1 6 -12 78.66 78.06 2.68 o
2 6 -12 33.05 32.13 4.17 o
3 6 -12 33.10 21.17 3.09 o
4 6 -12 63.95 61.90 2.86 o
5 6 -12 37.36 47.79 3.08 o
6 6 -12 34.52 33.09 3.06 o
-5 7 -12 44.47 46.16 3.04 o
-4 7 -12 46.48 40.74 3.62 o
-3 7 -12 31.05 25.33 4.61 o
-2 7 -12 54.59 46.37 3.24 o
-1 7 -12 41.55 45.47 3.83 o
0 7 -12 52.19 49.63 3.07 o
1 7 -12 41.53 37.67 3.76 o
2 7 -12 18.18 28.68 5.77 <
3 7 -12 44.05 41.50 3.57 o
4 7 -12 38.09 40.81 3.07 o
5 7 -12 32.24 27.10 4.25 o
-4 8 -12 23.95 25.90 6.34 <
-3 8 -12 65.07 62.51 3.11 o
-2 8 -12 50.38 54.06 3.41 o
-1 8 -12 57.27 52.08 2.84 o
0 8 -12 57.62 57.64 2.85 o
1 8 -12 64.97 62.27 3.15 o
2 8 -12 36.75 37.09 3.61 o
3 8 -12 43.32 53.52 3.40 o
-3 9 -12 38.24 25.71 4.60 o
-2 9 -12 38.77 32.77 3.51 o
-1 9 -12 41.10 40.74 3.44 o
0 9 -12 33.70 34.62 3.71 o
1 9 -12 21.22 24.79 7.40 <
2 9 -12 38.84 35.98 4.46 o
3 -9 -11 38.72 32.46 4.52 o
4 -9 -11 68.86 64.37 3.28 o
5 -9 -11 23.90 11.88 3.56 o
6 -9 -11 62.10 59.70 2.16 o
7 -9 -11 55.86 47.91 2.45 o
8 -9 -11 12.93 21.05 6.86 <
1 -8 -11 0.00 11.61 81.64 <
2 -8 -11 37.76 41.31 4.00 o
3 -8 -11 42.88 41.30 3.97 o
4 -8 -11 51.76 54.90 2.04 o
5 -8 -11 0.00 9.78 65.33 <
6 -8 -11 75.84 74.52 2.36 o
7 -8 -11 49.49 45.97 2.25 o
8 -8 -11 28.09 27.19 2.99 o
9 -8 -11 30.57 39.42 5.94 o
-1 -7 -11 43.31 43.44 3.34 o
0 -7 -11 40.86 30.22 3.35 o
1 -7 -11 25.34 18.48 5.84 o
2 -7 -11 95.32 92.93 3.03 o
3 -7 -11 32.95 36.04 2.72 o
4 -7 -11 39.54 40.10 2.16 o
5 -7 -11 60.93 58.54 2.18 o
6 -7 -11 78.38 79.72 2.49 o
7 -7 -11 60.36 54.49 2.46 o
8 -7 -11 13.96 17.15 5.27 <
9 -7 -11 72.93 72.81 3.37 o
10 -7 -11 34.55 43.53 5.69 o
-2 -6 -11 53.02 47.79 3.62 o
-1 -6 -11 0.00 25.78 72.41 <
0 -6 -11 31.75 30.48 3.53 o
1 -6 -11 61.27 59.79 2.87 o
2 -6 -11 97.17 96.59 2.51 o
3 -6 -11 30.02 29.46 2.64 o
4 -6 -11 72.26 74.55 2.38 o
5 -6 -11 95.63 93.27 2.63 o
6 -6 -11 40.24 30.64 2.75 o
7 -6 -11 35.81 37.36 2.87 o
8 -6 -11 48.98 40.58 2.28 o
9 -6 -11 67.83 64.78 3.04 o
10 -6 -11 14.94 17.96 9.78 <
-3 -5 -11 44.71 53.43 3.43 o
-2 -5 -11 61.20 59.72 3.09 o
0 -5 -11 90.31 89.52 2.99 o
1 -5 -11 65.78 69.99 1.96 o
2 -5 -11 72.41 74.81 2.23 o
3 -5 -11 41.02 38.46 2.29 o
4 -5 -11 130.40 126.98 3.16 o
5 -5 -11 108.23 112.17 2.61 o
6 -5 -11 29.84 31.66 2.97 o
7 -5 -11 106.92 106.41 2.68 o
8 -5 -11 44.61 45.81 2.25 o
9 -5 -11 24.02 34.45 4.77 o
10 -5 -11 3.21 22.02 35.71 <
11 -5 -11 40.36 40.15 5.22 o
-4 -4 -11 37.96 23.97 3.88 o
-3 -4 -11 45.39 49.57 2.28 o
-2 -4 -11 42.67 34.88 2.17 o
-1 -4 -11 42.31 40.30 3.50 o
0 -4 -11 88.50 94.73 2.48 o
1 -4 -11 55.94 55.06 2.08 o
2 -4 -11 132.38 130.37 3.19 o
3 -4 -11 86.24 85.67 2.40 o
4 -4 -11 111.91 110.92 2.78 o
5 -4 -11 111.09 106.02 2.77 o
6 -4 -11 71.14 75.68 2.14 o
7 -4 -11 161.02 160.91 3.72 o
8 -4 -11 35.29 30.01 2.46 o
9 -4 -11 49.06 47.46 3.14 o
10 -4 -11 58.13 48.86 3.55 o
-4 -3 -11 43.23 41.42 2.51 o
-3 -3 -11 25.99 28.53 2.27 o
-1 -3 -11 55.83 40.86 3.27 o
0 -3 -11 103.04 105.99 2.63 o
1 -3 -11 37.40 41.65 2.36 o
2 -3 -11 62.00 58.97 2.05 o
3 -3 -11 139.34 137.41 3.30 o
4 -3 -11 111.75 110.93 2.75 o
5 -3 -11 102.34 103.15 2.46 o
6 -3 -11 57.13 53.58 2.05 o
7 -3 -11 129.90 129.79 3.07 o
8 -3 -11 14.32 4.22 4.70 <
9 -3 -11 94.29 85.80 3.12 o
10 -3 -11 68.45 71.24 3.16 o
-5 -2 -11 39.28 44.98 3.16 o
-4 -2 -11 61.78 58.28 2.36 o
-3 -2 -11 16.25 19.62 4.39 <
-2 -2 -11 80.56 84.79 2.78 o
-1 -2 -11 75.21 75.82 2.73 o
0 -2 -11 76.35 77.27 2.22 o
1 -2 -11 63.11 66.80 2.07 o
2 -2 -11 124.44 126.04 3.00 o
3 -2 -11 116.80 115.64 2.86 o
4 -2 -11 100.45 97.33 2.42 o
5 -2 -11 130.78 131.08 3.02 o
6 -2 -11 40.89 43.17 1.97 o
7 -2 -11 89.01 90.42 2.27 o
8 -2 -11 24.52 14.05 3.14 o
9 -2 -11 77.29 75.16 3.06 o
10 -2 -11 43.30 44.19 3.98 o
11 -2 -11 16.99 18.62 9.87 <
-5 -1 -11 43.73 44.80 2.88 o
-4 -1 -11 29.30 36.25 3.77 o
-3 -1 -11 61.13 56.78 2.38 o
-2 -1 -11 109.40 105.71 2.76 o
-1 -1 -11 56.07 50.72 2.71 o
0 -1 -11 71.46 72.00 2.08 o
1 -1 -11 134.43 135.84 3.20 o
2 -1 -11 168.75 170.24 3.82 o
3 -1 -11 60.31 59.32 1.71 o
4 -1 -11 98.76 98.52 2.38 o
5 -1 -11 192.15 187.49 4.31 o
6 -1 -11 10.30 13.85 5.60 <
7 -1 -11 58.55 63.15 1.85 o
8 -1 -11 55.48 53.90 2.03 o
9 -1 -11 56.10 55.12 3.27 o
-6 0 -11 25.46 34.30 4.29 o
-5 0 -11 27.08 35.93 4.08 o
-4 0 -11 59.15 58.62 3.04 o
-3 0 -11 59.45 59.19 2.89 o
-2 0 -11 93.04 92.82 2.90 o
-1 0 -11 43.02 50.36 2.90 o
0 0 -11 138.93 143.65 3.28 o
1 0 -11 155.78 156.81 3.63 o
2 0 -11 73.07 70.82 1.91 o
3 0 -11 159.28 156.43 3.61 o
4 0 -11 131.33 129.29 3.03 o
5 0 -11 94.67 93.40 2.42 o
6 0 -11 0.00 12.13 54.29 <
7 0 -11 99.42 100.54 2.47 o
8 0 -11 85.51 83.18 2.72 o
9 0 -11 16.61 33.79 7.83 <
10 0 -11 30.66 25.87 5.04 o
-6 1 -11 31.92 30.09 4.30 o
-5 1 -11 51.48 40.61 2.96 o
-4 1 -11 31.92 32.75 3.71 o
-3 1 -11 79.08 79.20 2.81 o
-2 1 -11 94.76 93.52 2.85 o
-1 1 -11 105.75 103.91 2.95 o
0 1 -11 142.88 138.28 3.55 o
1 1 -11 150.68 152.01 3.52 o
2 1 -11 133.10 136.08 3.15 o
3 1 -11 144.92 144.12 3.38 o
4 1 -11 71.26 72.81 1.88 o
5 1 -11 99.22 99.19 2.38 o
6 1 -11 60.98 59.34 1.91 o
7 1 -11 116.78 115.43 2.80 o
8 1 -11 75.47 72.97 2.73 o
10 1 -11 48.31 42.48 3.51 o
-6 2 -11 36.25 15.48 3.04 o
-5 2 -11 30.34 25.96 4.08 o
-4 2 -11 88.67 84.24 2.90 o
-3 2 -11 70.74 67.81 2.75 o
-2 2 -11 61.16 66.07 2.63 o
-1 2 -11 53.35 54.26 2.63 o
0 2 -11 155.08 159.46 3.79 o
1 2 -11 58.21 64.17 1.99 o
2 2 -11 64.52 60.02 1.79 o
3 2 -11 142.86 142.94 3.27 o
4 2 -11 96.83 97.27 2.34 o
5 2 -11 82.06 84.08 2.07 o
6 2 -11 63.86 62.98 1.90 o
7 2 -11 77.39 77.40 2.10 o
8 2 -11 36.86 31.12 3.13 o
9 2 -11 10.76 30.42 11.92 <
10 2 -11 49.81 48.78 3.18 o
-6 3 -11 20.57 24.29 7.56 <
-5 3 -11 76.29 72.03 2.64 o
-4 3 -11 79.74 80.89 2.89 o
-3 3 -11 22.68 24.02 4.44 o
-2 3 -11 73.38 77.79 2.62 o
-1 3 -11 162.24 155.63 3.94 o
0 3 -11 72.44 69.34 2.46 o
1 3 -11 23.97 23.64 3.52 o
2 3 -11 61.00 61.32 2.02 o
3 3 -11 145.85 143.15 3.35 o
4 3 -11 24.83 29.30 3.10 o
5 3 -11 0.00 12.16 58.48 <
6 3 -11 77.48 81.47 2.15 o
7 3 -11 45.33 40.52 2.11 o
8 3 -11 43.37 37.98 3.37 o
9 3 -11 28.15 27.28 4.63 o
-6 4 -11 60.30 56.60 2.84 o
-5 4 -11 47.12 49.31 3.11 o
-4 4 -11 14.74 21.41 7.37 <
-3 4 -11 82.86 89.47 2.36 o
-2 4 -11 160.48 160.60 3.73 o
-1 4 -11 51.24 58.93 2.82 o
0 4 -11 16.80 24.07 5.01 <
1 4 -11 127.41 128.57 3.30 o
2 4 -11 121.65 116.70 3.16 o
3 4 -11 94.22 92.25 2.49 o
4 4 -11 34.18 32.76 2.68 o
5 4 -11 88.08 88.81 2.38 o
6 4 -11 81.24 82.28 2.29 o
7 4 -11 0.00 18.05 59.29 <
8 4 -11 41.47 48.40 3.46 o
-6 5 -11 19.31 23.27 6.18 <
-5 5 -11 64.59 60.06 2.82 o
-4 5 -11 64.16 65.91 2.00 o
-3 5 -11 73.79 71.93 2.34 o
-2 5 -11 0.00 18.31 79.56 <
-1 5 -11 55.63 55.29 2.91 o
0 5 -11 106.94 107.94 3.07 o
1 5 -11 124.64 121.27 3.31 o
2 5 -11 55.22 51.31 2.81 o
3 5 -11 76.71 78.74 2.77 o
4 5 -11 78.91 79.82 2.27 o
5 5 -11 89.13 90.86 2.43 o
6 5 -11 33.89 31.23 3.27 o
7 5 -11 42.09 37.28 2.74 o
-6 6 -11 41.82 42.41 3.42 o
-5 6 -11 50.93 41.67 3.11 o
-4 6 -11 40.69 41.44 1.98 o
-3 6 -11 44.56 45.60 3.39 o
-2 6 -11 69.73 68.56 2.87 o
-1 6 -11 69.03 74.10 2.82 o
0 6 -11 47.22 45.44 3.35 o
1 6 -11 51.99 55.33 3.15 o
2 6 -11 37.01 30.28 3.99 o
3 6 -11 67.98 68.97 2.70 o
4 6 -11 58.03 55.05 3.15 o
5 6 -11 46.34 43.13 2.81 o
6 6 -11 46.14 42.97 2.73 o
-6 7 -11 33.24 33.88 3.65 o
-5 7 -11 16.12 16.01 6.61 <
-4 7 -11 59.90 55.83 3.08 o
-3 7 -11 74.08 73.54 2.97 o
-2 7 -11 34.24 32.96 4.08 o
-1 7 -11 25.60 20.80 5.06 o
0 7 -11 67.11 62.66 2.63 o
1 7 -11 67.36 57.82 3.00 o
2 7 -11 22.11 27.21 5.54 o
3 7 -11 41.83 41.94 3.49 o
4 7 -11 32.21 30.68 3.25 o
5 7 -11 28.10 29.72 4.45 o
-5 8 -11 50.05 44.97 3.13 o
-4 8 -11 62.09 64.95 3.07 o
-3 8 -11 49.24 35.18 3.37 o
-2 8 -11 34.83 29.92 4.19 o
-1 8 -11 88.57 87.43 2.85 o
0 8 -11 57.04 51.44 2.78 o
1 8 -11 40.28 32.72 3.72 o
2 8 -11 46.20 44.56 3.21 o
3 8 -11 52.61 49.69 2.95 o
4 8 -11 33.82 33.46 4.32 o
-4 9 -11 20.64 20.69 7.42 <
-3 9 -11 23.24 22.15 6.61 <
-2 9 -11 69.04 63.33 2.89 o
-1 9 -11 44.84 45.46 3.08 o
0 9 -11 33.44 26.72 3.74 o
1 9 -11 32.79 40.27 4.97 o
2 9 -11 50.19 56.46 3.75 o
3 9 -11 31.58 36.08 4.91 o
-2 10 -11 42.85 31.41 4.37 o
-1 10 -11 0.00 13.30 88.22 <
0 10 -11 29.16 30.09 5.89 o
5 -10 -10 35.19 25.06 5.02 o
6 -10 -10 2.26 17.23 42.95 <
2 -9 -10 43.99 34.10 3.31 o
3 -9 -10 75.23 72.72 2.88 o
4 -9 -10 34.59 28.95 4.78 o
5 -9 -10 48.44 49.20 2.10 o
6 -9 -10 49.71 45.87 2.30 o
7 -9 -10 42.94 45.81 2.46 o
8 -9 -10 18.46 16.73 4.34 o
9 -9 -10 21.86 22.36 8.26 <
0 -8 -10 24.15 24.15 6.37 <
1 -8 -10 19.14 35.35 7.96 <
2 -8 -10 40.80 33.00 3.72 o
3 -8 -10 78.91 81.45 2.29 o
4 -8 -10 24.49 22.55 3.37 o
5 -8 -10 62.40 58.69 2.13 o
6 -8 -10 56.07 55.66 2.14 o
7 -8 -10 53.01 50.23 2.32 o
8 -8 -10 64.60 58.42 2.28 o
9 -8 -10 34.00 41.82 5.20 o
-1 -7 -10 36.02 34.56 4.61 o
0 -7 -10 0.00 28.05 84.59 <
1 -7 -10 63.41 60.42 3.04 o
2 -7 -10 42.23 40.17 2.20 o
3 -7 -10 76.21 72.25 2.22 o
4 -7 -10 0.00 5.72 58.74 <
5 -7 -10 123.43 120.79 3.07 o
6 -7 -10 59.75 59.08 2.34 o
7 -7 -10 31.61 40.66 3.27 o
8 -7 -10 69.88 66.79 2.11 o
9 -7 -10 29.93 40.46 5.62 o
10 -7 -10 38.60 45.47 4.73 o
-2 -6 -10 56.33 50.84 3.41 o
-1 -6 -10 16.69 27.14 7.95 <
0 -6 -10 30.59 36.18 4.71 o
1 -6 -10 103.16 107.43 2.59 o
2 -6 -10 0.00 6.19 66.86 <
3 -6 -10 72.15 75.16 2.23 o
4 -6 -10 40.72 40.78 2.61 o
5 -6 -10 96.08 92.48 2.59 o
6 -6 -10 60.11 58.62 2.09 o
7 -6 -10 43.11 47.14 2.22 o
8 -6 -10 78.01 82.16 2.26 o
9 -6 -10 6.68 15.27 21.47 <
10 -6 -10 33.72 30.66 4.84 o
11 -6 -10 29.96 44.95 5.32 o
-3 -5 -10 53.46 54.47 2.75 o
-2 -5 -10 58.09 52.75 3.04 o
-1 -5 -10 43.04 42.84 1.85 o
0 -5 -10 81.88 89.74 2.44 o
1 -5 -10 134.68 137.91 3.24 o
2 -5 -10 28.42 25.35 3.11 o
3 -5 -10 127.86 130.29 3.09 o
4 -5 -10 96.02 91.98 2.48 o
5 -5 -10 79.58 78.98 2.05 o
6 -5 -10 60.60 61.16 1.83 o
7 -5 -10 64.46 71.27 2.10 o
8 -5 -10 108.19 110.07 2.66 o
9 -5 -10 11.50 11.79 8.95 <
10 -5 -10 56.48 56.78 3.63 o
11 -5 -10 47.11 51.87 3.39 o
-4 -4 -10 33.79 42.60 2.79 o
-3 -4 -10 45.71 46.65 2.20 o
-2 -4 -10 40.54 44.01 1.99 o
-1 -4 -10 80.31 78.12 2.76 o
0 -4 -10 82.47 81.41 2.28 o
1 -4 -10 70.75 70.04 2.16 o
2 -4 -10 39.59 37.33 2.33 o
3 -4 -10 171.77 164.72 3.95 o
4 -4 -10 82.27 76.29 2.27 o
5 -4 -10 92.31 96.32 2.40 o
6 -4 -10 131.16 127.19 3.10 o
7 -4 -10 47.56 49.70 1.99 o
8 -4 -10 57.66 59.32 1.92 o
9 -4 -10 32.14 15.55 4.73 o
10 -4 -10 71.06 66.60 3.20 o
11 -4 -10 0.00 26.76 89.97 <
-5 -3 -10 27.59 21.87 2.74 o
-4 -3 -10 24.88 28.28 2.74 o
-3 -3 -10 26.06 24.57 2.79 o
-2 -3 -10 34.21 42.57 3.84 o
-1 -3 -10 114.51 109.96 3.15 o
0 -3 -10 32.64 33.95 2.19 o
1 -3 -10 88.10 92.83 2.33 o
2 -3 -10 136.71 135.59 3.24 o
3 -3 -10 173.17 170.81 3.98 o
4 -3 -10 106.53 105.09 2.63 o
5 -3 -10 79.44 82.94 2.03 o
6 -3 -10 184.36 180.82 4.19 o
7 -3 -10 19.93 23.94 3.18 o
8 -3 -10 88.13 90.58 2.22 o
9 -3 -10 74.99 77.01 2.70 o
10 -3 -10 80.83 73.96 3.10 o
11 -3 -10 4.07 21.70 28.16 <
-5 -2 -10 40.41 45.40 2.44 o
-4 -2 -10 44.84 50.28 1.95 o
-3 -2 -10 51.01 45.80 2.14 o
-2 -2 -10 64.21 62.06 2.54 o
-1 -2 -10 83.05 82.27 2.68 o
0 -2 -10 33.70 30.88 2.12 o
1 -2 -10 114.86 111.86 2.78 o
2 -2 -10 72.78 76.24 2.09 o
3 -2 -10 64.64 57.16 2.02 o
4 -2 -10 126.38 122.01 2.92 o
5 -2 -10 126.19 128.54 2.91 o
6 -2 -10 130.84 130.03 3.05 o
7 -2 -10 32.14 32.55 1.87 o
8 -2 -10 120.88 122.11 2.83 o
9 -2 -10 59.75 59.68 3.04 o
10 -2 -10 41.17 45.85 3.96 o
11 -2 -10 23.37 24.83 5.02 o
-6 -1 -10 42.37 45.13 3.07 o
-5 -1 -10 63.58 65.36 2.39 o
-4 -1 -10 49.74 48.95 2.46 o
-3 -1 -10 55.49 50.07 2.01 o
-2 -1 -10 93.93 96.30 2.44 o
-1 -1 -10 114.73 110.99 3.01 o
0 -1 -10 41.33 41.62 2.08 o
1 -1 -10 82.08 81.24 2.20 o
2 -1 -10 206.71 208.79 4.67 o
3 -1 -10 44.36 37.68 1.62 o
4 -1 -10 112.43 108.74 2.63 o
5 -1 -10 44.63 44.84 1.55 o
6 -1 -10 84.35 87.34 2.06 o
7 -1 -10 25.63 24.53 2.38 o
8 -1 -10 96.45 96.60 2.37 o
9 -1 -10 35.66 35.55 3.86 o
10 -1 -10 0.00 15.75 81.62 <
11 -1 -10 34.54 34.89 4.74 o
-6 0 -10 52.15 52.38 2.43 o
-5 0 -10 29.09 21.26 3.40 o
-4 0 -10 26.80 29.68 3.40 o
-3 0 -10 134.21 132.06 3.19 o
-2 0 -10 125.65 128.38 3.00 o
-1 0 -10 95.70 93.43 2.74 o
0 0 -10 132.79 132.66 3.13 o
1 0 -10 313.05 310.01 6.97 o
2 0 -10 181.29 181.58 4.07 o
3 0 -10 169.31 170.19 3.82 o
4 0 -10 261.48 254.29 5.81 o
5 0 -10 76.69 71.78 2.05 o
6 0 -10 87.51 85.74 2.13 o
7 0 -10 56.32 56.89 1.72 o
8 0 -10 96.91 95.17 2.95 o
9 0 -10 31.14 39.93 4.29 o
11 0 -10 40.48 44.56 3.92 o
-7 1 -10 24.86 25.35 7.65 <
-6 1 -10 0.00 13.80 77.43 <
-5 1 -10 10.36 11.12 11.33 <
-4 1 -10 89.11 90.77 2.75 o
-3 1 -10 91.56 90.50 2.78 o
-2 1 -10 24.83 33.33 3.96 o
-1 1 -10 102.14 100.60 2.78 o
0 1 -10 156.87 155.39 3.63 o
1 1 -10 100.15 101.55 2.49 o
2 1 -10 24.86 26.25 2.22 o
3 1 -10 142.99 142.31 3.25 o
4 1 -10 270.25 264.21 6.00 o
5 1 -10 46.57 50.13 1.56 o
6 1 -10 121.13 118.96 2.86 o
7 1 -10 69.93 68.25 1.92 o
8 1 -10 69.21 67.73 2.84 o
10 1 -10 52.38 50.46 3.29 o
-7 2 -10 0.00 27.31 98.70 <
-6 2 -10 39.80 40.25 2.88 o
-5 2 -10 59.95 57.12 2.69 o
-4 2 -10 31.19 34.79 3.22 o
-3 2 -10 34.52 40.40 3.37 o
-2 2 -10 59.51 59.33 2.38 o
-1 2 -10 171.96 168.96 4.09 o
0 2 -10 33.97 37.16 2.56 o
1 2 -10 58.20 57.28 2.01 o
2 2 -10 197.29 198.56 4.42 o
3 2 -10 126.00 121.70 2.91 o
4 2 -10 100.79 97.94 2.41 o
5 2 -10 40.35 41.29 1.57 o
6 2 -10 123.52 124.24 2.86 o
7 2 -10 62.74 66.26 1.82 o
8 2 -10 48.82 45.59 2.56 o
9 2 -10 63.58 59.28 2.92 o
10 2 -10 36.38 46.36 3.48 o
-7 3 -10 38.73 38.65 3.53 o
-6 3 -10 43.54 42.80 3.86 o
-5 3 -10 20.64 23.17 5.62 <
-4 3 -10 91.59 91.57 2.74 o
-3 3 -10 95.18 95.05 2.45 o
-2 3 -10 83.82 86.82 2.20 o
-1 3 -10 70.06 70.82 1.95 o
0 3 -10 111.15 110.70 2.95 o
1 3 -10 141.49 139.91 3.32 o
2 3 -10 119.28 119.48 2.87 o
3 3 -10 28.47 28.28 2.41 o
4 3 -10 75.89 76.03 1.98 o
5 3 -10 40.07 35.43 2.02 o
6 3 -10 87.83 89.76 2.27 o
7 3 -10 29.45 24.29 2.39 o
8 3 -10 50.38 44.23 2.87 o
9 3 -10 51.20 50.70 3.01 o
-7 4 -10 20.21 24.88 5.71 <
-6 4 -10 20.89 27.73 5.10 o
-5 4 -10 96.60 97.13 2.98 o
-4 4 -10 90.74 91.77 2.43 o
-3 4 -10 72.97 73.42 2.18 o
-2 4 -10 86.73 88.18 2.67 o
-1 4 -10 123.46 118.00 3.20 o
0 4 -10 104.77 101.99 2.84 o
1 4 -10 56.04 57.82 2.46 o
2 4 -10 119.51 118.70 2.92 o
3 4 -10 42.65 40.32 2.18 o
4 4 -10 103.44 97.88 2.59 o
5 4 -10 67.88 71.21 2.06 o
6 4 -10 57.45 62.40 1.99 o
7 4 -10 35.76 35.17 2.22 o
8 4 -10 59.30 59.03 2.55 o
-7 5 -10 28.04 30.22 4.91 o
-6 5 -10 76.60 76.71 2.66 o
-5 5 -10 36.99 40.69 2.35 o
-4 5 -10 19.03 21.42 4.56 o
-3 5 -10 98.89 101.46 2.91 o
-2 5 -10 139.03 140.01 3.55 o
-1 5 -10 113.52 114.57 3.10 o
0 5 -10 73.75 73.86 2.53 o
1 5 -10 127.77 126.84 3.28 o
2 5 -10 119.53 118.10 3.18 o
3 5 -10 72.71 69.69 2.48 o
4 5 -10 108.22 107.80 2.71 o
5 5 -10 68.37 71.03 2.13 o
6 5 -10 10.83 26.22 8.32 <
7 5 -10 49.10 42.03 2.47 o
-7 6 -10 36.29 32.47 6.41 o
-6 6 -10 25.89 7.64 4.55 o
-5 6 -10 24.56 20.82 2.79 o
-4 6 -10 75.54 74.85 2.38 o
-3 6 -10 77.20 75.44 2.71 o
-2 6 -10 59.49 56.40 2.66 o
-1 6 -10 39.37 35.41 3.52 o
0 6 -10 120.50 120.53 3.21 o
1 6 -10 66.31 64.93 2.59 o
2 6 -10 44.59 45.96 2.84 o
3 6 -10 56.29 60.39 2.75 o
4 6 -10 83.67 84.03 2.65 o
5 6 -10 25.59 33.24 5.29 o
6 6 -10 53.15 53.95 2.36 o
-6 7 -10 21.20 22.19 6.73 <
-5 7 -10 63.03 61.70 2.08 o
-4 7 -10 62.34 59.82 2.96 o
-3 7 -10 22.58 29.33 5.58 o
-2 7 -10 57.08 53.42 2.91 o
-1 7 -10 78.98 71.12 2.99 o
0 7 -10 67.22 65.83 2.92 o
1 7 -10 21.01 27.71 6.60 <
2 7 -10 58.48 54.78 3.07 o
3 7 -10 77.89 73.01 2.83 o
4 7 -10 28.39 27.67 3.38 o
5 7 -10 44.32 39.27 3.23 o
-6 8 -10 53.20 58.84 4.05 o
-5 8 -10 35.21 32.99 3.74 o
-4 8 -10 46.45 43.48 3.35 o
-3 8 -10 55.19 49.27 3.12 o
-2 8 -10 69.64 66.99 2.71 o
-1 8 -10 32.97 39.96 4.22 o
0 8 -10 35.03 38.66 4.02 o
1 8 -10 17.53 24.43 6.67 <
2 8 -10 90.11 84.47 3.01 o
3 8 -10 35.77 33.95 3.64 o
4 8 -10 0.00 17.17 80.93 <
5 8 -10 34.03 22.88 3.97 o
-5 9 -10 36.42 34.58 4.38 o
-4 9 -10 69.00 56.74 3.20 o
-3 9 -10 49.49 49.05 3.62 o
-2 9 -10 52.42 57.88 2.90 o
-1 9 -10 63.60 60.31 2.84 o
0 9 -10 67.24 62.99 2.74 o
1 9 -10 44.65 42.03 3.80 o
2 9 -10 69.15 57.65 3.23 o
3 9 -10 40.15 31.98 4.08 o
-4 10 -10 0.00 14.52 88.23 <
-3 10 -10 42.61 21.36 4.08 o
-2 10 -10 39.33 42.50 4.57 o
-1 10 -10 25.49 23.43 6.39 o
0 10 -10 4.34 35.25 35.22 <
1 10 -10 30.13 33.67 5.53 o
3 -10 -9 40.28 36.92 4.49 o
4 -10 -9 46.62 42.18 3.92 o
5 -10 -9 17.07 9.78 8.75 <
6 -10 -9 49.89 44.91 2.49 o
7 -10 -9 35.59 35.34 2.74 o
8 -10 -9 20.95 23.28 4.38 o
1 -9 -9 36.75 34.57 3.60 o
2 -9 -9 56.95 53.44 3.23 o
3 -9 -9 50.86 52.54 3.55 o
4 -9 -9 45.35 41.46 2.23 o
5 -9 -9 31.39 25.90 3.63 o
6 -9 -9 65.36 64.29 2.29 o
7 -9 -9 17.96 21.17 4.74 <
8 -9 -9 34.55 28.42 3.00 o
-1 -8 -9 27.41 46.19 5.72 o
0 -8 -9 11.14 17.00 11.41 <
1 -8 -9 62.70 55.87 3.20 o
2 -8 -9 104.07 102.97 3.06 o
3 -8 -9 34.64 34.21 2.08 o
4 -8 -9 73.91 69.08 2.22 o
5 -8 -9 52.15 53.95 2.15 o
6 -8 -9 83.60 84.43 2.52 o
7 -8 -9 23.64 29.11 4.40 o
8 -8 -9 58.12 56.92 2.33 o
9 -8 -9 49.63 49.76 3.83 o
10 -8 -9 8.76 16.62 20.14 <
-2 -7 -9 35.69 42.83 3.43 o
-1 -7 -9 49.79 32.26 3.25 o
0 -7 -9 26.13 26.25 4.03 o
1 -7 -9 67.32 58.31 2.94 o
2 -7 -9 77.78 77.70 2.16 o
3 -7 -9 32.27 39.10 3.15 o
4 -7 -9 121.18 117.22 3.00 o
5 -7 -9 70.08 69.04 2.28 o
6 -7 -9 65.88 68.86 2.14 o
7 -7 -9 47.04 45.32 2.29 o
8 -7 -9 76.52 77.43 2.33 o
9 -7 -9 63.63 66.26 3.35 o
10 -7 -9 29.98 26.87 4.30 o
-3 -6 -9 42.63 43.38 3.76 o
-2 -6 -9 31.19 29.18 3.59 o
-1 -6 -9 32.09 24.04 4.27 o
0 -6 -9 73.79 72.94 2.73 o
1 -6 -9 57.98 60.48 2.29 o
2 -6 -9 54.45 53.94 2.30 o
3 -6 -9 0.00 5.82 60.95 <
4 -6 -9 162.06 164.62 3.67 o
5 -6 -9 45.63 45.10 1.81 o
6 -6 -9 73.44 73.91 2.02 o
7 -6 -9 67.20 69.50 2.06 o
8 -6 -9 56.84 56.14 2.08 o
9 -6 -9 35.53 39.76 4.51 o
10 -6 -9 0.00 18.91 87.18 <
11 -6 -9 67.58 58.35 3.58 o
-4 -5 -9 48.21 37.64 3.36 o
-3 -5 -9 65.53 58.67 3.02 o
-2 -5 -9 51.91 53.92 2.02 o
-1 -5 -9 74.69 74.70 2.22 o
0 -5 -9 136.33 141.00 3.15 o
1 -5 -9 23.07 27.09 3.26 o
2 -5 -9 102.31 105.23 2.56 o
3 -5 -9 53.08 59.00 2.04 o
4 -5 -9 131.65 131.47 3.04 o
5 -5 -9 42.99 45.12 1.60 o
6 -5 -9 116.88 121.03 2.74 o
7 -5 -9 99.54 98.53 2.51 o
8 -5 -9 39.07 36.82 1.91 o
9 -5 -9 45.29 37.43 3.63 o
10 -5 -9 42.35 42.62 4.14 o
11 -5 -9 63.74 54.94 3.46 o
-5 -4 -9 36.81 28.84 2.66 o
-4 -4 -9 73.36 71.87 2.18 o
-3 -4 -9 40.13 42.56 2.01 o
-2 -4 -9 53.66 55.16 2.31 o
-1 -4 -9 83.72 76.58 2.79 o
0 -4 -9 133.16 138.44 3.18 o
1 -4 -9 35.53 31.26 1.65 o
2 -4 -9 203.61 201.13 4.62 o
3 -4 -9 91.30 90.13 2.36 o
4 -4 -9 121.91 121.27 2.92 o
5 -4 -9 97.08 91.96 2.34 o
6 -4 -9 114.77 119.53 2.68 o
7 -4 -9 98.54 94.78 2.44 o
8 -4 -9 30.88 25.94 2.45 o
9 -4 -9 85.62 80.82 2.96 o
10 -4 -9 54.59 51.16 2.87 o
11 -4 -9 24.94 24.91 6.19 o
-5 -3 -9 56.65 55.26 1.89 o
-4 -3 -9 47.78 46.52 1.91 o
-3 -3 -9 65.79 58.09 2.27 o
-2 -3 -9 81.88 81.21 2.65 o
-1 -3 -9 84.45 83.16 2.69 o
0 -3 -9 129.11 131.07 3.08 o
1 -3 -9 115.69 112.85 2.80 o
2 -3 -9 247.32 244.39 5.54 o
3 -3 -9 100.26 103.46 2.49 o
4 -3 -9 172.50 172.84 3.93 o
5 -3 -9 124.10 120.68 2.86 o
6 -3 -9 123.23 126.23 2.89 o
7 -3 -9 91.16 91.00 2.25 o
8 -3 -9 53.15 50.06 1.64 o
9 -3 -9 102.87 103.11 3.07 o
10 -3 -9 0.00 20.53 83.64 <
11 -3 -9 21.63 26.31 7.54 <
-6 -2 -9 32.09 35.01 4.72 o
-5 -2 -9 55.49 53.89 1.97 o
-4 -2 -9 15.38 20.35 4.26 <
-3 -2 -9 36.46 43.23 2.87 o
-2 -2 -9 142.06 137.75 3.52 o
-1 -2 -9 81.84 80.35 2.58 o
0 -2 -9 78.49 81.37 2.10 o
1 -2 -9 43.89 48.95 1.78 o
2 -2 -9 230.93 229.09 5.18 o
3 -2 -9 33.49 36.82 1.96 o
4 -2 -9 95.05 92.30 2.25 o
5 -2 -9 155.63 153.72 3.52 o
6 -2 -9 123.99 124.41 2.90 o
7 -2 -9 81.72 83.95 2.06 o
8 -2 -9 77.95 80.56 1.94 o
9 -2 -9 86.31 83.66 2.94 o
10 -2 -9 40.25 40.63 3.62 o
11 -2 -9 53.54 47.58 3.47 o
-6 -1 -9 57.96 62.76 2.49 o
-5 -1 -9 37.88 35.90 2.11 o
-4 -1 -9 32.99 33.90 2.51 o
-3 -1 -9 84.67 89.77 2.31 o
-2 -1 -9 82.32 76.57 2.58 o
-1 -1 -9 42.57 46.70 2.67 o
0 -1 -9 160.50 159.90 3.68 o
1 -1 -9 117.43 120.14 2.79 o
2 -1 -9 146.68 143.42 3.39 o
3 -1 -9 119.58 117.26 2.75 o
4 -1 -9 89.99 89.76 2.16 o
5 -1 -9 201.59 195.86 4.50 o
6 -1 -9 41.69 41.31 1.47 o
7 -1 -9 72.39 70.99 1.92 o
8 -1 -9 50.15 50.81 3.05 o
9 -1 -9 52.15 50.11 3.18 o
11 -1 -9 36.62 37.19 4.23 o
-7 0 -9 42.37 40.57 4.40 o
-6 0 -9 36.78 38.20 2.99 o
-5 0 -9 52.83 54.97 1.97 o
-4 0 -9 109.85 103.69 2.71 o
-3 0 -9 107.21 105.61 2.64 o
-2 0 -9 123.29 123.64 2.92 o
-1 0 -9 125.04 123.33 2.95 o
0 0 -9 261.99 263.47 5.85 o
1 0 -9 0.00 10.58 54.57 <
2 0 -9 83.44 79.00 2.04 o
3 0 -9 219.89 215.33 4.90 o
4 0 -9 166.21 162.17 3.71 o
5 0 -9 137.69 140.68 3.10 o
6 0 -9 33.99 35.35 1.45 o
7 0 -9 124.07 123.92 2.83 o
8 0 -9 49.21 46.32 3.02 o
9 0 -9 30.66 26.45 4.35 o
10 0 -9 40.25 37.36 3.60 o
11 0 -9 21.35 32.53 6.49 <
-7 1 -9 15.94 30.69 8.77 <
-6 1 -9 42.90 44.62 2.47 o
-5 1 -9 61.63 62.73 2.68 o
-4 1 -9 49.49 50.17 2.67 o
-3 1 -9 86.13 86.46 2.59 o
-2 1 -9 120.08 117.26 3.06 o
-1 1 -9 104.74 106.39 2.78 o
0 1 -9 150.27 146.87 3.47 o
1 1 -9 156.07 155.47 3.59 o
2 1 -9 262.88 259.39 5.83 o
3 1 -9 215.46 207.21 4.80 o
4 1 -9 34.14 37.00 1.57 o
5 1 -9 108.41 108.37 2.53 o
6 1 -9 97.75 96.56 2.37 o
7 1 -9 105.02 106.85 2.47 o
8 1 -9 54.10 50.15 2.83 o
9 1 -9 55.60 51.32 2.86 o
10 1 -9 48.19 55.81 3.24 o
-7 2 -9 19.26 28.59 6.20 <
-6 2 -9 26.38 24.70 3.75 o
-5 2 -9 48.28 46.39 2.67 o
-4 2 -9 88.08 86.59 2.59 o
-3 2 -9 76.93 75.52 2.42 o
-2 2 -9 49.79 51.11 2.45 o
-1 2 -9 112.88 113.78 2.93 o
0 2 -9 159.11 154.69 3.79 o
1 2 -9 104.78 109.35 2.56 o
2 2 -9 153.09 144.80 3.53 o
3 2 -9 175.96 176.84 3.95 o
4 2 -9 67.61 67.86 1.79 o
5 2 -9 193.85 190.71 4.34 o
6 2 -9 99.20 99.06 2.33 o
7 2 -9 71.93 72.56 1.89 o
8 2 -9 39.15 40.07 2.98 o
9 2 -9 67.01 62.64 2.79 o
-7 3 -9 17.00 11.12 6.95 <
-6 3 -9 55.80 61.24 2.72 o
-5 3 -9 89.98 92.85 2.72 o
-4 3 -9 71.77 72.24 2.12 o
-3 3 -9 22.67 22.77 2.93 o
-2 3 -9 148.51 143.00 3.44 o
-1 3 -9 129.88 132.46 3.24 o
0 3 -9 113.54 114.75 2.91 o
1 3 -9 102.57 108.91 2.54 o
2 3 -9 117.45 117.81 2.82 o
3 3 -9 85.86 77.31 2.22 o
4 3 -9 56.06 59.07 1.85 o
5 3 -9 128.79 132.90 2.96 o
6 3 -9 61.38 62.98 1.85 o
7 3 -9 44.35 41.86 1.80 o
8 3 -9 65.54 52.94 2.60 o
9 3 -9 55.73 57.93 2.67 o
-7 4 -9 37.69 45.97 2.75 o
-6 4 -9 73.24 74.45 2.55 o
-5 4 -9 33.04 35.45 2.41 o
-4 4 -9 40.81 40.16 2.23 o
-3 4 -9 148.85 147.90 3.46 o
-2 4 -9 171.51 169.23 4.08 o
-1 4 -9 33.29 28.49 3.02 o
0 4 -9 100.40 98.53 2.77 o
1 4 -9 205.95 206.13 4.77 o
2 4 -9 89.68 81.15 2.35 o
3 4 -9 47.69 47.59 1.92 o
4 4 -9 65.70 69.15 1.95 o
5 4 -9 105.34 105.33 2.59 o
6 4 -9 19.75 13.27 3.37 o
7 4 -9 48.08 51.12 1.89 o
8 4 -9 61.77 56.25 2.59 o
-7 5 -9 31.38 36.19 3.26 o
-6 5 -9 34.11 37.23 3.02 o
-5 5 -9 58.35 52.33 2.24 o
-4 5 -9 124.14 125.73 3.01 o
-3 5 -9 79.50 84.07 2.62 o
-2 5 -9 60.88 60.32 2.64 o
-1 5 -9 84.33 83.59 2.64 o
0 5 -9 191.37 180.37 4.50 o
1 5 -9 104.51 106.21 2.86 o
2 5 -9 41.43 35.66 2.71 o
3 5 -9 117.60 115.82 2.97 o
4 5 -9 107.36 105.58 2.67 o
5 5 -9 55.47 57.00 2.07 o
6 5 -9 34.86 33.10 2.43 o
7 5 -9 61.24 58.16 2.45 o
-7 6 -9 40.41 35.19 3.35 o
-6 6 -9 55.65 54.52 2.26 o
-5 6 -9 57.82 61.54 2.23 o
-4 6 -9 28.54 37.84 4.59 o
-3 6 -9 74.84 73.67 2.64 o
-2 6 -9 94.40 96.95 2.87 o
-1 6 -9 98.82 95.41 2.85 o
0 6 -9 93.54 95.52 2.78 o
1 6 -9 59.11 59.46 2.44 o
2 6 -9 58.58 58.94 2.38 o
3 6 -9 112.65 108.24 2.93 o
4 6 -9 83.49 80.02 2.59 o
5 6 -9 29.87 27.90 5.34 o
6 6 -9 56.58 57.82 2.41 o
-7 7 -9 39.02 35.86 2.99 o
-6 7 -9 37.10 29.44 3.50 o
-5 7 -9 25.83 20.08 2.77 o
-4 7 -9 114.29 112.04 3.16 o
-3 7 -9 44.31 40.38 3.57 o
-2 7 -9 64.28 68.21 2.75 o
-1 7 -9 34.63 37.47 3.82 o
0 7 -9 88.21 87.26 2.63 o
1 7 -9 40.28 49.43 3.37 o
2 7 -9 72.30 71.51 2.67 o
3 7 -9 96.73 94.44 2.95 o
4 7 -9 14.90 24.19 10.67 <
5 7 -9 60.39 54.99 2.81 o
-7 8 -9 11.14 18.78 5.59 <
-6 8 -9 38.36 31.57 3.36 o
-5 8 -9 63.86 68.93 2.72 o
-4 8 -9 33.29 35.42 4.23 o
-3 8 -9 0.00 11.79 78.55 <
-2 8 -9 66.72 64.73 2.68 o
-1 8 -9 90.32 74.65 3.00 o
0 8 -9 22.97 27.39 5.96 <
1 8 -9 22.84 25.94 4.24 o
2 8 -9 68.52 65.28 2.98 o
3 8 -9 22.59 28.97 5.82 <
4 8 -9 29.80 11.80 4.67 o
5 8 -9 34.89 34.05 3.68 o
-6 9 -9 52.15 56.77 4.10 o
-5 9 -9 44.08 40.68 3.70 o
-4 9 -9 29.86 20.67 5.01 o
-3 9 -9 71.77 69.23 3.02 o
-2 9 -9 85.92 84.76 2.85 o
-1 9 -9 41.89 37.81 3.35 o
0 9 -9 48.78 43.33 2.93 o
1 9 -9 59.38 59.33 3.25 o
2 9 -9 56.81 51.86 3.32 o
3 9 -9 30.13 29.70 5.18 o
4 9 -9 40.01 40.67 3.76 o
-5 10 -9 17.01 15.88 11.22 <
-4 10 -9 34.82 38.66 4.83 o
-3 10 -9 52.67 52.95 3.52 o
-2 10 -9 32.70 20.30 4.75 o
-1 10 -9 45.18 37.21 3.91 o
0 10 -9 62.24 56.08 3.33 o
1 10 -9 52.51 47.77 3.63 o
2 10 -9 37.30 27.60 4.61 o
2 -10 -8 42.76 33.69 3.31 o
3 -10 -8 42.19 42.93 3.76 o
4 -10 -8 1.30 18.30 85.04 <
5 -10 -8 29.70 26.09 3.04 o
6 -10 -8 34.77 32.85 3.04 o
7 -10 -8 49.20 44.67 2.47 o
8 -10 -8 10.60 6.79 8.07 <
0 -9 -8 22.10 25.08 7.06 <
1 -9 -8 25.86 19.94 5.93 o
2 -9 -8 64.28 62.60 3.17 o
3 -9 -8 72.22 62.65 3.06 o
4 -9 -8 0.00 8.05 63.15 <
5 -9 -8 66.39 64.75 2.12 o
6 -9 -8 65.11 61.65 2.23 o
7 -9 -8 45.50 40.71 2.40 o
8 -9 -8 29.35 19.49 3.02 o
9 -9 -8 42.21 45.62 4.32 o
-1 -8 -8 39.22 33.02 4.27 o
0 -8 -8 54.19 58.51 3.31 o
1 -8 -8 79.54 79.39 2.76 o
2 -8 -8 95.11 93.35 2.40 o
3 -8 -8 56.04 52.34 1.93 o
4 -8 -8 42.50 50.13 2.65 o
5 -8 -8 132.51 128.43 3.25 o
6 -8 -8 42.04 45.51 2.47 o
7 -8 -8 36.77 32.86 2.70 o
8 -8 -8 40.25 42.64 2.57 o
9 -8 -8 53.70 50.18 3.65 o
10 -8 -8 22.80 15.35 7.01 <
-3 -7 -8 37.71 32.49 3.86 o
-2 -7 -8 49.04 47.24 3.48 o
-1 -7 -8 24.80 19.82 5.52 o
0 -7 -8 65.50 64.36 3.02 o
1 -7 -8 78.10 80.09 2.15 o
2 -7 -8 48.49 38.85 2.39 o
3 -7 -8 73.81 69.88 2.27 o
4 -7 -8 85.27 86.68 2.26 o
5 -7 -8 110.92 114.36 2.71 o
6 -7 -8 14.55 7.84 5.92 <
7 -7 -8 116.72 114.77 2.87 o
8 -7 -8 83.36 91.68 2.34 o
9 -7 -8 51.96 44.12 3.52 o
10 -7 -8 35.51 32.14 4.54 o
11 -7 -8 44.69 40.60 3.68 o
-4 -6 -8 29.90 37.44 3.85 o
-3 -6 -8 39.85 33.36 3.55 o
-2 -6 -8 56.51 45.39 3.08 o
-1 -6 -8 28.97 23.66 4.73 o
0 -6 -8 85.04 86.98 2.76 o
1 -6 -8 68.60 69.13 2.22 o
2 -6 -8 71.43 72.71 2.16 o
3 -6 -8 133.28 128.82 3.12 o
4 -6 -8 64.99 66.67 1.80 o
5 -6 -8 90.25 88.64 2.20 o
6 -6 -8 70.78 68.15 1.90 o
7 -6 -8 124.93 126.41 2.99 o
8 -6 -8 63.95 65.27 2.02 o
9 -6 -8 45.39 39.86 3.66 o
10 -6 -8 55.03 58.01 2.99 o
11 -6 -8 47.84 48.92 4.17 o
-5 -5 -8 17.15 22.84 6.62 <
-4 -5 -8 55.17 52.92 2.60 o
-3 -5 -8 66.42 66.52 1.98 o
-2 -5 -8 37.32 34.78 2.13 o
-1 -5 -8 41.18 34.02 2.51 o
0 -5 -8 107.13 111.51 2.56 o
1 -5 -8 58.16 60.88 1.96 o
2 -5 -8 59.02 56.33 1.92 o
3 -5 -8 165.46 162.31 3.81 o
4 -5 -8 35.91 35.02 1.77 o
5 -5 -8 84.68 82.39 2.08 o
6 -5 -8 22.64 25.09 2.26 o
7 -5 -8 68.38 71.74 1.90 o
8 -5 -8 28.51 29.39 2.09 o
9 -5 -8 39.72 41.01 3.95 o
10 -5 -8 60.78 60.21 2.86 o
11 -5 -8 30.17 32.09 4.96 o
-5 -4 -8 42.21 42.90 1.88 o
-4 -4 -8 92.08 93.85 2.36 o
-3 -4 -8 38.31 38.53 2.06 o
-2 -4 -8 51.20 53.40 2.23 o
-1 -4 -8 195.08 191.94 4.58 o
0 -4 -8 83.22 83.82 2.20 o
1 -4 -8 83.59 87.44 2.23 o
2 -4 -8 77.59 80.28 2.12 o
3 -4 -8 255.98 252.47 5.73 o
4 -4 -8 46.76 48.79 1.86 o
5 -4 -8 102.40 103.45 2.41 o
6 -4 -8 168.51 166.04 3.79 o
7 -4 -8 91.05 92.01 2.27 o
8 -4 -8 70.41 71.47 1.91 o
9 -4 -8 61.53 60.18 3.17 o
10 -4 -8 51.60 47.32 3.46 o
11 -4 -8 0.00 18.79 88.78 <
-6 -3 -8 28.00 25.31 2.59 o
-5 -3 -8 61.50 61.17 1.99 o
-4 -3 -8 21.43 31.17 3.15 o
-3 -3 -8 20.63 15.74 4.25 o
-2 -3 -8 145.71 141.60 3.61 o
-1 -3 -8 108.38 105.32 2.87 o
0 -3 -8 54.28 56.84 1.94 o
1 -3 -8 238.92 239.18 5.35 o
2 -3 -8 129.25 127.13 3.04 o
3 -3 -8 193.50 190.88 4.37 o
4 -3 -8 78.65 76.52 2.06 o
5 -3 -8 230.13 232.87 5.12 o
6 -3 -8 130.42 130.89 2.98 o
7 -3 -8 33.32 31.18 1.60 o
8 -3 -8 90.73 93.25 2.17 o
9 -3 -8 42.77 51.10 3.51 o
10 -3 -8 26.90 30.59 4.86 o
11 -3 -8 16.94 22.24 8.42 <
-6 -2 -8 42.54 46.33 2.15 o
-5 -2 -8 35.51 37.74 2.11 o
-4 -2 -8 38.25 38.10 1.88 o
-3 -2 -8 77.27 72.60 2.53 o
-2 -2 -8 68.75 61.96 2.33 o
-1 -2 -8 63.15 60.67 2.39 o
0 -2 -8 91.28 88.37 2.31 o
1 -2 -8 253.87 258.08 5.67 o
2 -2 -8 61.78 60.47 1.82 o
3 -2 -8 171.12 165.60 3.89 o
4 -2 -8 176.24 170.18 3.95 o
5 -2 -8 192.24 195.73 4.29 o
6 -2 -8 87.92 86.57 2.10 o
7 -2 -8 70.96 70.18 1.81 o
8 -2 -8 122.42 121.56 3.21 o
9 -2 -8 47.68 43.18 3.26 o
10 -2 -8 72.42 66.91 2.93 o
11 -2 -8 56.31 52.53 3.30 o
-7 -1 -8 14.55 36.32 8.33 <
-6 -1 -8 61.13 63.65 1.92 o
-5 -1 -8 34.57 32.87 2.04 o
-4 -1 -8 67.73 63.40 2.06 o
-3 -1 -8 162.80 165.40 3.74 o
-2 -1 -8 66.79 66.19 2.40 o
-1 -1 -8 160.16 158.63 3.81 o
0 -1 -8 26.90 22.55 2.18 o
1 -1 -8 143.05 145.57 3.30 o
2 -1 -8 97.31 99.61 2.37 o
3 -1 -8 250.57 248.93 5.56 o
4 -1 -8 199.90 193.59 4.46 o
5 -1 -8 42.37 46.09 1.42 o
6 -1 -8 139.21 139.57 3.15 o
7 -1 -8 90.69 94.07 2.17 o
8 -1 -8 110.83 106.71 3.06 o
9 -1 -8 20.27 33.91 5.66 <
10 -1 -8 63.38 60.82 2.62 o
11 -1 -8 35.00 36.65 3.97 o
-7 0 -8 61.23 62.29 2.60 o
-6 0 -8 53.56 49.14 1.98 o
-5 0 -8 59.28 57.22 1.82 o
-4 0 -8 107.63 111.87 2.63 o
-3 0 -8 115.68 110.80 2.77 o
-2 0 -8 155.32 155.03 3.56 o
-1 0 -8 80.29 78.07 2.06 o
0 0 -8 111.00 116.91 2.64 o
1 0 -8 263.46 261.74 5.84 o
2 0 -8 20.71 18.23 2.03 o
3 0 -8 217.61 215.90 4.84 o
4 0 -8 193.63 192.26 4.30 o
5 0 -8 98.34 101.43 2.26 o
6 0 -8 129.39 130.16 2.94 o
7 0 -8 50.83 50.62 1.37 o
8 0 -8 71.20 62.15 2.67 o
9 0 -8 0.00 7.94 75.88 <
10 0 -8 61.41 58.83 2.75 o
11 0 -8 33.77 30.08 4.18 o
-8 1 -8 37.98 41.53 5.52 o
-7 1 -8 21.73 30.20 5.18 o
-6 1 -8 24.12 31.75 3.91 o
-5 1 -8 86.90 81.39 2.55 o
-4 1 -8 131.67 129.08 3.10 o
-3 1 -8 112.37 109.61 2.70 o
-2 1 -8 72.00 65.28 2.25 o
-1 1 -8 341.83 340.33 7.64 o
0 1 -8 236.95 236.75 5.30 o
1 1 -8 151.37 150.66 3.47 o
2 1 -8 146.39 150.79 3.31 o
3 1 -8 250.81 243.17 5.56 o
4 1 -8 144.12 136.58 3.26 o
5 1 -8 86.79 88.35 2.07 o
6 1 -8 171.89 171.23 3.84 o
7 1 -8 58.41 59.77 1.49 o
8 1 -8 42.22 42.07 3.02 o
9 1 -8 43.13 46.67 3.16 o
10 1 -8 55.85 52.77 2.88 o
-8 2 -8 24.41 21.11 7.13 <
-7 2 -8 14.83 12.98 5.95 <
-6 2 -8 43.16 46.97 2.25 o
-5 2 -8 78.64 72.98 2.47 o
-4 2 -8 49.29 48.99 2.43 o
-3 2 -8 53.90 55.34 2.32 o
-2 2 -8 173.73 170.72 3.95 o
-1 2 -8 189.49 190.63 4.27 o
0 2 -8 87.16 81.82 2.46 o
1 2 -8 153.11 156.87 3.51 o
2 2 -8 271.51 268.76 6.05 o
3 2 -8 189.28 186.10 4.27 o
4 2 -8 89.46 88.43 2.13 o
5 2 -8 126.31 124.43 2.86 o
6 2 -8 165.80 167.72 3.72 o
7 2 -8 32.68 30.93 1.59 o
8 2 -8 53.91 51.35 2.63 o
9 2 -8 66.75 67.11 2.57 o
-8 3 -8 23.41 27.03 6.60 <
-7 3 -8 52.40 48.28 2.40 o
-6 3 -8 55.00 48.01 2.44 o
-5 3 -8 47.57 43.29 2.56 o
-4 3 -8 52.22 48.48 1.76 o
-3 3 -8 112.43 107.75 2.69 o
-2 3 -8 40.98 46.96 2.30 o
-1 3 -8 28.08 31.02 3.03 o
0 3 -8 91.19 95.21 2.54 o
1 3 -8 206.66 204.08 4.65 o
2 3 -8 80.66 78.64 2.11 o
3 3 -8 36.95 35.38 1.92 o
4 3 -8 184.49 182.02 4.14 o
5 3 -8 108.79 110.25 2.54 o
6 3 -8 85.10 84.26 2.05 o
7 3 -8 34.29 34.71 1.94 o
8 3 -8 86.51 85.38 2.65 o
-8 4 -8 44.89 43.22 4.69 o
-7 4 -8 45.39 39.29 2.89 o
-6 4 -8 73.01 72.01 2.22 o
-5 4 -8 92.04 91.16 2.39 o
-4 4 -8 125.75 127.12 2.99 o
-3 4 -8 72.27 72.60 2.46 o
-2 4 -8 162.77 164.07 3.87 o
-1 4 -8 141.92 137.99 3.46 o
0 4 -8 121.09 122.67 3.04 o
1 4 -8 51.71 47.88 2.40 o
2 4 -8 98.14 96.79 2.47 o
3 4 -8 50.91 52.38 1.87 o
4 4 -8 102.64 96.12 2.51 o
5 4 -8 4.38 11.08 15.12 <
6 4 -8 26.59 27.50 2.46 o
7 4 -8 58.97 60.31 1.85 o
-8 5 -8 31.96 26.26 9.27 <
-7 5 -8 63.62 60.29 2.15 o
-6 5 -8 87.17 86.61 2.41 o
-5 5 -8 75.00 75.26 2.20 o
-4 5 -8 57.13 53.59 1.97 o
-3 5 -8 145.22 132.13 3.60 o
-2 5 -8 153.54 146.19 3.71 o
-1 5 -8 119.54 115.61 3.10 o
0 5 -8 101.10 106.36 2.77 o
1 5 -8 120.27 117.64 3.08 o
2 5 -8 107.43 108.77 2.76 o
3 5 -8 60.66 59.68 2.14 o
4 5 -8 123.96 123.85 2.96 o
5 5 -8 48.14 48.36 1.93 o
6 5 -8 57.81 51.70 2.04 o
-8 6 -8 44.72 39.34 3.60 o
-7 6 -8 39.51 40.86 2.33 o
-6 6 -8 18.17 18.19 5.26 <
-5 6 -8 45.08 45.05 2.21 o
-4 6 -8 132.89 128.67 3.40 o
-3 6 -8 100.21 101.71 2.87 o
-2 6 -8 0.00 10.48 69.96 <
-1 6 -8 87.21 89.04 2.67 o
0 6 -8 185.81 184.43 4.39 o
1 6 -8 84.16 78.69 2.50 o
2 6 -8 89.04 91.11 2.53 o
3 6 -8 94.94 98.63 2.68 o
4 6 -8 107.25 104.93 2.83 o
5 6 -8 36.76 27.63 3.45 o
6 6 -8 57.59 58.24 2.48 o
-8 7 -8 29.03 20.68 3.64 o
-7 7 -8 20.00 3.89 6.03 <
-6 7 -8 36.02 34.05 2.62 o
-5 7 -8 82.18 83.05 2.89 o
-4 7 -8 21.05 25.45 5.64 <
-3 7 -8 14.72 18.94 7.76 <
-2 7 -8 78.20 79.41 2.50 o
-1 7 -8 135.93 137.81 3.36 o
0 7 -8 42.63 39.11 2.96 o
1 7 -8 51.06 53.62 2.57 o
2 7 -8 98.55 97.12 2.82 o
3 7 -8 47.55 50.87 2.80 o
4 7 -8 41.90 39.05 3.18 o
5 7 -8 42.63 46.52 3.20 o
6 7 -8 67.86 69.89 2.44 o
-7 8 -8 41.28 38.07 2.38 o
-6 8 -8 40.78 42.42 3.06 o
-5 8 -8 41.64 34.56 2.84 o
-4 8 -8 62.88 50.18 2.90 o
-3 8 -8 75.92 74.19 2.89 o
-2 8 -8 54.01 57.51 3.16 o
-1 8 -8 10.36 17.41 10.94 <
0 8 -8 42.93 41.79 3.65 o
1 8 -8 59.46 61.51 2.92 o
2 8 -8 70.48 65.21 2.92 o
3 8 -8 14.62 16.15 8.78 <
4 8 -8 44.53 51.27 3.27 o
5 8 -8 51.85 53.45 3.04 o
-7 9 -8 38.94 37.69 2.81 o
-6 9 -8 10.44 28.58 15.57 <
-5 9 -8 53.98 45.68 3.71 o
-4 9 -8 53.57 47.67 3.16 o
-3 9 -8 53.30 51.42 3.25 o
-2 9 -8 66.21 64.79 2.85 o
-1 9 -8 29.73 32.51 4.61 o
0 9 -8 64.20 57.99 2.68 o
1 9 -8 61.85 61.40 3.07 o
2 9 -8 40.09 27.48 3.83 o
3 9 -8 0.00 19.29 84.04 <
4 9 -8 32.48 39.11 4.39 o
-6 10 -8 34.06 36.47 6.22 o
-5 10 -8 53.58 46.53 3.88 o
-4 10 -8 35.12 35.86 4.78 o
-3 10 -8 68.25 69.25 3.20 o
-2 10 -8 43.15 40.09 3.79 o
-1 10 -8 58.36 59.61 3.36 o
0 10 -8 62.52 61.46 3.29 o
1 10 -8 43.03 36.55 4.11 o
2 10 -8 0.00 28.22 85.41 <
-3 11 -8 29.69 22.70 5.44 o
-2 11 -8 43.22 28.90 4.32 o
-1 11 -8 0.00 32.24 89.33 <
4 -11 -7 36.69 28.82 4.35 o
5 -11 -7 37.24 30.87 4.59 o
6 -11 -7 52.74 48.87 2.45 o
1 -10 -7 31.30 26.31 4.64 o
2 -10 -7 53.29 44.06 3.00 o
3 -10 -7 32.29 36.20 4.22 o
4 -10 -7 23.54 20.80 3.85 o
5 -10 -7 21.15 28.18 4.17 o
6 -10 -7 49.95 46.48 2.27 o
7 -10 -7 27.20 33.00 3.69 o
8 -10 -7 0.00 18.31 60.25 <
9 -10 -7 25.50 36.27 5.36 o
-1 -9 -7 39.84 36.55 4.01 o
0 -9 -7 0.00 13.34 71.06 <
1 -9 -7 58.91 60.02 3.18 o
2 -9 -7 49.98 54.76 3.44 o
3 -9 -7 30.72 35.32 2.41 o
4 -9 -7 45.10 41.00 2.31 o
5 -9 -7 68.44 67.16 2.16 o
6 -9 -7 72.91 73.37 2.21 o
7 -9 -7 14.46 16.30 8.00 <
8 -9 -7 41.80 40.24 2.44 o
9 -9 -7 56.24 48.06 3.70 o
10 -9 -7 26.81 29.72 5.28 o
-2 -8 -7 34.78 54.60 4.50 o
-1 -8 -7 43.91 39.45 3.65 o
0 -8 -7 51.79 44.17 3.30 o
1 -8 -7 85.27 86.73 2.77 o
2 -8 -7 71.06 72.60 1.99 o
3 -8 -7 47.47 48.98 2.43 o
4 -8 -7 101.06 99.73 2.69 o
5 -8 -7 55.18 52.79 2.14 o
6 -8 -7 55.45 56.02 2.32 o
7 -8 -7 28.30 27.80 2.96 o
8 -8 -7 68.59 70.14 2.31 o
9 -8 -7 45.84 45.84 3.90 o
10 -8 -7 28.11 5.15 5.25 o
-3 -7 -7 68.45 57.06 2.82 o
-2 -7 -7 28.94 26.02 4.98 o
-1 -7 -7 55.56 62.09 3.05 o
0 -7 -7 81.10 79.86 2.93 o
1 -7 -7 104.42 102.20 2.72 o
2 -7 -7 58.89 57.97 2.25 o
3 -7 -7 84.08 83.69 2.16 o
4 -7 -7 158.00 156.72 3.62 o
5 -7 -7 36.96 32.03 2.17 o
6 -7 -7 69.39 72.54 2.14 o
7 -7 -7 75.89 74.44 2.23 o
8 -7 -7 71.66 69.21 2.18 o
9 -7 -7 32.59 33.81 3.67 o
10 -7 -7 41.09 44.69 4.23 o
11 -7 -7 38.97 41.13 4.97 o
-4 -6 -7 35.31 44.36 3.82 o
-3 -6 -7 55.42 55.94 2.60 o
-2 -6 -7 0.00 14.44 77.15 <
-1 -6 -7 61.39 63.58 2.90 o
0 -6 -7 54.17 52.02 2.60 o
1 -6 -7 107.50 101.74 2.69 o
2 -6 -7 69.26 68.23 1.95 o
3 -6 -7 125.43 124.72 2.93 o
4 -6 -7 190.47 186.67 4.27 o
5 -6 -7 60.63 61.00 1.72 o
6 -6 -7 144.46 144.89 3.30 o
7 -6 -7 81.95 82.83 2.05 o
8 -6 -7 64.81 63.38 1.93 o
9 -6 -7 61.56 62.82 3.06 o
10 -6 -7 76.57 62.67 3.15 o
11 -6 -7 32.87 42.27 5.26 o
-5 -5 -7 40.79 40.88 2.49 o
-4 -5 -7 47.25 47.67 2.06 o
-3 -5 -7 43.39 42.38 2.58 o
-2 -5 -7 46.83 46.73 2.00 o
-1 -5 -7 96.61 98.29 2.36 o
0 -5 -7 96.43 94.43 2.35 o
1 -5 -7 28.98 25.54 3.09 o
2 -5 -7 126.62 124.95 3.01 o
3 -5 -7 71.44 72.14 1.88 o
4 -5 -7 51.30 52.75 1.52 o
5 -5 -7 60.63 64.02 1.66 o
6 -5 -7 125.31 126.44 2.88 o
7 -5 -7 60.32 62.03 1.84 o
8 -5 -7 42.89 42.40 1.68 o
9 -5 -7 57.34 54.40 3.18 o
10 -5 -7 64.81 59.25 3.18 o
11 -5 -7 48.31 30.81 3.98 o
-6 -4 -7 29.70 29.64 2.46 o
-5 -4 -7 68.05 66.61 1.97 o
-4 -4 -7 49.49 55.74 2.07 o
-3 -4 -7 86.81 89.60 2.27 o
-2 -4 -7 83.12 79.61 2.13 o
-1 -4 -7 178.25 173.83 4.08 o
0 -4 -7 121.57 126.65 2.90 o
1 -4 -7 91.59 91.63 2.32 o
2 -4 -7 236.14 234.51 5.29 o
3 -4 -7 40.43 35.10 1.79 o
4 -4 -7 153.28 152.50 3.46 o
5 -4 -7 75.23 75.30 1.87 o
6 -4 -7 160.72 166.41 3.62 o
7 -4 -7 41.81 42.11 1.54 o
8 -4 -7 49.51 46.49 1.64 o
9 -4 -7 81.11 79.31 2.84 o
10 -4 -7 0.00 25.41 83.02 <
11 -4 -7 31.45 27.88 3.81 o
-6 -3 -7 33.67 37.73 2.19 o
-5 -3 -7 76.16 77.71 2.09 o
-4 -3 -7 42.38 45.42 1.95 o
-3 -3 -7 80.85 78.65 2.14 o
-2 -3 -7 122.43 120.11 3.11 o
-1 -3 -7 144.26 141.99 3.52 o
0 -3 -7 125.00 123.86 2.94 o
1 -3 -7 158.90 155.37 3.64 o
2 -3 -7 237.53 236.76 5.31 o
3 -3 -7 68.87 63.73 1.89 o
4 -3 -7 281.38 280.92 6.25 o
5 -3 -7 121.29 116.16 2.78 o
6 -3 -7 82.67 81.99 1.98 o
7 -3 -7 72.67 76.34 1.85 o
8 -3 -7 116.51 115.82 3.09 o
9 -3 -7 59.48 54.86 2.89 o
10 -3 -7 0.00 6.09 81.75 <
-7 -2 -7 12.43 17.87 7.55 <
-6 -2 -7 39.94 42.73 2.15 o
-5 -2 -7 14.69 19.13 4.13 <
-4 -2 -7 40.44 39.23 1.71 o
-3 -2 -7 106.41 110.76 2.84 o
-2 -2 -7 146.68 136.85 3.55 o
-1 -2 -7 142.74 140.31 3.45 o
0 -2 -7 119.03 123.14 2.82 o
1 -2 -7 149.55 146.55 3.42 o
2 -2 -7 243.29 240.01 5.42 o
3 -2 -7 14.32 26.06 4.44 <
4 -2 -7 246.31 249.27 5.46 o
5 -2 -7 193.46 193.46 4.30 o
6 -2 -7 75.74 78.67 1.80 o
7 -2 -7 124.22 127.54 2.83 o
8 -2 -7 115.04 117.42 3.12 o
9 -2 -7 53.46 48.78 2.53 o
10 -2 -7 58.36 53.37 2.71 o
11 -2 -7 57.44 55.17 3.11 o
-7 -1 -7 53.66 51.10 2.28 o
-6 -1 -7 55.77 52.20 1.94 o
-5 -1 -7 41.98 42.27 1.72 o
-4 -1 -7 116.49 115.84 2.73 o
-3 -1 -7 171.49 166.82 3.91 o
-2 -1 -7 65.53 66.33 2.32 o
-1 -1 -7 62.79 63.17 2.17 o
0 -1 -7 377.88 376.97 8.36 o
1 -1 -7 68.64 71.43 1.86 o
2 -1 -7 158.83 155.13 3.60 o
3 -1 -7 73.72 68.18 1.81 o
4 -1 -7 293.04 293.87 6.48 o
5 -1 -7 49.48 45.32 1.41 o
6 -1 -7 175.52 175.33 3.91 o
7 -1 -7 215.50 213.42 4.98 o
8 -1 -7 49.45 51.20 2.38 o
9 -1 -7 47.98 43.21 3.02 o
10 -1 -7 55.08 50.73 2.96 o
11 -1 -7 51.32 49.11 2.70 o
-8 0 -7 30.12 36.46 5.16 o
-7 0 -7 45.85 50.50 2.14 o
-6 0 -7 39.70 37.03 2.01 o
-5 0 -7 67.63 68.44 1.88 o
-4 0 -7 130.91 123.38 3.07 o
-3 0 -7 11.00 0.60 5.15 <
-2 0 -7 123.78 122.28 2.89 o
-1 0 -7 221.65 219.38 5.04 o
0 0 -7 207.97 211.46 4.66 o
1 0 -7 150.53 145.77 3.38 o
2 0 -7 216.55 214.83 4.81 o
3 0 -7 174.53 173.01 3.88 o
4 0 -7 94.15 96.14 2.15 o
5 0 -7 85.08 81.98 1.98 o
6 0 -7 125.78 129.17 2.85 o
7 0 -7 120.80 116.85 3.05 o
8 0 -7 21.89 9.58 4.83 o
9 0 -7 59.60 60.29 2.50 o
10 0 -7 35.16 48.19 2.92 o
11 0 -7 39.30 36.40 3.50 o
-8 1 -7 38.56 36.68 4.36 o
-7 1 -7 36.04 41.53 2.48 o
-6 1 -7 70.87 71.46 2.19 o
-5 1 -7 85.17 84.25 2.20 o
-4 1 -7 84.94 81.74 2.15 o
-3 1 -7 154.52 153.47 3.54 o
-2 1 -7 250.96 245.75 5.59 o
-1 1 -7 123.99 122.64 3.01 o
0 1 -7 193.40 188.01 4.35 o
1 1 -7 132.75 129.07 3.00 o
2 1 -7 425.00 416.40 9.37 o
3 1 -7 95.85 96.35 2.23 o
4 1 -7 51.92 51.32 1.46 o
5 1 -7 185.09 187.29 4.13 o
6 1 -7 48.59 50.53 1.32 o
7 1 -7 65.15 65.62 1.57 o
8 1 -7 46.89 40.73 2.30 o
9 1 -7 77.19 71.95 2.62 o
10 1 -7 35.39 38.88 3.15 o
-8 2 -7 51.64 36.66 3.95 o
-7 2 -7 39.11 36.55 2.89 o
-6 2 -7 52.55 52.90 2.09 o
-5 2 -7 74.14 78.44 2.34 o
-4 2 -7 136.48 138.12 3.33 o
-3 2 -7 137.52 137.31 3.17 o
-2 2 -7 114.49 115.36 2.69 o
-1 2 -7 159.53 155.47 3.73 o
0 2 -7 273.94 272.33 6.09 o
1 2 -7 149.80 149.15 3.42 o
2 2 -7 162.53 160.18 3.69 o
3 2 -7 102.49 103.67 2.44 o
4 2 -7 180.83 182.46 4.04 o
5 2 -7 210.36 206.33 4.67 o
6 2 -7 43.74 40.83 1.36 o
7 2 -7 85.41 84.93 2.05 o
8 2 -7 50.72 47.01 2.52 o
9 2 -7 63.02 57.97 2.51 o
-8 3 -7 18.67 7.97 9.60 <
-7 3 -7 24.14 18.81 3.60 o
-6 3 -7 107.82 102.59 2.88 o
-5 3 -7 51.68 46.56 1.76 o
-4 3 -7 33.28 32.28 2.03 o
-3 3 -7 23.92 17.56 2.11 o
-2 3 -7 257.31 252.27 5.81 o
-1 3 -7 52.72 53.36 2.18 o
0 3 -7 178.72 175.20 4.14 o
1 3 -7 152.95 152.95 3.51 o
2 3 -7 215.66 211.21 4.84 o
3 3 -7 137.87 136.07 3.13 o
4 3 -7 145.17 144.31 3.28 o
5 3 -7 133.36 134.61 3.03 o
6 3 -7 48.74 48.00 1.49 o
7 3 -7 93.38 99.42 2.24 o
8 3 -7 66.81 69.32 2.41 o
-8 4 -7 0.00 22.99 92.66 <
-7 4 -7 90.19 95.57 2.28 o
-6 4 -7 64.82 64.50 2.03 o
-5 4 -7 24.96 28.85 2.47 o
-4 4 -7 120.10 118.13 2.86 o
-3 4 -7 211.24 203.41 4.86 o
-2 4 -7 59.01 60.58 2.26 o
-1 4 -7 75.20 75.92 2.32 o
0 4 -7 216.12 209.63 4.95 o
1 4 -7 105.76 106.56 2.76 o
2 4 -7 65.41 67.60 1.77 o
3 4 -7 72.65 72.66 1.88 o
4 4 -7 63.56 63.08 1.74 o
5 4 -7 72.14 70.15 1.86 o
6 4 -7 31.22 28.29 2.01 o
7 4 -7 86.91 86.11 2.19 o
-8 5 -7 56.79 53.89 2.78 o
-7 5 -7 54.70 54.93 2.00 o
-6 5 -7 26.75 23.10 2.86 o
-5 5 -7 81.57 81.90 2.21 o
-4 5 -7 186.70 184.92 4.38 o
-3 5 -7 80.47 75.60 2.48 o
-2 5 -7 63.45 67.11 2.41 o
-1 5 -7 183.99 187.37 4.30 o
0 5 -7 139.29 133.44 3.43 o
1 5 -7 41.95 33.80 2.63 o
2 5 -7 75.89 79.25 2.28 o
3 5 -7 133.08 130.95 3.23 o
4 5 -7 55.12 54.94 1.84 o
5 5 -7 27.04 29.69 2.57 o
6 5 -7 50.53 51.70 1.86 o
-8 6 -7 23.28 28.33 5.45 o
-7 6 -7 48.97 46.50 2.11 o
-6 6 -7 68.27 71.78 2.14 o
-5 6 -7 105.93 109.78 2.88 o
-4 6 -7 30.65 37.08 3.59 o
-3 6 -7 20.68 29.39 4.81 o
-2 6 -7 182.56 181.72 4.32 o
-1 6 -7 167.68 164.38 3.94 o
0 6 -7 108.46 107.96 2.83 o
1 6 -7 134.94 136.28 3.31 o
2 6 -7 125.44 123.71 3.10 o
3 6 -7 128.22 124.93 3.17 o
4 6 -7 37.71 35.64 3.09 o
5 6 -7 73.53 75.65 2.48 o
6 6 -7 62.27 63.99 2.46 o
-8 7 -7 19.74 18.40 5.02 <
-7 7 -7 33.85 34.66 2.44 o
-6 7 -7 10.97 21.66 8.07 <
-5 7 -7 56.13 54.56 2.68 o
-4 7 -7 48.01 52.09 2.79 o
-3 7 -7 129.44 130.01 3.24 o
-2 7 -7 50.50 53.42 2.49 o
-1 7 -7 37.91 36.92 3.31 o
0 7 -7 66.80 59.16 2.36 o
1 7 -7 71.96 73.49 2.44 o
2 7 -7 69.04 64.12 2.49 o
3 7 -7 41.15 50.64 2.90 o
4 7 -7 40.24 47.20 3.27 o
5 7 -7 81.53 80.09 2.72 o
6 7 -7 43.61 45.60 2.88 o
-8 8 -7 3.26 25.71 36.60 <
-7 8 -7 20.87 22.50 4.58 o
-6 8 -7 54.23 56.45 3.53 o
-5 8 -7 72.58 72.94 2.70 o
-4 8 -7 46.34 51.28 3.49 o
-3 8 -7 26.65 30.93 4.47 o
-2 8 -7 64.05 60.98 2.81 o
-1 8 -7 56.60 56.55 2.86 o
0 8 -7 29.90 33.70 4.43 o
1 8 -7 81.05 80.66 2.75 o
2 8 -7 60.63 61.04 3.09 o
3 8 -7 49.41 50.20 3.17 o
4 8 -7 51.49 53.30 2.83 o
5 8 -7 56.07 51.49 2.83 o
-7 9 -7 57.99 50.11 2.48 o
-6 9 -7 43.77 45.35 4.20 o
-5 9 -7 14.51 10.05 10.45 <
-4 9 -7 37.35 35.51 3.06 o
-3 9 -7 88.25 84.40 2.93 o
-2 9 -7 70.41 65.17 2.88 o
-1 9 -7 24.24 12.73 5.52 o
0 9 -7 48.67 42.35 3.40 o
1 9 -7 83.85 83.23 3.01 o
2 9 -7 8.69 22.93 15.14 <
3 9 -7 44.41 30.54 3.71 o
4 9 -7 36.17 36.41 4.05 o
-6 10 -7 16.42 21.59 19.01 <
-5 10 -7 51.54 43.82 3.81 o
-4 10 -7 70.52 66.61 3.08 o
-3 10 -7 51.15 49.41 3.06 o
-1 10 -7 48.31 50.69 3.62 o
0 10 -7 69.66 67.42 3.10 o
1 10 -7 35.61 31.12 4.62 o
2 10 -7 27.98 23.88 5.43 o
-5 11 -7 26.76 34.83 6.12 o
-4 11 -7 18.38 33.08 6.34 <
-3 11 -7 25.27 17.74 6.38 <
-2 11 -7 43.84 43.41 4.21 o
-1 11 -7 48.77 50.36 3.91 o
0 11 -7 37.46 38.81 4.34 o
3 -11 -6 51.44 48.46 3.74 o
4 -11 -6 16.03 26.41 6.95 <
5 -11 -6 38.76 39.09 2.70 o
6 -11 -6 50.18 50.38 2.20 o
7 -11 -6 36.86 39.23 2.77 o
0 -10 -6 0.00 20.41 88.80 <
1 -10 -6 35.02 27.79 3.65 o
2 -10 -6 72.83 68.54 2.84 o
3 -10 -6 18.48 24.00 8.07 <
4 -10 -6 41.04 34.22 2.14 o
5 -10 -6 71.99 70.08 2.21 o
6 -10 -6 35.47 36.02 2.71 o
7 -10 -6 40.50 41.03 2.65 o
8 -10 -6 25.61 29.25 2.92 o
9 -10 -6 50.05 48.09 3.25 o
0 -9 -6 30.86 30.53 3.82 o
1 -9 -6 44.58 46.11 3.61 o
2 -9 -6 48.85 51.80 3.37 o
3 -9 -6 9.77 12.13 5.69 <
4 -9 -6 57.29 55.94 2.02 o
5 -9 -6 66.76 63.32 2.05 o
6 -9 -6 9.02 23.04 11.17 <
7 -9 -6 37.80 37.25 3.04 o
8 -9 -6 47.70 46.74 2.29 o
9 -9 -6 22.17 43.53 7.12 <
10 -9 -6 44.06 20.36 4.71 o
-3 -8 -6 52.45 54.41 3.44 o
-2 -8 -6 56.74 52.50 3.15 o
-1 -8 -6 22.19 9.56 5.55 o
0 -8 -6 73.01 70.98 3.00 o
1 -8 -6 80.41 77.16 2.85 o
2 -8 -6 68.37 64.94 2.35 o
3 -8 -6 45.98 47.02 2.46 o
4 -8 -6 86.79 84.85 2.38 o
5 -8 -6 99.14 96.25 2.61 o
6 -8 -6 14.45 3.47 5.90 <
7 -8 -6 79.52 78.80 2.34 o
8 -8 -6 39.62 47.92 2.45 o
9 -8 -6 24.84 17.22 6.32 <
10 -8 -6 0.00 19.50 90.01 <
-4 -7 -6 34.28 38.44 4.28 o
-3 -7 -6 59.22 61.30 3.01 o
-2 -7 -6 39.54 37.63 3.71 o
-1 -7 -6 57.13 51.64 3.05 o
0 -7 -6 124.15 120.63 3.37 o
1 -7 -6 55.56 52.60 1.99 o
2 -7 -6 73.02 73.03 2.10 o
3 -7 -6 159.35 160.27 3.64 o
4 -7 -6 104.89 102.39 2.56 o
5 -7 -6 71.69 72.42 2.02 o
6 -7 -6 33.30 35.43 2.64 o
7 -7 -6 124.03 122.18 2.97 o
8 -7 -6 32.34 35.62 2.58 o
9 -7 -6 24.96 28.99 4.15 o
10 -7 -6 62.30 53.67 3.19 o
11 -7 -6 26.65 29.89 4.93 o
-5 -6 -6 32.35 31.85 3.63 o
-4 -6 -6 49.02 48.96 3.01 o
-3 -6 -6 43.38 36.87 2.75 o
-2 -6 -6 30.66 31.42 3.66 o
-1 -6 -6 75.20 72.18 2.60 o
0 -6 -6 111.37 111.08 3.05 o
1 -6 -6 63.00 65.77 1.94 o
2 -6 -6 124.53 119.82 2.89 o
3 -6 -6 107.52 107.17 2.57 o
4 -6 -6 85.95 85.67 2.17 o
5 -6 -6 121.00 120.05 2.85 o
6 -6 -6 115.83 117.22 2.77 o
7 -6 -6 95.49 95.66 2.38 o
8 -6 -6 31.48 32.82 2.02 o
9 -6 -6 87.89 78.20 3.04 o
10 -6 -6 54.96 58.47 3.44 o
11 -6 -6 19.55 20.26 8.37 <
-5 -5 -6 52.66 60.81 2.70 o
-4 -5 -6 50.71 52.09 2.19 o
-3 -5 -6 33.90 26.75 3.72 o
-2 -5 -6 81.02 79.42 2.12 o
-1 -5 -6 98.28 101.12 2.49 o
0 -5 -6 72.85 72.82 1.88 o
1 -5 -6 66.47 68.33 1.98 o
2 -5 -6 76.36 79.71 2.09 o
3 -5 -6 180.76 178.04 4.04 o
4 -5 -6 35.42 32.68 1.41 o
5 -5 -6 214.53 217.39 4.78 o
6 -5 -6 81.80 83.28 2.01 o
7 -5 -6 80.92 77.47 2.08 o
8 -5 -6 56.85 61.91 1.76 o
9 -5 -6 77.44 69.78 2.94 o
10 -5 -6 67.34 63.15 3.12 o
11 -5 -6 20.82 30.15 5.59 <
-6 -4 -6 53.55 53.28 1.94 o
-5 -4 -6 60.19 59.69 2.00 o
-4 -4 -6 60.11 58.93 1.97 o
-3 -4 -6 49.11 52.67 1.86 o
-2 -4 -6 159.61 158.80 3.63 o
-1 -4 -6 102.52 98.06 2.52 o
0 -4 -6 135.19 135.58 3.14 o
1 -4 -6 179.81 181.09 4.08 o
2 -4 -6 105.25 104.15 2.53 o
3 -4 -6 125.05 128.15 2.86 o
4 -4 -6 91.25 95.66 2.16 o
5 -4 -6 135.42 135.85 3.07 o
6 -4 -6 74.83 74.62 1.86 o
7 -4 -6 85.62 87.78 2.10 o
8 -4 -6 58.32 53.95 2.80 o
9 -4 -6 86.22 83.02 2.71 o
10 -4 -6 40.23 38.29 3.49 o
-7 -3 -6 38.60 40.41 2.75 o
-6 -3 -6 60.46 58.94 1.92 o
-5 -3 -6 53.66 54.14 1.82 o
-4 -3 -6 64.21 64.37 1.89 o
-3 -3 -6 120.60 118.54 2.84 o
-2 -3 -6 230.12 221.95 5.16 o
-1 -3 -6 41.48 34.42 2.56 o
0 -3 -6 131.62 131.68 3.05 o
1 -3 -6 332.72 335.53 7.37 o
2 -3 -6 151.53 152.45 3.45 o
3 -3 -6 195.14 187.42 4.38 o
4 -3 -6 89.75 86.72 2.11 o
5 -3 -6 242.77 244.24 5.38 o
6 -3 -6 66.58 69.36 1.64 o
7 -3 -6 70.77 69.76 1.78 o
8 -3 -6 97.90 97.45 2.77 o
9 -3 -6 70.38 67.40 2.52 o
11 -3 -6 36.79 33.07 4.18 o
-7 -2 -6 36.33 31.76 3.10 o
-6 -2 -6 46.53 46.98 1.94 o
-5 -2 -6 16.09 22.46 3.40 o
-4 -2 -6 102.17 95.75 2.43 o
-3 -2 -6 114.14 104.92 2.74 o
-2 -2 -6 74.55 72.04 2.24 o
-1 -2 -6 78.78 81.54 2.05 o
0 -2 -6 325.55 324.76 7.22 o
1 -2 -6 341.20 338.36 7.55 o
2 -2 -6 118.18 108.84 2.74 o
3 -2 -6 381.21 376.83 8.42 o
4 -2 -6 215.82 209.47 4.79 o
5 -2 -6 216.91 214.88 4.80 o
6 -2 -6 91.39 95.83 2.12 o
7 -2 -6 173.16 167.84 4.10 o
8 -2 -6 139.96 137.83 3.52 o
9 -2 -6 23.55 21.34 4.95 o
10 -2 -6 44.38 41.15 3.36 o
11 -2 -6 46.18 52.38 2.78 o
-8 -1 -6 33.73 29.97 4.41 o
-7 -1 -6 31.16 41.41 2.52 o
-6 -1 -6 36.37 40.94 1.93 o
-5 -1 -6 58.96 58.12 1.72 o
-4 -1 -6 77.77 75.92 1.97 o
-3 -1 -6 46.22 48.12 2.05 o
-2 -1 -6 121.03 117.93 2.98 o
-1 -1 -6 166.96 164.94 3.88 o
0 -1 -6 153.50 155.03 3.48 o
1 -1 -6 140.67 141.71 3.21 o
2 -1 -6 79.06 75.83 1.94 o
3 -1 -6 426.96 417.17 9.41 o
4 -1 -6 53.03 50.33 1.42 o
5 -1 -6 135.45 136.48 3.03 o
6 -1 -6 149.39 153.82 3.34 o
7 -1 -6 173.01 169.68 4.09 o
8 -1 -6 61.05 61.06 2.55 o
9 -1 -6 69.15 64.03 2.58 o
10 -1 -6 89.64 88.46 2.84 o
11 -1 -6 46.35 46.66 2.73 o
-8 0 -6 46.38 52.01 2.97 o
-7 0 -6 46.28 46.74 2.08 o
-6 0 -6 62.63 57.43 1.86 o
-5 0 -6 81.67 81.24 2.07 o
-4 0 -6 180.28 181.24 4.08 o
-3 0 -6 107.49 104.20 2.56 o
-2 0 -6 152.81 152.97 3.48 o
-1 0 -6 140.37 138.06 3.31 o
0 0 -6 76.09 74.53 1.92 o
1 0 -6 259.59 266.11 5.76 o
2 0 -6 63.20 65.40 1.52 o
3 0 -6 243.00 235.60 5.37 o
4 0 -6 123.22 116.29 2.77 o
5 0 -6 182.17 183.70 4.04 o
6 0 -6 140.08 145.49 3.13 o
7 0 -6 29.91 24.20 3.27 o
8 0 -6 54.93 54.92 2.55 o
9 0 -6 86.29 88.51 2.67 o
10 0 -6 32.74 31.22 3.29 o
-9 1 -6 26.99 32.37 7.60 <
-8 1 -6 54.38 55.66 3.71 o
-7 1 -6 43.43 43.23 2.24 o
-6 1 -6 53.94 56.03 1.79 o
-5 1 -6 145.28 143.21 3.32 o
-4 1 -6 115.09 110.94 2.72 o
-3 1 -6 72.48 68.70 1.92 o
-2 1 -6 169.90 162.06 3.84 o
-1 1 -6 329.83 322.71 7.30 o
0 1 -6 215.51 210.91 4.81 o
1 1 -6 145.40 151.17 3.30 o
2 1 -6 170.62 178.39 3.81 o
3 1 -6 227.98 231.33 5.05 o
4 1 -6 26.54 29.67 1.21 o
5 1 -6 146.33 148.81 3.26 o
6 1 -6 95.96 95.54 2.19 o
7 1 -6 29.83 22.21 3.15 o
8 1 -6 84.82 85.24 2.54 o
9 1 -6 50.87 51.63 2.65 o
10 1 -6 0.00 17.34 69.08 <
-9 2 -6 36.66 39.59 7.44 o
-8 2 -6 37.23 21.11 4.69 o
-7 2 -6 20.83 19.86 3.99 o
-6 2 -6 107.94 107.82 2.65 o
-5 2 -6 122.33 123.07 3.02 o
-4 2 -6 34.88 37.59 1.75 o
-3 2 -6 188.82 185.67 4.25 o
-2 2 -6 299.71 299.11 6.65 o
-1 2 -6 222.87 225.47 5.04 o
0 2 -6 159.97 156.03 3.63 o
1 2 -6 367.62 369.89 8.13 o
2 2 -6 249.97 237.10 5.56 o
3 2 -6 175.88 172.20 3.96 o
4 2 -6 146.09 147.97 3.28 o
5 2 -6 150.05 153.99 3.34 o
6 2 -6 64.27 62.98 1.59 o
7 2 -6 44.94 43.94 1.35 o
8 2 -6 102.93 98.63 2.77 o
9 2 -6 44.37 40.80 2.61 o
-9 3 -6 17.66 20.91 7.86 <
-8 3 -6 27.47 19.38 5.60 o
-7 3 -6 45.08 44.49 2.28 o
-6 3 -6 53.69 54.60 1.82 o
-5 3 -6 34.90 32.88 1.87 o
-4 3 -6 84.99 86.01 2.16 o
-3 3 -6 232.21 229.81 5.19 o
-2 3 -6 107.66 114.16 2.74 o
-1 3 -6 102.93 98.04 2.64 o
0 3 -6 207.51 209.11 4.72 o
1 3 -6 417.83 407.00 9.23 o
2 3 -6 34.84 35.72 1.81 o
3 3 -6 138.27 143.38 3.13 o
4 3 -6 216.82 213.79 4.82 o
5 3 -6 117.00 113.68 2.68 o
6 3 -6 86.50 86.68 2.05 o
7 3 -6 79.58 82.42 1.97 o
8 3 -6 69.10 68.83 2.26 o
-9 4 -6 39.09 41.24 4.07 o
-8 4 -6 37.72 33.37 4.77 o
-7 4 -6 41.26 39.65 2.06 o
-6 4 -6 55.07 55.75 2.01 o
-5 4 -6 82.61 76.58 2.15 o
-4 4 -6 64.00 60.65 1.87 o
-3 4 -6 80.91 74.63 2.32 o
-2 4 -6 57.65 58.75 2.18 o
-1 4 -6 185.96 191.09 4.30 o
0 4 -6 100.84 96.45 2.62 o
1 4 -6 51.18 50.59 1.74 o
2 4 -6 112.07 108.91 2.60 o
3 4 -6 183.57 180.79 4.11 o
4 4 -6 85.46 83.06 2.08 o
5 4 -6 36.78 36.33 1.53 o
6 4 -6 90.91 89.32 2.24 o
7 4 -6 76.38 78.24 1.97 o
-9 5 -6 28.16 27.09 7.25 <
-8 5 -6 50.50 49.74 2.05 o
-7 5 -6 92.49 90.69 2.37 o
-6 5 -6 83.34 86.89 2.29 o
-5 5 -6 79.16 76.04 2.11 o
-4 5 -6 132.51 128.75 3.28 o
-3 5 -6 183.70 182.79 4.29 o
-2 5 -6 101.24 95.81 2.74 o
-1 5 -6 159.68 161.94 3.80 o
0 5 -6 183.04 181.96 4.27 o
1 5 -6 69.03 63.07 2.13 o
2 5 -6 108.89 109.70 2.76 o
3 5 -6 51.75 49.62 2.09 o
4 5 -6 58.85 56.04 2.12 o
5 5 -6 14.43 15.54 4.26 <
6 5 -6 85.13 88.74 2.22 o
-9 6 -6 40.48 42.47 4.07 o
-8 6 -6 54.01 53.23 2.08 o
-7 6 -6 49.18 48.26 2.00 o
-6 6 -6 54.98 53.27 2.01 o
-5 6 -6 139.13 136.10 3.45 o
-4 6 -6 113.26 112.48 2.98 o
-3 6 -6 144.36 141.26 3.55 o
-2 6 -6 128.77 124.61 3.17 o
-1 6 -6 227.95 224.66 5.19 o
0 6 -6 59.70 62.86 2.27 o
1 6 -6 169.73 166.75 3.98 o
2 6 -6 145.72 142.43 3.51 o
3 6 -6 73.73 71.93 2.38 o
4 6 -6 67.84 65.24 2.45 o
5 6 -6 60.27 64.62 2.51 o
6 6 -6 69.84 66.83 2.35 o
-9 7 -6 37.34 25.14 2.88 o
-8 7 -6 15.90 3.09 5.56 <
-7 7 -6 14.92 13.27 4.88 <
-6 7 -6 81.90 82.54 2.52 o
-5 7 -6 69.39 71.59 2.23 o
-4 7 -6 66.59 65.89 2.27 o
-3 7 -6 62.59 63.15 2.44 o
-2 7 -6 120.52 118.92 3.04 o
-1 7 -6 92.72 87.84 2.64 o
0 7 -6 60.22 60.41 2.34 o
1 7 -6 152.27 149.47 3.65 o
2 7 -6 116.88 115.46 3.04 o
3 7 -6 53.93 53.37 2.61 o
4 7 -6 65.41 69.49 2.67 o
5 7 -6 66.50 68.32 2.81 o
6 7 -6 39.84 35.97 2.97 o
-8 8 -6 8.03 18.15 12.06 <
-7 8 -6 47.72 47.25 2.39 o
-6 8 -6 24.23 34.03 5.22 o
-5 8 -6 24.90 23.65 3.72 o
-4 8 -6 35.84 42.49 3.32 o
-3 8 -6 88.89 88.53 2.71 o
-2 8 -6 38.05 41.92 3.15 o
-1 8 -6 15.78 22.41 7.37 <
0 8 -6 49.43 54.39 2.58 o
1 8 -6 88.11 88.83 2.69 o
2 8 -6 41.56 42.87 3.77 o
3 8 -6 35.32 32.53 3.97 o
4 8 -6 73.18 67.45 2.58 o
5 8 -6 38.63 48.76 3.23 o
-8 9 -6 35.16 37.80 4.19 o
-7 9 -6 41.55 36.45 3.36 o
-6 9 -6 46.52 45.33 3.71 o
-5 9 -6 42.68 43.08 3.63 o
-4 9 -6 72.85 71.53 2.83 o
-3 9 -6 34.88 32.95 3.16 o
-2 9 -6 30.26 33.30 4.58 o
-1 9 -6 39.54 43.56 3.84 o
0 9 -6 54.08 54.40 3.22 o
1 9 -6 41.86 43.98 3.51 o
2 9 -6 0.00 20.42 79.78 <
3 9 -6 41.57 44.19 3.79 o
4 9 -6 33.14 40.67 4.37 o
-7 10 -6 43.23 39.05 3.15 o
-6 10 -6 27.68 33.30 4.44 o
-5 10 -6 52.51 50.12 3.52 o
-4 10 -6 42.95 46.60 3.45 o
-3 10 -6 47.73 45.96 3.12 o
-2 10 -6 49.69 53.15 3.43 o
-1 10 -6 51.06 57.09 3.48 o
0 10 -6 60.37 58.66 3.11 o
1 10 -6 0.00 25.24 86.43 <
2 10 -6 44.20 35.72 3.88 o
-5 11 -6 50.18 43.13 3.61 o
-4 11 -6 49.83 47.98 3.09 o
-3 11 -6 37.09 35.06 4.58 o
-2 11 -6 37.89 46.49 4.73 o
-1 11 -6 52.50 49.89 3.67 o
0 11 -6 27.11 33.59 6.09 o
2 -11 -5 48.79 46.50 3.88 o
3 -11 -5 61.42 50.00 3.40 o
4 -11 -5 16.71 14.67 8.51 <
5 -11 -5 48.60 49.02 2.41 o
6 -11 -5 55.96 55.55 2.45 o
7 -11 -5 31.25 24.04 4.61 o
8 -11 -5 26.23 18.84 4.68 o
0 -10 -5 0.00 18.27 87.82 <
1 -10 -5 63.87 62.57 3.13 o
2 -10 -5 55.78 50.38 3.08 o
3 -10 -5 53.24 47.82 2.12 o
4 -10 -5 46.15 45.19 2.25 o
5 -10 -5 90.40 83.36 2.49 o
6 -10 -5 49.49 44.85 2.73 o
7 -10 -5 13.14 17.36 8.39 <
8 -10 -5 64.88 62.39 2.46 o
-2 -9 -5 40.83 40.66 4.13 o
-1 -9 -5 34.47 27.59 4.24 o
0 -9 -5 0.00 19.08 79.14 <
1 -9 -5 65.98 70.89 2.63 o
2 -9 -5 13.01 12.44 4.04 <
3 -9 -5 37.15 32.22 2.39 o
4 -9 -5 42.67 46.67 2.41 o
5 -9 -5 47.47 49.22 3.53 o
6 -9 -5 34.94 33.61 3.98 o
7 -9 -5 36.77 39.44 4.03 o
8 -9 -5 76.29 76.08 2.60 o
-3 -8 -5 63.63 64.07 3.13 o
-2 -8 -5 14.99 26.71 8.44 <
-1 -8 -5 35.52 43.59 4.15 o
0 -8 -5 49.86 51.30 3.19 o
1 -8 -5 76.82 78.51 2.22 o
2 -8 -5 11.85 21.51 6.93 <
3 -8 -5 93.88 92.20 2.52 o
4 -8 -5 79.14 75.75 2.69 o
5 -8 -5 24.86 34.30 4.75 o
6 -8 -5 50.50 46.37 2.89 o
7 -8 -5 53.36 60.65 2.64 o
8 -8 -5 53.05 48.41 2.16 o
-4 -7 -5 56.96 52.92 3.05 o
-3 -7 -5 58.73 58.55 2.75 o
-2 -7 -5 47.03 42.32 3.17 o
-1 -7 -5 114.98 112.86 3.20 o
0 -7 -5 92.70 92.56 2.86 o
1 -7 -5 141.46 141.19 3.33 o
2 -7 -5 85.93 87.68 2.33 o
3 -7 -5 150.90 154.09 3.52 o
4 -7 -5 91.78 90.67 2.70 o
5 -7 -5 65.60 66.17 2.13 o
6 -7 -5 116.81 116.26 3.03 o
7 -7 -5 58.59 59.44 2.22 o
8 -7 -5 47.89 46.39 2.07 o
10 -7 -5 62.54 57.16 3.37 o
-5 -6 -5 35.75 40.36 3.12 o
-4 -6 -5 49.09 52.19 2.91 o
-3 -6 -5 19.03 28.30 6.94 <
-2 -6 -5 48.92 51.23 2.89 o
-1 -6 -5 153.66 154.50 3.79 o
0 -6 -5 58.36 55.18 2.56 o
1 -6 -5 54.99 56.86 1.94 o
2 -6 -5 67.22 65.74 1.80 o
3 -6 -5 142.81 140.40 3.27 o
4 -6 -5 126.07 126.89 3.02 o
5 -6 -5 99.94 103.37 2.55 o
6 -6 -5 136.42 140.45 3.24 o
7 -6 -5 67.49 66.32 2.12 o
8 -6 -5 54.39 57.24 1.86 o
10 -6 -5 50.55 49.82 2.95 o
11 -6 -5 27.58 18.76 5.88 o
-6 -5 -5 39.42 41.97 2.53 o
-5 -5 -5 75.56 74.57 2.47 o
-4 -5 -5 22.89 27.17 5.39 o
-3 -5 -5 33.26 29.86 2.47 o
-2 -5 -5 81.79 82.90 2.19 o
-1 -5 -5 142.00 138.85 3.30 o
0 -5 -5 83.89 86.41 2.18 o
1 -5 -5 210.56 208.16 4.74 o
2 -5 -5 279.12 275.40 6.20 o
3 -5 -5 114.73 117.63 2.63 o
4 -5 -5 75.51 72.07 1.93 o
5 -5 -5 148.03 148.49 3.37 o
6 -5 -5 160.38 162.39 3.64 o
7 -5 -5 33.61 40.28 1.93 o
9 -5 -5 83.31 85.77 2.85 o
10 -5 -5 48.70 54.62 2.84 o
11 -5 -5 56.29 38.31 3.44 o
-6 -4 -5 71.10 70.66 2.02 o
-5 -4 -5 46.08 46.83 2.29 o
-4 -4 -5 29.10 34.11 1.97 o
-3 -4 -5 122.52 120.36 2.86 o
-2 -4 -5 87.12 83.87 2.15 o
-1 -4 -5 74.22 70.92 2.04 o
0 -4 -5 63.83 67.87 1.65 o
1 -4 -5 293.68 289.94 6.52 o
2 -4 -5 105.01 104.52 2.50 o
3 -4 -5 113.60 112.34 2.61 o
4 -4 -5 224.44 225.09 4.98 o
5 -4 -5 84.07 84.94 2.00 o
6 -4 -5 37.14 37.77 1.46 o
7 -4 -5 65.23 68.95 1.72 o
8 -4 -5 86.28 86.29 2.72 o
9 -4 -5 63.26 56.65 2.86 o
10 -4 -5 38.59 28.34 3.80 o
11 -4 -5 36.47 42.02 3.90 o
-7 -3 -5 35.50 41.57 2.58 o
-6 -3 -5 53.48 57.80 1.84 o
-5 -3 -5 55.37 54.90 1.74 o
-4 -3 -5 99.25 96.48 2.43 o
-3 -3 -5 160.98 157.12 3.66 o
-2 -3 -5 99.41 97.05 2.44 o
-1 -3 -5 153.93 153.65 3.64 o
0 -3 -5 161.63 170.66 3.66 o
1 -3 -5 180.49 173.20 4.06 o
2 -3 -5 206.49 211.41 4.62 o
3 -3 -5 120.79 124.09 2.79 o
4 -3 -5 238.26 240.11 5.28 o
5 -3 -5 16.53 21.06 1.73 o
6 -3 -5 101.84 101.36 2.33 o
7 -3 -5 138.29 142.67 3.42 o
8 -3 -5 74.16 69.55 2.43 o
9 -3 -5 57.94 60.46 2.75 o
10 -3 -5 35.40 28.93 3.89 o
11 -3 -5 46.20 41.21 3.48 o
-8 -2 -5 28.87 30.76 4.74 o
-7 -2 -5 60.89 60.79 2.35 o
-6 -2 -5 65.81 67.67 1.88 o
-5 -2 -5 69.59 64.27 1.87 o
-4 -2 -5 77.47 79.66 2.03 o
-3 -2 -5 167.06 164.73 3.79 o
-2 -2 -5 82.35 80.21 2.33 o
-1 -2 -5 293.72 300.51 6.52 o
0 -2 -5 291.52 291.77 6.46 o
1 -2 -5 249.76 240.85 5.55 o
2 -2 -5 351.21 337.46 7.76 o
3 -2 -5 187.74 190.47 4.20 o
4 -2 -5 338.39 334.18 7.46 o
5 -2 -5 104.54 102.56 2.37 o
6 -2 -5 155.23 158.65 3.52 o
7 -2 -5 98.52 98.66 2.75 o
8 -2 -5 0.00 5.46 73.67 <
9 -2 -5 60.79 61.17 2.66 o
10 -2 -5 48.77 44.94 2.57 o
11 -2 -5 50.61 41.80 2.98 o
-8 -1 -5 20.78 24.92 5.36 <
-7 -1 -5 45.01 43.61 2.00 o
-6 -1 -5 36.42 33.01 1.91 o
-5 -1 -5 42.53 44.91 1.60 o
-4 -1 -5 127.83 123.00 2.93 o
-3 -1 -5 124.65 124.42 3.03 o
-2 -1 -5 32.17 31.83 1.99 o
-1 -1 -5 210.13 198.38 4.76 o
0 -1 -5 223.89 233.14 4.98 o
1 -1 -5 369.23 360.19 8.16 o
2 -1 -5 224.59 217.67 4.99 o
3 -1 -5 163.60 157.96 3.64 o
4 -1 -5 288.87 284.87 6.37 o
5 -1 -5 76.31 75.81 1.76 o
6 -1 -5 208.19 212.79 4.63 o
7 -1 -5 127.51 123.91 3.19 o
8 -1 -5 66.46 56.55 2.52 o
9 -1 -5 105.26 106.30 2.93 o
10 -1 -5 74.70 71.64 2.62 o
-9 0 -5 25.45 31.85 6.94 <
-8 0 -5 62.27 62.18 2.54 o
-7 0 -5 45.70 47.78 1.88 o
-6 0 -5 38.32 37.09 1.84 o
-5 0 -5 174.71 169.05 3.93 o
-4 0 -5 53.91 52.44 1.70 o
-3 0 -5 51.25 45.19 1.58 o
-2 0 -5 254.24 246.57 5.65 o
-1 0 -5 323.77 314.64 7.20 o
0 0 -5 39.26 36.33 1.40 o
1 0 -5 17.67 15.92 2.00 o
2 0 -5 367.12 363.57 8.09 o
3 0 -5 109.50 110.45 2.46 o
4 0 -5 172.29 165.64 3.82 o
5 0 -5 107.36 107.30 2.41 o
6 0 -5 207.86 208.96 4.68 o
7 0 -5 62.65 69.04 2.29 o
8 0 -5 70.53 69.55 2.38 o
9 0 -5 102.70 98.04 2.86 o
10 0 -5 21.16 26.26 4.60 o
-9 1 -5 50.37 54.40 4.38 o
-8 1 -5 43.96 54.51 2.99 o
-7 1 -5 63.91 62.03 1.92 o
-6 1 -5 77.48 73.22 2.00 o
-5 1 -5 131.42 130.48 3.01 o
-4 1 -5 37.77 38.25 1.59 o
-3 1 -5 238.61 232.50 5.31 o
-2 1 -5 239.23 244.43 5.30 o
-1 1 -5 188.23 180.08 4.21 o
0 1 -5 253.57 257.76 5.63 o
1 1 -5 194.27 203.06 4.33 o
2 1 -5 319.77 314.66 7.07 o
3 1 -5 75.83 75.17 1.79 o
4 1 -5 137.25 140.57 3.06 o
5 1 -5 123.81 123.02 2.76 o
6 1 -5 47.94 47.34 1.30 o
7 1 -5 31.51 25.62 2.46 o
8 1 -5 68.61 65.60 2.35 o
9 1 -5 49.38 52.06 2.50 o
-9 2 -5 11.23 33.24 15.58 <
-8 2 -5 33.86 35.92 3.72 o
-7 2 -5 75.54 73.84 2.14 o
-6 2 -5 58.27 54.59 1.89 o
-5 2 -5 123.74 125.77 2.91 o
-4 2 -5 159.26 153.72 3.62 o
-3 2 -5 199.32 198.19 4.46 o
-2 2 -5 212.12 204.98 4.80 o
-1 2 -5 251.23 238.79 5.63 o
0 2 -5 445.23 459.33 9.83 o
1 2 -5 241.86 231.69 5.38 o
2 2 -5 176.60 181.10 3.96 o
3 2 -5 187.39 183.64 4.17 o
4 2 -5 239.39 243.33 5.30 o
5 2 -5 99.47 96.07 2.25 o
6 2 -5 62.25 59.02 1.59 o
7 2 -5 100.44 103.57 2.30 o
8 2 -5 80.97 80.29 2.38 o
-9 3 -5 12.83 22.37 14.48 <
-8 3 -5 45.18 48.21 3.22 o
-7 3 -5 75.23 76.42 2.16 o
-6 3 -5 55.22 54.61 1.72 o
-5 3 -5 166.14 169.07 3.78 o
-4 3 -5 29.00 24.09 1.86 o
-3 3 -5 133.42 130.22 3.18 o
-2 3 -5 189.88 191.54 4.34 o
-1 3 -5 244.12 240.40 5.49 o
0 3 -5 191.75 195.61 4.38 o
1 3 -5 87.85 88.09 2.14 o
2 3 -5 238.06 235.80 5.28 o
3 3 -5 169.03 167.25 3.78 o
4 3 -5 178.42 178.97 3.97 o
5 3 -5 90.85 92.24 2.13 o
6 3 -5 83.98 84.29 1.99 o
7 3 -5 80.73 81.11 1.97 o
8 3 -5 28.69 33.95 2.63 o
-9 4 -5 20.66 20.58 8.33 <
-8 4 -5 46.35 50.59 2.10 o
-7 4 -5 67.73 65.44 1.95 o
-6 4 -5 37.55 37.72 1.53 o
-5 4 -5 28.51 29.32 2.00 o
-4 4 -5 126.46 123.57 3.09 o
-3 4 -5 143.82 144.17 3.41 o
-2 4 -5 101.65 98.98 2.62 o
-1 4 -5 12.26 7.75 5.25 <
0 4 -5 298.58 294.22 6.63 o
1 4 -5 96.18 94.29 2.31 o
2 4 -5 164.73 163.20 3.73 o
3 4 -5 153.68 147.85 3.47 o
4 4 -5 85.75 84.96 2.02 o
5 4 -5 78.42 79.61 1.92 o
6 4 -5 89.23 89.20 2.19 o
7 4 -5 82.12 84.69 2.04 o
-9 5 -5 49.85 50.31 3.06 o
-8 5 -5 77.45 73.91 2.23 o
-7 5 -5 24.26 27.13 2.61 o
-6 5 -5 26.77 30.25 2.79 o
-5 5 -5 157.98 157.58 3.74 o
-4 5 -5 145.39 139.91 3.50 o
-3 5 -5 25.43 22.18 3.14 o
-2 5 -5 152.08 154.16 3.50 o
-1 5 -5 240.07 238.35 5.36 o
0 5 -5 88.93 87.70 2.22 o
1 5 -5 101.20 103.63 2.47 o
2 5 -5 159.78 159.54 3.73 o
3 5 -5 150.08 146.17 3.52 o
4 5 -5 16.11 11.66 4.12 <
5 5 -5 65.70 69.67 2.05 o
6 5 -5 70.50 70.22 2.28 o
-9 6 -5 23.41 32.93 6.24 <
-8 6 -5 36.48 30.52 2.52 o
-7 6 -5 52.62 55.41 1.91 o
-6 6 -5 128.71 129.69 3.03 o
-5 6 -5 115.54 113.82 2.87 o
-4 6 -5 25.65 20.44 3.16 o
-3 6 -5 87.49 84.57 2.43 o
-2 6 -5 202.66 198.53 4.64 o
-1 6 -5 37.80 32.46 2.16 o
0 6 -5 11.25 16.20 7.21 <
1 6 -5 126.61 126.31 3.11 o
2 6 -5 154.83 154.15 3.68 o
3 6 -5 61.18 62.69 1.95 o
4 6 -5 0.00 11.58 64.67 <
5 6 -5 91.50 95.29 2.61 o
6 6 -5 27.92 26.22 3.33 o
-9 7 -5 16.66 26.95 8.09 <
-8 7 -5 43.67 41.79 2.17 o
-7 7 -5 47.97 48.87 1.91 o
-6 7 -5 55.83 57.35 2.40 o
-5 7 -5 41.53 41.70 2.50 o
-4 7 -5 93.61 95.45 2.62 o
-3 7 -5 143.91 139.60 3.48 o
-2 7 -5 113.98 115.00 2.92 o
-1 7 -5 114.37 116.64 2.94 o
0 7 -5 171.78 168.47 4.03 o
1 7 -5 150.76 153.35 3.63 o
2 7 -5 67.86 68.30 2.41 o
3 7 -5 59.35 61.47 2.63 o
4 7 -5 85.64 78.43 2.64 o
5 7 -5 70.39 72.88 2.79 o
-9 8 -5 35.49 22.16 4.87 o
-8 8 -5 0.00 10.57 71.12 <
-7 8 -5 0.00 17.05 66.88 <
-6 8 -5 63.56 60.66 2.46 o
-5 8 -5 40.18 43.25 2.87 o
-4 8 -5 59.67 60.21 2.34 o
-3 8 -5 33.03 39.00 3.38 o
-2 8 -5 58.18 54.21 2.34 o
-1 8 -5 46.04 45.32 2.83 o
0 8 -5 76.90 73.91 2.57 o
1 8 -5 61.30 61.15 2.58 o
2 8 -5 43.59 47.36 3.26 o
3 8 -5 82.41 75.43 3.03 o
4 8 -5 57.64 58.38 2.84 o
5 8 -5 47.94 45.79 2.78 o
-8 9 -5 38.37 30.44 2.86 o
-7 9 -5 63.40 65.61 2.60 o
-6 9 -5 33.28 32.91 2.73 o
-5 9 -5 26.54 10.75 4.60 o
-4 9 -5 61.01 62.05 2.75 o
-3 9 -5 36.48 46.28 3.08 o
-2 9 -5 0.00 20.68 85.66 <
-1 9 -5 35.80 32.08 2.93 o
0 9 -5 46.83 47.13 3.42 o
1 9 -5 36.69 31.95 3.16 o
2 9 -5 48.81 43.34 3.17 o
3 9 -5 68.00 61.12 3.09 o
4 9 -5 39.15 32.44 3.98 o
-7 10 -5 47.11 42.75 2.72 o
-6 10 -5 0.00 11.21 75.38 <
-5 10 -5 57.42 54.73 3.03 o
-4 10 -5 75.94 75.55 2.59 o
-3 10 -5 41.89 39.15 4.42 o
-2 10 -5 51.78 43.63 3.18 o
-1 10 -5 72.66 72.50 3.04 o
0 10 -5 41.66 45.20 3.61 o
1 10 -5 0.00 19.70 84.38 <
2 10 -5 43.84 36.84 3.39 o
3 10 -5 31.21 32.68 4.95 o
-6 11 -5 45.26 34.29 3.60 o
-5 11 -5 59.22 56.78 3.34 o
-4 11 -5 38.25 33.18 3.47 o
-3 11 -5 21.85 29.46 7.24 <
-2 11 -5 48.13 52.77 3.69 o
-1 11 -5 49.34 50.67 3.39 o
0 11 -5 20.07 16.85 8.08 <
1 11 -5 36.46 38.39 4.78 o
1 -11 -4 50.45 31.63 3.92 o
2 -11 -4 67.33 61.65 3.30 o
3 -11 -4 32.98 23.80 3.95 o
4 -11 -4 40.32 40.26 2.57 o
5 -11 -4 51.75 45.49 3.52 o
6 -11 -4 44.23 46.18 3.61 o
7 -11 -4 17.12 20.81 7.04 <
-1 -10 -4 37.84 33.29 4.43 o
0 -10 -4 46.86 32.82 3.82 o
1 -10 -4 58.46 64.94 3.28 o
2 -10 -4 53.77 54.22 3.22 o
3 -10 -4 41.55 36.00 1.99 o
4 -10 -4 79.18 80.84 2.83 o
5 -10 -4 48.96 53.39 3.07 o
6 -10 -4 42.33 41.86 3.06 o
7 -10 -4 36.86 38.80 3.54 o
-2 -9 -4 32.36 27.23 4.30 o
-1 -9 -4 30.15 26.07 3.72 o
0 -9 -4 59.49 62.57 3.07 o
1 -9 -4 51.65 51.83 3.15 o
2 -9 -4 35.12 34.32 2.24 o
3 -9 -4 36.84 38.18 4.04 o
4 -9 -4 78.39 79.81 2.88 o
5 -9 -4 45.99 47.59 3.20 o
6 -9 -4 53.09 56.87 3.04 o
7 -9 -4 60.75 64.55 2.60 o
-3 -8 -4 52.21 46.19 3.28 o
-2 -8 -4 33.28 17.77 4.25 o
-1 -8 -4 38.68 38.67 3.66 o
0 -8 -4 102.59 105.20 3.11 o
1 -8 -4 15.61 1.83 5.36 <
2 -8 -4 58.62 57.79 2.07 o
3 -8 -4 54.93 57.46 2.79 o
4 -8 -4 61.73 60.83 2.60 o
5 -8 -4 38.73 32.14 2.87 o
6 -8 -4 49.78 54.56 2.56 o
7 -8 -4 78.76 80.06 2.48 o
-5 -7 -4 44.34 27.91 3.21 o
-4 -7 -4 75.73 68.78 2.81 o
-3 -7 -4 41.58 47.89 3.00 o
-2 -7 -4 62.35 60.85 3.02 o
-1 -7 -4 115.57 120.34 3.16 o
0 -7 -4 122.08 121.57 3.20 o
1 -7 -4 32.41 28.96 2.19 o
2 -7 -4 107.09 105.76 2.92 o
3 -7 -4 127.80 126.07 3.25 o
4 -7 -4 77.57 76.46 2.41 o
5 -7 -4 69.61 69.29 2.40 o
6 -7 -4 69.74 68.78 2.32 o
7 -7 -4 58.95 65.60 2.18 o
11 -7 -4 0.00 22.92 74.63 <
-5 -6 -4 63.18 58.07 2.58 o
-4 -6 -4 58.91 58.69 3.13 o
-3 -6 -4 22.84 21.64 4.40 o
-2 -6 -4 116.40 112.96 3.14 o
-1 -6 -4 90.73 87.52 2.76 o
0 -6 -4 102.10 103.90 2.54 o
1 -6 -4 91.66 94.37 2.33 o
2 -6 -4 270.06 271.16 6.11 o
3 -6 -4 205.81 206.10 4.65 o
4 -6 -4 62.24 63.79 1.92 o
5 -6 -4 172.45 175.21 3.97 o
6 -6 -4 110.83 115.01 2.73 o
7 -6 -4 93.66 91.11 2.42 o
11 -6 -4 23.30 23.40 5.08 o
-6 -5 -4 39.05 42.85 2.49 o
-5 -5 -4 55.06 55.58 2.85 o
-4 -5 -4 18.54 18.66 6.08 <
-3 -5 -4 51.40 51.74 2.35 o
-2 -5 -4 122.34 123.13 3.14 o
-1 -5 -4 49.06 40.88 2.55 o
0 -5 -4 142.45 140.17 3.30 o
1 -5 -4 107.93 106.64 2.60 o
2 -5 -4 218.80 220.71 4.91 o
3 -5 -4 148.47 145.81 3.43 o
4 -5 -4 165.96 165.91 3.80 o
5 -5 -4 292.38 297.27 6.52 o
6 -5 -4 23.60 26.76 2.62 o
7 -5 -4 111.04 108.08 2.66 o
10 -5 -4 35.79 29.57 4.16 o
11 -5 -4 39.72 44.20 4.15 o
-7 -4 -4 43.95 36.43 3.95 o
-6 -4 -4 71.26 71.97 2.21 o
-5 -4 -4 42.54 44.90 2.04 o
-4 -4 -4 45.60 37.85 1.95 o
-3 -4 -4 93.34 93.35 2.28 o
-2 -4 -4 143.12 143.63 3.26 o
-1 -4 -4 32.04 28.63 1.43 o
0 -4 -4 154.93 157.13 3.48 o
1 -4 -4 162.29 161.12 3.68 o
2 -4 -4 157.72 154.74 3.53 o
3 -4 -4 94.34 94.43 2.22 o
4 -4 -4 121.24 132.19 2.78 o
5 -4 -4 150.21 149.66 3.40 o
6 -4 -4 14.90 15.29 2.73 o
9 -4 -4 41.72 37.74 3.48 o
10 -4 -4 39.73 46.06 2.90 o
11 -4 -4 75.11 66.32 2.97 o
-8 -3 -4 31.05 16.83 4.26 o
-7 -3 -4 67.04 68.39 2.29 o
-6 -3 -4 64.51 63.47 1.86 o
-5 -3 -4 53.29 53.50 1.65 o
-4 -3 -4 125.58 125.40 2.92 o
-3 -3 -4 151.71 148.96 3.45 o
-2 -3 -4 131.67 128.05 3.01 o
-1 -3 -4 37.69 41.93 1.70 o
0 -3 -4 311.86 314.29 6.91 o
1 -3 -4 293.30 292.48 6.50 o
2 -3 -4 278.64 267.14 6.18 o
3 -3 -4 241.16 234.08 5.34 o
4 -3 -4 71.35 71.84 1.76 o
5 -3 -4 162.48 166.45 3.63 o
6 -3 -4 43.65 42.76 1.37 o
7 -3 -4 125.40 127.79 3.14 o
8 -3 -4 47.41 53.71 2.34 o
9 -3 -4 20.95 24.99 5.72 <
10 -3 -4 59.52 60.79 2.72 o
11 -3 -4 38.65 38.24 2.97 o
-8 -2 -4 47.24 39.61 3.57 o
-7 -2 -4 67.93 67.03 1.89 o
-6 -2 -4 49.59 48.54 1.69 o
-5 -2 -4 53.09 59.39 1.63 o
-4 -2 -4 177.23 169.49 4.00 o
-3 -2 -4 154.28 147.73 3.50 o
-2 -2 -4 92.90 96.93 2.25 o
-1 -2 -4 303.73 309.51 6.73 o
0 -2 -4 432.28 435.41 9.54 o
1 -2 -4 59.20 50.74 1.57 o
2 -2 -4 306.88 291.34 6.79 o
3 -2 -4 544.88 542.71 12.00 o
4 -2 -4 112.73 116.58 2.54 o
5 -2 -4 104.09 104.05 2.36 o
6 -2 -4 74.50 77.23 1.87 o
7 -2 -4 157.73 151.11 3.76 o
8 -2 -4 33.38 38.04 3.25 o
9 -2 -4 56.25 54.57 2.35 o
10 -2 -4 59.53 61.57 2.79 o
11 -2 -4 15.34 19.73 7.76 <
-9 -1 -4 28.30 23.43 3.67 o
-8 -1 -4 33.35 30.57 3.03 o
-7 -1 -4 47.25 50.73 1.80 o
-6 -1 -4 27.46 27.55 1.87 o
-5 -1 -4 74.71 74.73 1.91 o
-4 -1 -4 120.16 114.74 2.75 o
-3 -1 -4 20.54 19.01 2.10 o
-2 -1 -4 248.40 246.68 5.57 o
-1 -1 -4 268.75 263.34 6.00 o
0 -1 -4 200.97 205.18 4.47 o
1 -1 -4 388.22 373.87 8.57 o
2 -1 -4 428.67 424.63 9.45 o
3 -1 -4 305.08 301.36 6.73 o
4 -1 -4 36.87 34.22 1.01 o
5 -1 -4 270.76 277.65 5.99 o
6 -1 -4 170.72 171.14 3.82 o
7 -1 -4 82.65 79.58 2.48 o
8 -1 -4 40.19 47.80 2.87 o
9 -1 -4 80.34 77.69 2.56 o
10 -1 -4 50.34 46.61 2.69 o
-9 0 -4 31.14 35.76 3.11 o
-8 0 -4 41.08 45.88 2.81 o
-7 0 -4 44.20 38.53 1.84 o
-6 0 -4 35.58 29.78 1.76 o
-5 0 -4 84.39 82.51 2.07 o
-4 0 -4 122.92 119.78 2.81 o
-3 0 -4 141.55 135.89 3.22 o
-2 0 -4 143.25 145.94 3.24 o
-1 0 -4 157.11 152.78 3.60 o
0 0 -4 127.58 124.53 2.89 o
1 0 -4 359.15 357.93 7.91 o
2 0 -4 313.18 308.73 6.90 o
3 0 -4 151.59 151.78 3.36 o
4 0 -4 156.64 151.21 3.47 o
5 0 -4 296.01 300.78 6.55 o
6 0 -4 98.17 100.55 2.32 o
7 0 -4 89.97 81.74 2.50 o
8 0 -4 105.95 112.72 2.83 o
9 0 -4 74.45 71.25 2.33 o
10 0 -4 44.39 36.38 2.62 o
-9 1 -4 65.48 62.81 3.27 o
-8 1 -4 41.58 34.81 3.80 o
-7 1 -4 57.20 55.19 1.82 o
-6 1 -4 135.75 135.17 3.11 o
-5 1 -4 160.30 159.06 3.61 o
-4 1 -4 130.87 126.94 3.00 o
-3 1 -4 114.06 108.27 2.59 o
-2 1 -4 189.86 187.24 4.21 o
-1 1 -4 195.69 200.09 4.36 o
0 1 -4 257.61 254.46 5.71 o
1 1 -4 268.24 273.23 5.94 o
2 1 -4 158.01 145.14 3.54 o
3 1 -4 160.90 163.16 3.58 o
4 1 -4 34.22 33.56 0.98 o
5 1 -4 81.55 83.23 1.86 o
6 1 -4 90.01 92.78 2.47 o
7 1 -4 97.90 89.90 2.59 o
8 1 -4 85.48 87.44 2.47 o
9 1 -4 35.73 27.78 2.65 o
-9 2 -4 13.98 19.61 12.77 <
-8 2 -4 39.56 33.79 3.28 o
-7 2 -4 120.60 127.30 2.89 o
-6 2 -4 157.86 152.59 3.62 o
-5 2 -4 71.29 74.98 1.82 o
-4 2 -4 207.33 198.10 4.63 o
-3 2 -4 373.89 361.94 8.26 o
-2 2 -4 364.70 356.43 8.09 o
-1 2 -4 208.54 204.03 4.70 o
0 2 -4 159.74 158.86 3.65 o
1 2 -4 512.02 516.51 11.29 o
2 2 -4 91.45 81.52 2.10 o
3 2 -4 239.80 238.59 5.31 o
4 2 -4 170.34 168.97 3.78 o
5 2 -4 86.67 87.73 1.98 o
6 2 -4 48.96 50.32 1.35 o
7 2 -4 79.62 75.59 2.26 o
8 2 -4 42.34 41.51 2.23 o
-10 3 -4 0.00 22.39 96.23 <
-9 3 -4 0.00 23.84 92.24 <
-8 3 -4 59.53 60.91 2.18 o
-7 3 -4 90.97 89.44 2.26 o
-6 3 -4 46.48 43.40 1.72 o
-5 3 -4 70.04 68.73 1.94 o
-4 3 -4 282.67 278.09 6.28 o
-3 3 -4 140.89 145.37 3.30 o
-2 3 -4 86.83 88.96 2.27 o
-1 3 -4 367.72 363.02 8.16 o
0 3 -4 386.91 378.85 8.58 o
1 3 -4 241.89 242.15 5.36 o
2 3 -4 10.71 12.87 3.09 <
3 3 -4 334.26 335.61 7.38 o
4 3 -4 126.43 125.09 2.85 o
5 3 -4 84.29 86.30 1.97 o
6 3 -4 102.05 102.79 2.36 o
7 3 -4 78.80 78.80 1.92 o
-10 4 -4 19.58 17.70 9.21 <
-8 4 -4 65.82 61.84 2.11 o
-7 4 -4 26.19 26.33 2.02 o
-6 4 -4 36.45 36.18 1.37 o
-5 4 -4 87.22 87.78 2.12 o
-4 4 -4 108.75 109.81 2.71 o
-3 4 -4 77.65 80.25 2.23 o
-2 4 -4 83.93 83.56 2.08 o
-1 4 -4 332.72 331.30 7.37 o
0 4 -4 136.56 131.39 3.13 o
1 4 -4 124.41 124.80 2.88 o
2 4 -4 143.01 141.15 3.27 o
3 4 -4 280.51 275.10 6.21 o
4 4 -4 60.25 59.80 1.54 o
5 4 -4 72.92 74.40 1.82 o
6 4 -4 114.58 116.09 2.68 o
-10 5 -4 26.86 32.67 16.73 <
-9 5 -4 43.79 38.17 3.07 o
-8 5 -4 58.36 58.32 2.03 o
-7 5 -4 63.81 59.43 1.85 o
-6 5 -4 93.90 91.25 2.23 o
-5 5 -4 65.94 63.93 1.89 o
-4 5 -4 119.65 116.69 2.82 o
-3 5 -4 144.33 147.30 3.31 o
-2 5 -4 172.07 167.67 3.90 o
-1 5 -4 97.99 95.91 2.39 o
0 5 -4 51.26 47.42 1.75 o
1 5 -4 205.55 204.09 4.62 o
2 5 -4 88.07 85.79 2.22 o
3 5 -4 104.89 103.08 2.47 o
4 5 -4 36.00 39.12 1.81 o
5 5 -4 111.15 111.49 2.80 o
6 5 -4 79.44 85.23 2.34 o
-10 6 -4 28.29 22.37 4.28 o
-9 6 -4 48.48 52.63 2.62 o
-8 6 -4 64.86 66.86 2.15 o
-7 6 -4 62.14 62.51 1.83 o
-6 6 -4 65.85 67.27 1.96 o
-5 6 -4 113.94 111.62 2.81 o
-4 6 -4 87.04 82.41 2.40 o
-3 6 -4 56.20 53.03 2.08 o
-2 6 -4 128.77 130.92 3.11 o
-1 6 -4 161.92 158.20 3.79 o
0 6 -4 83.35 83.10 2.37 o
1 6 -4 121.40 118.20 3.02 o
2 6 -4 42.91 40.03 2.49 o
3 6 -4 54.77 55.89 1.93 o
4 6 -4 49.67 48.19 2.48 o
5 6 -4 76.66 79.85 2.44 o
-9 7 -4 46.73 40.12 2.99 o
-8 7 -4 25.35 21.31 2.79 o
-7 7 -4 47.43 45.72 1.86 o
-6 7 -4 119.04 119.59 2.86 o
-5 7 -4 109.83 106.57 2.78 o
-4 7 -4 65.86 64.92 2.16 o
-3 7 -4 175.36 173.73 4.09 o
-2 7 -4 131.05 129.11 3.21 o
-1 7 -4 135.37 132.80 3.32 o
0 7 -4 85.68 83.96 2.56 o
1 7 -4 130.48 126.19 3.25 o
2 7 -4 71.80 75.08 2.10 o
3 7 -4 59.35 58.24 2.52 o
4 7 -4 97.61 95.31 2.80 o
5 7 -4 42.33 43.06 3.27 o
-9 8 -4 18.54 16.94 7.77 <
-8 8 -4 17.88 16.41 6.74 <
-7 8 -4 68.38 66.93 2.23 o
-6 8 -4 30.08 27.95 2.45 o
-5 8 -4 22.91 26.30 3.77 o
-4 8 -4 92.04 90.75 2.55 o
-3 8 -4 107.04 107.53 2.72 o
-2 8 -4 43.90 46.72 2.56 o
-1 8 -4 79.47 84.60 2.54 o
0 8 -4 108.24 111.21 2.91 o
1 8 -4 78.80 79.39 2.47 o
2 8 -4 53.05 43.69 2.87 o
3 8 -4 85.29 86.27 3.01 o
4 8 -4 68.92 64.76 2.86 o
5 8 -4 23.65 19.70 4.10 o
-9 9 -4 41.13 36.09 4.36 o
-8 9 -4 30.78 31.10 4.36 o
-7 9 -4 17.45 26.83 4.94 <
-6 9 -4 18.31 10.47 5.52 <
-5 9 -4 53.30 52.68 2.76 o
-4 9 -4 44.26 36.01 2.97 o
-3 9 -4 31.77 28.28 3.55 o
-2 9 -4 18.84 20.09 5.56 <
-1 9 -4 70.03 68.70 2.39 o
0 9 -4 51.23 45.65 3.06 o
1 9 -4 27.62 28.38 3.79 o
2 9 -4 67.47 68.77 2.78 o
3 9 -4 61.26 59.59 3.20 o
4 9 -4 46.57 32.13 3.53 o
-8 10 -4 17.09 21.62 10.61 <
-7 10 -4 54.22 45.32 2.76 o
-6 10 -4 55.46 51.19 2.46 o
-5 10 -4 47.77 47.15 2.31 o
-4 10 -4 14.27 30.21 7.84 <
-3 10 -4 56.62 49.78 3.12 o
-2 10 -4 31.32 40.27 3.58 o
-1 10 -4 49.62 52.01 3.39 o
0 10 -4 39.34 31.11 3.51 o
1 10 -4 0.00 14.90 83.49 <
2 10 -4 35.22 45.65 3.49 o
3 10 -4 13.37 18.74 10.68 <
-7 11 -4 27.56 31.01 5.03 o
-5 11 -4 56.66 52.18 3.36 o
-4 11 -4 32.67 36.66 3.70 o
-3 11 -4 47.84 42.78 3.67 o
-2 11 -4 44.08 53.12 4.07 o
-1 11 -4 52.67 49.07 2.90 o
0 11 -4 30.78 19.70 5.37 o
1 11 -4 54.55 41.06 3.55 o
1 -11 -3 62.88 53.65 3.42 o
2 -11 -3 52.68 44.87 3.26 o
3 -11 -3 0.00 29.35 85.57 <
4 -11 -3 30.75 37.68 3.98 o
5 -11 -3 51.02 55.39 3.57 o
-1 -10 -3 0.00 19.52 87.42 <
0 -10 -3 51.48 41.65 2.88 o
1 -10 -3 76.00 75.17 3.03 o
2 -10 -3 31.38 26.69 3.52 o
3 -10 -3 61.67 52.62 3.10 o
4 -10 -3 75.23 71.44 2.97 o
5 -10 -3 69.93 67.67 2.65 o
6 -10 -3 35.02 30.31 3.71 o
-3 -9 -3 42.49 42.67 3.78 o
-2 -9 -3 28.39 20.75 3.89 o
-1 -9 -3 34.70 28.27 4.23 o
0 -9 -3 93.53 86.10 2.94 o
1 -9 -3 71.24 72.80 2.04 o
2 -9 -3 32.40 25.23 3.64 o
3 -9 -3 115.61 113.67 3.25 o
4 -9 -3 84.62 79.39 2.90 o
5 -9 -3 47.27 45.21 3.25 o
6 -9 -3 38.32 40.13 2.99 o
7 -9 -3 88.95 83.74 2.76 o
-4 -8 -3 74.87 62.57 2.93 o
-3 -8 -3 39.27 37.83 2.91 o
-2 -8 -3 38.88 30.78 3.40 o
-1 -8 -3 81.58 77.91 2.67 o
0 -8 -3 63.23 61.84 2.92 o
1 -8 -3 30.18 27.27 2.97 o
2 -8 -3 38.55 33.82 3.32 o
3 -8 -3 134.71 132.01 3.45 o
4 -8 -3 32.82 21.64 3.08 o
5 -8 -3 66.42 68.38 2.43 o
6 -8 -3 87.05 84.95 2.61 o
7 -8 -3 84.07 83.86 2.52 o
-5 -7 -3 46.24 47.28 2.62 o
-4 -7 -3 65.37 66.65 2.60 o
-3 -7 -3 27.56 31.54 4.39 o
-2 -7 -3 56.19 49.63 2.67 o
-1 -7 -3 102.32 97.10 2.95 o
0 -7 -3 22.64 26.11 2.14 o
1 -7 -3 94.01 97.01 2.67 o
2 -7 -3 67.78 64.35 2.55 o
3 -7 -3 114.20 114.74 3.01 o
4 -7 -3 54.78 58.46 2.33 o
5 -7 -3 54.80 53.00 2.24 o
6 -7 -3 70.69 73.83 2.28 o
7 -7 -3 37.08 25.43 2.27 o
-6 -6 -3 22.36 35.93 7.14 <
-5 -6 -3 62.18 60.65 2.65 o
-4 -6 -3 52.61 52.55 2.82 o
-3 -6 -3 61.02 58.27 2.65 o
-2 -6 -3 134.10 132.75 3.41 o
-1 -6 -3 177.17 172.32 4.20 o
0 -6 -3 113.95 111.29 2.74 o
1 -6 -3 218.60 221.89 5.02 o
2 -6 -3 128.32 126.67 3.21 o
3 -6 -3 178.43 178.77 4.17 o
4 -6 -3 66.94 63.08 2.18 o
5 -6 -3 131.50 130.94 3.19 o
6 -6 -3 125.56 127.68 3.05 o
-7 -5 -3 0.00 17.87 75.71 <
-6 -5 -3 51.68 54.84 2.13 o
-5 -5 -3 43.41 36.75 3.04 o
-4 -5 -3 46.36 43.05 2.79 o
-3 -5 -3 98.21 95.75 2.77 o
-2 -5 -3 99.54 97.62 2.71 o
-1 -5 -3 98.96 95.29 2.69 o
0 -5 -3 37.33 33.44 1.81 o
1 -5 -3 232.39 233.33 5.27 o
2 -5 -3 98.39 95.04 2.39 o
3 -5 -3 183.99 183.51 4.17 o
4 -5 -3 159.71 159.08 3.67 o
5 -5 -3 193.32 196.90 4.38 o
6 -5 -3 116.32 120.24 2.89 o
11 -5 -3 46.33 40.54 3.13 o
-7 -4 -3 48.21 49.17 3.56 o
-6 -4 -3 48.25 53.85 2.16 o
-5 -4 -3 35.26 32.13 3.12 o
-4 -4 -3 49.43 52.14 1.88 o
-3 -4 -3 129.17 123.03 3.03 o
-2 -4 -3 116.94 114.03 2.76 o
-1 -4 -3 73.02 72.55 1.92 o
0 -4 -3 129.03 127.64 2.98 o
1 -4 -3 283.89 288.00 6.30 o
2 -4 -3 52.18 52.85 1.55 o
3 -4 -3 124.54 127.78 2.90 o
4 -4 -3 310.10 306.51 6.86 o
5 -4 -3 83.96 84.90 2.14 o
6 -4 -3 93.88 100.88 2.29 o
10 -4 -3 49.43 50.59 3.26 o
11 -4 -3 60.16 65.56 3.13 o
-8 -3 -3 22.83 36.02 6.63 <
-7 -3 -3 72.93 75.56 2.70 o
-6 -3 -3 42.89 48.19 1.71 o
-5 -3 -3 70.94 67.63 1.87 o
-4 -3 -3 117.23 114.33 2.74 o
-3 -3 -3 146.34 147.68 3.33 o
-2 -3 -3 73.22 71.25 1.84 o
-1 -3 -3 309.30 307.42 6.84 o
0 -3 -3 129.14 132.00 2.91 o
1 -3 -3 38.58 38.48 1.47 o
2 -3 -3 161.73 163.29 3.62 o
3 -3 -3 384.22 386.76 8.48 o
4 -3 -3 93.00 91.31 2.18 o
5 -3 -3 178.55 177.36 3.98 o
6 -3 -3 166.90 172.25 3.80 o
9 -3 -3 10.36 19.20 10.87 <
10 -3 -3 70.94 71.09 2.78 o
11 -3 -3 47.22 45.38 3.13 o
-8 -2 -3 56.93 48.17 2.25 o
-7 -2 -3 55.97 51.33 1.82 o
-6 -2 -3 72.59 74.83 1.90 o
-5 -2 -3 127.92 124.75 2.93 o
-4 -2 -3 94.52 95.10 2.28 o
-3 -2 -3 226.98 219.16 5.05 o
-2 -2 -3 97.16 97.80 2.27 o
-1 -2 -3 293.78 297.72 6.54 o
0 -2 -3 132.63 141.02 3.00 o
1 -2 -3 204.71 208.52 4.55 o
2 -2 -3 435.13 426.64 9.59 o
3 -2 -3 133.87 138.04 3.01 o
4 -2 -3 183.15 186.72 4.07 o
5 -2 -3 140.15 143.22 3.22 o
6 -2 -3 219.07 222.87 4.91 o
7 -2 -3 41.45 46.31 2.10 o
8 -2 -3 50.59 43.77 2.58 o
9 -2 -3 72.47 69.89 2.61 o
10 -2 -3 47.55 45.56 2.96 o
11 -2 -3 32.06 18.41 3.93 o
-9 -1 -3 39.82 43.41 2.50 o
-8 -1 -3 43.85 41.99 2.46 o
-7 -1 -3 35.70 33.54 1.88 o
-6 -1 -3 62.00 63.50 1.76 o
-5 -1 -3 128.39 125.49 2.94 o
-4 -1 -3 135.46 138.06 3.07 o
-3 -1 -3 171.09 170.74 3.84 o
-2 -1 -3 114.28 108.22 2.71 o
-1 -1 -3 443.23 433.34 9.79 o
3 -1 -3 184.72 188.35 4.08 o
4 -1 -3 358.72 356.25 7.91 o
5 -1 -3 149.71 146.25 3.36 o
6 -1 -3 131.84 132.58 2.99 o
7 -1 -3 56.06 56.15 2.24 o
8 -1 -3 92.24 87.37 2.60 o
9 -1 -3 65.82 64.80 2.55 o
10 -1 -3 31.84 26.13 3.55 o
-9 0 -3 44.50 39.94 2.56 o
-8 0 -3 36.11 31.69 7.25 o
-7 0 -3 14.88 3.69 3.41 o
-6 0 -3 94.38 95.46 2.26 o
-5 0 -3 160.32 155.37 3.60 o
-4 0 -3 72.51 74.00 1.79 o
-3 0 -3 61.07 60.46 1.61 o
-2 0 -3 200.26 194.63 4.46 o
-1 0 -3 300.86 302.14 6.67 o
3 0 -3 207.79 207.28 4.59 o
4 0 -3 167.47 172.75 3.73 o
5 0 -3 157.13 156.09 3.54 o
6 0 -3 143.07 147.13 3.25 o
7 0 -3 83.70 85.94 2.37 o
8 0 -3 116.68 112.42 2.93 o
9 0 -3 57.90 55.59 2.35 o
-10 1 -3 33.17 40.34 5.77 o
-9 1 -3 50.32 42.26 3.19 o
-8 1 -3 35.04 36.43 3.07 o
-7 1 -3 93.23 91.69 2.25 o
-6 1 -3 143.68 142.85 3.27 o
-5 1 -3 101.30 103.74 2.37 o
-4 1 -3 76.70 75.23 1.82 o
-3 1 -3 468.87 460.97 10.33 o
-2 1 -3 154.68 156.81 3.44 o
-1 1 -3 234.36 228.37 5.22 o
2 1 -3 135.99 131.36 3.05 o
3 1 -3 105.88 101.47 2.37 o
4 1 -3 362.47 360.31 7.98 o
5 1 -3 184.30 181.36 4.08 o
6 1 -3 48.33 52.83 2.19 o
7 1 -3 113.37 115.43 2.82 o
8 1 -3 92.71 88.27 2.53 o
9 1 -3 25.39 28.78 2.91 o
-10 2 -3 39.70 45.90 4.51 o
-9 2 -3 46.68 35.87 4.08 o
-8 2 -3 74.28 72.51 2.84 o
-7 2 -3 103.88 99.19 2.56 o
-6 2 -3 86.78 88.54 2.12 o
-5 2 -3 88.82 84.56 2.13 o
-4 2 -3 236.88 236.39 5.27 o
-3 2 -3 252.61 253.31 5.60 o
-2 2 -3 197.66 196.45 4.45 o
-1 2 -3 351.78 345.60 7.79 o
0 2 -3 340.85 344.68 7.55 o
1 2 -3 144.42 140.31 3.23 o
2 2 -3 161.14 166.66 3.59 o
3 2 -3 170.92 173.92 3.79 o
4 2 -3 200.05 199.78 4.43 o
5 2 -3 117.85 121.26 2.64 o
6 2 -3 38.39 32.39 1.25 o
7 2 -3 84.72 84.71 2.29 o
8 2 -3 10.28 21.10 6.29 <
-10 3 -3 23.39 24.86 8.04 <
-9 3 -3 32.62 34.15 5.21 o
-8 3 -3 43.68 47.02 1.76 o
-7 3 -3 91.50 89.77 2.18 o
-6 3 -3 97.51 99.26 2.33 o
-5 3 -3 173.76 171.85 3.90 o
-4 3 -3 137.57 128.48 3.14 o
-3 3 -3 240.22 234.43 5.39 o
-2 3 -3 323.00 315.39 7.18 o
-1 3 -3 320.00 316.86 7.08 o
0 3 -3 253.40 253.62 5.62 o
1 3 -3 96.39 97.71 2.27 o
2 3 -3 281.88 287.89 6.23 o
3 3 -3 189.70 188.48 4.21 o
4 3 -3 63.71 64.66 1.55 o
5 3 -3 116.25 115.43 2.63 o
6 3 -3 116.64 117.45 2.66 o
7 3 -3 61.86 63.98 1.61 o
-10 4 -3 39.02 20.13 4.41 o
-9 4 -3 33.91 30.01 4.90 o
-8 4 -3 66.88 68.76 1.84 o
-7 4 -3 36.64 35.98 1.36 o
-6 4 -3 38.20 40.72 1.52 o
-5 4 -3 146.99 148.25 3.33 o
-4 4 -3 159.81 155.16 3.62 o
-3 4 -3 232.88 233.22 5.19 o
-2 4 -3 69.94 68.24 1.83 o
-1 4 -3 137.04 135.33 3.13 o
0 4 -3 261.18 258.34 5.80 o
1 4 -3 212.18 209.11 4.75 o
2 4 -3 290.11 288.03 6.44 o
3 4 -3 132.10 124.32 3.01 o
4 4 -3 151.37 151.61 3.39 o
5 4 -3 140.93 143.77 3.19 o
6 4 -3 88.51 86.88 2.17 o
-10 5 -3 0.00 22.46 98.84 <
-9 5 -3 59.09 63.22 2.51 o
-8 5 -3 44.21 42.04 1.67 o
-7 5 -3 60.72 58.66 1.68 o
-6 5 -3 73.65 71.81 1.84 o
-5 5 -3 115.83 113.97 2.72 o
-4 5 -3 126.38 124.08 2.92 o
-3 5 -3 25.67 30.52 2.18 o
-2 5 -3 171.16 169.08 3.87 o
-1 5 -3 96.04 94.70 2.34 o
0 5 -3 124.24 126.69 2.91 o
1 5 -3 69.80 72.63 1.94 o
2 5 -3 135.02 137.79 3.26 o
3 5 -3 65.25 61.38 1.69 o
4 5 -3 138.78 140.99 3.19 o
5 5 -3 86.39 89.56 2.45 o
6 5 -3 49.78 48.68 2.28 o
-10 6 -3 29.88 33.82 5.42 o
-9 6 -3 51.41 48.23 2.49 o
-8 6 -3 31.04 29.82 1.96 o
-7 6 -3 90.86 91.55 2.24 o
-6 6 -3 119.15 113.38 2.83 o
-5 6 -3 70.70 73.44 2.07 o
-4 6 -3 102.62 105.37 2.55 o
-3 6 -3 225.71 222.15 5.12 o
-2 6 -3 187.41 187.03 4.31 o
-1 6 -3 39.81 42.86 2.30 o
0 6 -3 111.12 111.38 2.86 o
1 6 -3 97.87 99.06 2.70 o
2 6 -3 60.10 57.15 1.95 o
3 6 -3 66.71 64.07 1.89 o
4 6 -3 88.30 87.33 2.57 o
5 6 -3 53.10 55.18 2.19 o
6 6 -3 0.00 23.18 66.37 <
-10 7 -3 28.23 24.64 4.81 o
-9 7 -3 33.47 33.53 3.84 o
-8 7 -3 46.54 52.00 2.02 o
-7 7 -3 90.57 90.97 2.28 o
-6 7 -3 52.42 52.92 1.95 o
-5 7 -3 74.07 73.03 2.19 o
-4 7 -3 115.16 112.93 2.83 o
-3 7 -3 131.57 124.75 3.14 o
-2 7 -3 33.85 40.88 2.62 o
-1 7 -3 66.74 67.90 2.29 o
0 7 -3 206.48 203.73 4.80 o
1 7 -3 49.14 49.04 2.50 o
2 7 -3 56.90 57.45 2.15 o
3 7 -3 69.82 64.63 2.77 o
4 7 -3 73.43 73.71 2.89 o
5 7 -3 35.42 40.86 4.70 o
-9 8 -3 4.66 30.84 40.32 <
-8 8 -3 48.21 47.79 2.16 o
-7 8 -3 47.34 46.58 2.25 o
-6 8 -3 34.46 26.81 2.41 o
-5 8 -3 104.36 104.19 2.71 o
-4 8 -3 101.87 103.45 2.68 o
-3 8 -3 54.94 58.30 2.15 o
-2 8 -3 101.01 99.65 2.60 o
-1 8 -3 113.63 114.24 2.86 o
0 8 -3 117.86 117.34 3.21 o
1 8 -3 48.17 49.34 3.05 o
2 8 -3 83.37 80.23 3.01 o
3 8 -3 83.12 85.90 2.84 o
4 8 -3 50.94 47.71 3.12 o
5 8 -3 18.84 24.46 5.17 <
-9 9 -3 38.52 28.12 3.97 o
-8 9 -3 44.84 43.33 2.28 o
-7 9 -3 15.50 25.06 6.45 <
-6 9 -3 32.67 30.33 2.75 o
-5 9 -3 72.94 72.77 2.19 o
-4 9 -3 67.73 70.55 2.31 o
-3 9 -3 43.61 41.96 2.73 o
-2 9 -3 66.18 69.60 2.32 o
-1 9 -3 49.59 54.97 2.89 o
0 9 -3 71.60 58.95 2.63 o
1 9 -3 45.58 37.66 2.76 o
2 9 -3 78.46 74.37 2.80 o
3 9 -3 61.11 51.44 3.09 o
4 9 -3 8.67 26.68 14.15 <
-8 10 -3 31.76 31.78 3.97 o
-7 10 -3 12.90 11.78 6.48 <
-6 10 -3 36.63 38.01 2.55 o
-5 10 -3 57.35 54.80 2.90 o
-4 10 -3 16.79 12.86 5.62 <
-3 10 -3 3.41 17.22 35.67 <
-2 10 -3 56.80 48.29 2.69 o
-1 10 -3 46.73 38.48 3.52 o
0 10 -3 33.71 19.50 3.40 o
1 10 -3 38.25 33.37 3.35 o
2 10 -3 39.03 47.88 4.12 o
3 10 -3 31.05 26.92 3.79 o
-6 11 -3 69.13 63.35 3.08 o
-5 11 -3 38.00 40.00 4.37 o
-4 11 -3 29.08 28.76 3.92 o
-3 11 -3 44.24 47.46 3.81 o
-2 11 -3 66.53 60.35 3.18 o
-1 11 -3 47.94 43.34 3.45 o
0 11 -3 0.00 16.69 76.37 <
1 11 -3 31.20 43.93 4.04 o
-3 12 -3 36.31 47.78 4.90 o
4 -12 -2 17.06 14.21 8.23 <
0 -11 -2 22.42 30.42 7.17 <
1 -11 -2 53.75 52.09 2.95 o
2 -11 -2 26.07 32.60 6.15 o
3 -11 -2 24.61 20.22 5.60 o
4 -11 -2 47.72 47.43 3.78 o
5 -11 -2 53.53 48.81 2.82 o
-1 -10 -2 0.00 22.61 83.90 <
0 -10 -2 58.47 50.07 3.31 o
1 -10 -2 80.41 75.55 3.05 o
2 -10 -2 54.30 43.77 3.06 o
3 -10 -2 53.10 54.75 3.32 o
4 -10 -2 104.19 94.28 3.14 o
5 -10 -2 48.51 50.79 3.02 o
6 -10 -2 22.61 31.66 4.81 o
-3 -9 -2 58.38 44.43 3.22 o
-2 -9 -2 0.00 10.68 83.70 <
-1 -9 -2 51.17 48.31 3.20 o
0 -9 -2 84.74 84.97 2.99 o
1 -9 -2 45.15 42.71 3.31 o
2 -9 -2 61.05 61.23 3.01 o
3 -9 -2 73.20 77.19 2.91 o
4 -9 -2 92.69 87.48 2.94 o
5 -9 -2 30.60 35.22 3.48 o
6 -9 -2 79.12 78.83 2.70 o
-4 -8 -2 58.71 59.82 2.92 o
-3 -8 -2 38.63 34.97 3.70 o
-2 -8 -2 37.60 31.19 3.72 o
-1 -8 -2 76.74 76.53 2.93 o
0 -8 -2 60.89 59.20 2.01 o
1 -8 -2 48.49 47.22 2.79 o
2 -8 -2 90.19 91.89 2.78 o
3 -8 -2 63.30 62.37 2.66 o
4 -8 -2 83.14 85.53 2.66 o
5 -8 -2 72.28 67.66 2.39 o
6 -8 -2 95.16 97.32 2.69 o
-5 -7 -2 67.12 67.42 2.77 o
-4 -7 -2 41.38 34.25 3.32 o
-3 -7 -2 32.14 17.63 3.67 o
-2 -7 -2 88.28 94.48 2.85 o
-1 -7 -2 79.77 78.42 2.58 o
0 -7 -2 43.48 44.00 1.80 o
1 -7 -2 28.76 36.36 3.50 o
2 -7 -2 180.13 177.90 4.24 o
3 -7 -2 42.54 37.99 2.78 o
4 -7 -2 103.16 104.80 2.80 o
5 -7 -2 55.40 53.51 2.16 o
6 -7 -2 95.88 90.85 2.58 o
-6 -6 -2 48.56 47.77 2.44 o
-5 -6 -2 63.07 66.73 2.87 o
-4 -6 -2 26.40 31.02 4.13 o
-3 -6 -2 132.20 126.91 3.38 o
-2 -6 -2 180.13 177.30 4.26 o
-1 -6 -2 81.23 73.68 2.54 o
0 -6 -2 156.92 155.27 3.78 o
1 -6 -2 149.42 152.40 3.59 o
2 -6 -2 183.79 183.28 4.28 o
3 -6 -2 44.84 46.26 2.13 o
4 -6 -2 203.78 204.03 4.68 o
5 -6 -2 153.99 155.89 3.64 o
6 -6 -2 35.22 36.51 2.22 o
-7 -5 -2 30.30 32.49 5.43 o
-6 -5 -2 56.53 54.02 2.14 o
-5 -5 -2 52.50 49.96 2.67 o
-4 -5 -2 50.65 55.21 2.48 o
-3 -5 -2 141.27 138.41 3.45 o
-2 -5 -2 75.56 78.19 2.39 o
-1 -5 -2 73.62 72.74 2.31 o
0 -5 -2 307.33 305.86 6.89 o
1 -5 -2 111.99 113.50 2.81 o
2 -5 -2 141.21 144.46 3.36 o
3 -5 -2 162.68 160.45 3.79 o
4 -5 -2 318.66 324.74 7.11 o
5 -5 -2 70.53 71.52 2.02 o
-8 -4 -2 0.00 20.14 89.90 <
-7 -4 -2 47.83 54.14 3.60 o
-6 -4 -2 17.14 25.00 4.38 <
-5 -4 -2 28.40 30.81 2.96 o
-4 -4 -2 51.54 50.13 2.22 o
-3 -4 -2 53.87 58.26 1.99 o
-2 -4 -2 77.23 78.59 2.25 o
-1 -4 -2 97.03 96.75 2.53 o
0 -4 -2 238.46 239.56 5.38 o
1 -4 -2 26.84 28.85 2.06 o
2 -4 -2 278.71 284.24 6.19 o
3 -4 -2 224.35 224.97 5.01 o
4 -4 -2 227.89 228.76 5.10 o
5 -4 -2 157.79 161.35 3.67 o
6 -4 -2 150.33 157.13 3.59 o
11 -4 -2 48.26 52.76 3.36 o
-8 -3 -2 62.62 61.16 3.28 o
-7 -3 -2 60.89 65.45 2.04 o
-6 -3 -2 31.74 29.81 1.79 o
-5 -3 -2 69.97 74.61 1.92 o
-4 -3 -2 181.94 181.53 4.11 o
-3 -3 -2 114.76 114.59 2.66 o
-2 -3 -2 100.09 101.46 2.33 o
-1 -3 -2 26.98 25.62 1.32 o
0 -3 -2 269.27 272.82 6.01 o
1 -3 -2 21.08 14.93 1.73 o
2 -3 -2 215.24 218.79 4.77 o
3 -3 -2 130.34 128.90 2.94 o
4 -3 -2 28.66 32.12 1.24 o
5 -3 -2 95.55 99.73 2.48 o
6 -3 -2 142.00 146.07 3.42 o
10 -3 -2 57.79 60.61 2.83 o
11 -3 -2 34.33 36.00 4.13 o
-9 -2 -2 37.37 37.25 3.59 o
-8 -2 -2 81.00 73.23 3.01 o
-7 -2 -2 39.14 41.34 1.88 o
-6 -2 -2 57.88 56.99 1.67 o
-5 -2 -2 184.56 186.72 4.13 o
-4 -2 -2 164.88 157.35 3.72 o
-3 -2 -2 28.29 29.52 1.30 o
-2 -2 -2 307.18 312.26 6.79 o
-1 -2 -2 330.93 327.03 7.31 o
0 -2 -2 298.39 304.74 6.59 o
2 -2 -2 380.48 385.12 8.39 o
3 -2 -2 249.67 244.81 5.52 o
4 -2 -2 178.95 180.34 3.99 o
5 -2 -2 140.99 145.30 3.23 o
6 -2 -2 46.16 48.82 1.70 o
9 -2 -2 71.82 70.01 2.51 o
10 -2 -2 42.12 34.49 2.65 o
11 -2 -2 20.50 9.71 5.36 <
-9 -1 -2 53.78 49.14 2.58 o
-8 -1 -2 35.58 38.43 2.79 o
-7 -1 -2 35.83 37.29 1.57 o
-6 -1 -2 132.34 127.49 3.03 o
-5 -1 -2 153.82 150.61 3.47 o
-4 -1 -2 77.74 75.24 1.86 o
-3 -1 -2 79.28 79.82 1.92 o
-2 -1 -2 512.06 518.82 11.28 o
-1 -1 -2 269.12 260.01 5.97 o
3 -1 -2 173.61 170.74 3.88 o
4 -1 -2 104.37 103.72 2.39 o
5 -1 -2 278.12 284.14 6.16 o
6 -1 -2 81.62 78.47 2.11 o
7 -1 -2 64.06 58.25 2.23 o
8 -1 -2 65.72 66.86 2.26 o
9 -1 -2 50.79 57.67 2.50 o
10 -1 -2 22.35 24.53 4.54 o
-10 0 -2 38.66 39.64 4.56 o
-9 0 -2 7.75 28.24 12.81 <
-8 0 -2 32.32 33.28 2.73 o
-7 0 -2 42.96 42.55 1.69 o
-6 0 -2 88.00 82.74 2.12 o
-5 0 -2 5.34 17.86 7.40 <
-4 0 -2 76.16 74.54 1.83 o
-3 0 -2 207.57 208.15 4.60 o
-2 0 -2 414.16 411.53 9.13 o
3 0 -2 294.88 297.58 6.50 o
4 0 -2 191.86 197.69 4.27 o
5 0 -2 286.69 285.12 6.35 o
6 0 -2 61.67 64.95 1.86 o
7 0 -2 118.95 110.27 2.94 o
8 0 -2 95.53 94.28 2.60 o
9 0 -2 45.65 43.12 2.43 o
-10 1 -2 38.67 34.43 4.17 o
-9 1 -2 48.07 47.34 2.87 o
-8 1 -2 49.26 47.54 2.28 o
-7 1 -2 72.14 76.46 1.90 o
-6 1 -2 113.12 109.38 2.61 o
-5 1 -2 110.96 115.15 2.55 o
-4 1 -2 220.84 216.81 4.89 o
-3 1 -2 55.92 51.46 1.40 o
-2 1 -2 287.71 282.82 6.35 o
2 1 -2 300.80 300.31 6.63 o
3 1 -2 430.36 432.57 9.48 o
4 1 -2 249.98 246.81 5.52 o
5 1 -2 140.72 139.09 3.13 o
6 1 -2 33.17 40.82 2.33 o
7 1 -2 162.11 156.53 3.77 o
8 1 -2 73.42 74.23 2.16 o
-9 2 -2 51.81 45.84 3.62 o
-8 2 -2 72.76 71.36 2.90 o
-7 2 -2 110.20 117.82 2.55 o
-6 2 -2 110.19 106.70 2.57 o
-5 2 -2 51.39 55.10 1.47 o
-4 2 -2 239.65 238.39 5.31 o
-3 2 -2 175.25 174.06 3.91 o
-2 2 -2 331.06 336.49 7.33 o
1 2 -2 365.60 359.24 8.06 o
2 2 -2 171.94 177.87 3.83 o
3 2 -2 178.97 181.96 3.98 o
4 2 -2 85.20 79.43 1.98 o
5 2 -2 60.79 58.97 1.56 o
6 2 -2 82.43 85.48 1.94 o
7 2 -2 86.42 86.21 2.01 o
-10 3 -2 47.87 22.26 3.79 o
-9 3 -2 29.17 37.11 5.58 o
-8 3 -2 79.07 73.91 2.44 o
-7 3 -2 78.54 77.60 1.88 o
-6 3 -2 53.48 51.38 1.49 o
-5 3 -2 204.04 202.65 4.53 o
-4 3 -2 340.76 345.12 7.52 o
-3 3 -2 67.89 68.57 1.71 o
-2 3 -2 247.52 241.95 5.49 o
-1 3 -2 420.33 424.57 9.27 o
0 3 -2 316.24 311.64 7.02 o
1 3 -2 142.93 144.50 3.30 o
2 3 -2 87.59 94.17 2.03 o
3 3 -2 268.96 270.71 5.95 o
4 3 -2 18.48 17.10 1.58 o
5 3 -2 119.53 122.26 2.72 o
6 3 -2 99.93 102.99 2.32 o
7 3 -2 32.65 35.50 1.30 o
-10 4 -2 26.65 20.80 5.67 o
-9 4 -2 50.35 55.30 2.67 o
-8 4 -2 47.68 47.34 1.65 o
-7 4 -2 36.98 40.81 1.53 o
-6 4 -2 168.73 165.19 3.77 o
-5 4 -2 183.53 182.75 4.09 o
-4 4 -2 115.40 118.26 2.66 o
-3 4 -2 31.60 32.18 1.55 o
-2 4 -2 467.36 461.76 10.31 o
-1 4 -2 243.79 242.45 5.43 o
0 4 -2 147.54 146.49 3.45 o
1 4 -2 331.90 329.59 7.39 o
2 4 -2 293.79 290.51 6.52 o
3 4 -2 112.25 114.40 2.60 o
4 4 -2 75.02 76.35 1.89 o
5 4 -2 182.72 184.76 4.16 o
6 4 -2 78.92 82.86 2.28 o
-10 5 -2 39.71 35.58 3.53 o
-9 5 -2 38.18 36.89 3.35 o
-8 5 -2 13.06 10.39 4.37 <
-7 5 -2 41.20 44.18 1.50 o
-6 5 -2 21.57 17.63 1.80 o
-5 5 -2 61.34 61.03 1.65 o
-4 5 -2 66.97 68.72 1.80 o
-3 5 -2 162.71 163.54 3.69 o
-2 5 -2 209.91 207.16 4.71 o
-1 5 -2 85.12 84.45 2.35 o
0 5 -2 112.53 110.59 2.83 o
1 5 -2 258.02 253.09 5.82 o
2 5 -2 65.59 64.50 1.74 o
3 5 -2 57.20 59.61 1.60 o
4 5 -2 140.74 139.20 3.29 o
5 5 -2 89.46 93.11 3.41 o
6 5 -2 6.74 22.61 13.38 <
-10 6 -2 38.48 37.24 4.46 o
-9 6 -2 43.99 45.82 2.97 o
-8 6 -2 66.04 62.61 1.88 o
-7 6 -2 77.77 78.29 1.95 o
-6 6 -2 97.95 99.68 2.35 o
-5 6 -2 102.93 104.03 2.43 o
-4 6 -2 126.00 126.88 2.93 o
-3 6 -2 80.10 79.20 2.04 o
-2 6 -2 74.15 72.74 2.06 o
-1 6 -2 73.35 81.11 3.15 o
0 6 -2 100.69 97.66 3.43 o
1 6 -2 112.02 110.91 2.87 o
2 6 -2 15.88 16.31 5.33 <
3 6 -2 86.51 86.87 2.26 o
4 6 -2 86.07 87.17 3.55 o
5 6 -2 40.03 39.00 5.57 o
6 6 -2 46.89 48.59 2.31 o
-10 7 -2 45.03 50.15 4.35 o
-9 7 -2 0.00 25.36 96.12 <
-8 7 -2 45.91 49.27 1.89 o
-7 7 -2 108.06 109.38 2.61 o
-6 7 -2 94.76 94.08 2.37 o
-5 7 -2 41.35 41.63 1.89 o
-4 7 -2 88.82 87.30 2.35 o
-3 7 -2 174.03 174.90 3.99 o
-2 7 -2 71.43 68.04 2.08 o
-1 7 -2 91.69 91.08 2.69 o
0 7 -2 83.94 93.11 3.98 o
1 7 -2 67.39 61.61 2.53 o
2 7 -2 49.06 48.03 2.58 o
3 7 -2 72.07 74.25 3.84 o
4 7 -2 42.07 48.82 6.04 o
5 7 -2 13.94 19.52 5.62 <
-10 8 -2 24.77 19.22 4.20 o
-9 8 -2 0.00 9.52 74.23 <
-8 8 -2 65.49 67.15 2.10 o
-7 8 -2 48.21 45.08 2.03 o
-6 8 -2 43.59 41.91 2.08 o
-5 8 -2 75.73 74.39 2.12 o
-4 8 -2 166.37 162.97 3.86 o
-3 8 -2 71.47 69.90 2.28 o
-2 8 -2 74.45 68.58 2.31 o
-1 8 -2 176.40 175.01 4.21 o
0 8 -2 103.47 103.07 4.14 o
1 8 -2 91.37 81.52 4.30 o
2 8 -2 68.24 68.85 4.43 o
4 8 -2 33.23 35.23 4.07 o
5 8 -2 34.13 30.99 3.58 o
-9 9 -2 18.60 28.82 7.62 <
-8 9 -2 50.13 53.90 2.74 o
-7 9 -2 10.43 10.55 8.26 <
-6 9 -2 42.71 46.74 2.29 o
-5 9 -2 96.30 98.49 2.45 o
-4 9 -2 50.84 42.69 2.03 o
-3 9 -2 28.80 32.54 3.20 o
-2 9 -2 82.42 82.26 2.52 o
-1 9 -2 100.16 92.73 3.04 o
0 9 -2 19.18 20.64 4.90 <
1 9 -2 58.14 56.29 2.60 o
2 9 -2 76.36 72.56 2.88 o
3 9 -2 47.29 46.57 2.89 o
4 9 -2 40.19 29.28 3.02 o
-8 10 -2 43.40 28.98 7.64 o
-7 10 -2 9.41 17.00 14.04 <
-6 10 -2 35.70 44.57 3.80 o
-5 10 -2 39.30 39.06 2.88 o
-4 10 -2 13.33 1.78 7.42 <
-3 10 -2 41.97 46.41 2.91 o
-2 10 -2 47.25 45.41 2.81 o
-1 10 -2 40.61 35.26 3.68 o
0 10 -2 8.32 22.59 11.47 <
1 10 -2 62.14 63.88 2.90 o
2 10 -2 36.06 40.28 4.49 o
-7 11 -2 35.84 39.00 3.65 o
-6 11 -2 37.54 42.61 4.18 o
-5 11 -2 7.64 24.31 18.19 <
-4 11 -2 51.00 48.87 2.87 o
-3 11 -2 66.32 65.19 3.05 o
-2 11 -2 27.65 28.55 4.44 o
-1 11 -2 37.50 39.76 4.13 o
0 11 -2 41.93 28.74 4.10 o
1 11 -2 39.25 35.59 4.34 o
-5 12 -2 35.88 42.70 4.25 o
-4 12 -2 41.98 45.93 4.20 o
-3 12 -2 24.57 24.23 6.59 <
3 -12 -1 30.32 19.88 4.77 o
1 -11 -1 27.29 30.81 5.68 o
2 -11 -1 45.40 36.73 3.43 o
3 -11 -1 11.39 23.27 12.48 <
4 -11 -1 38.63 30.29 4.30 o
-2 -10 -1 47.62 41.75 3.50 o
-1 -10 -1 52.69 45.12 3.40 o
0 -10 -1 60.67 64.92 2.92 o
1 -10 -1 59.04 60.97 2.77 o
2 -10 -1 43.32 46.28 3.47 o
3 -10 -1 59.54 61.68 2.70 o
4 -10 -1 62.82 62.57 3.03 o
5 -10 -1 49.18 48.45 2.71 o
-2 -9 -1 42.84 45.74 2.95 o
-1 -9 -1 56.22 52.86 3.17 o
0 -9 -1 99.52 91.70 3.02 o
1 -9 -1 42.97 37.59 3.56 o
2 -9 -1 90.68 93.89 2.90 o
3 -9 -1 115.95 110.78 3.18 o
4 -9 -1 76.27 73.47 2.80 o
5 -9 -1 61.04 66.54 2.65 o
-4 -8 -1 53.20 42.47 3.05 o
-3 -8 -1 0.00 19.89 65.54 <
-2 -8 -1 53.99 59.15 3.24 o
-1 -8 -1 79.95 80.22 2.71 o
0 -8 -1 27.20 28.29 2.69 o
1 -8 -1 26.34 37.64 4.10 o
2 -8 -1 139.15 134.38 3.49 o
3 -8 -1 69.25 64.68 2.58 o
5 -8 -1 86.39 81.76 2.67 o
-5 -7 -1 67.36 59.63 2.62 o
-4 -7 -1 46.02 44.35 3.16 o
-3 -7 -1 36.54 38.06 2.66 o
-2 -7 -1 138.10 140.16 3.53 o
-1 -7 -1 73.32 77.40 2.59 o
0 -7 -1 31.39 32.78 2.34 o
1 -7 -1 138.20 136.37 3.44 o
2 -7 -1 88.27 92.87 2.60 o
3 -7 -1 29.88 29.93 2.82 o
4 -7 -1 77.66 72.50 2.43 o
5 -7 -1 177.54 176.57 4.16 o
-6 -6 -1 60.05 60.56 2.27 o
-5 -6 -1 39.69 42.36 3.66 o
-4 -6 -1 55.86 51.11 2.60 o
-3 -6 -1 93.05 89.36 2.74 o
-2 -6 -1 134.91 136.00 3.36 o
-1 -6 -1 31.96 38.41 3.03 o
0 -6 -1 140.85 135.82 3.44 o
1 -6 -1 201.07 202.91 4.64 o
2 -6 -1 53.69 49.49 2.32 o
3 -6 -1 142.41 140.56 3.43 o
4 -6 -1 114.71 117.54 2.87 o
5 -6 -1 47.32 43.59 1.90 o
-7 -5 -1 41.96 40.72 4.13 o
-6 -5 -1 55.69 63.21 2.14 o
-5 -5 -1 40.43 40.42 2.81 o
-4 -5 -1 100.70 102.61 2.74 o
-3 -5 -1 146.21 148.08 3.53 o
-2 -5 -1 131.97 125.59 3.24 o
-1 -5 -1 144.17 143.14 3.46 o
0 -5 -1 168.85 171.61 3.95 o
1 -5 -1 270.74 266.66 6.09 o
2 -5 -1 84.27 86.93 2.28 o
3 -5 -1 211.19 209.34 4.80 o
4 -5 -1 184.01 181.85 4.21 o
-8 -4 -1 31.36 23.43 4.03 o
-7 -4 -1 60.96 57.98 3.12 o
-6 -4 -1 29.09 24.15 2.54 o
-5 -4 -1 14.07 26.20 5.21 <
-4 -4 -1 150.97 152.25 3.59 o
-3 -4 -1 86.24 79.39 2.39 o
-2 -4 -1 79.19 82.44 2.21 o
-1 -4 -1 179.39 179.90 4.13 o
0 -4 -1 242.79 239.95 5.46 o
1 -4 -1 322.46 313.87 7.18 o
2 -4 -1 39.90 39.04 1.83 o
3 -4 -1 327.33 332.52 7.27 o
4 -4 -1 162.45 166.05 3.71 o
6 -4 -1 149.58 157.79 3.54 o
11 -4 -1 35.77 22.18 3.94 o
-8 -3 -1 75.59 78.01 2.83 o
-7 -3 -1 37.81 36.65 2.23 o
-6 -3 -1 38.63 36.96 1.85 o
-5 -3 -1 89.50 85.85 2.36 o
-4 -3 -1 127.66 121.33 2.96 o
-3 -3 -1 45.36 43.99 1.49 o
-2 -3 -1 50.21 49.94 1.50 o
-1 -3 -1 364.86 366.58 8.09 o
0 -3 -1 110.16 116.45 2.65 o
1 -3 -1 172.19 169.17 3.90 o
2 -3 -1 206.61 207.66 4.61 o
3 -3 -1 376.15 384.35 8.31 o
4 -3 -1 12.83 27.15 6.85 <
5 -3 -1 127.96 131.11 3.07 o
6 -3 -1 201.73 206.07 4.62 o
10 -3 -1 67.32 66.43 2.47 o
11 -3 -1 37.56 37.28 3.61 o
-9 -2 -1 53.18 44.15 3.61 o
-8 -2 -1 85.88 81.24 3.01 o
-7 -2 -1 32.75 33.77 1.52 o
-6 -2 -1 112.35 111.77 2.61 o
-5 -2 -1 147.12 145.34 3.32 o
-4 -2 -1 116.35 119.29 2.70 o
-3 -2 -1 225.88 225.24 5.02 o
-2 -2 -1 286.30 281.74 6.33 o
-1 -2 -1 302.59 296.18 6.68 o
3 -2 -1 114.60 112.14 2.61 o
4 -2 -1 110.59 112.98 2.67 o
5 -2 -1 199.56 197.62 4.55 o
6 -2 -1 63.12 63.93 2.08 o
9 -2 -1 55.07 55.71 2.59 o
10 -2 -1 0.00 29.38 70.23 <
-9 -1 -1 61.76 57.79 3.25 o
-8 -1 -1 47.76 45.50 2.35 o
-7 -1 -1 57.36 57.80 1.62 o
-6 -1 -1 134.56 137.21 3.05 o
-5 -1 -1 127.91 125.54 2.91 o
-4 -1 -1 159.29 157.62 3.56 o
-3 -1 -1 196.13 198.46 4.36 o
-2 -1 -1 229.66 220.41 5.08 o
3 -1 -1 261.44 266.74 5.78 o
4 -1 -1 302.76 304.29 6.69 o
5 -1 -1 78.16 78.80 1.90 o
6 -1 -1 64.66 61.12 2.08 o
8 -1 -1 81.42 80.69 2.45 o
9 -1 -1 0.00 19.85 65.35 <
-9 0 -1 12.15 15.60 6.89 <
-8 0 -1 34.20 31.22 2.50 o
-7 0 -1 71.02 69.20 2.11 o
-6 0 -1 103.91 105.55 2.41 o
-5 0 -1 80.67 79.96 1.94 o
-4 0 -1 190.27 189.85 4.23 o
-3 0 -1 451.53 448.53 9.95 o
-2 0 -1 38.05 43.71 1.07 o
3 0 -1 311.01 318.05 6.88 o
4 0 -1 253.44 258.78 5.63 o
5 0 -1 99.71 100.03 2.32 o
6 0 -1 129.87 130.93 3.15 o
7 0 -1 98.89 99.45 2.57 o
8 0 -1 70.08 66.93 2.24 o
9 0 -1 45.16 46.66 2.38 o
-10 1 -1 15.13 23.80 8.47 <
-9 1 -1 40.65 38.82 3.58 o
-8 1 -1 62.33 65.18 2.18 o
-7 1 -1 88.32 81.40 2.42 o
-6 1 -1 114.06 115.99 2.62 o
-5 1 -1 20.27 17.74 1.63 o
-4 1 -1 277.58 267.90 6.13 o
-3 1 -1 141.71 154.50 3.15 o
2 1 -1 184.14 175.83 4.07 o
3 1 -1 159.56 163.96 3.54 o
4 1 -1 192.83 195.05 4.27 o
5 1 -1 55.98 53.54 1.40 o
6 1 -1 170.55 173.52 3.80 o
7 1 -1 111.31 111.60 2.74 o
8 1 -1 60.91 58.54 1.98 o
-10 2 -1 36.37 34.86 4.77 o
-9 2 -1 65.56 61.69 3.05 o
-8 2 -1 90.40 94.51 2.83 o
-7 2 -1 86.73 81.15 2.79 o
-6 2 -1 48.16 50.47 1.43 o
-5 2 -1 218.04 209.87 4.84 o
-4 2 -1 195.80 197.12 4.35 o
-3 2 -1 77.38 74.98 1.92 o
-2 2 -1 135.41 136.36 3.03 o
1 2 -1 213.06 206.45 4.72 o
2 2 -1 409.79 406.69 9.03 o
3 2 -1 195.46 192.30 4.33 o
4 2 -1 133.40 130.45 3.00 o
5 2 -1 26.90 23.04 1.35 o
6 2 -1 137.96 135.44 3.12 o
7 2 -1 57.08 59.92 1.50 o
-10 3 -1 0.00 21.84 84.76 <
-9 3 -1 59.63 53.45 3.09 o
-8 3 -1 64.57 64.82 2.34 o
-7 3 -1 92.86 92.91 2.16 o
-6 3 -1 155.29 157.27 3.47 o
-5 3 -1 201.84 201.21 4.48 o
-4 3 -1 64.20 64.36 1.57 o
-3 3 -1 186.27 192.97 4.15 o
-2 3 -1 373.43 371.17 8.24 o
-1 3 -1 373.85 371.83 8.28 o
0 3 -1 329.34 321.93 7.31 o
1 3 -1 63.02 69.16 1.78 o
2 3 -1 355.33 350.48 7.84 o
3 3 -1 37.73 37.07 1.21 o
4 3 -1 95.22 95.76 2.20 o
5 3 -1 76.55 75.70 1.85 o
6 3 -1 105.69 107.30 2.48 o
7 3 -1 39.13 43.33 1.78 o
-9 4 -1 70.68 71.32 2.38 o
-8 4 -1 68.29 69.01 2.34 o
-7 4 -1 84.89 82.43 2.01 o
-6 4 -1 93.09 98.25 2.16 o
-5 4 -1 143.45 146.96 3.23 o
-4 4 -1 184.04 182.62 4.10 o
-3 4 -1 294.00 292.76 6.51 o
-2 4 -1 149.50 152.66 3.46 o
-1 4 -1 243.32 244.62 5.46 o
0 4 -1 183.67 186.14 4.19 o
1 4 -1 305.60 303.12 6.77 o
2 4 -1 240.35 233.38 5.34 o
3 4 -1 30.96 29.79 1.33 o
4 4 -1 172.23 172.76 3.90 o
5 4 -1 86.34 90.40 2.40 o
6 4 -1 59.73 53.99 3.35 o
-11 5 -1 20.12 11.37 6.64 <
-10 5 -1 50.37 51.57 2.46 o
-9 5 -1 52.26 51.64 2.60 o
-8 5 -1 26.36 30.12 1.93 o
-7 5 -1 71.11 71.35 1.77 o
-6 5 -1 114.23 116.04 2.61 o
-5 5 -1 123.72 124.30 2.82 o
-4 5 -1 66.59 64.16 1.69 o
-3 5 -1 80.71 85.76 2.00 o
-2 5 -1 183.74 185.98 4.16 o
-1 5 -1 184.95 182.10 4.25 o
0 5 -1 168.77 169.98 3.93 o
1 5 -1 177.17 173.91 4.00 o
2 5 -1 175.25 174.05 3.97 o
3 5 -1 94.65 94.93 2.57 o
4 5 -1 139.23 139.72 3.39 o
5 5 -1 71.24 62.37 3.65 o
-11 6 -1 19.67 28.35 6.39 <
-10 6 -1 54.44 54.01 2.64 o
-9 6 -1 13.27 13.94 8.37 <
-8 6 -1 44.24 45.65 1.66 o
-7 6 -1 96.54 96.80 2.28 o
-6 6 -1 70.02 74.91 1.83 o
-5 6 -1 32.83 30.83 1.44 o
-4 6 -1 90.40 90.91 2.16 o
-3 6 -1 195.99 192.60 4.45 o
-2 6 -1 50.53 49.07 1.93 o
-1 6 -1 78.32 78.11 2.36 o
0 6 -1 158.24 152.73 4.34 o
1 6 -1 62.76 57.40 2.30 o
2 6 -1 66.77 66.52 2.37 o
3 6 -1 60.86 64.88 2.35 o
4 6 -1 97.00 97.66 3.81 o
5 6 -1 40.34 34.29 6.12 o
-10 7 -1 37.48 36.33 3.20 o
-9 7 -1 32.96 40.35 3.65 o
-8 7 -1 80.47 79.98 2.09 o
-7 7 -1 96.50 95.63 2.41 o
-6 7 -1 43.35 44.70 1.91 o
-5 7 -1 105.88 108.35 2.55 o
-4 7 -1 140.78 136.21 3.26 o
-3 7 -1 60.53 61.82 2.53 o
-2 7 -1 69.15 72.42 2.35 o
-1 7 -1 99.21 101.82 2.73 o
0 7 -1 128.46 129.37 3.18 o
1 7 -1 0.00 8.96 36.84 <
2 7 -1 67.58 66.53 4.16 o
3 7 -1 65.04 66.10 4.64 o
4 7 -1 16.44 31.87 15.20 <
-10 8 -1 37.37 39.07 2.73 o
-9 8 -1 39.36 34.97 3.56 o
-8 8 -1 43.22 45.19 1.90 o
-7 8 -1 57.36 57.67 2.06 o
-6 8 -1 78.59 77.12 2.16 o
-5 8 -1 126.92 120.97 2.99 o
-4 8 -1 78.94 80.35 2.14 o
-3 8 -1 73.00 74.81 2.08 o
-2 8 -1 126.85 129.64 3.27 o
-1 8 -1 128.61 131.37 4.24 o
0 8 -1 75.44 74.37 3.83 o
1 8 -1 44.18 45.68 4.71 o
2 8 -1 85.79 84.02 4.76 o
5 8 -1 42.10 34.72 3.26 o
-9 9 -1 18.56 20.14 4.18 o
-8 9 -1 36.87 40.64 2.61 o
-7 9 -1 32.97 35.07 2.71 o
-6 9 -1 55.03 48.84 2.11 o
-5 9 -1 57.16 59.79 2.01 o
-4 9 -1 47.19 50.60 1.98 o
-3 9 -1 80.84 80.82 2.16 o
-2 9 -1 90.47 91.76 4.53 o
4 9 -1 22.49 29.25 5.96 <
-9 10 -1 42.17 33.88 4.70 o
-8 10 -1 31.95 18.33 3.76 o
-7 10 -1 35.29 24.77 3.47 o
-6 10 -1 62.61 56.66 2.80 o
-4 10 -1 0.00 23.71 80.20 <
-3 10 -1 56.08 51.36 2.73 o
-2 10 -1 64.20 56.19 2.70 o
-8 11 -1 16.10 22.13 5.39 <
-7 11 -1 49.42 50.49 2.81 o
-6 11 -1 40.82 35.13 3.81 o
-5 11 -1 26.05 23.44 5.51 o
-4 11 -1 55.55 51.99 2.80 o
-3 11 -1 62.71 56.63 2.74 o
-2 11 -1 0.00 12.79 79.14 <
0 11 -1 63.19 62.58 3.47 o
-5 12 -1 14.29 27.79 10.63 <
-4 12 -1 53.38 49.31 3.04 o
-3 12 -1 3.18 26.22 33.87 <
0 -11 0 61.45 54.93 2.93 o
1 -11 0 0.00 21.67 72.28 <
2 -11 0 22.34 21.15 7.00 <
-2 -10 0 23.11 22.21 6.54 <
-1 -10 0 81.99 75.18 3.11 o
0 -10 0 55.95 55.83 3.25 o
1 -10 0 25.14 9.97 5.39 o
2 -10 0 55.50 50.30 2.79 o
3 -10 0 76.51 69.70 2.74 o
-4 -9 0 36.03 35.60 4.04 o
-3 -9 0 16.75 29.92 8.02 <
-2 -9 0 61.46 52.59 3.07 o
-1 -9 0 98.58 87.88 2.94 o
0 -9 0 69.25 68.37 2.66 o
1 -9 0 64.23 57.96 2.83 o
2 -9 0 135.47 129.55 3.48 o
3 -9 0 89.50 88.40 2.72 o
4 -9 0 67.86 70.63 2.80 o
-5 -8 0 0.00 26.79 75.96 <
-4 -8 0 28.11 22.93 3.35 o
-3 -8 0 42.95 37.59 3.17 o
-2 -8 0 56.87 49.78 3.22 o
-1 -8 0 106.21 99.02 3.01 o
0 -8 0 37.73 37.67 1.94 o
1 -8 0 94.29 88.80 2.83 o
2 -8 0 117.69 119.59 3.15 o
3 -8 0 38.66 43.11 2.58 o
4 -8 0 96.81 97.00 2.70 o
-6 -7 0 49.01 50.00 3.20 o
-5 -7 0 54.13 53.57 2.41 o
-4 -7 0 36.17 29.48 4.01 o
-3 -7 0 73.84 76.15 2.74 o
-2 -7 0 59.83 64.37 2.73 o
-1 -7 0 54.38 58.62 1.96 o
0 -7 0 7.96 6.68 8.01 <
1 -7 0 118.90 116.89 3.09 o
2 -7 0 140.50 137.90 3.48 o
3 -7 0 95.36 93.79 2.70 o
4 -7 0 106.91 104.71 2.82 o
-6 -6 0 60.74 57.75 2.11 o
-5 -6 0 37.80 35.27 3.33 o
-4 -6 0 45.66 48.41 2.60 o
-3 -6 0 143.87 141.85 3.54 o
-2 -6 0 70.87 67.48 2.35 o
-1 -6 0 70.41 69.25 2.00 o
0 -6 0 146.26 151.03 3.38 o
1 -6 0 141.94 145.46 3.42 o
2 -6 0 37.69 42.14 2.39 o
3 -6 0 9.42 13.05 5.69 <
4 -6 0 150.49 153.21 3.55 o
-7 -5 0 41.33 45.21 4.13 o
-6 -5 0 52.89 50.62 2.09 o
-5 -5 0 49.32 53.11 2.40 o
-4 -5 0 117.45 109.19 3.00 o
-3 -5 0 169.36 163.31 3.97 o
-2 -5 0 59.78 62.01 2.21 o
-1 -5 0 232.14 236.74 5.19 o
0 -5 0 276.01 282.35 6.20 o
1 -5 0 119.61 115.65 2.93 o
2 -5 0 216.17 210.44 4.91 o
3 -5 0 209.71 211.27 4.76 o
-8 -4 0 37.91 35.65 4.34 o
-7 -4 0 67.14 64.89 2.98 o
-6 -4 0 36.11 35.87 2.02 o
-5 -4 0 87.45 87.80 2.40 o
-4 -4 0 115.37 111.22 2.87 o
-3 -4 0 73.36 71.71 2.17 o
-2 -4 0 135.72 136.43 3.24 o
-1 -4 0 220.32 229.52 4.92 o
0 -4 0 168.51 165.60 3.88 o
1 -4 0 130.94 127.01 3.09 o
2 -4 0 296.80 307.39 6.61 o
3 -4 0 183.65 181.06 4.17 o
5 -4 0 174.97 173.87 4.04 o
6 -4 0 239.78 239.56 5.43 o
-9 -3 0 36.03 30.52 4.97 o
-8 -3 0 56.21 50.08 2.80 o
-7 -3 0 30.72 30.95 2.44 o
-6 -3 0 20.38 11.40 2.87 o
-5 -3 0 97.82 97.97 2.49 o
-4 -3 0 47.14 45.12 1.86 o
-3 -3 0 154.95 157.46 3.58 o
-2 -3 0 113.96 117.52 2.75 o
-1 -3 0 72.61 70.29 1.79 o
0 -3 0 343.43 340.73 7.62 o
1 -3 0 159.17 161.24 3.63 o
2 -3 0 444.14 441.66 9.81 o
4 -3 0 217.22 220.29 4.89 o
5 -3 0 185.91 191.41 4.25 o
6 -3 0 122.50 119.84 2.98 o
11 -3 0 31.55 32.90 4.01 o
-9 -2 0 60.75 56.55 3.39 o
-8 -2 0 58.12 55.67 3.26 o
-7 -2 0 57.13 52.64 1.76 o
-6 -2 0 97.08 97.89 2.34 o
-5 -2 0 153.77 154.39 3.46 o
-4 -2 0 67.72 64.66 1.73 o
-3 -2 0 135.82 129.32 3.07 o
-2 -2 0 321.97 326.16 7.11 o
-1 -2 0 102.35 100.42 2.34 o
3 -2 0 89.47 86.27 2.19 o
4 -2 0 246.62 246.44 5.52 o
5 -2 0 94.20 95.03 2.41 o
6 -2 0 68.73 66.93 2.04 o
10 -2 0 24.42 32.35 4.33 o
-10 -1 0 22.26 38.26 7.49 <
-9 -1 0 47.35 48.69 3.68 o
-8 -1 0 28.91 25.97 4.55 o
-7 -1 0 95.00 92.92 2.46 o
-6 -1 0 175.31 178.24 3.92 o
-5 -1 0 119.14 118.82 2.70 o
-4 -1 0 155.68 150.93 3.48 o
-3 -1 0 324.53 324.30 7.17 o
-2 -1 0 451.28 462.44 9.94 o
3 -1 0 159.08 159.16 3.53 o
4 -1 0 196.98 194.55 4.36 o
5 -1 0 115.67 118.14 2.81 o
6 -1 0 34.81 26.80 2.40 o
9 -1 0 31.80 27.43 2.99 o
-8 0 0 44.87 49.25 2.37 o
-7 0 0 143.61 138.87 3.36 o
-6 0 0 58.69 53.69 1.94 o
-5 0 0 99.16 101.93 2.29 o
-4 0 0 298.63 299.46 6.59 o
-3 0 0 319.02 313.98 7.04 o
3 0 0 350.18 343.89 7.72 o
4 0 0 294.15 292.54 6.50 o
5 0 0 94.48 96.19 2.16 o
7 0 0 148.70 142.87 3.50 o
8 0 0 43.80 47.07 2.20 o
9 0 0 0.00 19.62 61.83 <
-9 1 0 34.99 30.26 4.03 o
-8 1 0 63.15 57.72 2.22 o
-7 1 0 42.08 47.31 2.02 o
-6 1 0 39.09 32.01 2.18 o
-5 1 0 117.34 118.50 2.71 o
-4 1 0 195.22 193.85 4.32 o
-3 1 0 143.05 141.38 3.18 o
2 1 0 445.00 456.11 9.80 o
3 1 0 333.57 326.94 7.35 o
4 1 0 140.31 136.07 3.13 o
5 1 0 123.28 122.56 2.77 o
6 1 0 181.07 179.53 4.04 o
7 1 0 92.03 91.32 2.35 o
8 1 0 20.12 25.03 2.84 o
-10 2 0 28.60 33.36 4.83 o
-9 2 0 51.79 47.80 2.75 o
-8 2 0 98.58 99.78 2.98 o
-7 2 0 89.46 92.88 2.44 o
-6 2 0 68.77 65.96 1.98 o
-5 2 0 82.36 84.95 1.88 o
-4 2 0 253.61 254.11 5.60 o
-3 2 0 95.87 92.47 2.17 o
1 2 0 106.56 101.00 2.40 o
2 2 0 299.65 301.94 6.62 o
3 2 0 150.64 144.02 3.36 o
4 2 0 65.46 62.87 1.60 o
5 2 0 156.92 156.02 3.53 o
6 2 0 94.93 94.54 2.23 o
7 2 0 54.05 52.75 1.72 o
-11 3 0 43.66 32.10 4.54 o
-10 3 0 41.47 33.38 4.14 o
-9 3 0 89.55 92.16 2.80 o
-8 3 0 117.47 116.71 2.96 o
-7 3 0 51.81 53.27 2.18 o
-6 3 0 134.38 129.87 3.01 o
-5 3 0 186.68 192.23 4.14 o
-4 3 0 215.74 217.58 4.78 o
-3 3 0 118.30 113.51 2.66 o
-2 3 0 444.40 444.18 9.81 o
-1 3 0 172.40 178.03 3.86 o
0 3 0 330.79 329.72 7.34 o
1 3 0 84.98 82.29 2.02 o
2 3 0 109.23 111.23 2.50 o
3 3 0 153.74 153.21 3.48 o
4 3 0 47.71 42.67 1.59 o
5 3 0 95.56 98.54 2.46 o
6 3 0 26.55 13.55 4.27 o
-11 4 0 8.41 18.35 19.46 <
-10 4 0 22.14 43.12 5.04 o
-9 4 0 56.80 55.06 2.28 o
-8 4 0 0.00 11.72 80.22 <
-7 4 0 40.13 41.20 1.34 o
-6 4 0 245.10 242.52 5.43 o
-5 4 0 160.10 161.68 3.58 o
-4 4 0 110.94 111.31 2.53 o
-3 4 0 197.51 196.84 4.41 o
-2 4 0 300.17 307.51 6.66 o
-1 4 0 121.12 119.65 2.79 o
0 4 0 153.44 152.07 3.57 o
1 4 0 243.09 243.08 5.41 o
2 4 0 124.38 125.49 2.87 o
3 4 0 68.38 69.29 1.87 o
4 4 0 116.03 110.38 2.91 o
5 4 0 87.74 86.78 2.39 o
6 4 0 31.06 36.41 5.06 o
-11 5 0 30.45 24.13 5.09 o
-10 5 0 61.16 56.63 2.50 o
-9 5 0 46.55 48.76 2.49 o
-8 5 0 46.83 50.87 1.51 o
-7 5 0 121.68 124.41 2.76 o
-6 5 0 90.16 88.16 2.14 o
-5 5 0 19.94 22.34 1.95 o
-4 5 0 225.22 224.00 5.00 o
-3 5 0 204.25 205.53 4.56 o
-2 5 0 203.87 201.88 4.59 o
-1 5 0 140.78 136.41 3.23 o
0 5 0 275.45 279.36 6.12 o
1 5 0 248.35 243.28 5.54 o
2 5 0 51.81 52.19 1.76 o
3 5 0 175.13 170.45 4.59 o
4 5 0 111.56 109.10 3.73 o
5 5 0 53.29 50.63 4.12 o
-11 6 0 33.67 33.88 3.10 o
-10 6 0 47.74 42.08 2.34 o
-9 6 0 19.43 5.23 4.47 o
-8 6 0 64.22 63.52 1.83 o
-7 6 0 32.65 31.64 1.76 o
-6 6 0 41.13 43.53 1.49 o
-5 6 0 57.32 53.33 1.60 o
-4 6 0 145.13 147.87 3.32 o
-3 6 0 27.26 25.22 1.68 o
-2 6 0 53.79 46.79 1.78 o
-1 6 0 143.75 152.89 4.09 o
0 6 0 140.72 141.13 4.07 o
1 6 0 72.01 71.05 2.29 o
2 6 0 66.61 66.67 3.82 o
3 6 0 144.87 144.20 4.26 o
4 6 0 50.49 48.24 4.88 o
5 6 0 41.43 36.12 6.14 o
-11 7 0 7.09 24.82 21.03 <
-10 7 0 22.48 18.18 4.63 o
-9 7 0 66.16 64.32 2.35 o
-8 7 0 87.00 85.97 2.16 o
-7 7 0 51.93 53.37 1.84 o
-6 7 0 97.80 94.91 2.40 o
-5 7 0 64.87 64.76 1.87 o
-4 7 0 107.59 106.18 2.67 o
-3 7 0 91.65 90.57 2.38 o
-2 7 0 135.85 133.40 3.38 o
-1 7 0 119.52 119.88 3.79 o
0 7 0 0.00 3.98 83.83 <
1 7 0 57.65 59.00 3.73 o
2 7 0 53.55 60.97 4.87 o
3 7 0 72.30 75.84 4.32 o
4 7 0 24.78 30.31 10.74 <
-10 8 0 44.23 48.47 2.86 o
-9 8 0 69.28 70.68 2.34 o
-8 8 0 59.93 56.19 2.08 o
-7 8 0 64.79 64.45 1.95 o
-6 8 0 94.04 95.45 2.36 o
-5 8 0 86.69 86.91 2.26 o
-4 8 0 101.73 100.95 2.61 o
-3 8 0 41.06 44.30 2.86 o
-2 8 0 119.27 115.27 4.12 o
-1 8 0 96.22 88.55 4.12 o
0 8 0 44.23 37.98 5.85 o
1 8 0 102.50 97.75 4.25 o
-10 9 0 16.08 30.52 7.01 <
-9 9 0 35.93 28.76 2.86 o
-8 9 0 24.21 28.42 4.12 o
-7 9 0 13.79 22.58 8.08 <
-6 9 0 81.00 79.29 2.34 o
-5 9 0 76.68 77.65 2.31 o
-4 9 0 72.22 69.23 2.71 o
-3 9 0 87.73 92.10 3.97 o
-2 9 0 119.96 128.18 4.21 o
-8 10 0 32.17 21.51 3.67 o
-7 10 0 35.47 39.12 2.97 o
-6 10 0 63.82 66.14 2.80 o
-5 10 0 4.66 8.33 18.50 <
-4 10 0 55.73 48.14 3.11 o
-8 11 0 33.70 27.82 3.62 o
-7 11 0 43.93 35.50 2.93 o
-6 11 0 21.15 22.76 6.48 <
-5 11 0 30.33 17.76 4.67 o
-4 11 0 36.34 32.74 4.14 o
-3 11 0 27.23 23.31 4.62 o
-5 12 0 40.14 37.41 4.42 o
-4 12 0 51.29 49.26 3.78 o
-3 12 0 44.28 41.27 4.02 o
-2 -10 1 40.71 27.75 3.53 o
-1 -10 1 55.55 57.89 3.38 o
0 -10 1 53.53 58.92 3.22 o
1 -10 1 0.00 11.73 79.58 <
2 -10 1 53.28 54.33 2.73 o
-3 -9 1 27.91 33.82 4.34 o
-2 -9 1 79.27 80.10 2.96 o
-1 -9 1 77.07 73.20 2.67 o
0 -9 1 69.21 61.50 2.59 o
1 -9 1 57.92 57.07 2.95 o
2 -9 1 96.46 90.59 2.86 o
-4 -8 1 28.67 26.76 4.03 o
-3 -8 1 63.36 58.71 2.81 o
-2 -8 1 93.72 83.62 2.77 o
-1 -8 1 48.30 44.60 3.05 o
0 -8 1 74.39 73.92 2.08 o
1 -8 1 131.03 136.96 3.09 o
2 -8 1 126.82 123.29 3.29 o
3 -8 1 68.04 72.39 2.63 o
-6 -7 1 42.97 42.50 3.35 o
-5 -7 1 27.57 26.89 3.33 o
-4 -7 1 39.46 35.63 3.08 o
-3 -7 1 72.29 64.25 2.59 o
-2 -7 1 72.04 68.36 2.07 o
-1 -7 1 5.26 4.75 14.85 <
0 -7 1 129.34 130.75 3.06 o
1 -7 1 107.22 104.02 2.90 o
2 -7 1 71.46 71.09 2.46 o
3 -7 1 76.40 73.53 2.53 o
-7 -6 1 45.10 49.69 3.38 o
-6 -6 1 58.20 59.56 2.14 o
-5 -6 1 21.92 31.61 4.28 o
-4 -6 1 99.20 96.09 2.72 o
-3 -6 1 63.30 64.91 2.47 o
-2 -6 1 66.90 62.39 2.02 o
-1 -6 1 60.70 61.30 1.89 o
0 -6 1 146.80 143.99 3.39 o
1 -6 1 89.35 83.32 2.50 o
2 -6 1 53.25 52.23 2.29 o
3 -6 1 200.60 193.26 4.61 o
-7 -5 1 59.89 59.09 3.30 o
-6 -5 1 51.97 49.24 2.09 o
-5 -5 1 65.71 59.20 2.26 o
-4 -5 1 141.47 142.23 3.42 o
-3 -5 1 96.53 97.92 2.57 o
-2 -5 1 172.63 169.99 3.92 o
-1 -5 1 178.47 180.56 4.04 o
0 -5 1 165.56 167.05 3.87 o
1 -5 1 189.38 184.21 4.35 o
2 -5 1 165.28 169.22 3.84 o
-8 -4 1 51.48 55.30 3.52 o
-7 -4 1 27.32 31.35 5.05 o
-6 -4 1 55.96 57.81 1.95 o
-5 -4 1 90.53 90.27 2.45 o
-4 -4 1 177.31 175.60 4.10 o
-3 -4 1 25.11 29.77 2.69 o
-2 -4 1 227.53 224.44 5.07 o
-1 -4 1 309.23 318.70 6.85 o
0 -4 1 169.82 172.65 3.90 o
1 -4 1 242.37 240.21 5.44 o
2 -4 1 139.00 142.40 3.25 o
5 -4 1 133.78 136.97 3.18 o
6 -4 1 98.95 106.06 2.54 o
-9 -3 1 42.96 51.78 4.26 o
-8 -3 1 46.65 33.90 3.00 o
-7 -3 1 56.96 45.23 3.05 o
-6 -3 1 107.12 107.09 2.58 o
-5 -3 1 70.47 72.42 1.86 o
-4 -3 1 102.68 101.38 2.55 o
-3 -3 1 34.30 37.17 1.97 o
-2 -3 1 342.89 343.85 7.58 o
-1 -3 1 77.92 84.12 1.90 o
0 -3 1 311.94 308.97 6.93 o
1 -3 1 388.15 394.40 8.59 o
4 -3 1 59.92 60.47 1.79 o
5 -3 1 209.46 207.30 4.75 o
6 -3 1 153.85 158.33 3.62 o
-9 -2 1 62.02 56.39 3.41 o
-8 -2 1 9.15 23.66 14.62 <
-7 -2 1 59.92 60.44 2.82 o
-6 -2 1 134.69 132.20 3.11 o
-5 -2 1 26.51 24.50 1.71 o
-4 -2 1 136.02 134.23 3.14 o
-3 -2 1 201.16 198.32 4.51 o
-2 -2 1 386.24 385.19 8.52 o
-1 -2 1 183.85 179.63 4.09 o
3 -2 1 76.48 72.00 1.79 o
4 -2 1 217.55 217.45 4.83 o
5 -2 1 214.31 209.20 4.76 o
6 -2 1 47.94 48.84 2.03 o
10 -2 1 33.67 33.40 3.35 o
-10 -1 1 49.03 43.92 3.81 o
-9 -1 1 23.86 30.85 6.22 <
-8 -1 1 57.46 59.61 3.03 o
-7 -1 1 110.09 109.53 3.06 o
-6 -1 1 167.01 173.33 3.75 o
-5 -1 1 62.45 60.21 1.55 o
-4 -1 1 178.58 181.87 3.97 o
-3 -1 1 169.21 173.07 3.76 o
-2 -1 1 188.18 177.99 4.19 o
3 -1 1 171.76 179.68 3.82 o
4 -1 1 276.41 265.89 6.10 o
5 -1 1 21.12 20.23 1.38 o
6 -1 1 111.92 115.52 2.56 o
9 -1 1 31.05 37.59 2.93 o
-10 0 1 42.24 43.04 3.30 o
-9 0 1 46.05 47.79 3.47 o
-8 0 1 75.41 67.24 2.17 o
-7 0 1 100.51 101.42 2.55 o
-6 0 1 129.74 127.71 3.04 o
-5 0 1 97.63 97.27 2.38 o
-4 0 1 247.30 249.13 5.50 o
-3 0 1 343.45 349.18 7.58 o
2 0 1 53.63 57.16 1.32 o
3 0 1 439.01 430.09 9.67 o
4 0 1 207.16 203.10 4.60 o
5 0 1 76.46 75.87 1.84 o
6 0 1 107.58 109.51 2.51 o
8 0 1 32.26 29.23 2.29 o
-9 1 1 22.19 19.24 4.67 o
-8 1 1 86.80 81.03 2.40 o
-7 1 1 56.53 58.79 1.91 o
-6 1 1 61.29 58.04 1.84 o
-5 1 1 98.29 95.31 2.33 o
-4 1 1 301.98 300.80 6.68 o
-3 1 1 268.00 271.56 5.92 o
2 1 1 240.56 226.61 5.35 o
3 1 1 195.58 197.50 4.35 o
4 1 1 167.29 164.70 3.75 o
5 1 1 120.68 117.37 2.73 o
6 1 1 138.54 138.86 3.13 o
7 1 1 59.48 57.84 1.74 o
-9 2 1 57.15 55.32 3.21 o
-8 2 1 92.48 91.40 2.74 o
-7 2 1 21.74 22.84 2.90 o
-6 2 1 56.38 62.24 1.93 o
-5 2 1 206.21 203.05 4.63 o
-4 2 1 122.02 122.65 2.72 o
-3 2 1 114.82 113.12 2.60 o
1 2 1 305.66 294.69 6.78 o
2 2 1 307.80 299.92 6.83 o
3 2 1 222.10 223.40 4.98 o
4 2 1 119.61 120.83 2.71 o
5 2 1 147.85 143.24 3.34 o
6 2 1 112.81 114.09 2.61 o
-10 3 1 71.58 67.34 2.77 o
-9 3 1 75.78 71.76 2.97 o
-8 3 1 74.27 75.69 2.19 o
-7 3 1 78.59 74.37 2.21 o
-6 3 1 200.27 200.54 4.53 o
-5 3 1 135.04 133.68 3.02 o
-4 3 1 29.19 30.01 1.29 o
-3 3 1 391.99 396.91 8.65 o
-2 3 1 187.42 190.11 4.17 o
-1 3 1 181.40 176.77 4.10 o
0 3 1 121.51 127.27 2.86 o
1 3 1 358.35 355.88 7.95 o
2 3 1 42.94 41.75 1.76 o
3 3 1 53.60 50.00 1.93 o
4 3 1 134.92 128.63 3.21 o
5 3 1 88.43 83.91 2.33 o
6 3 1 34.61 31.20 4.12 o
-11 4 1 27.34 21.04 4.52 o
-10 4 1 52.23 53.60 2.41 o
-9 4 1 49.19 37.66 2.35 o
-8 4 1 77.12 74.86 2.21 o
-7 4 1 109.09 104.76 2.49 o
-6 4 1 148.15 152.79 3.31 o
-5 4 1 168.26 169.66 3.75 o
-4 4 1 158.73 160.86 3.58 o
-3 4 1 317.59 324.20 7.02 o
-2 4 1 61.29 62.60 1.58 o
-1 4 1 314.89 305.42 7.01 o
0 4 1 250.92 244.77 5.64 o
1 4 1 161.80 166.94 3.75 o
2 4 1 85.99 87.11 2.30 o
3 4 1 86.97 76.62 2.41 o
4 4 1 155.17 154.21 3.67 o
5 4 1 25.79 24.34 5.22 o
6 4 1 36.96 22.69 4.90 o
-11 5 1 38.42 33.39 3.64 o
-10 5 1 55.97 50.85 2.37 o
-9 5 1 39.93 43.50 2.38 o
-8 5 1 59.28 59.75 1.50 o
-7 5 1 91.15 89.55 2.14 o
-6 5 1 112.62 115.72 2.59 o
-5 5 1 123.95 120.48 2.83 o
-4 5 1 168.08 165.85 3.79 o
-3 5 1 221.15 220.66 4.92 o
-2 5 1 93.21 94.68 2.20 o
-1 5 1 261.68 263.03 5.89 o
0 5 1 181.54 179.17 4.20 o
1 5 1 139.27 138.25 3.37 o
2 5 1 134.53 130.24 3.84 o
3 5 1 145.25 142.11 4.06 o
4 5 1 107.13 103.08 3.77 o
5 5 1 19.69 39.66 8.31 <
-11 6 1 47.68 40.93 2.89 o
-10 6 1 22.95 19.22 4.42 o
-9 6 1 11.70 13.50 7.66 <
-8 6 1 92.54 98.62 2.20 o
-7 6 1 78.93 79.83 1.92 o
-6 6 1 70.64 72.74 1.82 o
-5 6 1 47.19 47.54 1.65 o
-4 6 1 119.42 122.22 2.78 o
-3 6 1 141.55 142.28 3.23 o
-2 6 1 48.48 42.53 2.30 o
-1 6 1 202.51 198.63 5.09 o
0 6 1 145.66 146.89 4.17 o
1 6 1 31.30 38.30 4.48 o
2 6 1 140.58 141.10 4.21 o
3 6 1 81.98 86.62 3.81 o
4 6 1 46.96 49.92 5.47 o
5 6 1 41.04 43.03 6.41 o
-11 7 1 25.36 20.70 4.77 o
-10 7 1 21.90 20.01 4.36 o
-9 7 1 65.64 66.28 2.28 o
-8 7 1 88.96 89.53 2.18 o
-7 7 1 9.11 7.24 5.32 <
-6 7 1 74.69 75.33 2.07 o
-5 7 1 174.68 176.10 4.03 o
-4 7 1 63.81 67.36 2.08 o
-3 7 1 38.43 37.37 5.05 o
-2 7 1 109.16 103.66 3.79 o
-1 7 1 126.63 129.64 3.91 o
0 7 1 10.22 26.26 17.96 <
1 7 1 76.27 74.81 4.18 o
2 7 1 142.10 143.83 4.30 o
3 7 1 28.65 37.39 9.11 <
-10 8 1 52.53 51.97 2.38 o
-9 8 1 54.95 58.14 2.31 o
-8 8 1 41.46 38.77 2.10 o
-7 8 1 48.45 50.77 1.98 o
-6 8 1 115.22 114.41 2.82 o
-5 8 1 76.90 76.12 2.51 o
-4 8 1 10.63 22.37 9.48 <
-3 8 1 64.71 63.70 3.69 o
-2 8 1 131.90 135.27 4.14 o
-1 8 1 36.52 30.85 6.42 o
0 8 1 25.63 34.09 8.73 <
1 8 1 85.06 77.57 4.55 o
-10 9 1 45.03 36.54 2.87 o
-9 9 1 38.52 34.26 2.65 o
-8 9 1 24.91 28.07 3.26 o
-7 9 1 67.92 66.78 2.25 o
-6 9 1 66.39 69.26 2.22 o
-5 9 1 62.05 67.87 2.78 o
-4 9 1 75.54 77.06 4.44 o
-3 9 1 113.16 110.88 4.38 o
-8 10 1 37.90 39.68 2.92 o
-7 10 1 54.50 48.60 2.83 o
-6 10 1 47.62 44.93 2.63 o
-5 10 1 51.84 49.78 2.55 o
-8 11 1 0.00 22.81 77.91 <
-7 11 1 36.26 26.74 3.50 o
-6 11 1 0.00 12.53 80.59 <
-5 11 1 19.16 16.87 6.58 <
-5 12 1 54.91 52.87 3.17 o
-4 12 1 26.29 36.36 6.31 o
-1 -9 2 60.21 55.05 2.65 o
0 -9 2 19.17 20.49 4.95 <
-3 -8 2 80.39 77.85 2.79 o
-2 -8 2 69.59 67.34 2.51 o
-1 -8 2 86.37 81.69 2.77 o
0 -8 2 100.93 104.13 2.48 o
1 -8 2 163.34 169.36 3.75 o
-6 -7 2 15.66 30.05 8.22 <
-4 -7 2 47.04 47.16 2.90 o
-3 -7 2 74.16 77.83 2.65 o
-2 -7 2 50.68 48.83 1.62 o
-1 -7 2 64.47 62.78 1.84 o
0 -7 2 90.76 92.13 2.28 o
1 -7 2 95.80 91.17 2.64 o
-7 -6 2 53.98 46.01 2.96 o
-6 -6 2 44.60 47.32 3.64 o
-5 -6 2 31.21 38.05 2.62 o
-4 -6 2 84.89 84.72 2.57 o
-3 -6 2 91.47 89.05 2.23 o
-2 -6 2 8.53 12.82 4.11 <
-1 -6 2 103.03 109.92 2.44 o
0 -6 2 111.29 109.62 2.62 o
1 -6 2 91.16 82.98 2.48 o
-8 -5 2 54.62 59.00 3.50 o
-7 -5 2 63.18 60.57 3.13 o
-6 -5 2 21.89 19.96 5.33 o
-5 -5 2 96.38 97.71 2.58 o
-4 -5 2 141.67 134.40 3.42 o
-3 -5 2 59.46 59.34 1.64 o
-2 -5 2 71.96 74.79 1.84 o
-1 -5 2 246.47 250.73 5.48 o
0 -5 2 108.41 110.06 2.53 o
1 -5 2 99.49 95.50 2.59 o
-8 -4 2 39.97 44.91 3.37 o
-7 -4 2 14.88 8.67 8.57 <
-6 -4 2 82.44 84.63 2.75 o
-5 -4 2 190.79 185.59 4.38 o
-4 -4 2 76.01 76.17 2.15 o
-3 -4 2 124.00 125.32 2.83 o
-2 -4 2 285.29 291.17 6.31 o
-1 -4 2 300.59 310.26 6.65 o
0 -4 2 159.57 161.52 3.58 o
5 -4 2 195.24 193.32 4.45 o
6 -4 2 159.22 159.66 3.72 o
-9 -3 2 50.01 45.82 3.75 o
-7 -3 2 45.54 40.77 3.32 o
-6 -3 2 99.93 99.06 2.94 o
-5 -3 2 120.96 121.23 2.84 o
-4 -3 2 10.25 17.95 3.65 <
-3 -3 2 270.76 273.04 5.99 o
-2 -3 2 99.40 106.31 2.29 o
-1 -3 2 145.34 147.68 3.26 o
0 -3 2 312.97 324.75 6.91 o
4 -3 2 345.98 344.59 7.68 o
5 -3 2 197.93 194.14 4.50 o
6 -3 2 53.18 50.35 1.97 o
-9 -2 2 47.62 44.54 3.70 o
-8 -2 2 10.04 18.22 13.08 <
-7 -2 2 91.07 89.71 2.87 o
-6 -2 2 84.38 85.10 2.62 o
-5 -2 2 70.71 68.54 2.22 o
-4 -2 2 76.44 71.49 1.91 o
-3 -2 2 186.64 188.22 4.15 o
-2 -2 2 178.89 184.63 3.97 o
-1 -2 2 352.72 367.62 7.79 o
2 -2 2 350.92 345.58 7.76 o
3 -2 2 171.84 170.54 3.84 o
4 -2 2 238.33 235.87 5.29 o
5 -2 2 68.50 67.80 1.71 o
6 -2 2 110.69 106.36 2.61 o
-10 -1 2 53.86 49.61 3.82 o
-9 -1 2 42.30 32.12 3.93 o
-8 -1 2 79.50 73.43 2.93 o
-7 -1 2 157.33 157.05 3.83 o
-6 -1 2 40.09 35.76 2.31 o
-5 -1 2 142.99 135.98 3.43 o
-4 -1 2 265.20 262.75 5.95 o
-3 -1 2 438.86 426.50 9.71 o
-2 -1 2 294.65 297.21 6.52 o
2 -1 2 283.16 277.27 6.25 o
3 -1 2 32.13 28.89 1.11 o
4 -1 2 228.70 222.08 5.10 o
5 -1 2 109.23 111.40 2.57 o
6 -1 2 108.90 104.43 2.56 o
7 -1 2 73.90 78.07 1.86 o
9 -1 2 45.44 45.99 2.26 o
-9 0 2 54.03 45.85 3.20 o
-8 0 2 89.55 90.70 2.88 o
-7 0 2 116.21 108.62 3.08 o
-6 0 2 58.04 60.53 2.37 o
-5 0 2 292.45 285.07 6.49 o
-4 0 2 203.10 207.34 4.54 o
-3 0 2 291.94 293.89 6.49 o
2 0 2 421.49 415.09 9.29 o
3 0 2 218.89 217.38 4.86 o
4 0 2 72.89 71.64 1.78 o
5 0 2 18.12 18.46 1.95 o
6 0 2 89.85 83.59 2.22 o
7 0 2 42.11 39.30 2.46 o
-7 1 2 70.26 65.21 2.11 o
-6 1 2 86.61 81.06 2.22 o
-5 1 2 274.49 275.83 6.08 o
-4 1 2 106.83 105.73 2.44 o
-3 1 2 172.53 166.48 3.85 o
1 1 2 295.00 286.43 6.51 o
2 1 2 526.18 517.74 11.61 o
3 1 2 73.79 76.12 1.81 o
4 1 2 72.98 67.70 1.82 o
5 1 2 163.75 159.83 3.69 o
6 1 2 129.85 125.97 2.96 o
7 1 2 32.39 34.53 2.03 o
-8 2 2 33.18 37.03 2.92 o
-7 2 2 68.52 65.28 2.01 o
-6 2 2 44.27 45.02 1.72 o
-5 2 2 136.07 139.16 3.13 o
-4 2 2 184.14 186.29 4.08 o
-3 2 2 233.53 227.03 5.17 o
-2 2 2 382.42 388.11 8.45 o
0 2 2 313.31 314.85 6.95 o
1 2 2 325.42 323.78 7.22 o
2 2 2 297.76 298.92 6.62 o
3 2 2 31.86 33.58 2.02 o
4 2 2 166.57 159.76 3.76 o
5 2 2 189.11 189.60 4.32 o
6 2 2 50.81 53.26 1.93 o
-9 3 2 76.07 70.72 2.29 o
-8 3 2 45.60 44.70 2.15 o
-7 3 2 97.13 97.75 2.45 o
-6 3 2 161.61 158.21 3.68 o
-5 3 2 105.24 106.30 2.37 o
-4 3 2 29.60 32.01 1.25 o
-3 3 2 114.57 113.31 2.61 o
-2 3 2 222.22 230.25 4.98 o
-1 3 2 10.18 17.62 4.56 <
0 3 2 263.14 263.55 5.88 o
1 3 2 44.96 45.48 1.84 o
2 3 2 96.98 97.42 2.48 o
3 3 2 119.13 118.50 2.91 o
4 3 2 172.11 172.48 3.99 o
5 3 2 75.00 76.29 2.19 o
6 3 2 11.70 28.87 12.61 <
-10 4 2 67.82 67.51 2.35 o
-9 4 2 65.98 59.96 2.28 o
-8 4 2 53.80 55.09 2.16 o
-7 4 2 169.90 175.43 3.77 o
-6 4 2 158.20 157.59 3.52 o
-5 4 2 154.09 153.73 3.47 o
-4 4 2 244.06 244.49 5.42 o
-3 4 2 225.25 224.39 5.01 o
-2 4 2 290.15 286.93 6.48 o
-1 4 2 50.55 49.96 2.00 o
0 4 2 241.40 241.24 5.44 o
1 4 2 113.52 107.99 2.81 o
2 4 2 66.66 64.71 2.20 o
3 4 2 64.71 62.84 2.20 o
4 4 2 57.09 47.34 3.59 o
5 4 2 36.03 30.68 4.53 o
6 4 2 0.00 23.67 83.79 <
-11 5 2 39.10 29.90 4.40 o
-10 5 2 36.12 27.58 3.12 o
-9 5 2 49.57 41.41 2.36 o
-8 5 2 92.80 92.18 2.13 o
-7 5 2 122.09 121.73 2.75 o
-6 5 2 70.95 66.45 1.75 o
-5 5 2 72.76 72.10 1.87 o
-4 5 2 328.91 332.27 7.28 o
-3 5 2 155.61 149.58 3.53 o
-2 5 2 142.15 144.42 3.39 o
-1 5 2 126.76 128.84 3.09 o
0 5 2 306.93 305.14 6.88 o
1 5 2 78.34 75.73 2.41 o
2 5 2 75.91 73.60 3.52 o
3 5 2 150.87 146.53 4.23 o
4 5 2 38.78 51.57 5.27 o
5 5 2 39.14 47.70 5.98 o
-11 6 2 20.58 25.39 5.71 <
-10 6 2 16.31 20.42 5.28 <
-9 6 2 59.83 59.19 2.12 o
-8 6 2 77.61 75.14 1.92 o
-7 6 2 11.15 7.49 3.44 <
-6 6 2 37.13 40.40 1.77 o
-5 6 2 152.33 154.69 3.49 o
-4 6 2 197.29 199.58 4.44 o
-3 6 2 41.34 39.96 2.29 o
-2 6 2 192.93 191.01 4.90 o
-1 6 2 154.82 154.12 4.23 o
0 6 2 145.80 145.10 4.19 o
1 6 2 88.57 77.03 3.56 o
2 6 2 182.25 174.36 4.88 o
3 6 2 129.71 127.53 4.06 o
4 6 2 22.39 28.53 8.54 <
5 6 2 60.14 68.67 5.43 o
-11 7 2 14.10 29.35 11.26 <
-10 7 2 29.21 25.65 3.57 o
-9 7 2 42.59 47.42 2.50 o
-8 7 2 35.62 36.06 1.68 o
-7 7 2 55.95 58.28 1.76 o
-6 7 2 95.16 93.78 2.57 o
-5 7 2 49.03 47.78 2.26 o
-4 7 2 97.55 100.76 3.55 o
-3 7 2 42.92 40.29 4.82 o
-2 7 2 168.87 172.84 4.62 o
-1 7 2 40.58 41.75 4.75 o
0 7 2 55.22 44.12 4.52 o
1 7 2 87.86 87.37 4.04 o
2 7 2 88.98 90.79 4.33 o
3 7 2 0.00 17.82 115.74 <
-10 8 2 43.38 41.10 3.96 o
-9 8 2 50.98 54.23 2.37 o
-8 8 2 49.94 53.60 1.93 o
-7 8 2 53.85 50.47 2.09 o
-6 8 2 99.99 99.64 2.79 o
-5 8 2 67.64 67.85 3.53 o
-4 8 2 75.42 78.21 3.57 o
-3 8 2 66.03 61.22 4.28 o
-2 8 2 89.14 88.00 4.15 o
-1 8 2 38.94 48.46 5.86 o
0 8 2 56.36 55.17 5.18 o
-10 9 2 50.72 46.99 3.11 o
-9 9 2 51.12 39.21 3.25 o
-8 9 2 15.61 26.68 7.26 <
-7 9 2 69.22 72.21 2.73 o
-6 9 2 82.09 79.45 4.12 o
-5 9 2 42.53 34.99 5.56 o
-4 9 2 85.76 87.95 4.01 o
-3 9 2 84.75 81.32 4.91 o
-8 10 2 33.76 41.21 3.55 o
-7 10 2 57.12 55.17 2.81 o
-8 11 2 34.56 36.62 3.77 o
-7 11 2 33.54 35.99 3.60 o
-6 11 2 40.86 15.89 3.73 o
-5 12 2 36.11 33.17 4.52 o
-1 -8 3 37.11 45.73 1.81 o
0 -8 3 109.98 119.65 2.73 o
-6 -7 3 0.00 10.85 87.05 <
-2 -7 3 57.66 60.51 1.72 o
-1 -7 3 51.08 50.12 1.76 o
0 -7 3 187.78 202.75 4.30 o
1 -7 3 57.53 64.77 1.96 o
-7 -6 3 41.25 35.23 4.32 o
-6 -6 3 24.03 24.47 5.90 o
-3 -6 3 58.90 60.21 1.67 o
-2 -6 3 57.10 57.89 1.63 o
-1 -6 3 90.96 98.77 2.29 o
0 -6 3 100.68 106.96 2.51 o
-8 -5 3 60.48 50.37 3.52 o
-7 -5 3 35.92 42.78 3.95 o
-6 -5 3 50.50 48.58 3.17 o
-4 -5 3 138.14 142.43 3.17 o
-3 -5 3 59.99 58.38 1.61 o
-2 -5 3 133.44 139.97 3.06 o
-1 -5 3 71.78 73.11 1.93 o
0 -5 3 116.45 123.84 2.79 o
5 -5 3 116.48 114.76 2.85 o
6 -5 3 66.98 66.80 2.09 o
-8 -4 3 42.64 33.24 3.75 o
-7 -4 3 43.43 49.71 3.28 o
-6 -4 3 96.02 88.86 2.96 o
-4 -4 3 141.66 144.22 3.25 o
-3 -4 3 114.24 115.31 2.68 o
-2 -4 3 275.12 290.78 6.12 o
-1 -4 3 205.37 221.48 4.61 o
0 -4 3 235.60 246.17 5.27 o
4 -4 3 151.79 152.06 3.50 o
5 -4 3 141.09 142.83 3.32 o
6 -4 3 49.13 47.96 1.92 o
-9 -3 3 32.93 44.48 5.02 o
-8 -3 3 37.52 27.76 4.08 o
-7 -3 3 62.14 62.17 2.75 o
-6 -3 3 127.98 121.84 3.33 o
-5 -3 3 109.65 107.83 2.93 o
-3 -3 3 193.71 195.41 4.35 o
-2 -3 3 270.40 284.31 6.01 o
-1 -3 3 85.84 92.93 2.11 o
0 -3 3 216.80 232.99 4.85 o
2 -3 3 312.76 308.00 6.95 o
3 -3 3 232.70 228.35 5.17 o
4 -3 3 130.12 126.11 2.97 o
5 -3 3 177.41 175.91 3.98 o
6 -3 3 88.87 94.56 2.13 o
-10 -2 3 44.58 38.33 3.47 o
-9 -2 3 33.50 35.39 3.55 o
-8 -2 3 21.54 24.53 4.56 o
-7 -2 3 80.34 81.75 2.57 o
-6 -2 3 35.63 32.82 2.55 o
-5 -2 3 123.54 122.45 3.10 o
-4 -2 3 207.78 204.05 4.74 o
-3 -2 3 166.92 170.66 3.77 o
-2 -2 3 177.27 180.65 3.98 o
-1 -2 3 159.51 165.89 3.60 o
0 -2 3 337.39 346.32 7.45 o
1 -2 3 352.13 349.57 7.80 o
2 -2 3 205.57 201.94 4.57 o
3 -2 3 271.34 270.56 6.01 o
4 -2 3 236.59 238.91 5.26 o
5 -2 3 75.04 74.50 2.00 o
6 -2 3 79.56 85.78 2.07 o
7 -2 3 101.43 102.19 2.47 o
-10 -1 3 44.45 43.09 4.09 o
-9 -1 3 24.55 28.33 5.45 o
-8 -1 3 94.62 88.41 2.83 o
-7 -1 3 107.77 110.93 2.99 o
-6 -1 3 63.37 61.83 2.36 o
-5 -1 3 190.01 182.38 4.38 o
-4 -1 3 356.51 348.61 7.93 o
-3 -1 3 91.10 87.79 2.13 o
-2 -1 3 153.64 147.11 3.41 o
1 -1 3 222.37 217.94 4.92 o
2 -1 3 169.50 170.06 3.83 o
3 -1 3 476.17 458.45 10.52 o
4 -1 3 86.94 81.99 2.20 o
5 -1 3 103.39 103.78 2.52 o
6 -1 3 148.08 150.03 3.42 o
7 -1 3 90.44 91.00 2.74 o
-9 0 3 58.09 54.38 2.71 o
-8 0 3 126.21 114.22 3.37 o
-7 0 3 83.69 83.79 2.64 o
-6 0 3 153.10 150.97 3.66 o
-5 0 3 153.45 152.00 3.62 o
-4 0 3 165.91 168.56 3.81 o
-3 0 3 206.77 209.47 4.58 o
1 0 3 307.90 306.53 6.79 o
2 0 3 182.68 177.93 4.07 o
3 0 3 51.51 50.94 1.41 o
4 0 3 71.75 70.98 1.79 o
5 0 3 160.88 154.02 3.63 o
6 0 3 87.57 92.65 2.26 o
7 0 3 10.70 6.21 8.15 <
-7 1 3 54.22 57.55 2.23 o
-6 1 3 138.23 131.10 3.36 o
-5 1 3 164.49 159.49 3.73 o
-4 1 3 369.81 360.44 8.20 o
-3 1 3 185.57 189.67 4.11 o
1 1 3 433.01 428.86 9.55 o
2 1 3 112.56 109.92 2.58 o
3 1 3 175.47 173.83 3.91 o
4 1 3 134.44 136.82 3.07 o
5 1 3 123.99 122.11 2.87 o
6 1 3 63.84 65.61 2.01 o
7 1 3 33.99 33.18 1.72 o
-7 2 3 41.50 42.70 2.78 o
-6 2 3 232.47 228.42 5.20 o
-5 2 3 143.45 142.13 3.40 o
-4 2 3 182.71 184.01 4.06 o
-3 2 3 165.69 164.75 3.72 o
-2 2 3 427.74 423.28 9.45 o
-1 2 3 217.54 220.75 4.87 o
0 2 3 110.59 116.51 2.65 o
1 2 3 306.34 309.85 6.77 o
2 2 3 103.00 105.20 2.54 o
3 2 3 221.65 211.67 5.01 o
4 2 3 95.00 96.83 2.31 o
5 2 3 129.33 124.42 3.12 o
6 2 3 66.85 72.88 3.16 o
-9 3 3 0.00 17.59 81.56 <
-8 3 3 66.16 66.52 2.50 o
-7 3 3 89.80 86.60 2.31 o
-6 3 3 160.33 158.04 3.66 o
-5 3 3 178.49 173.22 3.97 o
-4 3 3 98.11 96.36 2.34 o
-3 3 3 389.17 393.61 8.61 o
-2 3 3 155.99 157.41 3.57 o
-1 3 3 49.27 49.12 1.68 o
0 3 3 140.79 142.14 3.30 o
1 3 3 319.06 312.98 7.11 o
2 3 3 70.04 66.08 2.06 o
3 3 3 142.88 142.33 3.39 o
4 3 3 126.75 123.66 3.09 o
5 3 3 64.21 65.73 3.50 o
6 3 3 46.47 47.90 4.14 o
-10 4 3 50.46 49.84 3.52 o
-9 4 3 48.09 46.05 3.24 o
-8 4 3 119.13 115.72 2.91 o
-7 4 3 113.28 111.67 2.54 o
-6 4 3 95.42 97.04 2.22 o
-5 4 3 107.50 104.86 2.50 o
-4 4 3 303.89 294.18 6.76 o
-3 4 3 128.65 129.19 3.05 o
-2 4 3 50.10 49.43 1.77 o
-1 4 3 293.54 293.07 6.56 o
0 4 3 121.80 119.56 2.99 o
1 4 3 79.10 73.91 2.30 o
2 4 3 122.12 117.39 3.04 o
3 4 3 132.70 122.33 3.82 o
4 4 3 48.02 52.75 3.41 o
5 4 3 34.96 29.04 5.74 o
-11 5 3 47.14 39.49 3.75 o
-10 5 3 34.85 29.88 4.25 o
-9 5 3 60.40 59.78 2.95 o
-8 5 3 108.43 110.38 2.46 o
-7 5 3 59.04 58.41 1.49 o
-6 5 3 110.88 115.31 2.59 o
-5 5 3 200.74 200.99 4.50 o
-4 5 3 145.14 144.40 3.42 o
-3 5 3 198.34 194.43 4.54 o
-2 5 3 92.36 87.43 2.45 o
-1 5 3 231.96 234.25 5.27 o
0 5 3 47.68 46.39 2.16 o
1 5 3 95.29 91.51 3.38 o
2 5 3 99.51 102.29 3.68 o
3 5 3 83.76 90.80 3.41 o
4 5 3 43.44 42.05 4.52 o
5 5 3 38.54 35.38 6.26 o
-11 6 3 28.86 23.82 5.54 o
-10 6 3 33.40 28.08 4.54 o
-9 6 3 65.28 60.42 3.06 o
-8 6 3 72.00 75.78 1.82 o
-7 6 3 67.51 68.26 1.73 o
-6 6 3 116.34 118.19 2.74 o
-5 6 3 138.67 140.27 3.33 o
-4 6 3 64.43 61.00 2.10 o
-3 6 3 181.16 180.96 4.68 o
-2 6 3 114.11 114.97 3.60 o
-1 6 3 228.72 225.61 5.64 o
0 6 3 123.67 118.51 3.90 o
1 6 3 167.76 168.11 4.62 o
2 6 3 136.32 137.27 4.13 o
3 6 3 54.68 56.77 4.83 o
4 6 3 40.95 52.24 6.62 o
-11 7 3 18.12 24.53 9.43 <
-10 7 3 0.00 14.47 87.12 <
-9 7 3 52.74 49.64 3.30 o
-8 7 3 41.39 40.62 1.77 o
-7 7 3 25.36 27.03 6.05 o
-6 7 3 76.09 68.75 3.39 o
-5 7 3 73.68 65.52 3.51 o
-4 7 3 43.79 51.57 3.73 o
-3 7 3 107.14 116.44 3.82 o
-2 7 3 70.05 67.37 3.89 o
-1 7 3 99.73 98.98 3.93 o
0 7 3 30.12 27.19 5.37 o
1 7 3 96.61 93.20 3.86 o
2 7 3 52.89 51.85 4.49 o
-10 8 3 57.76 49.59 3.51 o
-9 8 3 47.07 46.80 2.18 o
-8 8 3 29.18 26.20 3.22 o
-7 8 3 81.56 86.60 3.46 o
-6 8 3 74.15 80.98 3.56 o
-5 8 3 68.26 71.96 4.07 o
-4 8 3 25.98 24.14 7.92 <
-3 8 3 139.72 134.56 4.25 o
-2 8 3 24.83 33.66 6.69 <
-1 8 3 48.98 25.67 4.99 o
0 8 3 68.85 67.41 5.09 o
-10 9 3 45.30 45.08 3.81 o
-9 9 3 38.46 40.80 4.28 o
-8 9 3 43.97 52.45 3.04 o
-7 9 3 76.89 82.34 4.47 o
-6 9 3 24.98 37.81 9.81 <
-5 9 3 57.84 48.24 5.05 o
-4 9 3 86.47 78.82 4.87 o
-8 10 3 25.87 32.79 4.36 o
-7 10 3 46.59 43.92 2.99 o
-8 11 3 38.08 45.33 3.60 o
-7 11 3 41.67 41.48 2.87 o
-6 -7 4 25.04 13.11 6.34 <
-2 -7 4 65.98 71.62 1.92 o
-1 -7 4 115.71 127.11 2.82 o
0 -7 4 77.60 82.42 2.20 o
1 -7 4 126.59 133.34 3.10 o
-7 -6 4 0.00 22.47 87.46 <
-6 -6 4 20.10 27.59 4.85 o
-3 -6 4 57.75 59.74 1.73 o
-2 -6 4 37.91 37.57 1.70 o
-1 -6 4 120.89 128.66 2.91 o
0 -6 4 82.16 87.76 2.19 o
1 -6 4 153.94 158.50 3.61 o
-8 -5 4 41.24 36.69 4.49 o
-6 -5 4 87.15 82.58 2.92 o
-4 -5 4 38.32 42.51 1.59 o
-3 -5 4 103.94 105.80 2.52 o
-2 -5 4 85.22 87.87 2.19 o
-1 -5 4 195.10 210.36 4.43 o
0 -5 4 56.44 57.46 1.89 o
1 -5 4 87.90 92.00 2.33 o
5 -5 4 65.52 62.33 1.96 o
6 -5 4 92.62 98.91 2.44 o
-8 -4 4 36.49 39.88 4.35 o
-7 -4 4 64.70 64.51 3.01 o
-6 -4 4 110.03 109.78 3.07 o
-5 -4 4 75.11 79.62 2.62 o
-4 -4 4 53.19 55.83 1.68 o
-3 -4 4 268.32 278.05 5.98 o
-2 -4 4 123.39 132.32 2.90 o
-1 -4 4 108.07 114.49 2.61 o
0 -4 4 144.73 147.49 3.36 o
1 -4 4 314.94 329.38 7.01 o
3 -4 4 81.06 79.11 2.18 o
4 -4 4 115.36 120.86 2.66 o
5 -4 4 91.97 94.45 2.19 o
6 -4 4 26.82 30.26 2.38 o
-9 -3 4 44.40 41.22 3.58 o
-8 -3 4 43.33 49.02 3.55 o
-7 -3 4 81.14 80.47 2.87 o
-6 -3 4 105.75 100.17 2.99 o
-5 -3 4 96.75 95.06 2.64 o
-4 -3 4 120.68 121.54 2.84 o
-3 -3 4 316.43 330.38 7.03 o
-2 -3 4 31.68 32.21 1.52 o
-1 -3 4 235.43 244.15 5.27 o
0 -3 4 378.60 386.54 8.36 o
1 -3 4 349.91 346.54 7.74 o
2 -3 4 105.86 106.14 2.60 o
3 -3 4 147.84 153.16 3.36 o
4 -3 4 277.75 277.72 6.16 o
5 -3 4 58.11 56.85 1.67 o
6 -3 4 43.07 44.05 1.92 o
-10 -2 4 27.70 34.41 5.63 o
-9 -2 4 29.89 22.03 5.10 o
-8 -2 4 53.23 40.42 3.12 o
-7 -2 4 79.66 77.12 2.81 o
-6 -2 4 43.97 46.30 2.80 o
-5 -2 4 90.69 88.37 2.57 o
-4 -2 4 154.82 152.40 3.50 o
-3 -2 4 240.19 242.10 5.33 o
-2 -2 4 75.49 65.54 1.95 o
-1 -2 4 506.15 516.31 11.16 o
0 -2 4 166.95 163.90 3.74 o
1 -2 4 210.44 208.19 4.69 o
2 -2 4 364.62 358.43 8.05 o
3 -2 4 363.83 348.55 8.04 o
4 -2 4 201.58 192.99 4.56 o
5 -2 4 73.36 73.70 2.06 o
6 -2 4 161.88 158.78 3.74 o
7 -2 4 114.54 124.74 3.28 o
-10 -1 4 19.55 32.82 7.85 <
-9 -1 4 44.83 28.29 3.35 o
-8 -1 4 82.65 86.86 2.92 o
-7 -1 4 100.34 95.37 2.79 o
-6 -1 4 94.06 94.27 2.67 o
-5 -1 4 88.77 91.11 2.47 o
-4 -1 4 42.31 42.11 1.35 o
-3 -1 4 160.75 164.95 3.57 o
-2 -1 4 145.54 133.09 3.25 o
-1 -1 4 252.93 257.08 5.59 o
0 -1 4 264.77 259.75 5.86 o
1 -1 4 194.70 199.94 4.34 o
2 -1 4 194.24 189.50 4.39 o
3 -1 4 98.05 91.77 2.44 o
4 -1 4 122.37 119.47 2.92 o
5 -1 4 165.37 165.12 3.81 o
6 -1 4 128.64 127.85 3.06 o
7 -1 4 55.10 56.45 2.83 o
-9 0 4 80.33 72.95 3.02 o
-8 0 4 105.00 108.57 3.01 o
-7 0 4 87.63 81.68 2.62 o
-6 0 4 99.35 97.91 2.69 o
-5 0 4 313.42 303.99 7.01 o
-4 0 4 148.08 143.24 3.32 o
-3 0 4 143.10 145.07 3.19 o
-2 0 4 336.51 336.34 7.43 o
-1 0 4 363.66 359.12 8.02 o
0 0 4 111.84 109.66 2.55 o
1 0 4 138.86 136.87 3.10 o
2 0 4 161.92 163.94 3.61 o
3 0 4 138.91 135.65 3.12 o
4 0 4 119.40 114.78 2.76 o
5 0 4 81.26 80.03 2.04 o
6 0 4 31.60 27.47 2.28 o
7 0 4 37.94 39.27 3.68 o
-5 1 4 271.73 272.97 6.10 o
-4 1 4 60.27 58.58 1.46 o
-3 1 4 313.83 305.47 6.93 o
-2 1 4 445.36 442.68 9.81 o
-1 1 4 352.66 347.08 7.78 o
0 1 4 221.37 223.88 4.92 o
1 1 4 274.75 269.44 6.09 o
2 1 4 245.91 246.51 5.44 o
3 1 4 27.65 26.64 1.38 o
4 1 4 120.01 114.42 2.74 o
5 1 4 79.34 80.56 1.93 o
6 1 4 21.26 25.84 6.34 <
-7 2 4 170.75 157.37 4.06 o
-6 2 4 56.85 67.12 2.24 o
-5 2 4 107.72 106.74 2.45 o
-4 2 4 126.29 127.57 2.85 o
-3 2 4 540.43 540.94 11.92 o
-2 2 4 320.63 305.35 7.11 o
-1 2 4 72.06 62.22 1.78 o
0 2 4 444.18 443.40 9.80 o
1 2 4 290.98 289.51 6.45 o
2 2 4 91.38 93.72 2.21 o
3 2 4 167.40 159.13 3.79 o
4 2 4 174.61 169.72 3.96 o
5 2 4 51.73 59.33 2.10 o
6 2 4 39.98 46.40 4.51 o
-9 3 4 29.72 23.57 4.79 o
-8 3 4 47.32 47.88 2.51 o
-7 3 4 131.23 130.23 3.26 o
-6 3 4 49.04 47.53 1.39 o
-5 3 4 164.05 164.82 3.68 o
-4 3 4 74.11 72.37 1.94 o
-3 3 4 226.26 217.20 5.08 o
-2 3 4 269.66 259.18 6.02 o
-1 3 4 298.84 292.17 6.67 o
0 3 4 319.36 318.37 7.12 o
1 3 4 22.39 30.18 3.18 o
2 3 4 138.12 134.49 3.32 o
3 3 4 154.43 150.58 3.65 o
4 3 4 126.29 123.25 3.81 o
5 3 4 60.59 55.20 3.51 o
6 3 4 43.87 62.83 5.08 o
-10 4 4 47.83 44.28 2.94 o
-9 4 4 50.05 39.57 3.10 o
-8 4 4 71.29 69.84 2.65 o
-7 4 4 162.69 166.07 3.62 o
-6 4 4 16.47 14.17 2.48 o
-5 4 4 143.17 144.17 3.31 o
-4 4 4 150.94 153.48 3.51 o
-3 4 4 94.15 90.81 2.43 o
-2 4 4 156.99 154.89 3.65 o
-1 4 4 141.74 139.47 3.36 o
0 4 4 163.86 161.78 3.84 o
1 4 4 24.96 29.72 3.20 o
2 4 4 135.45 139.05 3.95 o
3 4 4 92.26 95.28 3.52 o
4 4 4 26.01 36.52 7.01 <
5 4 4 48.42 45.52 4.66 o
-11 5 4 45.11 42.87 3.23 o
-10 5 4 32.15 30.44 4.76 o
-9 5 4 79.36 78.14 2.96 o
-8 5 4 100.58 102.84 2.30 o
-7 5 4 107.95 108.23 2.55 o
-6 5 4 37.12 33.42 1.80 o
-5 5 4 289.57 295.16 6.47 o
-4 5 4 166.51 163.37 3.87 o
-3 5 4 146.77 147.99 3.47 o
-2 5 4 228.59 227.07 5.20 o
-1 5 4 107.05 107.71 2.78 o
0 5 4 133.54 131.59 3.92 o
1 5 4 50.33 45.01 3.53 o
2 5 4 118.20 121.90 3.86 o
3 5 4 54.31 51.78 4.33 o
4 5 4 26.84 16.96 8.39 <
5 5 4 54.57 56.36 5.49 o
-11 6 4 31.42 24.74 5.36 o
-10 6 4 57.59 42.84 3.30 o
-9 6 4 88.83 85.80 3.00 o
-8 6 4 47.28 48.06 1.64 o
-7 6 4 88.39 94.32 2.32 o
-6 6 4 116.78 118.47 2.90 o
-5 6 4 160.22 161.43 3.78 o
-4 6 4 60.11 67.96 3.58 o
-3 6 4 191.62 199.06 4.91 o
-2 6 4 279.19 274.80 6.63 o
-1 6 4 90.42 90.37 3.67 o
0 6 4 108.35 106.06 3.85 o
1 6 4 99.46 94.56 3.87 o
2 6 4 109.34 109.81 4.10 o
3 6 4 28.65 20.62 6.51 o
4 6 4 51.07 57.38 6.74 o
-11 7 4 0.00 23.97 91.04 <
-10 7 4 0.00 25.84 85.82 <
-9 7 4 47.99 54.92 2.10 o
-8 7 4 21.44 18.85 3.70 o
-7 7 4 66.43 65.57 3.45 o
-6 7 4 67.47 69.47 3.46 o
-5 7 4 71.43 65.64 3.46 o
-4 7 4 79.00 86.76 3.41 o
-3 7 4 113.94 117.19 3.92 o
-2 7 4 107.87 104.82 3.74 o
-1 7 4 35.59 29.05 5.83 o
0 7 4 116.23 118.48 4.20 o
1 7 4 124.81 122.91 4.34 o
-10 8 4 44.56 38.34 4.19 o
-9 8 4 28.99 28.15 3.00 o
-8 8 4 34.66 35.08 3.27 o
-7 8 4 67.16 78.04 4.07 o
-6 8 4 54.76 57.10 4.73 o
-5 8 4 35.39 31.11 5.89 o
-4 8 4 69.83 63.02 4.16 o
-3 8 4 45.74 52.17 5.80 o
-2 8 4 49.02 56.56 5.12 o
-1 8 4 0.00 1.06 118.06 <
-10 9 4 38.50 38.41 4.56 o
-9 9 4 44.84 38.14 3.91 o
-8 9 4 45.12 54.62 2.89 o
-7 9 4 62.51 62.37 5.16 o
-6 9 4 48.69 58.51 5.43 o
-5 9 4 37.42 43.54 8.27 o
-8 10 4 59.76 57.27 2.53 o
-6 -7 5 32.40 23.51 4.96 o
-2 -7 5 65.50 70.93 2.00 o
-1 -7 5 133.60 153.21 3.21 o
-7 -6 5 16.40 22.44 7.93 <
-6 -6 5 0.00 28.22 82.86 <
-4 -6 5 9.60 12.85 3.80 <
-3 -6 5 56.97 64.76 1.84 o
-2 -6 5 151.06 163.72 3.53 o
-1 -6 5 107.35 117.12 2.69 o
0 -6 5 23.82 18.92 2.61 o
1 -6 5 36.80 38.96 2.26 o
5 -6 5 118.34 123.55 2.90 o
-8 -5 5 24.31 16.87 4.91 o
-7 -5 5 45.96 50.92 3.57 o
-6 -5 5 68.49 70.94 2.90 o
-5 -5 5 58.76 64.48 1.78 o
-4 -5 5 11.14 10.80 3.75 <
-3 -5 5 136.84 143.55 3.21 o
-2 -5 5 142.17 155.93 3.33 o
-1 -5 5 92.83 103.29 2.36 o
0 -5 5 98.46 103.35 2.50 o
1 -5 5 224.23 240.04 5.08 o
4 -5 5 150.36 151.58 3.48 o
5 -5 5 152.44 155.64 3.55 o
6 -5 5 19.27 24.06 2.83 o
-9 -4 5 25.18 34.32 6.51 <
-8 -4 5 36.29 40.70 3.45 o
-7 -4 5 84.60 82.04 2.87 o
-6 -4 5 91.51 92.26 2.87 o
-5 -4 5 72.86 75.86 1.97 o
-4 -4 5 87.81 88.67 2.26 o
-3 -4 5 132.72 135.05 3.12 o
-2 -4 5 155.52 164.29 3.59 o
-1 -4 5 93.45 97.91 2.37 o
0 -4 5 273.19 288.35 6.11 o
1 -4 5 23.60 22.09 1.89 o
2 -4 5 95.13 95.56 2.44 o
3 -4 5 150.82 150.00 3.44 o
4 -4 5 115.13 113.26 2.71 o
5 -4 5 23.60 23.35 1.71 o
6 -4 5 38.68 39.21 1.49 o
-9 -3 5 37.96 32.34 4.53 o
-8 -3 5 29.80 35.00 4.98 o
-7 -3 5 77.30 79.74 2.83 o
-6 -3 5 89.67 87.78 2.73 o
-5 -3 5 77.27 82.85 2.00 o
-4 -3 5 186.59 188.96 4.19 o
-3 -3 5 161.51 166.31 3.71 o
-2 -3 5 222.83 232.28 5.01 o
-1 -3 5 68.87 69.83 1.73 o
0 -3 5 189.15 196.39 4.25 o
1 -3 5 248.87 250.20 5.54 o
2 -3 5 170.50 173.66 3.84 o
3 -3 5 122.37 122.14 2.83 o
4 -3 5 29.08 33.60 1.85 o
5 -3 5 174.01 173.34 4.03 o
6 -3 5 54.09 52.01 1.97 o
7 -3 5 64.24 73.96 3.22 o
-10 -2 5 0.00 25.16 89.29 <
-9 -2 5 41.56 34.42 3.72 o
-8 -2 5 81.01 82.10 2.73 o
-7 -2 5 102.91 102.06 2.96 o
-6 -2 5 66.64 62.81 2.51 o
-5 -2 5 96.72 91.45 2.57 o
-4 -2 5 246.90 252.21 5.49 o
-3 -2 5 179.84 175.62 4.03 o
-2 -2 5 172.81 177.00 3.85 o
-1 -2 5 263.71 259.28 5.85 o
0 -2 5 460.46 460.05 10.16 o
1 -2 5 247.16 229.71 5.50 o
2 -2 5 190.05 184.68 4.23 o
3 -2 5 222.89 220.74 5.03 o
4 -2 5 156.15 150.78 3.64 o
5 -2 5 112.87 116.54 2.78 o
6 -2 5 53.39 52.73 1.90 o
7 -2 5 76.55 75.74 3.13 o
-10 -1 5 16.65 9.97 8.73 <
-9 -1 5 56.98 53.36 3.24 o
-8 -1 5 71.59 65.98 2.82 o
-7 -1 5 37.98 27.21 2.60 o
-6 -1 5 43.32 45.55 2.60 o
-5 -1 5 117.41 117.44 2.93 o
-4 -1 5 139.19 143.32 3.16 o
-3 -1 5 62.58 65.52 1.53 o
-2 -1 5 322.80 317.79 7.12 o
-1 -1 5 206.23 210.72 4.57 o
0 -1 5 262.04 262.48 5.81 o
1 -1 5 196.45 192.37 4.39 o
2 -1 5 241.98 249.16 5.38 o
3 -1 5 238.54 235.74 5.31 o
4 -1 5 31.01 25.68 2.39 o
5 -1 5 137.82 135.05 3.29 o
6 -1 5 78.91 78.30 2.24 o
7 -1 5 50.95 58.60 3.24 o
-9 0 5 93.93 97.10 2.86 o
-8 0 5 71.77 72.05 2.54 o
-7 0 5 64.35 67.29 2.31 o
-6 0 5 218.63 213.69 5.01 o
-5 0 5 94.77 91.63 2.52 o
-4 0 5 166.81 163.15 3.71 o
-3 0 5 115.33 117.94 2.60 o
-2 0 5 350.79 350.13 7.75 o
-1 0 5 21.53 19.63 1.53 o
0 0 5 37.99 32.83 1.40 o
1 0 5 329.27 326.11 7.28 o
2 0 5 242.26 238.07 5.37 o
3 0 5 49.34 46.49 1.42 o
4 0 5 62.05 60.23 1.65 o
5 0 5 171.41 169.93 3.85 o
6 0 5 33.97 35.00 4.11 o
-5 1 5 75.46 77.11 1.78 o
-4 1 5 290.71 286.29 6.43 o
-3 1 5 147.32 144.23 3.29 o
-2 1 5 220.45 215.02 4.88 o
-1 1 5 378.65 368.17 8.36 o
0 1 5 226.26 227.09 5.04 o
1 1 5 207.74 198.99 4.64 o
2 1 5 39.74 41.35 1.27 o
3 1 5 121.53 120.72 2.77 o
4 1 5 122.27 121.30 2.80 o
5 1 5 38.65 41.70 1.48 o
6 1 5 32.62 29.38 4.98 o
-7 2 5 94.40 94.92 2.71 o
-6 2 5 163.59 165.22 3.84 o
-5 2 5 97.85 94.61 2.27 o
-4 2 5 330.85 322.34 7.31 o
-3 2 5 215.84 219.87 4.84 o
-2 2 5 338.34 327.59 7.51 o
-1 2 5 248.93 243.17 5.53 o
0 2 5 269.14 267.87 5.97 o
1 2 5 322.30 316.35 7.14 o
2 2 5 78.75 78.27 2.00 o
3 2 5 162.70 160.94 3.66 o
4 2 5 79.33 79.85 2.07 o
5 2 5 71.13 62.32 3.46 o
6 2 5 64.92 68.77 3.58 o
-9 3 5 63.93 59.34 2.94 o
-8 3 5 78.80 70.78 2.55 o
-7 3 5 135.07 139.19 3.38 o
-6 3 5 113.67 108.09 2.60 o
-5 3 5 39.46 38.15 1.44 o
-4 3 5 235.12 233.94 5.27 o
-3 3 5 132.88 136.02 3.13 o
-2 3 5 207.94 209.69 4.71 o
-1 3 5 196.53 194.43 4.48 o
0 3 5 160.68 166.36 3.74 o
1 3 5 145.35 149.57 3.46 o
2 3 5 83.71 87.35 2.43 o
3 3 5 166.04 159.40 4.44 o
4 3 5 95.24 99.85 3.43 o
5 3 5 55.53 50.89 3.66 o
-10 4 5 31.31 30.89 3.77 o
-9 4 5 58.34 55.74 2.99 o
-8 4 5 86.59 84.82 2.79 o
-7 4 5 62.82 63.73 1.68 o
-6 4 5 46.02 46.01 1.54 o
-5 4 5 94.73 92.76 2.38 o
-4 4 5 223.04 220.35 5.04 o
-3 4 5 101.66 106.24 2.59 o
-2 4 5 109.20 104.53 2.76 o
-1 4 5 307.62 303.90 6.89 o
0 4 5 59.87 63.05 2.21 o
1 4 5 75.59 74.50 3.39 o
2 4 5 90.36 87.61 3.46 o
3 4 5 125.24 121.16 4.01 o
4 4 5 30.18 32.82 5.25 o
5 4 5 48.85 47.46 4.42 o
-11 5 5 34.15 36.80 3.76 o
-10 5 5 68.67 56.61 3.10 o
-9 5 5 85.30 83.14 2.97 o
-8 5 5 87.45 86.61 2.06 o
-7 5 5 41.75 42.28 1.62 o
-6 5 5 162.00 163.82 3.75 o
-5 5 5 149.67 151.43 3.53 o
-4 5 5 62.67 61.89 2.16 o
-3 5 5 132.63 131.99 3.23 o
-2 5 5 253.48 260.11 5.74 o
-1 5 5 207.73 203.71 5.21 o
0 5 5 82.45 87.56 3.48 o
1 5 5 139.04 145.36 4.13 o
2 5 5 80.40 83.15 3.90 o
3 5 5 23.61 23.33 7.40 <
4 5 5 9.76 27.93 25.79 <
-11 6 5 34.14 18.91 4.97 o
-10 6 5 50.40 51.38 3.60 o
-9 6 5 70.75 68.17 3.00 o
-8 6 5 60.62 57.35 2.22 o
-7 6 5 62.62 64.32 1.84 o
-6 6 5 137.81 139.23 3.30 o
-5 6 5 113.27 114.34 3.58 o
-4 6 5 123.21 126.75 3.82 o
-3 6 5 148.84 147.74 4.23 o
-2 6 5 48.18 52.56 3.63 o
-1 6 5 45.36 47.55 3.81 o
0 6 5 57.95 54.93 4.56 o
1 6 5 146.49 152.24 4.33 o
2 6 5 60.70 52.95 3.98 o
3 6 5 0.00 26.09 124.28 <
-11 7 5 0.00 20.43 89.83 <
-10 7 5 56.75 58.44 3.44 o
-9 7 5 43.84 37.52 2.22 o
-8 7 5 46.00 47.90 2.41 o
-7 7 5 60.58 60.70 3.66 o
-6 7 5 112.78 116.07 3.74 o
-5 7 5 64.16 67.22 3.40 o
-4 7 5 79.40 84.38 3.79 o
-3 7 5 161.90 164.04 4.51 o
-2 7 5 81.62 83.07 3.96 o
-1 7 5 144.51 143.48 4.44 o
0 7 5 94.27 91.06 4.17 o
1 7 5 110.68 112.79 4.27 o
-10 8 5 52.55 38.91 3.61 o
-9 8 5 18.19 6.98 4.26 o
-8 8 5 46.57 49.26 4.53 o
-7 8 5 58.48 62.48 4.53 o
-6 8 5 54.15 43.82 4.61 o
-5 8 5 35.38 37.25 6.67 o
-4 8 5 62.49 71.72 4.61 o
-3 8 5 92.04 94.05 3.88 o
-2 8 5 0.00 18.05 101.45 <
-10 9 5 24.15 18.89 6.30 <
-9 9 5 17.22 24.10 4.81 <
-8 9 5 71.21 75.96 4.79 o
-6 9 5 31.52 30.71 9.41 <
-6 -7 6 48.29 38.19 2.95 o
-7 -6 6 7.91 13.75 18.65 <
-6 -6 6 69.80 69.09 3.01 o
-4 -6 6 61.84 67.67 1.96 o
-3 -6 6 65.35 74.17 2.02 o
-2 -6 6 123.60 137.11 3.01 o
-1 -6 6 152.10 168.37 3.58 o
0 -6 6 47.99 52.88 2.09 o
5 -6 6 125.11 129.36 3.02 o
-8 -5 6 26.34 15.51 6.04 o
-7 -5 6 43.67 38.16 3.69 o
-6 -5 6 95.07 89.77 2.96 o
-5 -5 6 19.03 16.31 3.15 o
-4 -5 6 50.89 53.20 1.87 o
-3 -5 6 54.41 57.33 1.83 o
-2 -5 6 101.71 110.04 2.56 o
-1 -5 6 62.64 65.79 1.96 o
0 -5 6 160.61 174.03 3.75 o
1 -5 6 161.60 169.46 3.79 o
2 -5 6 87.15 89.83 2.43 o
4 -5 6 118.94 120.05 2.83 o
5 -5 6 80.60 83.26 2.17 o
-9 -4 6 23.75 23.65 7.23 <
-8 -4 6 41.13 45.22 3.97 o
-7 -4 6 81.57 78.62 2.92 o
-6 -4 6 89.05 85.28 2.82 o
-5 -4 6 37.39 40.09 1.87 o
-4 -4 6 78.23 79.50 2.15 o
-3 -4 6 182.14 190.74 4.17 o
-2 -4 6 101.38 102.25 2.54 o
-1 -4 6 50.74 53.57 1.86 o
0 -4 6 110.04 111.05 2.58 o
1 -4 6 184.61 190.40 4.17 o
2 -4 6 63.05 65.22 1.87 o
3 -4 6 63.13 64.03 1.82 o
4 -4 6 68.34 70.45 1.92 o
5 -4 6 77.44 74.09 2.32 o
6 -4 6 45.78 52.38 3.44 o
-9 -3 6 20.26 16.31 6.06 <
-8 -3 6 70.44 67.48 2.70 o
-7 -3 6 75.66 82.14 2.81 o
-6 -3 6 87.11 83.28 2.70 o
-5 -3 6 118.60 121.17 2.79 o
-4 -3 6 205.62 204.90 4.61 o
-3 -3 6 137.75 142.44 3.14 o
-2 -3 6 45.64 46.41 1.46 o
-1 -3 6 410.36 408.48 9.07 o
0 -3 6 190.70 196.94 4.29 o
1 -3 6 93.42 90.83 2.29 o
2 -3 6 117.70 125.34 2.69 o
3 -3 6 234.74 236.24 5.22 o
4 -3 6 91.46 90.59 2.50 o
5 -3 6 22.36 22.62 3.62 o
6 -3 6 56.41 60.74 3.70 o
7 -3 6 56.37 47.68 3.46 o
-10 -2 6 30.79 29.11 4.30 o
-9 -2 6 40.78 41.66 4.02 o
-8 -2 6 102.13 100.25 3.02 o
-7 -2 6 50.41 47.38 2.81 o
-6 -2 6 62.03 60.11 2.36 o
-5 -2 6 158.18 159.92 3.60 o
-4 -2 6 129.42 131.99 2.97 o
-3 -2 6 187.59 186.73 4.17 o
-2 -2 6 242.92 236.02 5.38 o
-1 -2 6 346.94 353.95 7.66 o
0 -2 6 138.50 133.75 3.17 o
1 -2 6 229.63 234.65 5.12 o
2 -2 6 306.31 305.54 6.80 o
3 -2 6 167.50 168.15 3.80 o
4 -2 6 40.43 42.22 1.62 o
5 -2 6 123.98 127.46 3.06 o
6 -2 6 105.19 106.48 3.47 o
7 -2 6 17.83 15.92 8.05 <
-10 -1 6 0.00 15.51 89.86 <
-9 -1 6 51.14 51.75 3.36 o
-8 -1 6 83.53 83.86 2.67 o
-7 -1 6 28.01 22.31 3.20 o
-6 -1 6 98.26 94.58 2.63 o
-5 -1 6 157.41 161.80 3.57 o
-4 -1 6 35.81 31.12 1.18 o
-3 -1 6 230.34 236.45 5.10 o
-2 -1 6 144.84 152.53 3.25 o
-1 -1 6 152.33 155.48 3.45 o
0 -1 6 240.02 230.56 5.34 o
1 -1 6 306.76 305.73 6.80 o
2 -1 6 157.74 154.71 3.58 o
3 -1 6 76.70 76.16 1.99 o
4 -1 6 118.89 115.41 2.80 o
5 -1 6 134.05 137.44 3.12 o
6 -1 6 55.91 54.37 3.60 o
-8 0 6 51.28 51.42 2.80 o
-7 0 6 38.30 28.69 2.85 o
-6 0 6 138.50 140.54 3.35 o
-5 0 6 191.98 194.22 4.28 o
-4 0 6 127.21 121.37 2.89 o
-3 0 6 245.01 238.68 5.44 o
-2 0 6 82.98 87.97 2.00 o
-1 0 6 264.10 266.43 5.86 o
0 0 6 75.59 72.78 1.88 o
1 0 6 126.41 126.84 2.92 o
2 0 6 170.72 170.34 3.86 o
3 0 6 101.13 98.70 2.43 o
4 0 6 178.69 181.01 4.05 o
5 0 6 77.97 79.69 2.07 o
6 0 6 63.77 60.27 3.70 o
-6 1 6 135.13 142.12 3.05 o
-5 1 6 137.31 139.31 3.10 o
-4 1 6 53.35 51.96 1.48 o
-3 1 6 423.49 416.15 9.34 o
-2 1 6 77.47 75.01 1.84 o
-1 1 6 138.85 137.45 3.16 o
0 1 6 190.26 184.36 4.27 o
1 1 6 165.29 164.58 3.70 o
2 1 6 109.43 109.52 2.52 o
3 1 6 45.31 45.49 1.46 o
4 1 6 82.51 79.19 2.13 o
5 1 6 51.11 54.93 3.80 o
6 1 6 38.29 36.32 5.28 o
-7 2 6 173.46 165.04 4.11 o
-6 2 6 85.35 87.01 2.03 o
-5 2 6 229.40 226.17 5.10 o
-4 2 6 214.79 208.70 4.78 o
-3 2 6 369.70 369.08 8.17 o
-2 2 6 98.26 90.55 2.34 o
-1 2 6 344.18 339.44 7.62 o
0 2 6 337.54 332.62 7.47 o
1 2 6 73.74 72.83 1.95 o
2 2 6 79.29 77.28 1.93 o
3 2 6 116.21 108.95 2.76 o
4 2 6 96.20 96.77 2.38 o
5 2 6 0.00 20.77 95.09 <
6 2 6 45.38 48.06 5.41 o
-9 3 6 77.00 71.03 2.87 o
-8 3 6 93.59 91.64 2.84 o
-7 3 6 76.72 73.84 1.88 o
-6 3 6 66.70 66.19 1.73 o
-5 3 6 245.67 244.18 5.46 o
-4 3 6 72.02 70.32 2.04 o
-3 3 6 189.32 183.04 4.32 o
-2 3 6 170.66 170.90 3.95 o
-1 3 6 317.72 319.52 7.10 o
0 3 6 140.34 136.06 3.36 o
1 3 6 30.30 28.77 2.82 o
2 3 6 237.60 229.01 5.79 o
3 3 6 114.50 116.37 2.98 o
4 3 6 54.65 61.36 4.21 o
5 3 6 49.11 55.38 4.59 o
-10 4 6 41.15 39.90 3.06 o
-9 4 6 86.50 84.29 2.93 o
-8 4 6 51.36 51.95 2.94 o
-7 4 6 82.61 84.24 2.04 o
-6 4 6 71.60 71.39 1.86 o
-5 4 6 140.58 137.10 3.32 o
-4 4 6 97.53 101.02 2.53 o
-3 4 6 118.97 123.97 2.92 o
-2 4 6 108.70 112.05 2.76 o
-1 4 6 162.48 166.95 3.84 o
0 4 6 131.14 132.68 3.91 o
1 4 6 103.58 96.51 3.61 o
2 4 6 157.31 160.08 4.46 o
3 4 6 42.73 53.11 4.92 o
4 4 6 52.05 55.91 5.04 o
5 4 6 48.30 61.39 4.72 o
-11 5 6 32.40 30.37 4.03 o
-10 5 6 67.74 61.93 3.10 o
-9 5 6 74.35 72.44 2.94 o
-8 5 6 56.71 58.76 1.71 o
-7 5 6 76.78 74.33 1.99 o
-6 5 6 86.27 81.87 2.35 o
-5 5 6 220.94 220.41 5.03 o
-4 5 6 44.79 39.63 2.05 o
-3 5 6 173.39 166.63 4.55 o
-2 5 6 98.87 94.50 3.43 o
-1 5 6 66.33 65.09 3.66 o
0 5 6 68.77 70.32 3.46 o
1 5 6 90.56 94.41 3.87 o
2 5 6 76.38 79.04 4.15 o
3 5 6 0.00 25.30 108.52 <
4 5 6 55.00 52.71 5.65 o
-11 6 6 30.63 19.78 5.72 o
-10 6 6 60.07 57.00 3.27 o
-9 6 6 89.07 80.00 2.95 o
-8 6 6 29.81 29.00 3.05 o
-7 6 6 94.51 99.14 2.37 o
-6 6 6 121.51 119.24 3.60 o
-5 6 6 111.58 109.04 3.62 o
-4 6 6 88.37 93.30 3.65 o
-3 6 6 100.45 97.58 3.71 o
-2 6 6 136.94 129.00 4.13 o
-1 6 6 58.63 53.56 4.23 o
0 6 6 109.85 109.85 3.90 o
1 6 6 63.57 72.86 4.58 o
2 6 6 13.71 26.26 20.26 <
-10 7 6 56.84 52.32 3.46 o
-9 7 6 32.40 29.95 2.11 o
-8 7 6 28.23 35.30 3.95 o
-7 7 6 119.41 122.94 3.68 o
-6 7 6 45.24 36.46 4.50 o
-5 7 6 77.49 74.60 3.84 o
-4 7 6 107.14 113.05 3.97 o
-3 7 6 149.99 153.96 4.47 o
-2 7 6 78.44 79.92 4.14 o
-1 7 6 53.85 48.06 4.84 o
0 7 6 134.74 124.93 4.68 o
-10 8 6 28.13 18.06 5.98 o
-9 8 6 23.76 20.50 3.41 o
-8 8 6 45.57 46.32 5.32 o
-7 8 6 82.61 77.83 4.04 o
-6 8 6 16.54 8.04 13.05 <
-5 8 6 94.59 94.26 4.10 o
-4 8 6 87.84 89.17 3.98 o
-3 8 6 38.12 40.85 7.36 o
-10 9 6 17.15 21.65 6.92 <
-9 9 6 42.75 44.25 3.27 o
-5 -8 7 47.69 51.28 3.28 o
-6 -7 7 42.90 44.91 3.97 o
-5 -7 7 77.23 80.85 2.96 o
-7 -6 7 31.58 31.42 5.02 o
-6 -6 7 63.10 64.23 3.05 o
-5 -6 7 73.98 75.21 2.58 o
4 -6 7 34.24 35.44 1.78 o
-8 -5 7 18.71 20.87 8.17 <
-7 -5 7 60.39 48.79 3.09 o
-6 -5 7 56.14 50.66 2.89 o
-5 -5 7 33.11 30.42 2.81 o
-4 -5 7 51.36 59.37 1.92 o
-3 -5 7 114.18 127.29 2.84 o
-2 -5 7 72.36 80.74 2.15 o
-1 -5 7 32.61 31.83 2.23 o
0 -5 7 131.89 140.13 3.21 o
3 -5 7 89.94 89.72 2.20 o
4 -5 7 191.13 193.30 4.32 o
5 -5 7 74.79 74.79 2.05 o
-9 -4 7 16.85 20.49 9.77 <
-8 -4 7 41.75 38.90 3.82 o
-7 -4 7 87.94 86.52 2.95 o
-6 -4 7 30.63 30.07 3.83 o
-5 -4 7 69.35 70.60 1.93 o
-4 -4 7 67.02 66.33 1.87 o
-3 -4 7 59.80 66.59 1.89 o
-2 -4 7 66.57 71.04 2.03 o
-1 -4 7 101.90 108.75 2.43 o
0 -4 7 203.81 206.96 4.59 o
1 -4 7 86.83 84.28 2.25 o
2 -4 7 70.25 73.40 1.96 o
3 -4 7 206.04 200.77 4.72 o
4 -4 7 110.66 107.89 2.81 o
5 -4 7 29.50 34.51 5.95 o
6 -4 7 66.78 70.36 3.64 o
-9 -3 7 45.89 46.10 3.82 o
-8 -3 7 72.78 68.04 2.69 o
-7 -3 7 97.82 99.27 2.95 o
-6 -3 7 44.98 48.70 2.82 o
-5 -3 7 125.62 127.21 2.93 o
-4 -3 7 154.95 157.22 3.53 o
-3 -3 7 125.80 127.31 2.89 o
-2 -3 7 213.19 212.18 4.75 o
-1 -3 7 125.05 129.76 2.92 o
0 -3 7 175.23 181.27 3.97 o
1 -3 7 57.69 59.10 1.72 o
2 -3 7 251.42 252.37 5.62 o
3 -3 7 19.59 23.52 2.52 o
4 -3 7 0.00 25.82 89.33 <
5 -3 7 52.49 49.71 3.95 o
6 -3 7 96.34 102.12 3.49 o
-10 -2 7 37.36 35.04 4.81 o
-9 -2 7 59.47 58.79 3.14 o
-8 -2 7 52.21 46.40 3.14 o
-7 -2 7 89.77 85.95 2.80 o
-6 -2 7 47.05 44.88 2.63 o
-5 -2 7 205.74 203.30 4.62 o
-4 -2 7 186.61 190.35 4.16 o
-3 -2 7 88.73 92.67 2.10 o
-2 -2 7 172.38 171.52 3.86 o
-1 -2 7 159.73 159.90 3.58 o
0 -2 7 271.30 268.28 6.04 o
1 -2 7 147.51 139.81 3.39 o
2 -2 7 112.67 112.58 2.68 o
3 -2 7 137.42 139.77 3.19 o
4 -2 7 136.69 135.31 3.36 o
5 -2 7 70.23 73.64 3.21 o
6 -2 7 59.59 54.95 3.77 o
-9 -1 7 77.24 70.62 2.94 o
-8 -1 7 43.58 40.12 2.65 o
-7 -1 7 64.81 65.24 2.52 o
-6 -1 7 59.14 59.75 2.36 o
-5 -1 7 171.16 177.10 3.83 o
-4 -1 7 53.93 56.43 1.44 o
-3 -1 7 83.45 82.67 1.97 o
-2 -1 7 440.00 433.46 9.72 o
-1 -1 7 123.22 119.55 2.86 o
0 -1 7 174.40 173.44 3.94 o
1 -1 7 142.39 145.81 3.27 o
2 -1 7 245.49 245.47 5.48 o
3 -1 7 140.40 144.30 3.24 o
4 -1 7 74.65 73.07 2.25 o
5 -1 7 86.64 90.30 2.53 o
6 -1 7 69.38 70.55 3.55 o
-5 0 7 79.45 77.33 1.94 o
-4 0 7 98.07 101.85 2.31 o
-3 0 7 162.74 164.54 3.67 o
-2 0 7 214.85 215.50 4.80 o
-1 0 7 153.35 148.67 3.48 o
0 0 7 221.46 222.98 4.95 o
1 0 7 231.83 228.96 5.18 o
2 0 7 112.65 113.20 2.68 o
3 0 7 0.00 7.33 52.27 <
4 0 7 135.07 130.41 3.31 o
5 0 7 67.77 69.52 3.79 o
6 0 7 16.95 33.83 9.56 <
-6 1 7 173.53 178.85 3.91 o
-5 1 7 42.64 41.63 1.61 o
-4 1 7 299.11 301.12 6.61 o
-3 1 7 46.80 42.44 1.38 o
-2 1 7 155.87 153.50 3.49 o
-1 1 7 83.67 81.85 2.11 o
0 1 7 373.63 370.01 8.27 o
1 1 7 68.33 71.27 1.74 o
2 1 7 66.66 66.22 1.75 o
3 1 7 179.22 176.19 4.06 o
4 1 7 104.90 108.60 2.56 o
5 1 7 29.30 40.58 5.05 o
6 1 7 55.11 53.96 4.78 o
-7 2 7 115.33 118.41 2.65 o
-6 2 7 76.62 77.21 1.88 o
-5 2 7 181.73 177.78 4.08 o
-4 2 7 258.12 256.80 5.73 o
-3 2 7 39.99 42.82 1.37 o
-2 2 7 233.73 230.75 5.22 o
-1 2 7 148.94 145.43 3.41 o
0 2 7 109.82 111.01 2.60 o
1 2 7 138.58 137.60 3.22 o
2 2 7 142.45 136.15 3.28 o
3 2 7 104.05 109.60 2.54 o
4 2 7 24.09 39.88 7.90 <
5 2 7 0.00 17.56 87.36 <
-9 3 7 60.67 55.12 2.60 o
-8 3 7 130.05 122.38 3.36 o
-7 3 7 73.98 76.08 1.84 o
-6 3 7 96.45 92.21 2.30 o
-5 3 7 110.07 105.98 2.59 o
-4 3 7 290.87 289.98 6.46 o
-3 3 7 65.30 62.15 2.09 o
-2 3 7 233.20 228.66 5.29 o
-1 3 7 178.78 177.81 4.15 o
0 3 7 121.82 119.81 3.02 o
1 3 7 142.62 144.86 3.43 o
2 3 7 110.40 112.10 2.81 o
3 3 7 86.06 83.25 2.52 o
4 3 7 29.95 44.21 6.61 o
5 3 7 78.70 77.40 4.50 o
-10 4 7 23.10 27.60 6.42 <
-9 4 7 73.90 75.08 2.83 o
-8 4 7 49.82 48.37 1.52 o
-7 4 7 41.86 40.00 1.61 o
-6 4 7 173.56 171.09 3.92 o
-5 4 7 73.22 68.11 1.94 o
-4 4 7 153.94 148.35 3.63 o
-3 4 7 48.32 47.31 2.21 o
-2 4 7 228.50 231.57 5.58 o
-1 4 7 101.69 100.88 3.54 o
0 4 7 120.52 123.80 3.76 o
1 4 7 190.10 179.18 5.00 o
2 4 7 83.05 78.96 3.59 o
3 4 7 77.71 87.95 3.77 o
4 4 7 54.38 54.83 5.53 o
-11 5 7 32.57 31.75 4.11 o
-10 5 7 63.30 59.42 3.19 o
-9 5 7 46.44 52.30 3.11 o
-8 5 7 50.59 49.11 1.65 o
-7 5 7 54.33 58.14 1.79 o
-6 5 7 136.01 131.60 3.16 o
-5 5 7 54.87 54.57 2.26 o
-4 5 7 58.09 61.45 3.71 o
-3 5 7 79.11 81.22 3.65 o
-2 5 7 121.02 123.63 3.88 o
-1 5 7 33.17 35.41 5.45 o
0 5 7 88.86 87.50 3.97 o
1 5 7 94.52 96.69 3.92 o
2 5 7 39.55 47.78 6.42 o
-11 6 7 50.95 42.23 3.85 o
-10 6 7 71.88 63.23 2.79 o
-9 6 7 59.11 61.77 2.98 o
-8 6 7 67.33 66.16 2.29 o
-7 6 7 77.50 76.25 2.41 o
-6 6 7 147.97 145.01 4.16 o
-5 6 7 66.84 69.04 3.65 o
-4 6 7 185.45 185.87 4.85 o
-3 6 7 135.43 132.27 4.08 o
-2 6 7 64.27 60.57 4.25 o
-1 6 7 105.39 106.09 4.10 o
0 6 7 60.09 46.67 4.77 o
1 6 7 71.16 66.16 4.42 o
-11 7 7 30.62 40.58 5.80 o
-10 7 7 48.42 44.09 3.75 o
-9 7 7 29.65 32.90 4.28 o
-8 7 7 69.41 71.02 2.51 o
-7 7 7 72.48 72.63 3.88 o
-6 7 7 68.08 70.70 3.54 o
-5 7 7 37.88 33.72 5.82 o
-4 7 7 152.92 151.62 4.43 o
-3 7 7 93.69 89.24 3.97 o
-2 7 7 57.32 57.45 4.96 o
-1 7 7 109.08 106.95 4.61 o
-9 8 7 43.55 45.44 3.06 o
-8 8 7 68.48 70.90 3.78 o
-7 8 7 0.00 26.82 104.06 <
-6 8 7 64.10 62.35 3.94 o
-5 8 7 53.68 57.04 5.38 o
-4 8 7 97.27 97.08 4.67 o
-10 9 7 27.69 31.97 6.63 o
-9 9 7 49.40 46.98 3.62 o
-9 10 7 33.43 35.23 5.45 o
-5 -8 8 55.80 52.79 3.14 o
-6 -7 8 75.85 69.83 3.12 o
-5 -7 8 49.46 44.08 3.34 o
-7 -6 8 47.89 48.92 3.74 o
-6 -6 8 54.98 57.87 3.17 o
-5 -6 8 26.26 27.81 4.26 o
3 -6 8 99.73 105.90 2.41 o
-8 -5 8 39.26 30.53 4.34 o
-7 -5 8 54.19 52.96 3.36 o
-6 -5 8 62.80 55.04 2.82 o
-5 -5 8 44.82 47.66 2.96 o
-4 -5 8 124.06 121.78 3.17 o
3 -5 8 128.21 126.12 3.18 o
4 -5 8 48.77 47.13 1.55 o
-8 -4 8 50.43 53.74 3.50 o
-7 -4 8 57.08 58.26 2.98 o
-6 -4 8 35.95 30.32 2.73 o
-5 -4 8 18.09 13.40 4.94 <
-4 -4 8 108.54 97.80 2.82 o
-3 -4 8 47.70 52.13 1.59 o
-2 -4 8 86.39 90.96 2.38 o
-1 -4 8 54.70 55.28 1.89 o
0 -4 8 124.80 131.48 3.15 o
1 -4 8 137.33 131.49 3.95 o
2 -4 8 156.25 152.11 4.35 o
3 -4 8 79.16 74.81 3.35 o
4 -4 8 127.71 132.79 3.95 o
5 -4 8 88.57 91.53 3.72 o
6 -4 8 60.96 68.22 4.21 o
-9 -3 8 42.45 51.87 3.99 o
-8 -3 8 80.04 84.91 2.74 o
-7 -3 8 29.51 32.76 4.20 o
-6 -3 8 89.77 87.32 2.59 o
-5 -3 8 118.99 115.90 3.03 o
-4 -3 8 174.13 177.32 3.94 o
-3 -3 8 36.64 39.87 1.36 o
-2 -3 8 76.24 76.88 1.91 o
-1 -3 8 219.52 219.77 4.89 o
0 -3 8 83.83 83.95 2.19 o
1 -3 8 31.56 31.52 2.29 o
2 -3 8 63.31 64.35 2.32 o
3 -3 8 98.86 99.87 3.62 o
4 -3 8 48.29 46.17 3.50 o
5 -3 8 27.74 37.32 5.26 o
6 -3 8 54.72 54.12 4.62 o
-10 -2 8 29.08 39.12 5.80 o
-9 -2 8 64.18 64.92 2.78 o
-8 -2 8 59.13 50.21 2.79 o
-7 -2 8 33.08 31.02 3.63 o
-6 -2 8 169.96 166.32 4.03 o
-5 -2 8 128.45 126.47 3.16 o
-4 -2 8 77.85 78.43 1.90 o
-3 -2 8 194.95 195.08 4.35 o
-2 -2 8 254.91 257.54 5.65 o
-1 -2 8 150.16 149.90 3.45 o
0 -2 8 100.89 98.25 2.45 o
1 -2 8 198.48 200.32 4.48 o
2 -2 8 170.73 171.05 4.02 o
3 -2 8 55.50 55.68 2.24 o
4 -2 8 63.49 58.41 3.73 o
5 -2 8 80.65 79.55 3.37 o
6 -2 8 45.70 46.04 5.14 o
-8 -1 8 56.03 47.30 2.91 o
-7 -1 8 63.77 58.93 2.57 o
-6 -1 8 168.25 168.78 3.98 o
-5 -1 8 97.01 99.54 2.27 o
-4 -1 8 139.21 133.64 3.15 o
-3 -1 8 252.56 250.80 5.63 o
-2 -1 8 123.21 126.18 2.88 o
-1 -1 8 158.79 160.16 3.62 o
0 -1 8 240.03 239.18 5.36 o
1 -1 8 329.75 331.03 7.32 o
2 -1 8 79.64 66.96 2.47 o
3 -1 8 114.54 115.41 2.96 o
4 -1 8 126.17 134.49 3.19 o
5 -1 8 78.16 76.95 3.47 o
6 -1 8 28.34 31.94 6.90 o
-6 0 8 125.06 128.90 2.93 o
-5 0 8 88.68 92.28 2.15 o
-4 0 8 190.84 192.67 4.29 o
-3 0 8 230.65 231.81 5.15 o
-2 0 8 14.24 20.21 2.62 o
-1 0 8 267.86 262.78 5.96 o
0 0 8 101.34 103.90 2.45 o
1 0 8 80.30 77.81 2.13 o
2 0 8 150.48 152.64 3.61 o
3 0 8 111.05 108.97 2.87 o
4 0 8 99.59 108.17 2.75 o
5 0 8 61.63 58.59 4.41 o
-7 1 8 95.30 100.64 2.27 o
-6 1 8 129.90 134.03 3.03 o
-5 1 8 55.43 52.39 1.84 o
-4 1 8 185.19 182.75 4.16 o
-3 1 8 254.20 251.40 5.66 o
-2 1 8 102.80 103.27 2.47 o
-1 1 8 138.62 140.71 3.20 o
0 1 8 45.49 42.64 1.63 o
1 1 8 155.47 158.59 3.69 o
2 1 8 63.55 67.24 1.82 o
3 1 8 156.07 159.72 3.59 o
4 1 8 68.80 67.73 3.77 o
5 1 8 44.19 32.14 5.50 o
-7 2 8 76.36 75.78 1.88 o
-6 2 8 75.10 74.56 1.90 o
-5 2 8 207.12 207.48 4.63 o
-4 2 8 161.12 155.75 3.65 o
-3 2 8 165.06 161.71 3.70 o
-2 2 8 71.79 70.05 1.80 o
-1 2 8 259.72 259.82 5.79 o
0 2 8 96.83 94.15 2.56 o
1 2 8 50.50 48.49 1.85 o
2 2 8 73.75 70.39 2.04 o
3 2 8 76.83 69.97 2.16 o
4 2 8 31.88 30.66 7.14 o
5 2 8 0.00 36.39 111.24 <
-8 3 8 90.03 90.49 2.16 o
-7 3 8 39.58 37.21 1.57 o
-6 3 8 125.79 126.82 2.91 o
-5 3 8 237.19 235.87 5.29 o
-4 3 8 61.93 58.35 1.73 o
-3 3 8 199.30 195.64 4.58 o
-2 3 8 137.70 134.35 3.35 o
-1 3 8 226.68 226.77 5.17 o
0 3 8 62.22 61.77 2.34 o
1 3 8 105.54 104.11 2.80 o
2 3 8 145.04 144.66 3.36 o
3 3 8 0.00 11.07 96.72 <
4 3 8 23.45 33.32 9.09 <
-10 4 8 57.26 48.15 3.26 o
-9 4 8 65.98 62.09 2.88 o
-8 4 8 66.61 69.95 1.82 o
-7 4 8 104.26 100.79 2.49 o
-6 4 8 155.62 151.61 3.56 o
-5 4 8 104.57 107.14 2.52 o
-4 4 8 36.91 39.53 2.28 o
-3 4 8 260.71 254.09 6.24 o
-2 4 8 70.71 78.17 3.58 o
-1 4 8 73.85 78.93 3.63 o
0 4 8 98.96 99.38 3.85 o
1 4 8 185.75 183.37 5.02 o
2 4 8 65.00 53.23 4.18 o
3 4 8 44.03 39.09 5.09 o
-11 5 8 17.35 32.80 9.69 <
-10 5 8 60.18 60.07 2.76 o
-9 5 8 46.21 43.39 3.33 o
-8 5 8 36.68 31.99 2.62 o
-7 5 8 71.98 74.09 1.99 o
-6 5 8 27.73 17.87 2.42 o
-5 5 8 78.27 76.84 3.45 o
-4 5 8 11.64 26.45 13.67 <
-3 5 8 154.17 159.02 4.30 o
-2 5 8 62.23 68.26 3.89 o
-1 5 8 43.04 54.22 4.78 o
0 5 8 118.85 118.14 4.19 o
1 5 8 34.03 26.91 5.37 o
2 5 8 49.80 38.09 6.52 o
-11 6 8 45.42 49.70 3.37 o
-10 6 8 53.76 56.12 3.35 o
-9 6 8 43.66 41.28 3.57 o
-8 6 8 63.04 64.07 2.41 o
-7 6 8 132.49 132.99 3.31 o
-6 6 8 53.81 61.79 4.07 o
-5 6 8 94.37 90.88 3.54 o
-4 6 8 68.29 67.90 3.93 o
-3 6 8 126.74 126.36 4.16 o
-2 6 8 72.66 71.68 4.05 o
-1 6 8 67.17 66.51 4.38 o
0 6 8 96.24 94.27 4.55 o
-11 7 8 51.74 40.27 3.43 o
-9 7 8 53.80 47.06 3.26 o
-8 7 8 87.94 89.12 2.73 o
-7 7 8 105.59 114.34 3.82 o
-6 7 8 0.00 8.00 100.49 <
-5 7 8 109.56 115.84 4.12 o
-4 7 8 97.33 92.44 4.20 o
-3 7 8 53.45 65.51 5.32 o
-10 8 8 0.00 17.04 90.32 <
-9 8 8 56.38 51.74 3.44 o
-8 8 8 25.39 38.81 5.44 o
-7 8 8 30.02 28.48 9.33 <
-6 8 8 48.00 43.65 6.82 o
-10 9 8 46.72 32.32 4.26 o
-9 9 8 59.28 46.69 3.08 o
-4 -9 9 37.18 40.02 3.52 o
-5 -8 9 37.35 35.92 4.11 o
-4 -8 9 23.98 11.60 4.74 o
-6 -7 9 63.95 63.72 3.00 o
-5 -7 9 58.96 52.89 2.97 o
-4 -7 9 12.71 22.01 8.48 <
-7 -6 9 52.11 53.24 3.45 o
-6 -6 9 56.09 54.91 3.06 o
-5 -6 9 24.72 27.70 4.56 o
-4 -6 9 79.64 79.44 2.59 o
-8 -5 9 35.12 46.60 4.58 o
-7 -5 9 67.60 60.55 2.99 o
-6 -5 9 32.35 31.85 3.88 o
-5 -5 9 64.96 62.72 2.32 o
-4 -5 9 110.72 105.60 2.90 o
-3 -5 9 121.25 115.46 3.01 o
2 -5 9 54.35 61.42 4.60 o
3 -5 9 89.03 95.11 3.99 o
4 -5 9 124.47 124.47 4.29 o
5 -5 9 38.56 44.33 5.75 o
-9 -4 9 28.13 27.33 4.56 o
-8 -4 9 52.29 54.64 3.33 o
-7 -4 9 52.81 51.05 2.69 o
-5 -4 9 109.81 107.84 2.86 o
-4 -4 9 62.49 65.38 2.22 o
-3 -4 9 53.09 47.54 1.94 o
-2 -4 9 99.55 90.20 2.45 o
-1 -4 9 207.57 207.81 4.76 o
0 -4 9 93.23 93.24 3.61 o
1 -4 9 8.40 21.31 13.60 <
2 -4 9 182.24 179.29 4.87 o
3 -4 9 149.93 148.50 4.38 o
4 -4 9 39.71 31.38 5.63 o
5 -4 9 44.83 42.88 5.84 o
6 -4 9 73.18 78.06 4.63 o
-9 -3 9 59.20 58.46 3.43 o
-8 -3 9 51.51 50.72 2.72 o
-7 -3 9 41.15 39.70 3.13 o
-6 -3 9 63.77 60.86 2.53 o
-5 -3 9 139.94 133.11 3.41 o
-4 -3 9 62.98 63.52 2.04 o
-3 -3 9 89.56 83.44 2.45 o
-2 -3 9 119.66 118.70 2.98 o
-1 -3 9 84.89 93.98 2.41 o
0 -3 9 110.15 114.38 3.67 o
1 -3 9 133.62 135.22 4.03 o
2 -3 9 148.20 137.50 4.20 o
3 -3 9 20.70 20.47 8.11 <
4 -3 9 82.86 78.69 3.90 o
5 -3 9 93.50 95.11 3.99 o
6 -3 9 46.70 57.99 5.68 o
-9 -2 9 71.17 63.67 2.93 o
-8 -2 9 37.21 37.63 2.95 o
-7 -2 9 73.91 71.61 2.65 o
-6 -2 9 100.41 99.14 2.76 o
-5 -2 9 188.05 186.79 4.23 o
-4 -2 9 69.95 70.04 1.92 o
-3 -2 9 157.28 164.98 3.55 o
-2 -2 9 165.15 160.35 3.77 o
-1 -2 9 98.93 104.26 2.43 o
0 -2 9 150.07 151.75 3.61 o
1 -2 9 94.49 97.09 2.62 o
2 -2 9 54.60 57.53 2.41 o
3 -2 9 79.18 76.68 3.44 o
4 -2 9 92.16 85.35 3.76 o
5 -2 9 33.88 42.68 5.10 o
6 -2 9 21.87 27.02 10.62 <
-6 -1 9 96.60 99.36 2.41 o
-5 -1 9 104.60 100.93 2.63 o
-4 -1 9 45.78 48.44 1.71 o
-3 -1 9 207.56 203.20 4.66 o
-2 -1 9 266.60 268.45 5.94 o
-1 -1 9 144.13 143.54 3.33 o
0 -1 9 155.00 148.19 3.70 o
1 -1 9 118.84 121.41 3.00 o
2 -1 9 120.75 119.35 3.10 o
3 -1 9 73.74 79.53 2.33 o
4 -1 9 54.63 47.32 3.79 o
5 -1 9 59.27 64.65 4.81 o
6 -1 9 0.00 42.16 116.66 <
-6 0 9 32.99 31.91 1.91 o
-5 0 9 139.68 141.26 3.29 o
-4 0 9 178.97 180.01 4.05 o
-3 0 9 201.72 199.95 4.54 o
-2 0 9 82.16 80.05 2.15 o
-1 0 9 17.35 17.47 3.02 o
0 0 9 268.86 268.08 6.07 o
1 0 9 114.47 114.66 2.96 o
2 0 9 109.65 112.40 2.89 o
3 0 9 116.14 112.89 3.04 o
4 0 9 105.60 106.36 4.01 o
-7 1 9 68.80 72.54 1.89 o
-6 1 9 45.07 44.37 1.80 o
-5 1 9 188.81 185.38 4.32 o
-4 1 9 88.58 90.57 2.22 o
-3 1 9 120.21 119.90 2.82 o
-2 1 9 157.27 157.00 3.61 o
-1 1 9 114.01 119.08 2.90 o
0 1 9 161.87 163.70 3.84 o
1 1 9 40.10 37.30 2.73 o
2 1 9 82.02 81.81 2.53 o
3 1 9 85.59 92.79 2.61 o
4 1 9 32.80 31.09 7.69 o
5 1 9 49.39 36.15 5.91 o
-8 2 9 75.41 82.94 2.29 o
-7 2 9 77.64 82.04 2.05 o
-6 2 9 131.72 132.57 3.04 o
-5 2 9 142.53 137.07 3.28 o
-4 2 9 107.01 104.48 2.50 o
-3 2 9 33.15 29.83 1.47 o
-2 2 9 238.87 237.92 5.33 o
-1 2 9 36.43 33.84 2.74 o
0 2 9 82.08 81.84 2.48 o
1 2 9 85.39 83.52 2.25 o
2 2 9 133.19 136.74 3.14 o
3 2 9 31.28 42.02 5.68 o
4 2 9 33.37 20.10 8.15 o
-8 3 9 55.88 52.79 1.91 o
-7 3 9 89.85 87.98 2.22 o
-6 3 9 136.40 137.38 3.15 o
-5 3 9 113.46 109.04 2.68 o
-4 3 9 176.20 177.48 3.99 o
-3 3 9 89.48 88.68 3.40 o
-2 3 9 248.44 247.70 5.64 o
-1 3 9 123.80 121.35 3.13 o
0 3 9 122.52 122.64 3.13 o
1 3 9 84.25 85.36 2.60 o
2 3 9 80.12 76.82 3.80 o
3 3 9 48.07 54.36 6.00 o
-9 4 9 85.31 80.18 2.78 o
-8 4 9 32.55 27.78 2.68 o
-7 4 9 98.35 94.06 2.41 o
-6 4 9 129.67 132.97 3.03 o
-5 4 9 85.91 87.95 2.43 o
-4 4 9 119.68 122.94 3.79 o
-3 4 9 78.40 81.22 3.65 o
-2 4 9 203.27 203.49 5.22 o
-1 4 9 41.52 32.79 4.08 o
0 4 9 145.94 135.41 4.44 o
1 4 9 84.89 84.21 4.16 o
2 4 9 43.64 52.46 5.55 o
-11 5 9 56.35 55.84 3.44 o
-10 5 9 48.06 42.54 3.51 o
-9 5 9 32.06 32.08 3.29 o
-8 5 9 32.30 39.66 2.91 o
-7 5 9 91.91 92.06 2.58 o
-6 5 9 123.62 126.79 3.12 o
-5 5 9 48.27 46.32 4.16 o
-4 5 9 138.04 138.81 4.17 o
-3 5 9 45.96 56.88 4.52 o
-2 5 9 98.91 101.22 4.01 o
-1 5 9 34.95 33.04 4.83 o
0 5 9 134.65 138.84 4.29 o
-11 6 9 65.02 56.69 3.48 o
-10 6 9 0.00 20.33 73.47 <
-9 6 9 40.21 39.80 3.73 o
-8 6 9 65.26 62.35 2.51 o
-7 6 9 62.21 63.11 2.58 o
-6 6 9 81.78 75.78 3.78 o
-5 6 9 22.00 42.18 8.95 <
-4 6 9 169.91 166.47 4.75 o
-3 6 9 19.19 9.86 10.99 <
-2 6 9 48.45 52.22 4.30 o
-1 6 9 64.07 68.00 5.40 o
-11 7 9 28.03 36.28 6.20 o
-10 7 9 23.87 28.68 6.71 <
-9 7 9 67.11 63.92 2.66 o
-8 7 9 85.54 82.09 2.73 o
-7 7 9 41.47 40.00 2.93 o
-6 7 9 66.50 71.20 4.60 o
-5 7 9 64.35 63.28 4.12 o
-4 7 9 122.58 113.18 4.59 o
-10 8 9 22.80 17.06 6.38 <
-9 8 9 41.58 46.18 3.16 o
-8 8 9 61.29 59.73 2.97 o
-9 9 9 44.03 34.57 3.98 o
-5 -8 10 19.81 23.87 6.40 <
-4 -8 10 21.94 15.99 5.44 o
-6 -7 10 55.85 49.38 3.08 o
-5 -7 10 42.86 37.78 3.35 o
-4 -7 10 28.86 28.71 3.92 o
-3 -7 10 74.39 73.48 2.49 o
-7 -6 10 53.03 52.84 3.38 o
-6 -6 10 58.13 54.23 2.64 o
-5 -6 10 19.31 30.64 5.41 <
-4 -6 10 86.88 84.45 2.62 o
-3 -6 10 57.22 57.10 2.18 o
-2 -6 10 48.28 44.61 1.92 o
-8 -5 10 43.67 43.30 3.94 o
-7 -5 10 44.59 41.03 3.33 o
-6 -5 10 25.95 27.25 4.64 o
-5 -5 10 69.37 68.87 2.45 o
-4 -5 10 113.07 108.01 2.93 o
-3 -5 10 76.78 73.54 2.22 o
-2 -5 10 118.55 116.08 2.85 o
-1 -5 10 119.68 120.97 2.80 o
1 -5 10 123.77 121.65 4.19 o
2 -5 10 139.41 139.46 4.40 o
3 -5 10 95.45 93.31 4.17 o
4 -5 10 0.00 29.93 114.63 <
-9 -4 10 0.00 34.43 82.20 <
-8 -4 10 71.64 60.92 2.98 o
-7 -4 10 45.92 33.98 3.09 o
-6 -4 10 67.53 67.12 2.49 o
-5 -4 10 68.96 68.16 2.29 o
-4 -4 10 107.18 100.88 2.75 o
-3 -4 10 41.48 39.11 1.88 o
-2 -4 10 119.26 116.47 3.04 o
-1 -4 10 72.29 69.44 2.32 o
0 -4 10 101.30 100.39 3.82 o
1 -4 10 114.39 118.37 4.02 o
2 -4 10 72.87 74.16 3.67 o
3 -4 10 77.43 82.08 4.05 o
4 -4 10 92.94 94.80 4.20 o
5 -4 10 87.88 92.11 3.99 o
-9 -3 10 48.32 49.81 3.62 o
-8 -3 10 52.48 44.66 3.12 o
-7 -3 10 20.15 21.72 5.30 <
-6 -3 10 95.73 91.61 2.75 o
-5 -3 10 36.83 34.49 2.36 o
-4 -3 10 74.09 75.87 2.13 o
-3 -3 10 23.42 19.59 3.64 o
-2 -3 10 123.27 125.64 3.07 o
-1 -3 10 154.09 143.29 4.35 o
0 -3 10 111.60 113.13 3.70 o
1 -3 10 69.16 67.85 3.87 o
2 -3 10 96.66 97.08 3.78 o
3 -3 10 90.08 92.45 3.69 o
4 -3 10 83.94 84.92 4.21 o
5 -3 10 30.53 21.32 8.78 <
-8 -2 10 52.25 47.38 3.04 o
-7 -2 10 64.82 62.80 2.51 o
-6 -2 10 128.73 126.00 3.23 o
-5 -2 10 40.51 38.66 2.19 o
-4 -2 10 92.57 96.78 3.37 o
-3 -2 10 133.95 132.68 3.94 o
-2 -2 10 182.61 186.25 4.75 o
-1 -2 10 59.62 60.43 3.78 o
0 -2 10 32.71 37.30 5.63 o
1 -2 10 183.70 177.76 4.83 o
2 -2 10 62.25 56.23 4.03 o
3 -2 10 38.43 39.15 5.48 o
4 -2 10 39.94 41.99 4.82 o
5 -2 10 64.23 59.39 4.96 o
-6 -1 10 112.73 117.55 2.81 o
-5 -1 10 54.64 56.16 2.07 o
-4 -1 10 267.05 265.65 6.02 o
-3 -1 10 143.94 143.86 4.06 o
-2 -1 10 40.19 32.54 2.53 o
-1 -1 10 106.65 107.21 2.83 o
0 -1 10 151.01 154.40 3.64 o
1 -1 10 86.33 88.60 2.62 o
2 -1 10 41.08 38.47 4.62 o
3 -1 10 104.66 96.29 4.04 o
4 -1 10 88.60 90.54 4.26 o
5 -1 10 24.99 5.88 9.28 <
-7 0 10 46.68 52.40 1.84 o
-6 0 10 91.01 90.41 2.38 o
-5 0 10 75.44 74.57 2.23 o
-4 0 10 243.63 238.42 5.52 o
-3 0 10 168.66 168.37 3.95 o
-2 0 10 178.75 183.96 4.19 o
-1 0 10 311.00 312.31 6.99 o
0 0 10 117.67 115.82 3.06 o
1 0 10 99.54 97.76 2.79 o
2 0 10 130.73 136.37 3.32 o
3 0 10 129.80 128.53 4.15 o
4 0 10 41.08 28.91 6.59 o
5 0 10 0.00 23.36 125.89 <
-7 1 10 29.15 25.77 2.15 o
-6 1 10 86.90 87.99 2.35 o
-5 1 10 55.20 57.19 1.94 o
-4 1 10 109.47 102.63 2.79 o
-3 1 10 35.09 34.60 2.36 o
-2 1 10 183.04 188.83 4.28 o
-1 1 10 83.25 84.85 2.43 o
0 1 10 42.92 42.81 2.65 o
1 1 10 107.50 107.34 2.89 o
2 1 10 85.33 91.88 2.54 o
3 1 10 33.99 48.37 5.40 o
4 1 10 32.88 51.86 8.41 <
-8 2 10 110.95 120.28 3.08 o
-7 2 10 30.09 35.72 1.97 o
-6 2 10 128.68 128.64 3.10 o
-5 2 10 143.12 143.71 3.30 o
-4 2 10 119.89 121.52 2.95 o
-3 2 10 64.26 58.97 1.93 o
-2 2 10 62.61 65.19 2.39 o
-1 2 10 120.65 119.14 3.09 o
0 2 10 15.79 25.34 6.25 <
1 2 10 82.67 82.01 2.51 o
2 2 10 68.79 67.44 3.88 o
3 2 10 0.00 43.24 113.78 <
-8 3 10 85.28 88.15 2.34 o
-7 3 10 35.35 32.92 1.82 o
-6 3 10 175.20 173.36 3.98 o
-5 3 10 97.79 91.78 2.66 o
-4 3 10 91.96 90.02 2.55 o
-3 3 10 178.17 179.34 4.16 o
-2 3 10 122.77 127.87 3.13 o
-1 3 10 88.43 89.66 2.65 o
0 3 10 45.54 41.52 2.89 o
1 3 10 106.72 113.02 4.20 o
2 3 10 35.56 43.63 7.34 o
-9 4 10 0.00 17.22 78.34 <
-8 4 10 62.89 60.97 2.28 o
-7 4 10 54.61 56.49 2.16 o
-6 4 10 122.72 117.42 3.09 o
-5 4 10 103.87 108.03 2.77 o
-4 4 10 67.61 63.72 2.39 o
-3 4 10 172.44 171.74 4.72 o
-2 4 10 29.21 26.34 6.64 o
-1 4 10 64.79 68.32 3.79 o
0 4 10 86.12 86.09 4.42 o
1 4 10 80.56 74.87 4.75 o
-10 5 10 62.99 55.89 2.74 o
-9 5 10 21.12 10.64 6.37 <
-8 5 10 107.73 108.67 2.84 o
-7 5 10 82.30 79.42 2.56 o
-6 5 10 55.79 56.02 2.52 o
-5 5 10 83.36 84.33 2.63 o
-4 5 10 82.42 82.29 3.71 o
-3 5 10 128.77 134.41 4.23 o
-2 5 10 32.80 32.63 6.77 o
-1 5 10 138.67 141.34 4.44 o
-11 6 10 51.30 43.72 3.07 o
-10 6 10 23.25 31.24 6.57 <
-9 6 10 11.43 16.81 8.33 <
-8 6 10 79.63 77.87 2.60 o
-7 6 10 42.12 48.47 3.32 o
-6 6 10 55.39 56.75 2.77 o
-5 6 10 98.58 101.38 4.13 o
-4 6 10 34.88 31.81 5.05 o
-3 6 10 76.20 74.37 3.98 o
-10 7 10 44.65 46.24 3.82 o
-9 7 10 47.12 43.42 3.37 o
-8 7 10 65.12 63.74 2.80 o
-7 7 10 47.62 44.67 3.21 o
-6 7 10 59.40 51.14 5.63 o
-10 8 10 45.73 46.15 3.97 o
-9 8 10 44.99 43.88 3.41 o
-8 8 10 53.91 54.67 2.86 o
-9 9 10 13.98 23.62 10.47 <
-8 9 10 0.00 14.61 83.71 <
-4 -8 11 40.63 33.31 3.34 o
-3 -8 11 56.59 51.26 2.52 o
-2 -8 11 42.68 42.77 2.34 o
-6 -7 11 22.98 27.91 5.62 o
-5 -7 11 38.05 31.37 2.76 o
-4 -7 11 26.16 29.98 3.91 o
-3 -7 11 46.55 43.44 2.35 o
-2 -7 11 38.22 28.89 2.24 o
-7 -6 11 47.34 44.83 3.32 o
-6 -6 11 38.10 39.89 3.68 o
-5 -6 11 44.83 43.49 2.79 o
-4 -6 11 53.04 53.79 2.36 o
-3 -6 11 71.09 68.24 2.22 o
-2 -6 11 32.09 25.30 2.09 o
-1 -6 11 50.57 51.90 1.68 o
-8 -5 11 65.02 48.38 3.27 o
-7 -5 11 43.16 37.49 3.41 o
-6 -5 11 24.14 28.85 3.94 o
-5 -5 11 98.76 95.06 2.69 o
-4 -5 11 75.96 76.30 2.28 o
-3 -5 11 80.58 76.31 2.24 o
-2 -5 11 54.69 50.37 1.73 o
-1 -5 11 126.77 125.86 2.90 o
0 -5 11 102.65 106.11 4.14 o
1 -5 11 52.12 45.84 4.97 o
2 -5 11 45.70 22.72 6.05 o
-8 -4 11 50.26 48.65 2.98 o
-7 -4 11 28.04 21.09 3.41 o
-6 -4 11 84.26 82.15 2.57 o
-5 -4 11 90.66 88.84 2.57 o
-4 -4 11 30.40 29.92 2.44 o
-3 -4 11 100.41 96.60 2.49 o
-2 -4 11 126.67 121.23 3.21 o
-1 -4 11 118.84 120.86 3.94 o
0 -4 11 21.95 25.55 9.00 <
1 -4 11 64.16 67.13 3.86 o
2 -4 11 158.97 165.86 4.71 o
3 -4 11 65.22 79.52 4.97 o
-9 -3 11 35.43 27.82 3.95 o
-8 -3 11 22.62 35.55 5.03 o
-7 -3 11 40.73 43.13 2.89 o
-6 -3 11 78.60 75.66 2.51 o
-5 -3 11 14.57 16.67 5.20 <
-4 -3 11 20.71 27.69 4.24 o
-3 -3 11 148.52 142.37 4.31 o
-2 -3 11 54.07 57.50 4.16 o
-1 -3 11 21.49 18.68 8.03 <
0 -3 11 83.89 83.58 3.84 o
1 -3 11 160.89 156.81 4.54 o
2 -3 11 77.58 68.33 4.01 o
3 -3 11 0.00 28.14 93.73 <
4 -3 11 92.61 86.89 4.74 o
-5 -2 11 86.66 86.26 3.53 o
-4 -2 11 83.40 93.26 3.51 o
-3 -2 11 136.94 140.91 3.99 o
-2 -2 11 74.89 73.52 3.39 o
-1 -2 11 66.59 65.87 3.91 o
0 -2 11 170.96 162.70 4.72 o
1 -2 11 54.16 45.69 3.88 o
2 -2 11 54.20 67.17 4.18 o
3 -2 11 75.85 73.84 4.46 o
4 -2 11 84.91 82.09 4.77 o
-6 -1 11 59.25 54.41 3.37 o
-5 -1 11 98.36 93.95 3.37 o
-4 -1 11 81.18 80.55 3.49 o
-3 -1 11 148.76 139.56 4.21 o
-2 -1 11 121.39 125.87 3.91 o
-1 -1 11 150.14 143.13 4.26 o
0 -1 11 152.17 147.74 4.42 o
1 -1 11 100.02 101.93 4.02 o
2 -1 11 95.93 95.57 4.11 o
3 -1 11 79.30 75.18 4.42 o
-7 0 11 101.82 103.82 3.28 o
-6 0 11 7.13 3.01 9.94 <
-5 0 11 98.21 93.52 3.43 o
-4 0 11 145.26 140.57 4.13 o
-3 0 11 152.60 151.49 4.29 o
-2 0 11 71.58 75.78 3.49 o
-1 0 11 151.42 155.51 4.29 o
0 0 11 146.07 142.00 4.36 o
1 0 11 58.70 51.42 4.61 o
2 0 11 95.42 89.85 4.02 o
3 0 11 70.89 64.79 4.25 o
-8 1 11 43.52 47.12 3.15 o
-7 1 11 60.66 64.12 2.03 o
-6 1 11 0.00 6.54 57.68 <
-5 1 11 208.56 195.73 5.19 o
-4 1 11 111.18 105.47 3.68 o
-3 1 11 56.91 58.30 3.78 o
-2 1 11 176.99 181.29 4.76 o
-1 1 11 132.77 128.33 4.11 o
0 1 11 65.72 68.98 2.33 o
1 1 11 51.99 51.39 2.84 o
2 1 11 115.04 109.94 4.20 o
3 1 11 62.71 55.21 5.96 o
-8 2 11 19.87 13.32 5.80 <
-7 2 11 87.69 94.81 2.41 o
-6 2 11 38.61 44.98 4.10 o
-5 2 11 121.53 124.56 3.78 o
-4 2 11 102.75 97.86 3.64 o
-3 2 11 115.14 115.70 3.84 o
-2 2 11 125.54 125.79 3.94 o
-1 2 11 57.23 63.71 2.53 o
0 2 11 80.06 81.88 2.52 o
1 2 11 74.49 78.79 4.44 o
2 2 11 73.66 81.81 5.12 o
-8 3 11 0.00 0.42 77.51 <
-7 3 11 130.70 131.04 3.22 o
-6 3 11 61.17 65.02 2.30 o
-5 3 11 98.63 99.44 2.61 o
-4 3 11 123.67 122.58 3.12 o
-3 3 11 127.26 127.20 3.21 o
-2 3 11 68.78 63.94 3.67 o
-1 3 11 38.44 39.94 2.61 o
0 3 11 96.02 104.98 2.91 o
1 3 11 0.00 38.63 122.33 <
-9 4 11 40.38 43.56 3.40 o
-8 4 11 26.07 26.24 3.50 o
-7 4 11 157.39 159.99 3.76 o
-6 4 11 81.75 82.19 2.54 o
-5 4 11 106.59 99.30 2.87 o
-4 4 11 120.92 120.09 3.14 o
-3 4 11 74.06 75.41 4.13 o
-2 4 11 131.87 129.96 4.34 o
-1 4 11 41.92 50.11 5.39 o
-10 5 11 21.22 19.91 5.46 <
-9 5 11 51.88 38.82 3.08 o
-8 5 11 47.31 48.12 2.81 o
-7 5 11 103.42 100.44 2.89 o
-6 5 11 33.46 32.15 3.23 o
-5 5 11 104.69 105.06 2.95 o
-4 5 11 139.23 137.55 4.34 o
-3 5 11 22.45 29.46 10.65 <
-2 5 11 75.46 76.02 4.84 o
-10 6 11 26.16 17.04 5.70 o
-9 6 11 69.99 66.51 2.59 o
-8 6 11 49.16 44.34 2.99 o
-7 6 11 37.97 37.38 3.69 o
-6 6 11 43.73 36.31 3.37 o
-5 6 11 76.17 85.80 4.62 o
-10 7 11 44.25 43.38 3.81 o
-9 7 11 63.68 68.99 3.02 o
-8 7 11 32.35 21.53 3.55 o
-7 7 11 57.42 52.36 2.74 o
-9 8 11 33.44 36.97 4.21 o
-8 8 11 24.49 32.03 5.05 o
-7 8 11 40.67 41.79 3.44 o
-8 9 11 25.69 24.03 5.31 o
-4 -7 12 48.63 44.11 2.49 o
-3 -7 12 41.41 40.30 2.32 o
-6 -6 12 22.10 33.48 5.32 o
-5 -6 12 44.91 46.24 2.79 o
-4 -6 12 63.53 62.48 2.31 o
-3 -6 12 23.06 18.84 2.66 o
-2 -6 12 38.07 35.78 1.78 o
-7 -5 12 16.63 21.80 6.45 <
-6 -5 12 45.03 43.18 2.73 o
-5 -5 12 76.06 77.04 2.46 o
-4 -5 12 62.82 58.85 2.14 o
-3 -5 12 29.89 23.65 2.14 o
-2 -5 12 124.68 125.99 2.89 o
0 -5 12 23.38 45.02 9.38 <
-7 -4 12 50.20 51.51 2.71 o
-6 -4 12 84.80 81.77 2.65 o
-5 -4 12 58.84 53.79 2.24 o
-4 -4 12 68.53 67.09 2.08 o
-3 -4 12 94.75 101.58 2.34 o
-2 -4 12 127.06 123.55 4.13 o
-1 -4 12 64.89 64.57 4.59 o
0 -4 12 119.52 119.81 4.25 o
1 -4 12 125.98 120.42 4.43 o
-4 -3 12 69.74 61.61 4.16 o
-3 -3 12 51.11 57.26 3.96 o
-2 -3 12 99.62 98.37 3.76 o
-1 -3 12 64.64 68.14 4.47 o
0 -3 12 108.33 116.47 4.11 o
1 -3 12 40.19 45.82 4.81 o
2 -3 12 93.21 99.43 4.04 o
-5 -2 12 61.58 66.65 3.86 o
-4 -2 12 90.00 87.06 3.55 o
-3 -2 12 15.74 46.35 11.62 <
-2 -2 12 80.95 84.51 3.78 o
-1 -2 12 0.00 25.86 99.45 <
0 -2 12 77.04 86.91 4.12 o
1 -2 12 100.28 99.95 4.12 o
2 -2 12 42.79 39.15 6.19 o
-6 -1 12 94.24 104.10 3.52 o
-5 -1 12 68.05 53.83 3.66 o
-4 -1 12 171.28 173.03 4.64 o
-3 -1 12 68.85 66.82 3.81 o
-2 -1 12 78.76 94.36 3.84 o
-1 -1 12 117.49 111.20 4.10 o
0 -1 12 120.07 120.42 4.01 o
1 -1 12 9.75 15.50 16.10 <
2 -1 12 0.00 24.66 110.80 <
-7 0 12 39.32 42.64 4.40 o
-6 0 12 91.99 97.65 3.31 o
-5 0 12 67.91 69.26 3.62 o
-4 0 12 111.16 111.06 3.84 o
-3 0 12 94.86 84.50 3.75 o
-2 0 12 103.70 111.36 3.89 o
-1 0 12 71.13 73.77 4.18 o
0 0 12 29.34 29.91 7.56 <
1 0 12 71.37 82.62 4.37 o
2 0 12 97.67 99.85 4.51 o
-7 1 12 30.05 37.65 4.75 o
-6 1 12 132.13 134.60 3.91 o
-5 1 12 32.21 35.47 5.13 o
-4 1 12 101.77 99.04 3.80 o
-3 1 12 88.18 88.35 3.83 o
-2 1 12 138.20 140.73 4.26 o
-1 1 12 91.32 98.32 4.04 o
0 1 12 66.82 66.84 4.52 o
1 1 12 118.11 116.17 4.40 o
-8 2 12 45.65 46.68 3.71 o
-7 2 12 32.31 35.31 5.44 o
-6 2 12 148.53 144.00 4.17 o
-5 2 12 34.67 48.48 5.55 o
-4 2 12 101.23 100.66 3.89 o
-3 2 12 83.69 83.87 3.77 o
-2 2 12 43.12 57.49 5.51 o
-1 2 12 62.94 64.84 4.44 o
0 2 12 89.93 92.34 4.32 o
-8 3 12 54.52 59.64 3.46 o
-7 3 12 37.81 51.81 5.11 o
-6 3 12 123.97 125.21 3.13 o
-5 3 12 51.22 51.71 2.60 o
-4 3 12 109.35 105.61 2.88 o
-3 3 12 99.14 93.25 3.81 o
-2 3 12 25.86 34.13 9.23 <
-1 3 12 63.48 59.54 4.97 o
-8 4 12 104.55 106.11 2.84 o
-7 4 12 40.30 44.92 3.00 o
-6 4 12 81.28 78.45 2.60 o
-5 4 12 69.36 66.56 2.48 o
-4 4 12 158.57 159.68 3.82 o
-3 4 12 123.52 121.53 3.25 o
-2 4 12 30.57 16.08 9.47 <
-10 5 12 29.79 24.03 4.20 o
-9 5 12 13.77 28.11 7.64 <
-8 5 12 102.81 104.49 2.92 o
-7 5 12 26.59 20.94 4.67 o
-6 5 12 87.15 88.46 2.75 o
-5 5 12 67.40 74.10 2.72 o
-4 5 12 93.78 90.80 2.97 o
-10 6 12 40.17 38.68 3.91 o
-9 6 12 42.09 31.60 3.26 o
-8 6 12 68.54 69.72 2.58 o
-7 6 12 43.52 31.51 2.79 o
-6 6 12 89.82 87.65 2.59 o
-5 6 12 67.40 72.19 2.19 o
-10 7 12 42.64 43.59 3.72 o
-9 7 12 24.21 29.30 4.93 o
-8 7 12 37.13 40.75 3.64 o
-7 7 12 21.97 16.91 4.41 o
-6 7 12 81.21 80.50 2.55 o
-9 8 12 23.02 29.80 4.57 o
-8 8 12 42.39 42.68 3.38 o
-7 8 12 41.49 41.89 2.87 o
-7 -5 13 13.44 9.73 7.05 <
-6 -5 13 46.79 49.93 2.73 o
-5 -5 13 86.89 79.13 2.52 o
-4 -5 13 31.79 35.76 2.21 o
-7 -4 13 38.77 37.15 2.66 o
-6 -4 13 86.88 86.82 2.58 o
-3 -4 13 91.02 91.32 4.60 o
-2 -4 13 107.54 102.54 4.59 o
-4 -3 13 51.60 62.71 5.18 o
-3 -3 13 127.23 122.06 4.33 o
-2 -3 13 0.00 33.91 107.49 <
0 -3 13 118.31 112.28 4.52 o
-6 -2 13 20.51 18.08 9.18 <
-5 -2 13 72.91 66.56 4.14 o
-4 -2 13 51.98 49.90 5.11 o
-3 -2 13 47.03 46.86 5.47 o
-2 -2 13 41.44 36.90 5.18 o
-1 -2 13 152.69 149.29 4.61 o
0 -2 13 58.47 55.17 4.11 o
-7 -1 13 27.04 36.55 7.65 <
-6 -1 13 74.84 69.92 3.97 o
-5 -1 13 127.58 141.79 3.97 o
-4 -1 13 33.97 26.23 6.60 o
-3 -1 13 93.31 94.71 4.10 o
-2 -1 13 56.57 67.90 4.03 o
-1 -1 13 62.58 59.35 3.85 o
-7 0 13 64.32 69.15 3.94 o
-6 0 13 31.07 42.56 6.36 o
-5 0 13 150.68 143.53 4.41 o
-4 0 13 51.84 54.87 4.21 o
-3 0 13 90.37 92.35 4.13 o
-2 0 13 71.09 58.29 4.45 o
-1 0 13 74.47 70.09 4.29 o
0 0 13 74.93 78.98 4.64 o
-7 1 13 54.90 57.77 4.15 o
-6 1 13 53.49 58.96 4.08 o
-5 1 13 131.08 131.36 4.10 o
-4 1 13 38.63 40.87 5.35 o
-3 1 13 148.34 142.17 4.51 o
-2 1 13 130.11 125.79 4.22 o
-1 1 13 80.87 83.67 4.26 o
-7 2 13 112.60 112.06 3.86 o
-6 2 13 56.78 63.86 4.56 o
-5 2 13 74.11 79.31 3.96 o
-4 2 13 0.00 4.24 105.55 <
-3 2 13 145.54 148.67 4.52 o
-2 2 13 37.19 47.97 6.21 o
-7 3 13 111.76 109.79 3.98 o
-6 3 13 36.48 36.48 6.41 o
-5 3 13 65.18 72.94 4.63 o
-4 3 13 66.07 57.97 4.66 o
-3 3 13 68.18 80.96 4.84 o
-7 4 13 80.09 86.28 2.71 o
-6 4 13 20.92 12.74 10.96 <
-5 4 13 132.20 133.29 3.40 o
-4 4 13 71.19 64.48 5.27 o
-9 5 13 58.17 62.32 2.85 o
-8 5 13 30.94 32.10 3.67 o
-7 5 13 62.06 63.09 3.30 o
-6 5 13 0.00 18.83 59.79 <
-5 5 13 106.79 104.48 2.68 o
-10 6 13 43.64 28.45 3.44 o
-9 6 13 45.33 45.35 3.21 o
-8 6 13 10.95 9.57 9.43 <
-7 6 13 71.33 71.64 2.46 o
-6 6 13 36.53 40.01 2.39 o
-9 7 13 51.62 51.31 3.06 o
-8 7 13 18.97 21.15 4.44 o
-5 -3 14 52.81 56.42 5.61 o
-4 -3 14 75.81 73.28 5.07 o
-5 -2 14 83.97 88.91 4.15 o
-4 -2 14 92.97 93.20 4.39 o
-3 -2 14 30.74 35.82 8.18 <
-2 -2 14 61.66 61.54 4.56 o
-6 -1 14 33.50 33.97 7.11 o
-5 -1 14 76.83 79.62 4.26 o
-4 -1 14 35.27 47.53 7.09 o
-3 -1 14 19.44 22.87 12.66 <
-2 -1 14 47.59 54.81 6.11 o
-7 0 14 40.00 44.56 4.64 o
-6 0 14 99.60 102.34 4.12 o
-5 0 14 56.84 55.30 4.90 o
-4 0 14 76.39 76.61 4.44 o
-3 0 14 29.73 27.57 6.22 o
-2 0 14 125.45 126.61 4.31 o
-7 1 14 69.93 68.62 4.30 o
-6 1 14 106.29 107.67 4.05 o
-5 1 14 34.57 13.73 7.12 o
-4 1 14 88.09 98.72 3.87 o
-3 1 14 80.47 84.09 4.51 o
-7 2 14 80.98 76.80 3.89 o
-6 2 14 93.76 91.90 4.08 o
-5 2 14 41.80 39.31 4.93 o
-4 2 14 122.60 122.67 4.41 o
-7 3 14 35.53 41.36 6.27 o
-6 3 14 64.27 71.85 4.93 o
-5 3 14 48.58 46.24 6.04 o
-7 4 14 17.84 12.73 19.11 <
-7 0 15 28.94 29.79 9.48 <
-6 0 15 78.56 79.79 5.13 o
-7 1 15 58.50 65.85 5.68 o
-6 1 15 68.32 57.23 5.77 o
