#------------------------------------------------------------------------------
#$Date: 2016-03-21 14:10:15 +0200 (Mon, 21 Mar 2016) $
#$Revision: 178711 $
#$URL: svn://www.crystallography.net/cod/cif/4/08/22/4082204.cif $
#------------------------------------------------------------------------------
#
# This file is available in the Crystallography Open Database (COD),
# http://www.crystallography.net/
#
# All data on this site have been placed in the public domain by the
# contributors.
#
data_4082204
loop_
_publ_author_name
'Kaplan, Peter T.'
'Xu, Long'
'Chen, Bo'
'McGarry, Katherine R.'
'Yu, Siqi'
'Wang, Huan'
'Vicic, David A.'
_publ_section_title
;
 Mild, Safe, and Versatile Reagents for (CF2)nTransfer and the
 Construction of Fluoroalkyl-Containing Rings
;
_journal_issue                   24
_journal_name_full               Organometallics
_journal_page_first              7552
_journal_paper_doi               10.1021/om401016k
_journal_volume                  32
_journal_year                    2013
_chemical_formula_sum            'C8 H6 F8 N2 Zn'
_chemical_formula_weight         347.52
_chemical_name_systematic
;
 ?
;
_space_group_crystal_system      triclinic
_space_group_IT_number           2
_space_group_name_Hall           '-P 1'
_space_group_name_H-M_alt        'P -1'
_symmetry_space_group_name_Hall  '-P 1'
_symmetry_space_group_name_H-M   'P -1'
_atom_sites_solution_hydrogens   difmap
_audit_creation_method           SHELXL-2013
_cell_angle_alpha                115.511(5)
_cell_angle_beta                 95.466(5)
_cell_angle_gamma                98.526(5)
_cell_formula_units_Z            2
_cell_length_a                   7.9095(18)
_cell_length_b                   9.187(2)
_cell_length_c                   9.500(2)
_cell_measurement_temperature    100(2)
_cell_volume                     606.3(2)
_computing_structure_refinement  'SHELXL-2013 (Sheldrick, 2013)'
_diffrn_ambient_temperature      100(2)
_diffrn_measured_fraction_theta_full 0.946
_diffrn_measured_fraction_theta_max 0.987
_diffrn_radiation_type           MoK\a
_diffrn_radiation_wavelength     0.71073
_diffrn_reflns_av_R_equivalents  0.0452
_diffrn_reflns_av_unetI/netI     0.0488
_diffrn_reflns_Laue_measured_fraction_full 0.946
_diffrn_reflns_Laue_measured_fraction_max 0.987
_diffrn_reflns_limit_h_max       9
_diffrn_reflns_limit_h_min       -9
_diffrn_reflns_limit_k_max       10
_diffrn_reflns_limit_k_min       -10
_diffrn_reflns_limit_l_max       11
_diffrn_reflns_limit_l_min       -11
_diffrn_reflns_number            6789
_diffrn_reflns_point_group_measured_fraction_full 0.946
_diffrn_reflns_point_group_measured_fraction_max 0.987
_diffrn_reflns_theta_full        25.242
_diffrn_reflns_theta_max         24.856
_diffrn_reflns_theta_min         3.243
_exptl_absorpt_coefficient_mu    2.114
_exptl_crystal_density_diffrn    1.904
_exptl_crystal_F_000             340
_exptl_crystal_size_max          0.180
_exptl_crystal_size_mid          0.090
_exptl_crystal_size_min          0.050
_refine_diff_density_max         0.511
_refine_diff_density_min         -0.485
_refine_diff_density_rms         0.094
_refine_ls_extinction_method     none
_refine_ls_goodness_of_fit_ref   1.086
_refine_ls_hydrogen_treatment    refall
_refine_ls_matrix_type           full
_refine_ls_number_parameters     196
_refine_ls_number_reflns         2074
_refine_ls_number_restraints     46
_refine_ls_restrained_S_all      1.074
_refine_ls_R_factor_all          0.0572
_refine_ls_R_factor_gt           0.0430
_refine_ls_shift/su_max          0.000
_refine_ls_shift/su_mean         0.000
_refine_ls_structure_factor_coef Fsqd
_refine_ls_weighting_details
'w=1/[\s^2^(Fo^2^)+(0.0163P)^2^+1.5751P] where P=(Fo^2^+2Fc^2^)/3'
_refine_ls_weighting_scheme      calc
_refine_ls_wR_factor_gt          0.0802
_refine_ls_wR_factor_ref         0.0856
_reflns_Friedel_coverage         0.000
_reflns_number_gt                1727
_reflns_number_total             2074
_reflns_threshold_expression     'I > 2\s(I)'
_cod_data_source_file            om401016k_si_002.cif
_cod_data_source_block           Compound7
_cod_original_cell_volume        606.2(2)
_cod_database_code               4082204
#BEGIN Tags that were not found in dictionaries:
_shelx_space_group_comment
;
The symmetry employed for this shelxl refinement is uniquely defined
by the following loop, which should always be used as a source of
symmetry information in preference to the above space-group names.
They are only intended as comments.
;
_shelx_estimated_absorpt_t_min   0.702
_shelx_estimated_absorpt_t_max   0.902
_shelxl_version_number           2013-3
_shelx_res_file
;
REM Solution 1  R1  0.083  Rweak  0.012,  Alpha = 0.1033  in P-1
REM Formula:  C8 N2 F8 Zn
TITL peter1_0m in P-1
CELL  0.71073   7.9095   9.1868   9.5001  115.511   95.466   98.526
ZERR    2.00   0.0018   0.0021   0.0022   0.005   0.005   0.005
LATT  1
SFAC C H N F ZN
UNIT 16 12 4 16 2
TEMP -173.150
SIZE 0.050 0.090 0.180
SHEL 999 0.845
L.S. 10
BOND
LIST 6
FMAP 2
PLAN 5
DELU
ACTA
WGHT    0.016300    1.575100
FVAR       0.79605
ZN    5    0.589756    0.634321    0.787133    11.00000    0.02599    0.02342 =
         0.02262    0.00985    0.00764    0.00674
F1    4    0.238264    0.628843    0.824554    11.00000    0.03490    0.04271 =
         0.02949    0.01306    0.01588    0.01739
F2    4    0.318505    0.404715    0.809375    11.00000    0.03218    0.04509 =
         0.03495    0.02811    0.01032    0.00670
F3    4    0.251620    0.524221    0.508736    11.00000    0.03147    0.02780 =
         0.02717    0.01623    0.00956    0.01208
F4    4    0.064102    0.375657    0.573795    11.00000    0.01866    0.04538 =
         0.03664    0.02006    0.00877    0.00484
F5    4    0.470431    0.283074    0.526196    11.00000    0.02752    0.02753 =
         0.02889    0.01239    0.00578    0.00939
F6    4    0.213941    0.136135    0.493183    11.00000    0.04393    0.02623 =
         0.04302    0.02102    0.01341    0.00066
F7    4    0.101604    0.183216    0.242248    11.00000    0.02342    0.05415 =
         0.03055    0.01383    0.00024   -0.00551
F8    4    0.326549    0.065611    0.227940    11.00000    0.04852    0.02062 =
         0.03685    0.00825    0.01272    0.00375
N1    3    0.639600    0.812670    1.025758    11.00000    0.03868    0.03279 =
         0.02821    0.01481    0.00916    0.01179
N2    3    0.743289    0.481652    0.817569    11.00000    0.03018    0.02935 =
         0.01958    0.00919    0.00617    0.00745
C1    1    0.338300    0.516558    0.745812    11.00000    0.02969    0.02811 =
         0.02307    0.01763    0.01443    0.01358
C2    1    0.237698    0.420447    0.577419    11.00000    0.01844    0.02697 =
         0.03123    0.01864    0.00857    0.00220
C3    1    0.297936    0.262694    0.470623    11.00000    0.02732    0.01909 =
         0.02726    0.01168    0.00522   -0.00250
C4    1    0.278819    0.219863    0.295733    11.00000    0.02388    0.01844 =
         0.02839    0.00527    0.00044   -0.00078
C5    1    0.680102    0.922463    1.147672    11.00000    0.03010    0.02441 =
         0.02558    0.01530    0.00836    0.01213
C6    1    0.733642    1.061886    1.303003    11.00000    0.03434    0.03085 =
         0.03169    0.01197    0.00800    0.01056
H3    2    0.746940    1.155281    1.291542    11.00000    0.04947
H2    2    0.834015    1.054398    1.352279    11.00000    0.05221
H1    2    0.646288    1.059854    1.361592    11.00000    0.06598
C7    1    0.817657    0.388781    0.826642    11.00000    0.02018    0.02500 =
         0.01739    0.00789    0.00714    0.00080
C8    1    0.912195    0.268611    0.835551    11.00000    0.03109    0.02363 =
         0.03619    0.01630    0.01040    0.00407
H6    2    0.892132    0.256754    0.920585    11.00000    0.03049
H5    2    0.855860    0.164457    0.753042    11.00000    0.07086
H4    2    1.023330    0.310356    0.838368    11.00000    0.05908

HKLF 4

REM  peter1_0m in P-1
REM R1 =  0.0430 for    1727 Fo > 4sig(Fo)  and  0.0572 for all    2074 data
REM    196 parameters refined using     46 restraints

END

WGHT      0.0163      1.5744

REM Highest difference peak  0.511,  deepest hole -0.485,  1-sigma level  0.094
Q1    1   0.6121  0.7438  0.9153  11.00000  0.05    0.51
Q2    1   0.6536  0.5450  0.8134  11.00000  0.05    0.48
Q3    1   0.5468  0.5537  0.6840  11.00000  0.05    0.43
Q4    1   0.1615  0.0863  0.2557  11.00000  0.05    0.43
Q5    1   0.5438  0.7198  0.7802  11.00000  0.05    0.40
;
_shelx_res_checksum              30614
_shelx_hkl_file
;
  -2   0   0 3121.79  122.89
  -2   0   0 3194.88  132.49
  -2   0   0 3316.37  122.59
  -2   0   0 3367.16  130.89
   2   0   0 3334.57  130.69
   2   0   0 3374.76  122.49
   2   0   0 3247.58  130.59
   2   0   0 3125.49  132.49
   2   0   0 3222.78  132.39
  -3   0   0  660.93   28.80
  -3   0   0  662.33   30.50
  -3   0   0  721.63   28.20
  -3   0   0  679.43   31.00
   3   0   0  728.93   27.60
   3   0   0  644.54   27.80
   3   0   0  712.03   31.00
   3   0   0  666.53   30.00
   3   0   0  645.34   29.60
   3   0   0  651.93   29.50
  -4   0   0   23.40    7.40
  -4   0   0    1.60    7.20
   4   0   0    1.70    5.60
   4   0   0    9.50    5.90
   4   0   0   14.70    7.60
   4   0   0    9.70    4.10
  -5   0   0   -2.90    8.00
   5   0   0    6.80    8.20
   5   0   0   -1.90    7.80
   5   0   0   17.80    6.80
   5   0   0    8.60    8.60
  -6   0   0  871.31   38.40
  -6   0   0  882.21   39.90
   6   0   0  766.22   42.00
   6   0   0  850.71   42.40
   6   0   0  839.32   40.20
  -7   0   0   -9.70   12.20
  -7   0   0   11.10   13.20
   7   0   0   -2.60   13.10
   7   0   0   14.20   11.30
  -8   0   0   22.10   15.20
   8   0   0    3.50   16.50
  -9   0   0   -6.60   17.80
   9   0   0  -21.20   20.50
   9  -1   0   13.50   19.40
   9  -1   0    4.90   19.30
  -9   1   0   30.00   17.40
   8  -1   0   44.60   10.60
   8  -1   0   32.30   15.40
   8  -1   0   24.40   14.60
  -8   1   0   43.10   15.00
  -8   1   0   51.79   15.60
   7  -1   0   49.40   13.70
   7  -1   0   69.99   13.50
   7  -1   0   59.49   13.10
  -7   1   0   63.59   13.80
  -7   1   0   55.69   13.50
   6  -1   0  406.96   26.10
   6  -1   0  463.25   21.80
   6  -1   0  426.56   27.00
  -6   1   0  433.56   27.60
  -6   1   0  439.06   24.70
  -6   1   0  427.06   25.90
  -6   1   0  403.26   28.80
   5  -1   0  123.49   15.60
   5  -1   0  137.89   11.10
   5  -1   0  117.19   13.90
   5  -1   0  105.29   13.50
   5  -1   0  142.89   11.00
  -5   1   0   86.99   16.60
  -5   1   0  135.29   13.70
  -5   1   0   85.19   16.90
  -5   1   0  111.89   15.30
   4  -1   0   65.09    9.70
   4  -1   0   53.99    9.40
   4  -1   0   39.60    6.60
   4  -1   0   50.59    7.20
   4  -1   0   57.89    8.30
  -4   1   0   43.90    8.30
  -4   1   0   60.79   11.40
   3  -1   0 1449.65   59.79
   3  -1   0 1509.45   59.79
   3  -1   0 1613.14   59.59
   3  -1   0 1533.65   64.29
   3  -1   0 1529.45   63.89
  -3   1   0 1605.14   64.59
  -3   1   0 1478.45   60.29
  -3   1   0 1544.15   64.59
  -3   1   0 1613.84   59.99
   2  -1   0 2163.38   88.79
   2  -1   0 2090.69   89.09
   2  -1   0 2313.37   82.29
   2  -1   0 2097.19   83.09
   2  -1   0 2215.38   83.29
  -2   1   0 2320.87   89.19
  -2   1   0 2056.29   89.19
  -2   1   0 2193.58   83.49
   1  -1   0 6339.17  234.98
   1  -1   0 5511.15  220.68
   1  -1   0 5734.33  220.58
  -1   1   0 5384.16  220.58
  -1   1   0 6193.98  234.88
  -1   1   0 6142.89  236.98
  -1  -1   0 1277.47   53.59
  -1  -1   0 1290.37   49.50
   1   1   0 1214.78   53.69
   1   1   0 1318.67   49.40
  -2  -1   0 2289.27   85.89
  -2  -1   0 2207.48   92.59
   2   1   0 2195.88   93.09
   2   1   0 2219.28   92.59
   2   1   0 2322.67   85.79
  -3  -1   0 1294.57   53.89
  -3  -1   0 1319.97   56.89
   3   1   0 1376.46   53.19
   3   1   0 1344.27   57.19
   3   1   0 1404.26   58.39
  -4  -1   0   25.80    8.10
   4   1   0   19.70    9.10
  -5  -1   0  561.64   28.50
   5   1   0  567.84   31.60
  -6  -1   0  560.74   31.60
   6   1   0  600.54   34.70
  -7  -1   0    8.30   12.50
   7   1   0   -1.40   13.60
  -8  -1   0   14.80   15.70
   8   1   0    9.40   17.00
   9  -2   0  189.58   33.10
   9  -2   0  194.78   22.30
   8  -2   0  223.08   30.00
   8  -2   0  213.38   19.70
   8  -2   0  247.28   26.60
  -8   2   0  221.18   24.60
   7  -2   0   30.60   13.10
   7  -2   0   74.49   13.60
   7  -2   0   48.60    9.40
  -7   2   0   45.70   14.90
  -7   2   0   29.10   13.80
  -7   2   0   55.59   13.00
  -7   2   0   46.00   12.50
   6  -2   0   30.00    9.60
   6  -2   0   21.70    6.80
   6  -2   0   24.30    9.70
  -6   2   0   24.20   10.10
  -6   2   0   21.80    9.90
  -6   2   0   26.50   10.50
  -6   2   0   30.60   11.80
   5  -2   0  114.99   11.20
   5  -2   0  119.49   14.90
   5  -2   0  158.58   15.70
   5  -2   0  176.88   15.20
   5  -2   0  128.39   13.90
  -5   2   0  161.98   17.90
  -5   2   0  144.29   15.00
  -5   2   0  171.38   15.90
   4  -2   0  694.93   32.20
   4  -2   0  729.73   30.10
   4  -2   0  680.73   30.20
   4  -2   0  661.63   29.30
   4  -2   0  697.53   31.50
  -4   2   0  773.62   35.10
  -4   2   0  724.23   33.10
  -4   2   0  703.43   30.50
  -4   2   0  667.23   31.60
   3  -2   0 1154.48   44.40
   3  -2   0 1063.69   44.60
   3  -2   0 1121.79   47.40
   3  -2   0 1167.68   43.70
   3  -2   0 1107.59   47.60
  -3   2   0  994.90   44.70
  -3   2   0 1144.89   47.90
  -3   2   0 1169.88   48.70
   2  -2   0   36.00    5.30
   2  -2   0   46.80    7.00
   2  -2   0   45.00    6.10
   2  -2   0   35.20    5.00
  -2   2   0   34.70    5.30
  -2   2   0   33.70    4.40
  -2   2   0   36.60    6.30
   1  -2   0   44.70    7.10
   1  -2   0   45.60    8.10
  -1   2   0   53.49   10.00
  -1   2   0   47.40    6.10
  -1   2   0   54.39   11.30
   0  -2   0   11.40    5.50
   0  -2   0    4.40    3.80
   0  -2   0   -2.00    4.30
   0   2   0    3.30    3.60
  -1  -2   0  200.38   12.40
  -1  -2   0  183.08   12.70
  -1  -2   0  194.08   10.80
   1   2   0  196.18   14.60
   1   2   0  205.98   10.80
  -2  -2   0 5333.67  226.48
  -2  -2   0 5748.72  209.48
   2   2   0 5657.23  209.18
   2   2   0 5559.04  227.08
  -3  -2   0 3504.25  129.09
  -3  -2   0 3304.27  138.59
   3   2   0 3247.88  138.79
   3   2   0 3508.25  140.09
   3   2   0 3293.67  128.09
  -4  -2   0    3.90    7.80
   4   2   0    0.60    8.30
  -5  -2   0  271.37   20.40
   5   2   0  244.78   23.10
  -6  -2   0   20.10   11.20
   6   2   0   25.20   13.20
  -7  -2   0   47.30   14.30
   7   2   0   53.09   15.80
  -8  -2   0  213.48   27.00
   8   2   0  233.98   32.30
   9  -3   0  301.37   38.30
   9  -3   0  345.77   34.50
   9  -3   0  349.77   26.20
   8  -3   0   44.50   11.60
   8  -3   0   47.20   17.60
   8  -3   0   20.80   15.10
  -8   3   0   54.89   18.60
  -8   3   0   35.60   15.80
   7  -3   0   74.29   14.30
   7  -3   0   85.09   14.20
   7  -3   0   99.59   19.00
  -7   3   0   70.29   16.20
  -7   3   0   55.59   13.20
   6  -3   0   20.60   10.20
  -6   3   0   21.90   10.10
  -6   3   0   15.00   11.90
   5  -3   0  132.69   16.50
   5  -3   0   98.59   15.90
   5  -3   0  121.89   11.90
  -5   3   0  133.69   15.60
  -5   3   0  133.39   18.40
   4  -3   0   31.60    4.50
   4  -3   0   45.00    7.00
  -4   3   0   49.40    8.80
  -4   3   0   30.80    9.50
   3  -3   0  990.60   40.10
   3  -3   0  955.60   42.90
   3  -3   0  993.20   40.60
   3  -3   0  970.90   42.90
  -3   3   0  995.90   43.20
  -3   3   0 1025.50   45.10
  -3   3   0  967.10   39.30
   2  -3   0  292.47   16.10
   2  -3   0  269.57   15.10
   2  -3   0  295.67   14.60
  -2   3   0  286.97   17.10
  -2   3   0  274.67   13.20
  -2   3   0  287.17   16.50
   1  -3   0  294.47   16.00
   1  -3   0  286.37   14.40
   1  -3   0  289.77   15.20
  -1   3   0  334.57   18.50
  -1   3   0  289.37   13.70
  -1   3   0  289.17   16.20
   0  -3   0  309.57   15.40
   0  -3   0  282.37   15.30
   0  -3   0  271.57   14.10
   0  -3   0  297.17   14.40
   0   3   0  278.87   13.30
   0   3   0  319.47   14.50
   0   3   0  316.27   15.90
   0   3   0  323.17   18.80
  -1  -3   0 1332.67   50.59
  -1  -3   0 1309.17   50.09
  -1  -3   0 1237.68   54.29
   1   3   0 1260.17   49.70
   1   3   0 1345.77   55.89
   1   3   0 1172.28   49.60
  -2  -3   0 2156.68   82.39
  -2  -3   0 2052.29   88.39
   2   3   0 2044.60   81.09
   2   3   0 2196.58   90.39
  -3  -3   0  527.25   26.20
   3   3   0  501.75   29.20
  -4  -3   0  160.38   17.00
   4   3   0  164.98   19.20
  -5  -3   0  302.37   22.70
   5   3   0  286.47   25.80
  -6  -3   0  287.67   23.70
   6   3   0  297.07   28.50
  -7  -3   0   64.09   15.80
   7   3   0   78.59   17.80
  -8  -3   0   56.09   17.40
   8   3   0   15.80   20.30
   9  -4   0   23.30   13.10
   9  -4   0   15.50   21.80
   9  -4   0   26.60   18.80
  -9   4   0   17.30   21.50
  -9   4   0   11.70   19.00
   8  -4   0  156.38   24.10
   8  -4   0  169.58   26.50
   8  -4   0  137.59   17.60
   8  -4   0  147.29   25.40
  -8   4   0  120.99   27.20
  -8   4   0   96.49   19.50
   7  -4   0   18.90    9.00
   7  -4   0   -5.10   12.10
  -7   4   0   12.50   11.50
  -7   4   0   23.20   14.50
   6  -4   0  266.47   16.90
   6  -4   0  239.08   21.70
  -6   4   0  241.48   22.50
  -6   4   0  236.28   24.70
   5  -4   0 1016.20   42.50
  -5   4   0  984.50   48.60
  -5   4   0  971.30   45.90
   4  -4   0  139.09   16.00
   4  -4   0  115.69   11.40
  -4   4   0  113.59   17.00
  -4   4   0  114.79   14.40
   3  -4   0   22.40    5.70
   3  -4   0   12.30    7.50
  -3   4   0   15.80    8.50
  -3   4   0   20.00    8.40
   2  -4   0  606.04   30.60
   2  -4   0  636.34   29.00
   2  -4   0  644.74   28.20
  -2   4   0  622.34   26.80
  -2   4   0  699.43   32.20
  -2   4   0  651.03   31.80
   1  -4   0  145.19   11.20
   1  -4   0  160.08   12.70
   1  -4   0  159.68   10.90
  -1   4   0  165.88   13.50
  -1   4   0  189.58   17.40
  -1   4   0  137.39    8.10
   0  -4   0 1483.65   56.19
   0  -4   0 1336.57   59.69
   0  -4   0 1442.96   56.49
   0  -4   0 1367.86   60.69
   0   4   0 1413.86   55.79
   0   4   0 1410.86   60.19
   0   4   0 1467.95   55.99
   0   4   0 1491.35   63.19
  -1  -4   0  154.88   12.00
  -1  -4   0  133.49   13.70
  -1  -4   0  131.39   10.20
   1   4   0  137.29    9.30
   1   4   0  157.28   18.00
   1   4   0  135.89   10.40
  -2  -4   0  105.99   13.90
   2   4   0  103.29   18.00
  -3  -4   0    5.70    8.80
   3   4   0  -14.60    9.60
  -4  -4   0  437.46   27.10
   4   4   0  459.35   30.30
  -5  -4   0  635.24   34.90
   5   4   0  659.33   38.90
  -6  -4   0  177.78   22.30
   6   4   0  153.58   27.20
  -7  -4   0   47.60   16.50
   7   4   0   28.40   18.30
   8  -5   0  200.88   27.30
   8  -5   0  188.88   20.30
  -8   5   0  201.98   31.00
   7  -5   0  405.96   29.50
   7  -5   0  439.36   24.60
  -7   5   0  350.76   32.00
   6  -5   0  392.76   28.50
   6  -5   0  449.95   24.20
  -6   5   0  430.26   30.90
   5  -5   0    2.60    6.20
  -5   5   0    3.30   11.00
   4  -5   0    2.00    5.80
  -4   5   0    8.30    9.60
   3  -5   0  680.13   29.80
   3  -5   0  588.64   33.90
  -3   5   0  668.53   34.70
  -3   5   0  704.83   33.60
   2  -5   0  144.89   11.80
   2  -5   0  134.29   16.10
  -2   5   0  165.38   16.60
  -2   5   0  165.68   18.80
   1  -5   0  222.78   14.70
   1  -5   0  187.48   15.70
   1  -5   0  184.28   13.20
  -1   5   0  215.08   16.70
  -1   5   0  187.48   21.20
   0  -5   0  178.78   13.50
   0  -5   0  183.38   15.20
   0  -5   0  195.58   14.00
   0   5   0  180.68   13.90
   0   5   0  183.68   17.00
   0   5   0  203.08   22.20
   0   5   0  160.48   11.00
  -1  -5   0  200.98   14.90
  -1  -5   0  178.38   16.10
   1   5   0  188.88   22.00
   1   5   0  172.78   12.50
  -2  -5   0   -9.50    9.00
   2   5   0    6.50    7.40
   2   5   0   -7.30   10.70
  -3  -5   0  567.24   31.70
   3   5   0  619.44   36.10
  -4  -5   0  558.74   33.40
   4   5   0  636.04   37.60
  -5  -5   0  248.18   24.80
   5   5   0  240.98   28.30
  -6  -5   0    1.10   14.70
   8  -6   0  287.77   29.90
   8  -6   0  309.77   23.10
  -8   6   0  279.87   33.80
   7  -6   0  155.88   17.60
   7  -6   0  165.58   22.60
   6  -6   0   56.59   13.60
   6  -6   0   76.99   13.20
  -6   6   0   58.49   15.30
   5  -6   0  244.08   16.90
  -5   6   0  220.28   25.00
   4  -6   0   -1.30    6.30
  -4   6   0    1.40   11.70
   3  -6   0  496.55   24.40
  -3   6   0  466.15   30.70
  -3   6   0  523.05   31.20
   2  -6   0  294.47   16.60
  -2   6   0  278.27   23.00
  -2   6   0  262.27   25.90
   1  -6   0  225.48   15.40
  -1   6   0  215.78   25.50
  -1   6   0  248.08   20.70
   0  -6   0   -1.40    8.10
   0  -6   0   -4.80   11.30
   0  -6   0    7.70    7.80
   0   6   0   -5.30   13.80
   0   6   0   -4.00    8.80
   0   6   0    5.60    9.90
  -1  -6   0  284.57   19.70
  -1  -6   0  269.87   20.70
   1   6   0  335.37   27.90
  -2  -6   0  703.13   35.60
  -2  -6   0  709.73   34.40
   2   6   0  691.03   41.20
  -3  -6   0  722.83   37.80
   3   6   0  726.13   42.20
  -4  -6   0   70.79   16.40
   4   6   0   44.40   15.40
  -5  -6   0   16.90   16.50
   5   6   0   14.70   17.10
   7  -7   0   47.00   10.70
   7  -7   0   75.39   14.80
  -7   7   0   35.30   17.10
   6  -7   0  264.77   19.00
   6  -7   0  234.68   24.30
  -6   7   0  244.88   29.00
   5  -7   0  347.37   20.50
  -5   7   0  314.07   29.60
   4  -7   0  109.79   13.00
  -4   7   0  100.29   16.60
   3  -7   0  159.08   14.20
  -3   7   0  147.89   24.60
  -3   7   0  204.28   25.80
   2  -7   0  211.08   16.60
  -2   7   0  223.18   28.50
  -2   7   0  219.08   25.20
   1  -7   0   29.80    9.00
  -1   7   0   10.60   16.60
  -1   7   0   12.30   13.10
   0  -7   0  707.33   33.70
   0  -7   0  676.43   33.90
   0   7   0  707.73   39.00
   0   7   0  702.93   44.20
  -1  -7   0  537.65   30.10
  -1  -7   0  567.44   30.90
   1   7   0  581.64   39.60
  -2  -7   0   62.89   14.60
  -2  -7   0   85.29   15.10
   2   7   0   77.69   18.10
  -3  -7   0  162.78   23.90
   3   7   0  125.69   20.60
  -4  -7   0   61.39   18.00
   4   7   0   31.60   18.20
   6  -8   0  347.77   27.30
   6  -8   0  276.97   21.10
  -6   8   0  267.37   32.00
   5  -8   0  336.97   21.30
   5  -8   0  321.57   30.00
  -5   8   0  362.66   33.10
  -4   8   0   26.80   16.20
  -4   8   0   -4.70   15.90
   3  -8   0  242.08   18.70
  -3   8   0  295.67   30.70
  -3   8   0  222.18   29.20
   2  -8   0   51.19    9.60
  -2   8   0   51.29   19.10
  -2   8   0   38.00   16.80
   1  -8   0   17.00   11.30
  -1   8   0   11.70   19.30
  -1   8   0   15.00   16.80
   0  -8   0  287.57   23.10
   0  -8   0  285.07   24.00
   0   8   0  273.67   29.70
   0   8   0  251.47   36.10
  -1  -8   0   73.39   14.70
  -1  -8   0   74.19   15.80
   1   8   0   73.99   22.70
  -2  -8   0  -14.00   15.30
  -2  -8   0   -2.60   15.80
   2   8   0  -24.70   18.60
  -3  -8   0   60.59   19.30
   3   8   0   15.40   20.40
   5  -9   0   30.60   10.70
   5  -9   0   54.09   16.60
  -5   9   0   11.90   18.80
   4  -9   0  105.49   20.20
   4  -9   0  121.09   17.70
  -4   9   0  127.49   22.40
   3  -9   0  164.78   19.20
  -3   9   0  186.48   33.10
   2  -9   0   44.80   12.40
  -2   9   0   44.80   19.50
  -2   9   0   12.40   21.40
   1  -9   0   -6.10   12.40
  -1   9   0   10.20   19.90
  -1   9   0  -27.10   20.20
   0  -9   0  253.67   26.40
   0   9   0  222.98   39.50
  -1  -9   0   15.80   17.00
  -1  -9   0   40.50   18.10
   1   9   0   -8.10   23.70
  -1  10  -1   62.39   25.10
  -1  10  -1   69.39   25.40
   1 -10   1   83.39   15.60
  -2  10  -1   88.39   25.10
  -2  10  -1   84.69   25.00
   2 -10   1  114.99   21.50
  -3  10  -1   73.19   23.10
   3 -10   1  102.59   20.40
   2   9  -1   21.40   21.90
  -2  -9   1   47.30   19.10
   1   9  -1  133.89   25.80
  -1  -9   1  194.78   26.10
  -1  -9   1  136.09   23.20
   0   9  -1  153.48   31.20
   0   9  -1  137.09   24.30
   0  -9   1  123.89   25.30
   0  -9   1  186.98   20.60
  -1   9  -1  195.98   36.60
  -1   9  -1  259.57   33.20
   1  -9   1  272.57   22.30
  -2   9  -1   17.00   19.00
  -2   9  -1    5.10   19.60
   2  -9   1   17.10   10.90
  -3   9  -1   92.19   20.70
   3  -9   1  106.39   16.20
  -4   9  -1  149.69   32.60
   4  -9   1  197.08   18.60
  -5   9  -1  108.79   22.40
   5  -9   1  146.19   17.10
   4   8  -1   38.80   20.10
   3   8  -1   15.90   18.70
  -3  -8   1  -27.00   15.70
   2   8  -1   55.89   19.50
  -2  -8   1   73.99   16.10
   1   8  -1  330.27   33.30
  -1  -8   1  260.47   25.60
  -1  -8   1  301.47   23.80
   0   8  -1  288.57   27.30
   0   8  -1  260.47   34.40
   0  -8   1  311.67   22.20
   0  -8   1  274.97   23.50
  -1   8  -1  140.89   23.80
  -1   8  -1   87.19   19.50
   1  -8   1  119.09   15.50
   1  -8   1   89.19   18.10
  -2   8  -1  274.87   27.10
  -2   8  -1  221.38   30.30
   2  -8   1  256.27   18.50
  -3   8  -1  321.57   30.80
   3  -8   1  328.57   20.30
  -4   8  -1  446.26   35.60
   4  -8   1  465.05   24.90
  -5   8  -1  133.99   21.20
   5  -8   1  129.39   15.10
  -6   8  -1    8.00   16.70
   6  -8   1   -3.50    9.60
  -7   8  -1  146.39   30.50
   7  -8   1   91.49   17.60
   7  -8   1   78.69   12.30
   5   7  -1  213.68   32.20
  -5  -7   1  242.88   28.90
   4   7  -1   -1.40   17.10
  -4  -7   1    2.90   15.00
   3   7  -1   24.90   15.10
  -3  -7   1    9.80   13.80
   2   7  -1  200.88   27.20
  -2  -7   1  177.38   22.20
   1   7  -1   11.50   14.90
  -1  -7   1    8.40    9.80
  -1  -7   1    3.50   10.50
   0   7  -1  188.08   21.30
   0   7  -1  164.88   27.00
   0  -7   1  153.08   15.60
   0  -7   1  134.49   18.50
  -1   7  -1 1771.32   76.49
  -1   7  -1 1708.93   78.19
   1  -7   1 1673.23   68.79
   1  -7   1 1730.53   69.59
  -2   7  -1  344.97   26.50
   2  -7   1  344.97   19.80
  -3   7  -1  295.27   25.30
   3  -7   1  320.77   18.70
  -4   7  -1  156.28   24.30
   4  -7   1  204.58   15.60
  -5   7  -1   46.30   15.30
   5  -7   1   82.79   12.70
  -6   7  -1  109.29   19.40
   6  -7   1  134.79   15.20
  -7   7  -1  162.58   28.60
   7  -7   1  151.28   17.80
   7  -7   1  122.09   24.70
   6   6  -1  270.87   32.30
  -6  -6   1  191.88   27.80
   5   6  -1  123.69   19.80
  -5  -6   1  184.38   22.60
   4   6  -1    7.40   15.20
  -4  -6   1    9.70   12.60
   3   6  -1   16.70   14.10
  -3  -6   1   13.10   11.60
   2   6  -1  117.89   21.70
  -2  -6   1  105.09   17.70
   1   6  -1  475.25   31.40
  -1  -6   1  513.05   26.40
  -1  -6   1  481.25   24.20
   0   6  -1 1181.18   54.99
   0   6  -1 1209.58   52.49
   0  -6   1 1177.08   48.20
   0  -6   1 1063.29   51.59
   0  -6   1 1156.58   47.60
  -1   6  -1  628.54   34.80
  -1   6  -1  617.24   29.60
  -1   6  -1  605.54   32.90
   1  -6   1  646.44   28.10
   1  -6   1  624.34   28.50
   1  -6   1  573.44   31.80
  -2   6  -1    3.40    9.50
   2  -6   1   -5.00    5.30
   2  -6   1    3.30    9.90
  -3   6  -1   34.20   11.10
   3  -6   1   23.10    6.40
  -4   6  -1   82.39   18.30
   4  -6   1   86.29   11.40
  -5   6  -1   26.30   13.50
   5  -6   1   50.39    8.10
  -6   6  -1  596.24   39.80
   6  -6   1  603.84   30.50
  -7   6  -1  380.16   33.40
   7  -6   1  390.26   23.90
  -8   6  -1  -17.00   18.40
   8  -6   1   -1.70   11.30
   8  -6   1   18.80   15.60
   7   5  -1   62.69   19.60
  -7  -5   1   88.49   17.60
   6   5  -1  135.99   27.40
  -6  -5   1  153.38   23.90
   5   5  -1  150.38   24.70
  -5  -5   1  156.78   20.60
   4   5  -1    8.30   12.10
  -4  -5   1   -7.70   11.10
   3   5  -1  699.43   38.20
  -3  -5   1  685.93   34.30
   2   5  -1  959.70   47.70
  -2  -5   1 1000.00   42.90
   1   5  -1   19.70   10.00
   1   5  -1   10.40    5.30
  -1  -5   1   17.70    8.40
  -1  -5   1   11.40    7.60
   0   5  -1   58.39   10.50
   0   5  -1   56.79    7.20
   0   5  -1   98.39   17.40
   0  -5   1   67.09    9.10
   0  -5   1   58.99   10.50
   0  -5   1   68.99   11.40
  -1   5  -1   11.50    9.70
  -1   5  -1   16.10    8.80
  -1   5  -1   19.00    6.80
   1  -5   1   24.00    7.20
   1  -5   1   13.40    5.30
   1  -5   1   16.50    7.10
   1  -5   1   20.00    5.50
  -2   5  -1   -1.30    8.30
   2  -5   1    0.30    5.20
  -3   5  -1  946.21   45.00
   3  -5   1  938.61   39.90
  -4   5  -1  883.61   42.50
   4  -5   1  840.92   37.30
  -5   5  -1  123.89   19.40
   5  -5   1  116.39   12.20
  -6   5  -1  795.32   45.90
   6  -5   1  870.61   38.10
  -7   5  -1   22.90   15.50
   7  -5   1    3.90   13.30
   7  -5   1    7.20   13.10
   7  -5   1    9.20    8.90
  -8   5  -1   27.00   18.50
   8  -5   1  117.79   26.00
   8  -5   1   53.09   16.80
   8  -5   1   65.89   11.60
   7   4  -1  -21.90   16.50
  -7  -4   1  -19.60   13.90
   6   4  -1   68.69   15.30
  -6  -4   1   49.40   14.00
   5   4  -1  126.99   21.20
  -5  -4   1   85.59   17.60
   4   4  -1  695.93   38.20
  -4  -4   1  725.13   35.10
   3   4  -1  382.36   25.40
  -3  -4   1  396.36   22.90
   2   4  -1  170.48   18.20
  -2  -4   1  165.28   15.50
   1   4  -1   50.09   11.10
   1   4  -1   56.89   10.30
   1   4  -1   79.39    7.60
  -1  -4   1   68.49   11.30
  -1  -4   1   58.19    8.00
  -1  -4   1   72.99   11.00
   0   4  -1    0.70    5.90
   0   4  -1    0.10    3.10
   0   4  -1    3.10    7.10
   0   4  -1    7.50    4.80
   0  -4   1    4.00    4.50
   0  -4   1   12.20    5.20
   0  -4   1    6.80    4.90
   0  -4   1   -2.00    5.30
  -1   4  -1   78.89   11.10
  -1   4  -1   52.89    8.90
  -1   4  -1   49.00    4.90
   1  -4   1   64.39    8.60
   1  -4   1   55.89    6.60
   1  -4   1   55.99    7.00
  -2   4  -1  964.90   43.10
  -2   4  -1  913.31   37.50
  -2   4  -1  949.60   37.60
   2  -4   1  912.41   38.60
   2  -4   1  936.11   37.80
   2  -4   1  921.61   40.40
  -3   4  -1 1436.06   62.19
  -3   4  -1 1418.66   55.89
   3  -4   1 1382.46   56.09
   3  -4   1 1412.86   56.69
  -4   4  -1 1037.20   49.20
   4  -4   1 1096.19   44.80
   4  -4   1 1027.80   43.90
   4  -4   1 1127.09   45.00
  -5   4  -1    7.30   10.10
   5  -4   1    9.80    6.30
   5  -4   1   16.60    8.90
   5  -4   1    3.60    8.90
  -6   4  -1   62.59   14.10
   6  -4   1   76.59   12.50
   6  -4   1   69.89   12.70
  -7   4  -1  151.28   27.00
   7  -4   1  203.98   17.40
   7  -4   1  173.78   22.80
   7  -4   1  150.78   24.80
  -8   4  -1  126.69   20.90
   8  -4   1  117.39   19.10
  -9   4  -1  151.28   26.40
   9  -4   1  240.38   25.20
   9  -4   1  187.38   33.00
   8   3  -1   54.89   18.50
  -8  -3   1   76.19   17.80
   7   3  -1   -3.20   14.50
  -7  -3   1    8.10   13.50
   6   3  -1    0.80   12.20
  -6  -3   1    3.90   11.90
   5   3  -1  351.66   26.70
  -5  -3   1  377.86   23.70
   4   3  -1  712.73   36.80
  -4  -3   1  717.43   33.80
   3   3  -1  289.67   20.30
  -3  -3   1  270.67   18.50
   2   3  -1  698.13   32.20
   2   3  -1  589.34   26.60
  -2  -3   1  668.23   29.40
  -2  -3   1  636.74   29.00
   1   3  -1  604.44   24.70
   1   3  -1  554.34   27.90
  -1  -3   1  641.44   25.80
  -1  -3   1  549.74   26.30
  -1  -3   1  578.94   26.30
   0   3  -1  807.12   35.10
   0   3  -1  836.02   32.00
   0   3  -1  754.42   31.20
   0   3  -1  817.82   34.40
   0  -3   1  807.42   34.10
   0  -3   1  776.32   34.10
   0  -3   1  778.92   32.00
   0  -3   1  743.33   31.40
  -1   3  -1  186.38   10.10
  -1   3  -1  167.68    9.20
   1  -3   1  162.98   10.60
   1  -3   1  167.38    9.80
   1  -3   1  178.28    9.70
  -2   3  -1   65.79   12.20
  -2   3  -1   74.99    7.20
  -2   3  -1   73.59    5.90
   2  -3   1   61.59    5.90
   2  -3   1   65.09    8.00
   2  -3   1   72.99    8.40
   2  -3   1   63.99    7.50
  -3   3  -1 1098.19   46.40
  -3   3  -1 1013.70   42.60
   3  -3   1 1022.90   40.50
   3  -3   1  992.60   41.10
   3  -3   1  944.81   41.50
   3  -3   1 1016.80   43.90
   3  -3   1 1032.20   41.30
  -4   3  -1  545.45   26.10
  -4   3  -1  527.35   28.10
   4  -3   1  528.15   24.00
   4  -3   1  533.05   22.80
   4  -3   1  513.55   24.80
   4  -3   1  527.65   24.20
  -5   3  -1 1159.88   48.50
  -5   3  -1 1076.79   52.39
   5  -3   1 1152.18   47.00
  -6   3  -1 2023.90   80.79
  -6   3  -1 1894.71   86.89
   6  -3   1 1995.30   78.99
  -7   3  -1  149.19   20.50
  -7   3  -1  159.08   26.40
   7  -3   1  147.89   21.70
   7  -3   1  167.98   22.60
   7  -3   1  193.58   15.90
  -8   3  -1   28.60   14.20
  -8   3  -1   20.30   17.40
   8  -3   1   -2.20   14.10
   8  -3   1   10.50   10.40
   8  -3   1   21.40   15.40
  -9   3  -1   91.79   23.20
   9  -3   1   57.09   14.20
   9  -3   1   90.09   23.00
   8   2  -1   -9.00   17.00
  -8  -2   1  -27.60   15.50
   7   2  -1   50.99   15.20
  -7  -2   1   77.29   13.70
   6   2  -1 1005.10   49.60
  -6  -2   1  948.61   45.50
   5   2  -1 1711.33   75.69
  -5  -2   1 1693.63   69.79
   4   2  -1   47.30    9.80
  -4  -2   1   50.39    9.50
   3   2  -1  190.68   11.40
   3   2  -1  194.38   11.90
   3   2  -1  234.08   17.70
  -3  -2   1  207.98   15.60
  -3  -2   1  197.78   11.30
   2   2  -1  422.06   19.90
   2   2  -1  433.66   18.90
   2   2  -1  421.46   21.70
  -2  -2   1  375.06   20.10
  -2  -2   1  444.46   20.40
   1   2  -1   -5.50    5.80
   1   2  -1   10.10    4.70
  -1  -2   1    3.10    5.00
   0   2  -1   -3.70    5.60
   0  -2   1   -1.60    5.00
  -1   2  -1 3905.81  144.29
  -1   2  -1 3930.41  155.28
  -1   2  -1 3853.21  145.79
  -1   2  -1 3852.91  145.49
   1  -2   1 3918.01  144.49
   1  -2   1 3766.32  145.59
   1  -2   1 4089.79  155.18
   1  -2   1 3528.65  145.39
  -2   2  -1   27.00    6.00
  -2   2  -1   16.70    5.40
   2  -2   1   16.80    4.60
   2  -2   1   22.30    5.10
   2  -2   1   22.80    4.70
   2  -2   1   10.80    4.90
  -3   2  -1  214.38   14.60
  -3   2  -1  194.78   14.10
   3  -2   1  219.38   11.20
   3  -2   1  190.38   12.60
   3  -2   1  218.98   11.50
   3  -2   1  199.98   10.70
  -4   2  -1 1595.94   70.29
  -4   2  -1 1684.23   66.09
   4  -2   1 1582.24   69.19
   4  -2   1 1631.04   64.29
   4  -2   1 1656.63   69.29
   4  -2   1 1619.64   64.59
   4  -2   1 1758.92   65.49
  -5   2  -1 1581.24   61.99
  -5   2  -1 1478.95   66.59
  -5   2  -1 1470.65   65.29
   5  -2   1 1587.14   61.09
   5  -2   1 1517.35   65.19
   5  -2   1 1419.76   65.19
  -6   2  -1  668.83   37.00
  -6   2  -1  687.13   33.00
   6  -2   1  625.24   33.60
   6  -2   1  637.34   34.30
   6  -2   1  661.93   30.00
  -7   2  -1   92.79   14.60
  -7   2  -1  120.49   24.60
   7  -2   1  113.99   20.20
   7  -2   1   76.79   13.60
   7  -2   1   85.99   13.80
  -8   2  -1  160.88   31.30
  -8   2  -1  122.69   23.70
   8  -2   1  112.89   17.90
   8  -2   1  111.99   18.00
   8  -2   1  132.09   28.10
  -9   2  -1   -6.30   17.30
   9  -2   1   27.50   12.90
   9  -2   1   -7.60   21.00
   9  -2   1   -7.70   18.70
   8   1  -1  199.18   29.30
  -8  -1   1  131.39   25.70
   7   1  -1  516.15   34.20
  -7  -1   1  489.75   31.00
   6   1  -1  755.62   37.50
   6   1  -1  677.13   34.40
   6   1  -1  569.64   36.40
  -6  -1   1  743.23   34.70
   5   1  -1  103.19   15.60
   5   1  -1   86.49   13.70
  -5  -1   1   81.39   14.90
   4   1  -1  539.65   26.10
   4   1  -1  543.45   28.90
   4   1  -1  562.84   23.50
   4   1  -1  556.54   26.60
  -4  -1   1  557.04   26.00
  -4  -1   1  550.94   29.10
  -4  -1   1  543.75   26.20
   3   1  -1  179.38   11.30
   3   1  -1  175.78   11.90
   3   1  -1  163.28   14.40
   3   1  -1  210.88   10.30
   3   1  -1  195.28   12.40
  -3  -1   1  190.88   14.00
  -3  -1   1  185.38   11.80
  -3  -1   1  195.08   12.60
   2   1  -1 1692.53   65.29
   2   1  -1 1517.75   70.79
   2   1  -1 1777.82   69.29
   2   1  -1 1711.63   70.89
  -2  -1   1 1669.33   70.99
  -2  -1   1 1710.33   65.49
  -2  -1   1 1822.12   69.29
   1   1  -1   13.10    4.50
   1   1  -1   13.00    4.30
   1   1  -1   15.30    4.60
  -1  -1   1    9.30    4.80
  -1  -1   1   12.10    4.50
  -1   1  -1 1911.51   78.99
  -1   1  -1 2154.88   84.19
   1  -1   1 2032.60   78.59
   1  -1   1 2081.39   78.99
   1  -1   1 2208.38   84.09
  -2   1  -1 1351.46   53.69
  -2   1  -1 1369.16   57.09
   2  -1   1 1307.07   53.49
   2  -1   1 1456.15   53.59
   2  -1   1 1393.96   56.79
  -3   1  -1 1203.28   50.99
  -3   1  -1 1256.97   48.20
  -3   1  -1 1241.58   48.20
   3  -1   1 1195.18   47.30
   3  -1   1 1197.28   47.30
   3  -1   1 1221.78   50.79
   3  -1   1 1181.38   50.39
   3  -1   1 1137.29   50.69
  -4   1  -1 1126.39   45.20
  -4   1  -1 1127.09   45.60
  -4   1  -1 1100.79   48.20
   4  -1   1 1060.39   47.00
   4  -1   1 1075.59   43.60
   4  -1   1 1067.79   47.30
   4  -1   1 1089.99   43.70
   4  -1   1 1054.99   47.40
  -5   1  -1   -0.20    8.20
  -5   1  -1   -1.20    9.00
  -5   1  -1   19.90    8.80
   5  -1   1   -8.40    7.70
   5  -1   1   14.80    8.90
   5  -1   1   12.20    8.00
  -6   1  -1  249.97   21.20
  -6   1  -1  269.97   21.40
  -6   1  -1  301.97   24.50
   6  -1   1  266.67   21.00
   6  -1   1  269.17   22.60
  -7   1  -1   53.49   15.50
  -7   1  -1   52.39   13.80
  -7   1  -1   34.60   13.10
   7  -1   1   53.19   13.70
   7  -1   1   53.79    9.90
   7  -1   1   74.19   13.90
  -8   1  -1  487.95   33.80
  -8   1  -1  532.05   34.20
   8  -1   1  564.44   38.90
   8  -1   1  572.64   29.40
  -9   1  -1   59.99   18.10
  -9   1  -1   89.99   20.00
   9  -1   1   77.39   21.90
   9  -1   1  113.29   22.40
   9   0  -1  102.09   21.60
   9   0  -1  130.79   22.00
  -9   0   1  145.19   28.60
   8   0  -1  135.09   25.40
   8   0  -1  177.48   27.70
  -8   0   1  161.38   24.90
   7   0  -1  139.59   22.00
   7   0  -1  108.69   21.10
  -7   0   1  116.69   20.00
   6   0  -1   13.50    9.30
   6   0  -1   14.80   10.40
  -6   0   1   20.40   10.40
  -6   0   1   36.60   10.80
   5   0  -1  113.19   14.70
   5   0  -1  137.79   14.10
   5   0  -1  131.09   16.60
  -5   0   1  135.79   17.30
  -5   0   1  149.99   14.80
   4   0  -1 3557.24  136.39
   4   0  -1 3421.66  135.89
   4   0  -1 3336.17  126.69
   4   0  -1 3170.78  137.49
   4   0  -1 3214.38  137.19
  -4   0   1 3242.58  137.79
  -4   0   1 3430.66  127.39
   3   0  -1 5021.30  201.88
   3   0  -1 5250.88  202.28
   3   0  -1 4977.00  188.28
   3   0  -1 4839.52  204.28
  -3   0   1 5085.99  188.48
  -3   0   1 4991.60  204.48
  -3   0   1 5023.70  201.88
   2   0  -1   11.10    4.00
   2   0  -1    4.20    5.30
   2   0  -1   15.10    5.20
   2   0  -1   13.10    4.80
  -2   0   1    8.30    4.80
  -2   0   1    4.60    4.00
  -2   0   1    6.50    5.20
   1   0  -1   50.99    6.70
  -1   0   1   36.20    7.70
  -1   0  -1  845.62   32.90
  -1   0  -1  805.82   35.20
  -1   0  -1  769.52   32.80
   1   0   1  884.11   35.50
   1   0   1  885.61   32.80
   1   0   1  794.82   32.70
  -2   0  -1  290.77   15.60
  -2   0  -1  289.77   14.50
  -2   0  -1  289.17   14.90
   2   0   1  282.27   15.20
   2   0   1  290.37   13.80
   2   0   1  305.27   15.90
  -3   0  -1  865.71   36.40
  -3   0  -1  931.31   37.20
  -3   0  -1  857.61   38.40
   3   0   1  931.91   36.40
   3   0   1  906.91   39.40
   3   0   1  855.21   35.50
   3   0   1  868.11   38.40
  -4   0  -1   30.10    5.10
  -4   0  -1   30.20    8.40
  -4   0  -1   23.10    8.30
   4   0   1   27.00    5.20
   4   0   1   35.20    8.60
   4   0   1   24.90    5.30
  -5   0  -1   11.90    8.90
  -5   0  -1   12.40    9.00
   5   0   1   18.70    9.10
   5   0   1    8.70    7.30
  -6   0  -1   16.00   11.00
  -6   0  -1   13.30   11.60
   6   0   1   23.00   12.10
  -7   0  -1  364.06   27.40
  -7   0  -1  373.86   27.80
   7   0   1  436.16   32.00
  -8   0  -1  203.38   26.40
  -8   0  -1  215.28   26.90
   8   0   1  208.28   31.70
   9  -1  -1   33.40   19.50
   9  -1  -1   59.99   18.40
  -9   1   1   25.70   17.90
   8  -1  -1  136.79   24.70
   8  -1  -1  122.89   18.90
  -8   1   1  135.89   23.70
   7  -1  -1   94.29   14.50
   7  -1  -1   88.39   14.70
  -7   1   1   84.99   15.00
  -7   1   1  107.59   15.40
   6  -1  -1  457.25   27.00
   6  -1  -1  446.46   27.10
   6  -1  -1  443.16   22.30
  -6   1   1  447.36   28.20
  -6   1   1  440.06   25.50
   5  -1  -1 2678.23  100.79
   5  -1  -1 2455.15  100.29
   5  -1  -1 2686.03  108.59
  -5   1   1 2546.75  109.49
  -5   1   1 2635.84  100.79
  -5   1   1 2632.84  109.49
   4  -1  -1 2211.18   94.29
   4  -1  -1 2322.37   94.19
   4  -1  -1 2138.69   87.29
   4  -1  -1 2200.98   93.59
   4  -1  -1 2293.07   86.89
  -4   1   1 2258.77   95.09
  -4   1   1 2373.46   87.29
  -4   1   1 2322.27   95.09
   2  -1  -1   23.90    5.60
   2  -1  -1   28.90    6.10
   2  -1  -1   23.10    5.80
   2  -1  -1   20.10    4.00
  -2   1   1   23.90    4.70
  -2   1   1   24.90    6.70
  -2   1   1   11.20    5.60
   1  -1  -1  285.07   14.40
   1  -1  -1  252.17   15.80
   1  -1  -1  253.77   12.30
   1  -1  -1  244.58   13.80
  -1   1   1  274.77   12.10
  -1   1   1  272.77   13.70
  -1   1   1  264.87   15.20
  -1   1   1  221.78   15.70
   0  -1  -1 1164.48   45.70
   0  -1  -1 1198.78   48.30
   0  -1  -1 1166.78   49.99
   0  -1  -1 1198.38   48.00
   0   1   1 1177.98   50.59
   0   1   1 1165.18   45.60
   0   1   1 1167.18   47.90
  -1  -1  -1 1951.10   76.09
  -1  -1  -1 1965.80   82.69
  -1  -1  -1 1943.91   76.49
   1   1   1 2049.59   75.99
   1   1   1 2017.90   83.29
   1   1   1 2058.89   76.59
  -2  -1  -1  135.39   12.20
  -2  -1  -1  189.38   10.30
  -2  -1  -1  172.68   10.60
   2   1   1  188.78    9.50
   2   1   1  140.79    9.40
   2   1   1  180.28   14.40
  -3  -1  -1  104.59    8.40
  -3  -1  -1  106.99   10.60
  -3  -1  -1  126.79   13.60
   3   1   1  127.49    8.40
   3   1   1  100.39    9.00
   3   1   1  150.08   15.80
  -4  -1  -1  169.98   14.20
  -4  -1  -1  172.88   15.70
   4   1   1  165.68   12.00
   4   1   1  182.68   17.40
  -5  -1  -1   13.80    9.60
  -5  -1  -1   10.90    9.30
   5   1   1   -8.60    9.30
   5   1   1   15.00   10.00
  -6  -1  -1  308.37   23.70
   6   1   1  296.77   26.80
  -7  -1  -1  339.47   27.50
   7   1   1  350.06   31.70
  -8  -1  -1   35.40   16.20
   8   1   1   37.00   20.20
   9  -2  -1   25.50   18.70
   9  -2  -1   31.50   17.70
   9  -2  -1   38.90   12.90
  -9   2   1   44.90   19.40
  -9   2   1   25.50   16.80
   8  -2  -1   49.80   16.00
   8  -2  -1   55.99   10.80
   8  -2  -1   57.39   16.00
  -8   2   1   47.60   16.50
  -8   2   1   60.99   15.50
   7  -2  -1  480.85   30.10
   7  -2  -1  494.55   25.30
   7  -2  -1  477.45   33.10
  -7   2   1  482.45   28.30
  -7   2   1  498.25   32.50
   6  -2  -1   68.99   11.00
   6  -2  -1   83.09   12.70
  -6   2   1   87.19   18.60
  -6   2   1   84.19   11.80
  -6   2   1  104.29   20.10
   5  -2  -1  911.61   43.20
   5  -2  -1  944.91   39.50
   5  -2  -1  925.01   39.10
   5  -2  -1  917.71   38.70
  -5   2   1  879.61   39.30
  -5   2   1  965.30   45.20
  -5   2   1  935.51   43.50
   4  -2  -1    8.20    5.00
   4  -2  -1    5.70    6.70
   4  -2  -1    4.00    4.10
   4  -2  -1   19.20    5.80
  -4   2   1   11.10    3.60
  -4   2   1    8.50    8.00
  -4   2   1    7.60    8.20
   3  -2  -1  174.18   11.20
   3  -2  -1  154.58   10.50
   3  -2  -1  143.79   10.70
   3  -2  -1  160.28    8.90
   3  -2  -1  160.88   13.90
  -3   2   1  162.98    8.30
  -3   2   1  158.18   13.80
  -3   2   1  178.38   15.50
   2  -2  -1 1145.79   45.40
   2  -2  -1 1166.28   48.70
   2  -2  -1 1143.09   48.40
   2  -2  -1 1156.78   48.70
  -2   2   1 1105.69   44.70
  -2   2   1 1207.58   49.60
  -2   2   1 1074.99   48.90
   1  -2  -1 4494.35  178.88
   1  -2  -1 4423.66  178.68
   1  -2  -1 4280.87  167.98
   1  -2  -1 4420.26  181.08
  -1   2   1 4660.03  179.18
  -1   2   1 4429.06  181.28
  -1   2   1 4424.76  167.98
  -1  -2  -1 1538.25   57.39
  -1  -2  -1 1492.05   56.89
  -1  -2  -1 1370.76   61.79
   1   2   1 1421.96   56.59
   1   2   1 1466.65   56.59
   1   2   1 1483.15   62.99
  -2  -2  -1  426.66   20.80
  -2  -2  -1  395.56   19.50
  -2  -2  -1  400.66   19.70
   2   2   1  375.76   18.40
   2   2   1  401.56   25.30
   2   2   1  459.85   18.50
  -3  -2  -1    1.90    7.30
  -3  -2  -1    8.20    7.30
   3   2   1    0.90    9.00
   3   2   1    2.10    5.60
  -4  -2  -1  130.09   15.20
   4   2   1   94.69   13.00
  -5  -2  -1  368.56   24.30
  -5  -2  -1  355.96   22.60
   5   2   1  383.66   27.80
  -6  -2  -1  159.18   20.80
   6   2   1  188.38   25.60
  -7  -2  -1   28.00   14.00
   7   2   1   21.60   16.90
  -8  -2  -1   -3.10   16.60
   8   2   1    2.90   20.40
   9  -3  -1  110.79   21.20
   9  -3  -1   99.69   21.40
  -9   3   1   88.69   20.60
   8  -3  -1  153.58   18.30
   8  -3  -1  150.08   23.10
   8  -3  -1  120.89   19.70
  -8   3   1  159.18   27.20
   7  -3  -1   11.00   12.50
   7  -3  -1   16.60    8.60
  -7   3   1   -2.40   12.50
  -7   3   1   15.50   13.90
   6  -3  -1   13.00    9.90
   6  -3  -1    6.30    6.90
  -6   3   1    2.20   10.60
  -6   3   1   10.10   12.00
   5  -3  -1  165.48   12.60
   5  -3  -1  116.19   15.80
  -5   3   1  136.89   17.90
  -5   3   1  131.09   18.50
   4  -3  -1    4.10    6.90
   4  -3  -1    1.70    4.90
   4  -3  -1    0.20    6.20
  -4   3   1    3.00    8.20
  -4   3   1   -1.00    8.00
   3  -3  -1  834.82   37.20
   3  -3  -1  803.22   34.40
   3  -3  -1  810.82   35.70
   3  -3  -1  855.51   37.90
  -3   3   1  756.02   32.70
  -3   3   1  745.03   37.40
  -3   3   1  872.71   39.20
   2  -3  -1 7965.60  317.17
   2  -3  -1 7691.33  313.77
   2  -3  -1 8169.38  295.07
   2  -3  -1 7626.24  313.67
  -2   3   1 7601.14  314.27
  -2   3   1 7848.71  294.67
  -2   3   1 7852.91  317.17
   1  -3  -1  751.82   35.40
   1  -3  -1  784.82   33.40
   1  -3  -1  802.22   35.00
  -1   3   1  774.72   32.40
  -1   3   1  854.81   36.10
  -1   3   1  840.82   38.00
   0  -3  -1   44.00    7.70
   0  -3  -1   45.30    6.60
   0   3   1   31.50    4.60
  -1  -3  -1  137.09   11.30
  -1  -3  -1  129.99   12.50
  -1  -3  -1  110.09   10.00
   1   3   1  146.09   19.30
   1   3   1  140.09   10.00
   1   3   1  100.39    8.10
  -2  -3  -1  459.25   22.30
  -2  -3  -1  452.95   23.40
   2   3   1  420.76   20.20
   2   3   1  470.95   27.40
  -3  -3  -1  961.50   42.80
  -3  -3  -1  977.90   41.50
   3   3   1  988.40   47.70
  -4  -3  -1  571.84   30.50
   4   3   1  596.44   34.90
  -5  -3  -1    4.70   10.90
   5   3   1    3.30   13.50
  -6  -3  -1   61.79   14.70
   6   3   1   26.10   16.00
  -7  -3  -1  -10.70   14.20
   7   3   1  -26.40   18.10
   9  -4  -1   85.79   21.00
   9  -4  -1  150.28   30.40
   8  -4  -1  159.38   18.80
   8  -4  -1  126.69   20.60
  -8   4   1  149.49   28.80
  -8   4   1  115.39   20.60
   7  -4  -1   70.79   14.00
   7  -4  -1   54.19   10.00
  -7   4   1   46.00   13.90
  -7   4   1   45.90   14.80
   6  -4  -1    5.60   10.30
  -6   4   1  -12.40   11.60
  -6   4   1    0.50   11.00
   5  -4  -1   14.80    6.80
   5  -4  -1   18.10    9.30
  -5   4   1    9.30    9.80
  -5   4   1   26.10   10.60
   4  -4  -1  479.45   23.20
   4  -4  -1  483.45   26.60
  -4   4   1  464.85   28.00
  -4   4   1  469.35   27.30
   3  -4  -1 2529.55  110.49
   3  -4  -1 2765.62  110.29
   3  -4  -1 2609.04  102.49
  -3   4   1 2704.63  110.99
  -3   4   1 2575.44  110.49
   2  -4  -1 1987.60   86.19
   2  -4  -1 2010.00   87.59
   2  -4  -1 2054.99   81.19
  -2   4   1 2204.28   88.19
  -2   4   1 2048.70   81.59
  -2   4   1 2148.69   88.99
   1  -4  -1 1116.99   49.70
   1  -4  -1 1104.49   50.29
   1  -4  -1 1232.68   47.10
  -1   4   1 1216.48   53.89
  -1   4   1 1073.59   50.49
  -1   4   1 1156.08   45.80
   0  -4  -1  591.34   26.10
   0   4   1  541.15   23.90
   0   4   1  588.74   33.80
   0   4   1  556.04   28.00
  -1  -4  -1 1119.19   45.80
  -1  -4  -1 1175.08   46.20
   1   4   1 1146.59   52.69
   1   4   1  988.30   44.70
  -2  -4  -1  232.58   18.20
  -2  -4  -1  256.87   17.40
   2   4   1  206.38   14.80
   2   4   1  256.57   22.40
  -3  -4  -1  479.05   27.30
  -3  -4  -1  473.95   25.30
   3   4   1  453.45   30.50
  -4  -4  -1  503.35   28.60
  -4  -4  -1  436.56   26.60
   4   4   1  456.05   32.50
  -5  -4  -1  100.19   19.70
   5   4   1   70.19   16.80
  -6  -4  -1   18.80   15.30
   6   4   1   -4.10   15.80
  -7  -4  -1  108.79   18.40
   7   4   1   91.89   21.50
   8  -5  -1   63.89   12.70
   8  -5  -1   48.20   16.20
  -8   5   1   59.59   17.80
  -8   5   1   66.59   18.70
   7  -5  -1   11.30    9.60
  -7   5   1   28.20   14.30
  -7   5   1   21.00   14.70
   6  -5  -1  199.08   21.90
   6  -5  -1  230.38   17.30
  -6   5   1  203.48   25.50
  -6   5   1  225.28   24.70
   5  -5  -1  485.55   24.50
   5  -5  -1  470.55   28.70
  -5   5   1  449.66   30.60
  -5   5   1  487.45   31.20
   4  -5  -1  238.58   15.30
   4  -5  -1  226.38   19.20
  -4   5   1  227.98   21.40
  -4   5   1  215.38   23.20
   3  -5  -1   18.00    5.50
   3  -5  -1   11.00    9.10
  -3   5   1   28.60   11.30
  -3   5   1   20.10   10.60
   2  -5  -1  134.29   11.60
  -2   5   1  116.99   17.00
  -2   5   1  125.89   21.10
   1  -5  -1  352.26   22.30
   1  -5  -1  364.06   19.20
  -1   5   1  345.17   23.00
  -1   5   1  324.87   27.60
   0  -5  -1 1222.58   48.50
   0  -5  -1 1073.19   51.29
   0   5   1 1215.08   56.59
   0   5   1 1116.99   51.69
  -1  -5  -1  997.60   42.70
  -1  -5  -1  939.61   42.10
   1   5   1 1002.40   49.90
  -2  -5  -1   16.00   10.00
  -2  -5  -1   29.00   10.70
   2   5   1    6.30   13.00
  -3  -5  -1  123.19   20.20
  -3  -5  -1   76.49   13.50
   3   5   1   85.59   15.60
  -4  -5  -1    6.80   12.50
  -4  -5  -1  -10.20   12.30
  -5  -5  -1  167.98   24.00
   5   5   1  152.68   28.00
   6   5   1  125.69   21.70
   8  -6  -1   39.80   15.50
   8  -6  -1   15.30   11.40
  -8   6   1    1.60   17.40
  -8   6   1    3.30   16.90
   7  -6  -1  197.98   23.90
   7  -6  -1  141.99   17.60
  -7   6   1  160.38   29.50
  -7   6   1  152.18   27.40
   6  -6  -1  245.98   17.90
   6  -6  -1  221.38   23.70
  -6   6   1  235.08   26.90
  -6   6   1  257.57   27.30
   5  -6  -1   73.09   12.20
   5  -6  -1   62.39   12.20
  -5   6   1   48.00   14.30
  -5   6   1   57.89   14.20
   4  -6  -1   52.99   11.70
   4  -6  -1   56.59   11.10
  -4   6   1   57.69   14.30
  -4   6   1   43.30   12.70
   3  -6  -1  111.39   11.80
   3  -6  -1   97.09   14.10
  -3   6   1  112.49   23.70
  -3   6   1   80.89   14.90
   2  -6  -1  215.08   15.00
   2  -6  -1  175.28   20.70
  -2   6   1  194.68   26.00
  -2   6   1  202.58   21.90
   1  -6  -1  572.24   28.40
   1  -6  -1  571.84   31.60
  -1   6   1  539.15   37.30
  -1   6   1  565.24   32.50
   0  -6  -1  741.53   35.60
   0   6   1  819.42   45.10
   0   6   1  711.93   38.40
  -1  -6  -1   -2.50    9.70
  -1  -6  -1    9.90   10.70
   1   6   1    9.20   16.00
  -2  -6  -1   91.69   15.10
  -2  -6  -1  123.69   18.80
   2   6   1  107.49   18.90
  -3  -6  -1   55.29   14.90
  -3  -6  -1   91.09   16.50
   3   6   1   58.09   17.70
  -4  -6  -1  161.28   24.30
   4   6   1  142.89   27.80
  -5  -6  -1  130.99   26.50
   7  -7  -1   97.39   17.80
   7  -7  -1  155.38   23.80
  -7   7   1  112.49   20.30
   6  -7  -1   48.90   10.20
   6  -7  -1   33.50   13.80
  -6   7   1   68.89   16.70
  -6   7   1   38.40   17.60
   5  -7  -1   44.90   13.40
   5  -7  -1   21.80    8.30
  -5   7   1   29.80   15.30
  -5   7   1   36.90   15.80
   4  -7  -1  199.08   16.00
   4  -7  -1  208.78   22.80
  -4   7   1  157.08   26.30
  -4   7   1  234.48   29.50
   3  -7  -1  215.78   24.10
   3  -7  -1  233.78   17.40
  -3   7   1  271.47   29.60
  -3   7   1  216.18   27.10
   2  -7  -1  543.45   27.80
   2  -7  -1  539.55   32.60
  -2   7   1  495.65   34.90
  -2   7   1  520.95   38.70
   1  -7  -1   -3.30    9.50
   1  -7  -1   -6.80   11.10
  -1   7   1  -23.30   17.10
   0  -7  -1  173.58   20.00
   0   7   1  160.08   32.00
  -1  -7  -1   16.30   12.90
  -1  -7  -1   -3.80   12.40
   1   7   1   10.00   19.10
  -2  -7  -1  139.89   24.80
  -2  -7  -1  186.88   22.40
   2   7   1  171.98   30.10
  -3  -7  -1  160.38   27.90
   3   7   1  142.39   30.40
   6  -8  -1   19.80   15.90
   6  -8  -1   32.00   10.60
  -6   8   1   25.10   20.00
  -6   8   1    4.00   17.60
   5  -8  -1   86.59   15.60
  -5   8   1   84.39   21.00
  -5   8   1   86.99   19.90
   4  -8  -1  155.38   17.00
   4  -8  -1  188.58   26.00
  -4   8   1  143.69   29.20
   3  -8  -1   75.29   16.60
   3  -8  -1   83.29   15.30
  -3   8   1   91.39   19.70
  -3   8   1   62.39   18.50
   2  -8  -1   21.20   14.60
   2  -8  -1   32.40   11.80
  -2   8   1   19.30   17.50
  -2   8   1   53.59   20.80
   1  -8  -1   45.60   16.20
  -1   8   1   59.69   17.40
  -1   8   1   81.39   22.10
   0  -8  -1  121.99   20.50
   0   8   1   83.09   22.00
  -1  -8  -1   43.40   16.60
  -1  -8  -1   18.60   15.70
   1   8   1   49.00   22.40
  -2  -8  -1   83.79   18.10
  -2  -8  -1   82.19   19.70
   2   8   1   55.49   24.70
   4  -9  -1   38.90   18.70
   4  -9  -1   44.00   11.70
  -4   9   1   44.40   20.40
   3  -9  -1   42.40   19.60
   3  -9  -1   50.89   13.10
  -3   9   1   82.09   22.70
  -3   9   1   66.69   22.00
   2  -9  -1   -6.00   12.60
   2  -9  -1  -14.80   17.40
  -2   9   1   38.00   23.00
  -2   9   1   28.90   20.90
   1  -9  -1   55.29   15.40
   1  -9  -1   64.19   19.30
  -1   9   1   82.19   24.30
  -1   9   1   37.10   22.90
   0  -9  -1  130.99   24.70
   0   9   1  124.99   27.10
   1  10  -2   10.00   26.00
   0  10  -2   12.90   24.80
   0  10  -2   15.50   21.40
   0 -10   2   19.00   14.30
   0 -10   2   11.10   17.40
  -1  10  -2   27.70   20.80
  -1  10  -2  -30.20   23.40
   1 -10   2   -7.20   16.00
   1 -10   2   17.30   12.90
  -2  10  -2  107.69   22.10
   2 -10   2   83.29   14.30
  -3  10  -2  105.69   23.10
   3 -10   2  131.89   18.80
  -4  10  -2   86.39   22.80
   4 -10   2  112.29   19.00
   3   9  -2   91.49   23.20
  -3  -9   2  146.39   28.60
   2   9  -2   96.09   22.20
  -2  -9   2  104.89   18.60
   1   9  -2   73.09   17.90
   1   9  -2   59.69   20.30
  -1  -9   2   71.59   16.20
   0   9  -2  201.18   29.60
   0   9  -2  141.79   24.10
   0  -9   2  166.98   20.40
   0  -9   2  154.58   24.50
  -1   9  -2   20.60   17.20
  -1   9  -2  -13.40   18.70
   1  -9   2   12.50   10.70
   1  -9   2   31.60   12.40
  -2   9  -2  165.28   28.80
   2  -9   2  130.19   16.50
  -3   9  -2   35.40   16.40
  -4   9  -2   14.80   16.70
   4  -9   2   -2.00    9.20
  -5   9  -2   17.20   18.50
   5  -9   2   21.40   10.00
  -6   9  -2   54.39   21.10
   6  -9   2   56.49   11.30
   4   8  -2  156.08   32.70
  -4  -8   2  260.67   28.60
   3   8  -2   22.40   17.20
  -3  -8   2   61.29   15.60
   2   8  -2   73.69   18.20
  -2  -8   2   77.39   15.10
   1   8  -2   52.49   15.90
   1   8  -2   52.09   16.60
  -1  -8   2   54.49   13.80
   0   8  -2  113.79   23.70
   0   8  -2   98.39   18.80
   0  -8   2  112.89   19.10
   0  -8   2  122.19   15.40
  -1   8  -2  516.85   34.40
   1  -8   2  507.25   28.50
   1  -8   2  533.85   26.90
  -2   8  -2  143.59   25.00
   2  -8   2  135.39   15.20
   2  -8   2  166.78   18.00
  -3   8  -2  114.69   18.30
   3  -8   2  104.79   14.40
   4  -8   2   66.59   13.80
  -5   8  -2   81.19   18.00
   5  -8   2   97.69   14.30
  -6   8  -2   46.80   18.20
   6  -8   2   54.09   10.20
  -7   8  -2   47.20   19.90
   7  -8   2   59.99   11.80
   5   7  -2   -5.40   18.20
  -5  -7   2   57.19   15.80
   4   7  -2   -8.40   16.10
  -4  -7   2   19.40   14.20
   3   7  -2  163.68   26.20
  -3  -7   2  107.59   22.20
   2   7  -2  247.08   27.00
  -2  -7   2  268.27   22.90
   1   7  -2  401.66   29.20
   1   7  -2  382.86   27.60
  -1  -7   2  394.66   25.00
   0   7  -2 1014.80   49.10
   0   7  -2 1031.90   50.39
   0  -7   2 1030.30   43.00
   0  -7   2  975.80   44.40
  -1   7  -2  362.96   27.00
   1  -7   2  355.06   19.70
   1  -7   2  350.96   21.40
  -2   7  -2  778.72   41.00
   2  -7   2  761.12   34.40
   2  -7   2  753.22   35.20
  -3   7  -2  394.76   28.70
   3  -7   2  377.76   21.20
  -4   7  -2  150.08   22.20
   4  -7   2  145.09   13.70
  -5   7  -2   18.60   12.90
   5  -7   2   -1.20    8.00
  -6   7  -2   -2.10   15.80
   6  -7   2   25.40    9.00
  -7   7  -2   -3.70   19.10
   7  -7   2    8.60   10.40
   6   6  -2   69.49   17.90
  -6  -6   2   61.39   15.50
   5   6  -2   -1.70   14.50
  -5  -6   2   30.40   14.00
   4   6  -2   47.30   15.20
  -4  -6   2   53.99   12.70
   3   6  -2  602.24   36.50
  -3  -6   2  620.84   33.00
   2   6  -2 1261.67   58.09
  -2  -6   2 1185.98   52.49
   1   6  -2  483.85   28.80
   1   6  -2  486.65   27.50
  -1  -6   2  472.65   25.10
  -1  -6   2  394.66   26.70
   0   6  -2  191.28   19.60
   0   6  -2  171.28   12.50
   0   6  -2  212.48   18.80
   0  -6   2  186.58   16.50
   0  -6   2  171.68   16.80
   0  -6   2  189.98   12.80
  -1   6  -2  341.87   20.80
  -1   6  -2  384.76   24.50
   1  -6   2  368.36   19.00
   1  -6   2  370.36   20.90
  -2   6  -2  633.94   30.60
  -2   6  -2  693.43   35.70
   2  -6   2  685.73   30.70
   2  -6   2  658.93   30.00
  -3   6  -2  205.78   20.10
  -3   6  -2  170.68   16.00
   3  -6   2  209.48   17.00
   3  -6   2  193.28   13.90
  -4   6  -2  112.09   19.90
   4  -6   2  126.09   11.70
   4  -6   2  145.09   16.60
  -5   6  -2   26.20   11.50
   5  -6   2    8.20    7.50
   5  -6   2   17.60   10.30
  -6   6  -2   15.60   14.70
   6  -6   2  -13.90   11.30
   6  -6   2   11.00    8.40
  -7   6  -2   -8.20   18.70
   7  -6   2   -8.00   13.10
   7  -6   2   -2.20   10.10
  -8   6  -2  108.99   21.60
   8  -6   2   81.99   13.20
   8  -6   2   96.99   19.90
   7   5  -2    6.90   17.80
  -7  -5   2  -14.70   15.60
   6   5  -2  565.44   36.80
  -6  -5   2  573.74   33.30
   5   5  -2   78.49   15.10
  -5  -5   2   73.29   13.80
   4   5  -2   50.29   12.20
  -4  -5   2   47.80   11.40
   3   5  -2  172.38   20.10
  -3  -5   2  156.58   17.70
   2   5  -2  382.06   24.70
  -2  -5   2  372.76   21.90
   1   5  -2  126.59   15.90
   1   5  -2  120.69   17.30
  -1  -5   2  149.99   14.00
  -1  -5   2  135.89   11.60
  -1  -5   2  152.58   14.70
   0   5  -2 2614.54  101.29
   0   5  -2 2674.13  101.59
   0   5  -2 2796.22  109.79
   0   5  -2 2658.73  110.09
   0  -5   2 2638.34  101.29
   0  -5   2 2676.33  101.89
   0  -5   2 2622.84  109.29
   0  -5   2 2526.85  108.59
   0  -5   2 2564.24  101.69
  -1   5  -2  291.07   15.70
  -1   5  -2  271.37   13.80
  -1   5  -2  306.67   19.80
   1  -5   2  284.07   17.00
   1  -5   2  300.97   15.20
   1  -5   2  272.87   15.30
   1  -5   2  274.17   14.70
  -2   5  -2  502.55   21.40
  -2   5  -2  490.75   22.80
  -2   5  -2  527.65   28.00
   2  -5   2  483.55   24.10
   2  -5   2  509.25   23.10
   2  -5   2  477.55   21.70
  -3   5  -2  644.74   33.70
  -3   5  -2  603.84   28.30
   3  -5   2  614.14   28.60
   3  -5   2  674.23   29.60
  -4   5  -2   93.69   13.30
   4  -5   2   99.09   11.60
   4  -5   2   70.79   10.20
  -5   5  -2    7.90   11.10
  -5   5  -2   15.10    8.70
   5  -5   2    6.10    9.60
  -6   5  -2  225.28   19.40
   6  -5   2  167.98   22.60
   6  -5   2  202.08   16.90
  -7   5  -2  375.86   37.10
  -7   5  -2  489.45   28.50
   7  -5   2  457.25   25.50
   7  -5   2  410.46   31.30
  -8   5  -2   98.19   20.90
   8  -5   2   50.39   19.70
   8  -5   2   67.09   19.00
   8  -5   2   51.09   12.90
   7   4  -2  234.48   29.70
  -7  -4   2  260.87   26.40
   6   4  -2    4.30   13.30
  -6  -4   2   28.00   12.90
   5   4  -2   18.30   12.10
  -5  -4   2   34.00   11.70
   4   4  -2   82.49   17.60
  -4  -4   2   45.50   11.20
   3   4  -2  149.19   17.60
  -3  -4   2  146.79   15.30
   2   4  -2  -11.30    8.30
  -2  -4   2   -6.50    4.70
  -2  -4   2   -1.10    7.30
   1   4  -2 1735.83   67.69
   1   4  -2 1754.02   73.79
   1   4  -2 1796.42   72.99
  -1  -4   2 1747.73   68.59
  -1  -4   2 1664.83   72.79
  -1  -4   2 1755.62   72.69
   0   4  -2 1536.65   60.29
   0   4  -2 1568.04   65.69
   0   4  -2 1607.64   60.99
   0  -4   2 1503.75   60.69
   0  -4   2 1605.74   61.29
   0  -4   2 1526.65   65.09
  -1   4  -2 2934.31  110.79
  -1   4  -2 2939.91  119.79
  -1   4  -2 2946.41  111.09
   1  -4   2 2801.42  111.09
   1  -4   2 2877.41  118.79
   1  -4   2 3010.30  110.99
   1  -4   2 2867.61  111.29
  -2   4  -2  442.36   21.80
  -2   4  -2  422.76   20.00
  -2   4  -2  422.26   24.90
   2  -4   2  439.56   20.60
   2  -4   2  408.86   20.60
   2  -4   2  452.65   19.10
   2  -4   2  439.06   21.50
  -3   4  -2  315.77   22.00
  -3   4  -2  350.56   19.40
   3  -4   2  307.97   15.30
   3  -4   2  344.57   17.30
   3  -4   2  339.97   18.80
  -4   4  -2  214.28   16.00
  -4   4  -2  171.38   18.90
   4  -4   2  191.58   16.90
   4  -4   2  165.08   13.60
   4  -4   2  222.68   13.40
  -5   4  -2  838.52   37.80
  -5   4  -2  804.62   41.80
   5  -4   2  799.42   35.80
   5  -4   2  802.32   38.00
  -6   4  -2  367.66   29.70
  -6   4  -2  312.17   22.90
   6  -4   2  293.27   19.20
   6  -4   2  327.47   24.70
  -7   4  -2  145.49   20.30
  -7   4  -2   88.89   19.00
   7  -4   2  125.39   23.80
   7  -4   2  127.49   15.30
  -8   4  -2   20.90   18.40
  -8   4  -2   12.00   14.70
   8  -4   2   25.10   17.20
   8  -4   2   33.20   17.40
   8   3  -2   71.09   18.50
  -8  -3   2   97.49   18.60
   7   3  -2   23.90   14.10
  -7  -3   2   18.00   14.40
   6   3  -2   -1.90   11.90
  -6  -3   2   19.10   11.40
   5   3  -2  711.23   37.30
  -5  -3   2  648.14   33.70
   4   3  -2   12.10    9.00
  -4  -3   2   26.70    9.20
   3   3  -2 1650.73   73.59
  -3  -3   2 1721.53   70.69
  -3  -3   2 1741.33   68.19
   2   3  -2  710.83   28.90
   2   3  -2  730.73   31.40
   2   3  -2  685.93   31.80
   2   3  -2  653.13   30.30
  -2  -3   2  687.43   30.60
  -2  -3   2  692.83   30.50
  -2  -3   2  625.94   29.90
   1   3  -2 2334.37   97.39
   1   3  -2 2422.66   96.89
   1   3  -2 2355.86   97.69
   1   3  -2 2391.26   90.49
  -1  -3   2 2270.57   97.19
  -1  -3   2 2472.65   96.79
  -1  -3   2 2332.77   90.79
   0   3  -2  440.26   19.40
   0   3  -2  439.86   21.70
   0  -3   2  404.36   20.30
   0  -3   2  439.36   20.60
  -1   3  -2  480.25   20.30
  -1   3  -2  472.95   20.70
  -1   3  -2  445.46   23.40
   1  -3   2  488.65   21.30
   1  -3   2  458.65   19.70
   1  -3   2  432.96   19.90
   1  -3   2  438.46   21.70
  -2   3  -2 5523.05  221.18
  -2   3  -2 6026.40  235.68
  -2   3  -2 5742.93  219.28
   2  -3   2 6177.68  219.68
   2  -3   2 5582.74  220.98
   2  -3   2 6019.30  235.48
   2  -3   2 5876.61  220.98
  -3   3  -2 3022.70  113.99
  -3   3  -2 2905.61  121.49
   3  -3   2 3076.59  113.59
   3  -3   2 3111.99  112.99
   3  -3   2 2676.23  119.89
   3  -3   2 2864.21  112.89
  -4   3  -2  107.39   16.10
  -4   3  -2  104.19   12.90
   4  -3   2  101.09   10.30
   4  -3   2  133.49   10.30
   4  -3   2  108.29   14.60
  -5   3  -2  413.56   25.30
  -5   3  -2  373.06   22.00
   5  -3   2  364.66   23.20
   5  -3   2  339.57   19.70
  -6   3  -2   13.20   13.20
  -6   3  -2   -8.70   10.10
  -7   3  -2   76.19   16.30
  -7   3  -2   74.89   14.60
   7  -3   2   62.19   10.30
  -8   3  -2   35.60   20.10
  -8   3  -2   72.59   16.90
   8  -3   2   77.29   12.50
   8  -3   2   69.49   18.30
   8   2  -2   46.60   17.10
  -8  -2   2   76.09   16.60
   7   2  -2   68.29   14.60
  -7  -2   2   78.79   15.20
   6   2  -2   11.40   10.90
  -6  -2   2   17.50   11.40
   5   2  -2   -5.30   10.80
   5   2  -2   10.40    9.10
   5   2  -2   16.80    9.50
  -5  -2   2   17.10    9.50
  -5  -2   2    2.70    9.30
   4   2  -2  648.04   34.30
   4   2  -2  743.63   32.70
  -4  -2   2  691.53   31.80
  -4  -2   2  661.53   34.60
  -4  -2   2  679.33   31.80
   3   2  -2 2632.34  103.59
   3   2  -2 2441.36   96.89
   3   2  -2 2488.95  105.99
   3   2  -2 2387.46  104.89
  -3  -2   2 2530.75   97.79
  -3  -2   2 2461.45  105.99
  -3  -2   2 2805.02  103.69
   2   2  -2 1627.64   65.59
   2   2  -2 1515.45   60.39
   2   2  -2 1527.05   65.09
   2   2  -2 1538.45   64.29
  -2  -2   2 1514.05   60.59
  -2  -2   2 1554.74   65.79
  -2  -2   2 1603.74   64.19
   1   2  -2 1605.14   66.69
   1   2  -2 1412.16   66.39
   1   2  -2 1666.83   62.39
   1   2  -2 1722.33   66.79
  -1  -2   2 1537.65   66.69
  -1  -2   2 1568.74   62.39
  -1  -2   2 1754.32   66.49
   0   2  -2 3591.44  145.39
   0   2  -2 3579.04  135.49
   0  -2   2 3749.43  145.29
   0  -2   2 3482.05  135.59
  -1   2  -2 1813.32   69.69
  -1   2  -2 1826.42   75.09
  -1   2  -2 1797.92   69.99
   1  -2   2 1846.12   70.09
   1  -2   2 1820.02   74.79
   1  -2   2 1790.82   69.69
  -2   2  -2 1436.36   56.19
  -2   2  -2 1463.65   59.79
   2  -2   2 1420.76   59.19
   2  -2   2 1342.57   55.39
   2  -2   2 1425.46   55.99
  -3   2  -2  418.16   22.10
  -3   2  -2  404.16   21.00
   3  -2   2  400.06   18.50
   3  -2   2  427.16   18.60
   3  -2   2  432.16   20.20
  -4   2  -2  838.22   37.60
  -4   2  -2  836.12   35.40
   4  -2   2  745.03   32.60
   4  -2   2  771.72   35.90
  -5   2  -2   40.10   10.00
  -5   2  -2   46.50   10.50
  -6   2  -2   38.60   14.10
  -6   2  -2   68.49   12.90
   6  -2   2   46.50   11.40
  -7   2  -2   36.60   13.50
  -7   2  -2   22.90   15.00
   7  -2   2   56.39   13.80
   7  -2   2   30.60   13.40
  -8   2  -2  194.18   34.00
  -8   2  -2  178.98   25.40
   8  -2   2  221.28   28.30
   8  -2   2  125.69   19.30
   8  -2   2  177.98   28.70
   9   1  -2   24.00   19.10
   9   1  -2   37.90   20.50
  -9  -1   2   43.20   19.20
   8   1  -2   20.20   15.50
   8   1  -2    4.50   14.50
  -8  -1   2   33.60   15.00
   7   1  -2   12.90   12.10
   7   1  -2   -4.00   11.60
  -7  -1   2   17.60   12.30
   6   1  -2  657.13   33.30
   6   1  -2  619.84   35.80
  -6  -1   2  650.33   36.20
  -6  -1   2  637.84   33.20
   5   1  -2  537.55   30.10
   5   1  -2  587.84   31.00
   5   1  -2  592.94   28.70
  -5  -1   2  513.55   28.30
  -5  -1   2  576.64   31.40
  -5  -1   2  591.94   28.40
   4   1  -2  103.79   13.50
   4   1  -2   70.99   10.90
   4   1  -2   82.19   10.90
   4   1  -2   80.99    8.50
  -4  -1   2  100.89   14.70
  -4  -1   2   81.99   12.40
  -4  -1   2   70.69    9.90
   3   1  -2   84.19    8.80
   3   1  -2   88.39    6.90
   3   1  -2   93.89    8.50
  -3  -1   2   83.39    9.90
  -3  -1   2   86.39    7.70
  -3  -1   2   78.59   12.60
   2   1  -2   10.60    5.10
   2   1  -2   -1.70    3.70
   2   1  -2    2.30    4.00
  -2  -1   2   -0.40    5.40
  -2  -1   2    1.00    4.60
  -2  -1   2    1.80    3.30
   1   1  -2 3164.18  127.09
   1   1  -2 3000.00  128.19
   1   1  -2 3255.67  118.59
  -1  -1   2 3022.00  118.39
  -1  -1   2 2959.60  128.29
  -1  -1   2 3498.15  127.29
   0   1  -2  445.86   19.30
   0   1  -2  481.75   21.80
   0  -1   2  467.05   20.00
   0  -1   2  390.26   18.80
  -1   1  -2  414.06   21.40
  -1   1  -2  427.66   20.20
   1  -1   2  495.05   21.40
   1  -1   2  456.85   19.80
   1  -1   2  453.55   20.90
  -2   1  -2 1488.45   57.89
  -2   1  -2 1435.46   60.99
   2  -1   2 1512.25   57.59
   2  -1   2 1457.95   60.69
   2  -1   2 1485.05   57.59
  -3   1  -2  367.86   18.70
  -3   1  -2  364.66   19.80
  -3   1  -2  373.96   19.80
   3  -1   2  360.06   19.10
   3  -1   2  389.26   17.50
   3  -1   2  374.76   16.50
  -4   1  -2  321.87   19.30
  -4   1  -2  330.97   18.80
  -4   1  -2  298.37   17.60
  -4   1  -2  266.27   20.20
   4  -1   2  330.87   18.90
   4  -1   2  296.97   17.60
   4  -1   2  317.17   14.80
  -5   1  -2 1933.51   75.69
  -5   1  -2 1791.32   75.29
   5  -1   2 1884.51   80.49
  -6   1  -2   59.89   12.40
  -6   1  -2   60.19   13.00
   6  -1   2   45.50   13.40
   6  -1   2   61.09   11.70
   6  -1   2   99.19   19.40
  -7   1  -2  171.78   21.70
  -7   1  -2  144.39   22.50
   7  -1   2  212.08   25.80
  -8   1  -2  120.69   25.00
   8  -1   2   87.69   19.60
   9   0  -2   16.60   18.00
   9   0  -2   30.10   18.50
  -9   0   2    2.40   17.20
   8   0  -2   74.79   17.10
   8   0  -2   77.19   16.00
  -8   0   2   90.49   16.90
  -8   0   2  121.29   27.20
   7   0  -2  647.44   37.30
   7   0  -2  623.44   35.50
  -7   0   2  643.34   38.10
  -7   0   2  562.34   33.20
   6   0  -2  421.96   26.00
   6   0  -2  380.76   26.30
  -6   0   2  444.46   27.70
  -6   0   2  365.96   24.20
   5   0  -2   57.29    9.20
   5   0  -2   41.60    8.20
   5   0  -2   62.39   10.20
  -5   0   2   43.70    9.50
  -5   0   2   76.69   13.30
   4   0  -2  480.45   24.60
   4   0  -2  554.04   26.70
   4   0  -2  490.35   22.80
  -3   0   2   55.29    8.70
  -3   0   2   44.50    9.80
   2   0  -2  239.58   14.50
   2   0  -2  220.38   11.20
   2   0  -2  203.08   13.30
  -2   0   2  212.48   14.60
  -2   0   2  245.58   12.30
   1   0  -2 1366.56   62.49
   1   0  -2 1608.24   61.99
   1   0  -2 1497.35   57.59
  -1   0   2 1487.95   57.49
  -1   0   2 1640.74   62.09
  -1   0   2 1399.26   62.89
   0   0  -2 2984.50  115.59
   0   0  -2 3031.30  124.59
   0   0  -2 3120.09  122.69
   0   0   2 3008.80  124.69
   0   0   2 2946.61  114.59
   0   0   2 2988.70  115.49
   0   0   2 3236.78  122.69
  -1   0  -2   36.20    6.60
   1   0   2   45.20    6.20
   1   0   2   35.70    7.60
  -2   0  -2   18.20    4.50
  -2   0  -2   23.90    5.60
   2   0   2   27.30    5.40
   2   0   2   29.30    6.20
   2   0   2   37.60    5.90
  -3   0  -2 2122.29   81.19
  -3   0  -2 1979.30   86.19
  -3   0  -2 2062.59   81.29
   3   0   2 1975.00   80.09
   3   0   2 2188.08   87.39
   3   0   2 2114.29   80.29
  -4   0  -2 1706.63   71.59
  -4   0  -2 1687.73   67.99
  -4   0  -2 1740.93   67.39
   4   0   2 1635.34   66.09
   4   0   2 1519.25   71.19
   4   0   2 1787.02   72.99
  -5   0  -2  340.87   23.10
  -5   0  -2  348.47   22.60
   5   0   2  369.06   25.40
  -6   0  -2   57.19   13.40
  -6   0  -2   62.29   13.20
   6   0   2  105.19   22.10
  -7   0  -2   36.40   13.60
  -7   0  -2   21.80   15.00
   7   0   2   27.50   15.80
  -8   0  -2  -26.10   16.10
  -8   0  -2   12.20   16.00
   8   0   2   10.40   19.50
   9  -1  -2  204.08   34.00
   9  -1  -2  168.18   31.20
  -9   1   2  230.18   34.80
  -9   1   2  194.78   29.40
   8  -1  -2  475.55   35.20
   8  -1  -2  517.35   36.70
  -8   1   2  519.45   36.70
  -8   1   2  444.46   32.50
   7  -1  -2  447.66   28.60
   7  -1  -2  425.46   29.00
  -7   1   2  376.76   26.70
  -7   1   2  424.86   30.40
  -6   1   2   93.59   19.10
  -6   1   2   81.49   16.30
   5  -1  -2   95.99   13.70
   5  -1  -2  111.49   13.10
   5  -1  -2  103.49   10.70
  -5   1   2   91.59   15.90
  -5   1   2  116.19   12.20
   4  -1  -2   60.39    9.50
   4  -1  -2   48.10    6.60
   4  -1  -2   48.30    8.30
   4  -1  -2   67.99    7.80
   4  -1  -2   51.59    6.90
  -4   1   2   42.70    7.30
  -4   1   2   61.89    9.60
   3  -1  -2 1097.79   47.00
   3  -1  -2 1079.49   46.30
   3  -1  -2 1110.89   46.70
   3  -1  -2 1103.69   42.60
  -3   1   2 1069.79   42.30
  -3   1   2 1060.59   45.60
  -3   1   2  973.10   47.00
   2  -1  -2  143.59    8.90
   2  -1  -2  164.28   11.50
   2  -1  -2  129.09   10.70
   2  -1  -2  143.89   10.20
  -2   1   2  158.78   10.10
  -2   1   2  130.59   12.20
  -2   1   2  141.29    7.90
   1  -1  -2  600.54   29.20
   1  -1  -2  615.24   26.30
   1  -1  -2  664.03   28.20
   1  -1  -2  691.93   28.30
  -1   1   2  597.14   25.60
  -1   1   2  566.84   29.70
  -1   1   2  664.13   27.80
   0  -1  -2  145.69    9.70
   0  -1  -2  136.79   11.80
   0  -1  -2  117.79   11.10
   0   1   2  146.39    8.90
   0   1   2  114.99    9.20
   0   1   2  172.58   16.00
  -1  -1  -2   16.60    5.80
  -1  -1  -2    1.80    5.30
   1   1   2   14.90    4.60
   1   1   2   13.30    4.10
  -2  -1  -2  759.52   35.00
  -2  -1  -2  810.02   34.20
  -2  -1  -2  796.12   34.20
   2   1   2  823.12   37.30
   2   1   2  810.92   32.70
   2   1   2  790.82   32.30
  -3  -1  -2 1513.75   63.19
  -3  -1  -2 1600.84   62.59
  -3  -1  -2 1535.05   66.29
   3   1   2 1667.33   69.09
   3   1   2 1510.05   61.49
  -4  -1  -2  378.86   23.90
  -4  -1  -2  427.66   22.70
   4   1   2  421.96   27.20
  -5  -1  -2  158.78   17.70
  -5  -1  -2  119.09   18.40
   5   1   2  144.69   21.80
  -6  -1  -2   25.50   12.60
  -6  -1  -2   25.50   14.20
   6   1   2   55.79   15.30
  -7  -1  -2   55.89   16.60
  -7  -1  -2   72.19   15.90
   7   1   2   76.19   19.00
  -8  -1  -2   43.00   19.90
  -8  -1  -2   56.69   16.40
   8   1   2   30.70   21.80
   9  -2  -2   73.89   20.20
   9  -2  -2   69.39   19.40
  -9   2   2   59.39   19.20
  -9   2   2   65.99   17.40
   8  -2  -2  502.45   27.40
   8  -2  -2  457.55   33.90
   8  -2  -2  527.95   34.50
  -8   2   2  473.15   31.00
  -8   2   2  488.75   35.80
   7  -2  -2  114.69   14.30
   7  -2  -2   91.59   15.40
  -7   2   2  115.29   19.40
  -7   2   2  117.29   24.10
   6  -2  -2  788.32   34.30
   6  -2  -2  755.12   39.50
  -6   2   2  786.92   40.60
   5  -2  -2  531.75   29.60
   5  -2  -2  559.44   25.20
  -5   2   2  541.25   31.50
  -5   2   2  516.65   30.00
   4  -2  -2  569.94   25.50
   4  -2  -2  591.84   26.10
   4  -2  -2  589.74   30.10
  -4   2   2  572.44   24.90
  -4   2   2  604.14   31.50
  -4   2   2  574.94   30.40
   3  -2  -2   74.29    8.30
   3  -2  -2   79.09    9.20
   3  -2  -2   72.09    7.70
   3  -2  -2   76.79   13.10
  -3   2   2   68.99   14.70
  -3   2   2   79.49    5.80
  -3   2   2   71.29   13.70
   2  -2  -2 1304.67   53.89
   2  -2  -2 1226.98   54.09
   2  -2  -2 1208.88   50.09
   2  -2  -2 1332.87   53.79
  -2   2   2 1352.16   55.09
  -2   2   2 1201.58   49.30
  -2   2   2 1202.68   54.69
   1  -2  -2 1295.77   57.79
   1  -2  -2 1317.97   53.49
   1  -2  -2 1367.76   56.59
   1  -2  -2 1410.96   56.59
  -1   2   2 1365.56   58.79
  -1   2   2 1230.68   52.49
  -1   2   2 1430.16   56.39
   0  -2  -2  283.47   15.40
   0  -2  -2  269.97   16.00
   0  -2  -2  285.87   16.80
   0  -2  -2  314.97   16.40
   0   2   2  288.37   13.80
   0   2   2  317.07   21.30
  -1  -2  -2  151.08   13.10
  -1  -2  -2  136.39   11.40
  -1  -2  -2  136.09    9.50
   1   2   2  137.19   10.00
   1   2   2  127.49    7.80
  -2  -2  -2 1610.54   62.49
  -2  -2  -2 1565.74   62.49
   2   2   2 1636.44   69.09
   2   2   2 1523.35   61.09
   2   2   2 1470.45   61.09
  -3  -2  -2   45.20    9.60
  -3  -2  -2   44.90    9.00
   3   2   2   43.90   11.20
  -4  -2  -2  296.37   21.80
  -4  -2  -2  342.77   20.90
   4   2   2  296.07   25.90
  -5  -2  -2   41.90   12.40
  -5  -2  -2   23.90   12.10
   5   2   2   34.30   14.10
  -6  -2  -2  797.32   43.80
  -6  -2  -2  909.91   43.40
   6   2   2  958.60   50.59
  -7  -2  -2  119.09   23.40
  -7  -2  -2  141.89   27.90
   7   2   2  100.89   21.70
   9  -3  -2   10.10   13.30
   9  -3  -2   29.70   16.80
   9  -3  -2   13.40   17.80
  -9   3   2   25.00   18.30
   8  -3  -2    9.00   10.40
  -8   3   2   12.90   15.00
   7  -3  -2   50.59   13.60
   7  -3  -2   70.19   14.30
  -7   3   2   55.79   14.50
   6  -3  -2 1639.64   65.59
   6  -3  -2 1590.84   72.19
  -6   3   2 1623.94   72.49
  -6   3   2 1559.94   73.19
   5  -3  -2  936.91   39.40
   5  -3  -2  876.41   44.10
  -5   3   2  908.51   45.70
  -5   3   2  933.91   44.90
   4  -3  -2   14.90    7.90
   4  -3  -2   19.60    5.70
  -4   3   2   25.50    9.40
  -4   3   2   11.70    9.60
   3  -3  -2   18.30    7.80
   3  -3  -2   10.50    4.90
  -3   3   2    7.10    8.60
  -3   3   2   16.70    9.00
   2  -3  -2  974.40   44.40
   2  -3  -2 1042.50   45.20
   2  -3  -2 1009.50   43.90
   2  -3  -2 1009.00   41.70
  -2   3   2  940.71   40.20
  -2   3   2  997.00   47.10
  -2   3   2 1098.79   46.80
   1  -3  -2  195.28   13.10
   1  -3  -2  190.98   13.90
   1  -3  -2  196.48   14.30
  -1   3   2  200.88   15.60
  -1   3   2  205.48   20.50
  -1   3   2  152.58    9.80
   0  -3  -2 1326.17   59.39
   0  -3  -2 1300.47   57.79
   0  -3  -2 1386.06   55.49
   0  -3  -2 1450.95   57.79
   0   3   2 1561.54   62.89
   0   3   2 1237.28   53.89
  -1  -3  -2  631.24   28.60
  -1  -3  -2  587.64   27.30
   1   3   2  664.03   34.90
   1   3   2  565.34   26.80
  -2  -3  -2  386.66   21.40
  -2  -3  -2  362.66   20.80
   2   3   2  371.16   27.20
  -3  -3  -2    9.00    9.60
  -3  -3  -2   23.00   10.50
   3   3   2   11.90   11.20
  -4  -3  -2   66.99   12.70
  -4  -3  -2   80.79   13.30
   4   3   2   71.39   14.70
  -5  -3  -2  695.53   37.60
  -5  -3  -2  719.63   36.50
   5   3   2  733.63   43.50
  -6  -3  -2  197.78   25.40
  -6  -3  -2  175.38   24.30
   6   3   2  161.38   29.90
  -7  -3  -2  -13.30   16.60
   8  -4  -2  118.29   19.00
   8  -4  -2  119.39   18.20
  -8   4   2  123.49   19.60
   7  -4  -2  153.88   16.10
   7  -4  -2  125.99   17.20
  -7   4   2  143.09   25.50
  -7   4   2  116.29   18.00
   6  -4  -2  860.21   45.50
   6  -4  -2  908.41   40.10
  -6   4   2  938.51   47.70
  -6   4   2  880.51   46.90
   5  -4  -2  438.96   26.80
   5  -4  -2  427.86   22.30
  -5   4   2  413.46   29.40
  -5   4   2  411.46   28.70
   4  -4  -2   36.60    9.10
   4  -4  -2   24.20    6.40
  -4   4   2   19.60    9.80
  -4   4   2   26.50   10.50
   3  -4  -2  479.75   23.20
   3  -4  -2  467.85   26.60
  -3   4   2  487.15   28.80
  -3   4   2  494.35   29.20
   2  -4  -2  724.83   34.60
   2  -4  -2  688.63   31.30
  -2   4   2  711.43   37.70
  -2   4   2  717.03   36.00
   1  -4  -2  570.04   29.30
   1  -4  -2  629.64   29.80
   1  -4  -2  599.34   27.90
  -1   4   2  629.44   31.40
  -1   4   2  587.04   34.10
   0  -4  -2  486.45   24.30
   0  -4  -2  507.55   26.20
   0   4   2  478.05   31.20
  -1  -4  -2  273.47   17.60
  -1  -4  -2  246.68   18.50
   1   4   2  251.47   17.60
   1   4   2  297.27   26.70
  -2  -4  -2  147.49   16.60
  -2  -4  -2  127.99   16.70
   2   4   2  148.29   23.10
  -3  -4  -2  223.78   20.00
  -3  -4  -2  189.28   20.60
   3   4   2  205.68   25.90
  -4  -4  -2  226.98   23.80
  -4  -4  -2  234.48   22.00
   4   4   2  225.78   26.90
  -5  -4  -2    6.00   13.90
  -5  -4  -2   25.10   14.80
  -6  -4  -2    1.10   17.80
  -6  -4  -2    8.90   15.80
   6   4   2  -22.10   17.70
   8  -5  -2  171.08   19.70
   8  -5  -2  128.79   19.50
  -8   5   2  171.78   31.10
   7  -5  -2   86.89   16.30
  -7   5   2  114.79   18.50
  -7   5   2   90.99   16.50
   6  -5  -2   26.30   11.90
   6  -5  -2    5.50    8.30
  -6   5   2   13.80   13.60
  -6   5   2   15.20   13.20
   5  -5  -2    3.00    7.30
   5  -5  -2   13.60   10.60
  -5   5   2   -4.70   11.00
  -5   5   2  -15.30   12.80
   4  -5  -2  521.95   30.40
   4  -5  -2  517.25   25.70
  -4   5   2  526.15   34.30
  -4   5   2  530.05   33.00
   3  -5  -2 2255.57   97.29
   3  -5  -2 2338.27   90.79
  -3   5   2 2272.37   98.99
  -3   5   2 2274.07   99.59
   2  -5  -2  312.37   18.70
   2  -5  -2  344.87   22.70
  -2   5   2  278.57   27.40
  -2   5   2  318.37   24.70
   1  -5  -2   25.20    9.50
   1  -5  -2   14.90    7.40
  -1   5   2   26.20   10.40
  -1   5   2    9.30   13.60
   0  -5  -2    0.20    7.40
   0   5   2   13.70   13.80
  -1  -5  -2   -0.10   10.50
  -1  -5  -2   17.40    9.40
   1   5   2  -10.80   15.50
  -2  -5  -2  144.49   18.70
  -2  -5  -2  109.29   18.20
   2   5   2  119.89   25.60
  -3  -5  -2  171.68   22.80
  -3  -5  -2  212.58   21.80
   3   5   2  169.58   27.00
  -4  -5  -2   89.99   17.40
  -4  -5  -2  103.09   20.80
   4   5   2   53.69   18.80
  -5  -5  -2   27.60   16.90
  -5  -5  -2   16.20   17.90
   5   5   2   -9.90   18.10
   7  -6  -2   10.30   10.20
   7  -6  -2   20.00   13.60
  -7   6   2  -16.90   17.70
  -7   6   2    3.30   14.80
   6  -6  -2  350.96   27.10
   6  -6  -2  313.17   21.00
  -6   6   2  316.57   32.70
  -6   6   2  306.37   29.40
   5  -6  -2  195.78   16.20
   5  -6  -2  168.28   22.20
  -5   6   2  219.88   29.00
   4  -6  -2  383.46   21.70
   4  -6  -2  363.06   27.00
  -4   6   2  305.87   29.50
  -4   6   2  423.36   33.40
   3  -6  -2  228.28   16.70
   3  -6  -2  257.67   22.90
  -3   6   2  213.78   26.00
  -3   6   2  209.38   28.90
   2  -6  -2   15.50   11.20
   2  -6  -2   -3.20    8.00
  -2   6   2   -7.40   15.70
  -2   6   2   11.00   12.90
   1  -6  -2   39.70   11.60
   1  -6  -2   36.30    9.30
  -1   6   2   30.40   13.10
  -1   6   2   27.80   16.50
   0  -6  -2  163.58   17.70
   0   6   2  121.69   20.60
  -1  -6  -2  208.18   21.80
  -1  -6  -2  206.68   20.80
   1   6   2  187.48   31.40
  -2  -6  -2  342.97   26.60
  -2  -6  -2  377.36   27.10
   2   6   2  350.86   34.40
  -3  -6  -2  121.99   25.40
  -3  -6  -2  142.89   23.50
   3   6   2  106.39   19.00
  -4  -6  -2    6.30   16.10
  -4  -6  -2   -3.50   17.70
   4   6   2  -13.10   17.90
   6  -7  -2  215.88   19.70
   6  -7  -2  229.58   26.90
  -6   7   2  254.17   35.30
  -6   7   2  207.08   29.00
   5  -7  -2   75.39   15.30
   5  -7  -2   74.69   15.40
  -5   7   2   89.39   20.20
  -5   7   2   49.40   16.70
   4  -7  -2   -8.90    8.10
   4  -7  -2   10.10   13.10
  -4   7   2   43.40   18.20
   3  -7  -2    9.20    9.20
   3  -7  -2   22.40   13.10
  -3   7   2   -6.70   15.70
  -3   7   2   24.50   18.90
   2  -7  -2   26.40    9.90
   2  -7  -2   51.79   14.00
  -2   7   2   46.30   19.40
  -2   7   2   27.60   15.60
   1  -7  -2  488.05   33.20
   1  -7  -2  531.85   29.50
  -1   7   2  482.55   34.30
  -1   7   2  511.05   40.10
   0  -7  -2  727.83   36.00
   0   7   2  646.74   46.40
  -1  -7  -2  145.89   22.60
   1   7   2  178.28   33.50
  -2  -7  -2    2.40   15.80
  -2  -7  -2   18.90   16.70
  -3  -7  -2    1.80   19.60
  -3  -7  -2   11.90   18.30
   3   7   2  -21.20   21.10
   5  -8  -2   38.70   16.80
   5  -8  -2   22.30   10.60
  -5   8   2   12.20   18.00
  -5   8   2   -4.10   22.00
   4  -8  -2   39.20   11.30
   4  -8  -2   58.19   16.10
  -4   8   2   54.19   21.60
  -4   8   2   39.90   19.50
   3  -8  -2  181.18   27.20
   3  -8  -2  125.99   19.40
  -3   8   2  229.08   36.40
  -3   8   2  163.58   31.20
   2  -8  -2  112.19   19.10
   2  -8  -2  164.38   28.40
  -2   8   2  120.09   23.80
  -2   8   2  141.49   29.80
   1  -8  -2  379.36   34.80
   1  -8  -2  357.76   27.20
  -1   8   2  406.56   40.70
  -1   8   2  383.86   35.70
   0  -8  -2    4.40   14.30
   0   8   2   34.70   23.10
  -1  -8  -2   -7.50   18.70
  -1  -8  -2  -10.60   16.60
   1  10  -3   43.30   23.40
   1  10  -3   33.30   22.20
  -1 -10   3   54.99   18.00
   0  10  -3  260.47   35.90
   0  10  -3  203.28   42.20
   0 -10   3  257.37   24.60
   0 -10   3  246.68   29.30
  -1  10  -3  139.49   23.90
   1 -10   3  164.78   20.10
   1 -10   3  123.49   18.20
  -2  10  -3   14.60   19.70
   2 -10   3    7.70   11.10
  -3  10  -3   99.29   21.90
   3 -10   3  147.59   25.10
   3 -10   3   96.29   18.40
  -4  10  -3  185.58   33.90
   4 -10   3  157.38   19.60
   3   9  -3  137.69   23.50
  -3  -9   3  192.18   28.40
   2   9  -3  239.48   32.20
  -2  -9   3  271.67   27.90
   1   9  -3   32.80   18.00
   1   9  -3   31.10   17.50
  -1  -9   3   25.30   15.40
   0   9  -3   44.00   18.00
   0  -9   3   22.50   14.10
  -1   9  -3   17.30   17.00
   1  -9   3   16.60    9.70
   1  -9   3   26.00   12.70
  -2   9  -3   34.60   16.90
   2  -9   3    7.00   12.10
   2  -9   3    8.90    9.10
  -3   9  -3  488.25   38.60
   3  -9   3  490.65   31.10
   3  -9   3  528.15   27.50
  -4   9  -3  459.25   37.20
   4  -9   3  529.25   28.00
   5  -9   3   95.39   16.80
  -6   9  -3   28.70   19.70
   6  -9   3    0.60   11.20
   4   8  -3   37.40   19.40
  -4  -8   3   36.10   16.10
   3   8  -3  186.98   29.80
  -3  -8   3  224.78   25.70
   2   8  -3   67.99   17.10
  -2  -8   3   60.49   14.90
   1   8  -3   39.90   16.00
   1   8  -3   48.70   15.60
  -1  -8   3   41.50   13.40
   0   8  -3  207.28   27.00
   0   8  -3  208.48   27.20
   0  -8   3  255.47   22.00
  -1   8  -3   44.60   15.40
   1  -8   3   45.60   11.40
   1  -8   3   49.30    8.90
  -2   8  -3   18.00   13.90
   2  -8   3  -13.30   10.30
   2  -8   3    6.30    8.00
  -3   8  -3 1187.38   57.99
   3  -8   3 1102.69   50.29
   3  -8   3 1170.18   49.70
  -4   8  -3  398.36   33.00
   4  -8   3  412.96   27.30
   4  -8   3  402.56   23.30
  -5   8  -3   50.39   16.40
   5  -8   3   45.10    9.70
   5  -8   3   42.90   13.50
  -6   8  -3  395.16   34.90
   6  -8   3  321.17   30.40
   6  -8   3  406.36   23.70
  -7   8  -3   28.50   21.00
   7  -8   3   41.30   19.30
   7  -8   3   40.60   11.50
   6   7  -3  101.39   21.80
   5   7  -3  208.58   30.60
  -5  -7   3  157.38   24.20
   4   7  -3   60.79   16.30
  -4  -7   3   63.19   14.80
   3   7  -3  225.18   27.60
  -3  -7   3  253.87   22.80
   2   7  -3   38.00   13.70
  -2  -7   3   38.70   12.30
   1   7  -3   41.10   13.80
   1   7  -3   39.50   13.00
  -1  -7   3   40.00   11.30
   0   7  -3   77.59   14.00
   0  -7   3   78.99   15.90
  -1   7  -3  188.48   22.30
   1  -7   3  190.18   18.50
   1  -7   3  178.78   14.60
  -2   7  -3   59.39   13.30
   2  -7   3   49.40   10.70
   2  -7   3   62.29   11.30
  -3   7  -3  166.78   23.00
   3  -7   3  205.38   15.10
   3  -7   3  164.48   19.40
  -4   7  -3   14.20   12.70
   4  -7   3   -3.20    7.10
   4  -7   3   -3.30   10.90
  -5   7  -3  360.56   31.20
   5  -7   3  376.36   27.00
   5  -7   3  398.26   22.10
  -6   7  -3  462.45   35.50
   6  -7   3  464.25   26.00
   6  -7   3  453.95   31.10
  -7   7  -3  107.09   21.80
   7  -7   3   83.49   18.60
   7  -7   3  107.09   18.00
   6   6  -3  552.34   37.90
  -6  -6   3  489.45   33.30
   5   6  -3  189.88   25.70
  -5  -6   3  208.48   22.70
   4   6  -3   44.50   14.10
  -4  -6   3   56.29   12.30
   3   6  -3   17.90   12.80
  -3  -6   3   17.10   11.10
   2   6  -3  181.98   21.80
   2   6  -3  207.68   21.40
  -2  -6   3  214.28   19.00
   1   6  -3  100.69   17.10
   1   6  -3   79.69   12.60
  -1  -6   3   89.29   14.20
   0   6  -3  871.91   41.00
   0  -6   3  825.12   37.40
   0  -6   3  807.32   34.80
  -1   6  -3    7.70    9.70
   1  -6   3   19.60    8.50
   1  -6   3   20.80    6.00
   1  -6   3   10.60    6.70
  -2   6  -3  117.69   18.80
   2  -6   3  145.09   11.80
   2  -6   3  150.18   16.50
  -3   6  -3   17.30   10.80
   3  -6   3   26.80    6.30
   3  -6   3   17.00   10.10
  -4   6  -3   22.20   11.10
   4  -6   3   -4.40    6.40
   4  -6   3    3.60    9.40
  -5   6  -3  429.96   25.50
  -5   6  -3  409.36   31.20
   5  -6   3  446.06   27.90
   5  -6   3  403.16   23.00
  -6   6  -3  753.92   45.60
  -6   6  -3  822.22   39.20
   6  -6   3  799.92   37.30
   6  -6   3  779.82   41.20
  -7   6  -3   23.20   20.10
  -7   6  -3   51.99   13.30
   7  -6   3   44.90   16.70
  -8   6  -3   20.80   24.20
   8  -6   3   51.19   13.20
   8  -6   3   41.20   19.90
   7   5  -3  327.97   32.20
  -7  -5   3  309.77   27.10
   6   5  -3  489.45   34.00
  -6  -5   3  447.16   30.50
   5   5  -3  110.29   21.80
  -5  -5   3  148.69   19.80
   4   5  -3  131.09   20.30
  -4  -5   3  132.89   18.00
   3   5  -3  676.33   34.30
   3   5  -3  678.73   36.40
  -3  -5   3  700.23   33.50
  -3  -5   3  648.24   34.60
   2   5  -3  151.48   15.90
   2   5  -3  105.69   17.00
  -2  -5   3   93.09   16.60
  -2  -5   3  130.89   14.60
   1   5  -3  638.94   31.60
   1   5  -3  714.63   33.60
   1   5  -3  697.23   32.60
  -1  -5   3  679.73   32.30
  -1  -5   3  664.43   30.90
  -1  -5   3  627.14   31.10
   0   5  -3  444.36   26.00
   0   5  -3  492.25   20.90
   0  -5   3  450.45   22.30
   0  -5   3  439.26   23.70
  -1   5  -3  131.59   10.40
  -1   5  -3  163.68   17.10
   1  -5   3  163.18   10.70
   1  -5   3  171.18   11.40
   1  -5   3  143.99   15.40
  -2   5  -3   78.29    9.20
  -2   5  -3   94.59   12.60
  -2   5  -3   76.39   15.80
   2  -5   3   85.89    8.00
   2  -5   3   93.19    9.80
   2  -5   3   76.39   15.00
  -3   5  -3  846.42   37.30
  -3   5  -3  837.02   41.20
   3  -5   3  844.22   37.50
   3  -5   3  802.82   35.60
  -4   5  -3  239.98   18.60
  -4   5  -3  267.77   22.80
   4  -5   3  266.77   20.40
   4  -5   3  246.38   15.50
  -5   5  -3  221.08   25.60
  -5   5  -3  247.38   19.80
   5  -5   3  300.07   22.40
   5  -5   3  247.48   16.20
  -6   5  -3   32.00   15.20
   6  -5   3  -10.10    7.80
   6  -5   3    7.80   13.80
  -7   5  -3  236.08   23.70
  -7   5  -3  208.48   34.60
   7  -5   3  269.37   18.80
   7  -5   3  253.07   29.50
  -8   5  -3  114.69   17.10
  -8   5  -3   83.69   23.40
   8  -5   3  160.08   19.70
   8  -5   3  121.69   22.00
   8   4  -3   74.59   19.20
  -8  -4   3   52.19   18.80
   7   4  -3   17.70   15.20
  -7  -4   3   44.60   14.20
   6   4  -3   24.30   13.00
  -6  -4   3   48.70   14.00
   5   4  -3  633.14   37.00
  -5  -4   3  691.23   34.30
   4   4  -3  336.07   23.20
   4   4  -3  353.56   24.00
  -4  -4   3  310.37   22.00
  -4  -4   3  329.47   22.00
   3   4  -3  482.05   26.30
   3   4  -3  494.35   27.20
  -3  -4   3  482.75   25.20
  -3  -4   3  444.96   25.30
   2   4  -3 1416.06   60.59
   2   4  -3 1420.36   59.79
   2   4  -3 1320.47   59.09
  -2  -4   3 1371.96   58.99
  -2  -4   3 1389.86   56.19
   1   4  -3 1477.95   61.79
   1   4  -3 1378.06   61.09
   1   4  -3 1470.35   56.99
   1   4  -3 1473.65   61.89
  -1  -4   3 1444.26   61.29
  -1  -4   3 1383.96   60.69
  -1  -4   3 1502.05   58.49
   0   4  -3  462.45   26.30
   0   4  -3  547.05   22.50
   0  -4   3  533.65   25.30
   0  -4   3  501.85   24.00
  -1   4  -3 1086.49   46.50
  -1   4  -3 1210.18   46.30
  -1   4  -3 1161.98   51.49
   1  -4   3 1154.78   49.40
   1  -4   3 1066.99   45.80
   1  -4   3 1206.28   47.90
   1  -4   3 1188.88   46.00
  -2   4  -3  760.02   35.30
  -2   4  -3  728.33   31.70
  -2   4  -3  691.33   29.70
   2  -4   3  671.63   29.20
   2  -4   3  676.33   30.60
   2  -4   3  687.83   32.00
   2  -4   3  764.22   32.80
  -3   4  -3  956.00   41.80
  -3   4  -3  968.60   45.50
   3  -4   3  975.70   41.00
   3  -4   3 1000.90   42.40
  -4   4  -3   34.00    9.20
  -4   4  -3   26.40   11.00
   4  -4   3   34.40    6.70
   4  -4   3   39.60   10.80
  -5   4  -3   71.19   14.40
  -5   4  -3   90.69   14.90
   5  -4   3  100.29   11.70
   5  -4   3  116.29   19.10
  -6   4  -3  186.78   26.50
  -6   4  -3  156.08   18.90
   6  -4   3  178.68   23.50
   6  -4   3  169.38   15.00
  -7   4  -3   38.00   19.20
  -7   4  -3   71.49   14.30
   7  -4   3   69.09   14.40
  -8   4  -3  158.48   25.10
  -8   4  -3  157.88   35.20
   8  -4   3  187.58   19.90
   8  -4   3  129.89   22.80
   8   3  -3  -12.30   16.20
  -8  -3   3  -12.40   16.60
   7   3  -3   88.09   15.40
   7   3  -3   78.39   16.50
  -7  -3   3  107.89   20.90
   6   3  -3   38.10   12.40
   6   3  -3   60.99   13.20
  -6  -3   3   52.29   13.30
   5   3  -3  595.94   33.70
   5   3  -3  618.64   32.60
  -5  -3   3  635.34   32.00
   4   3  -3 1778.82   76.09
   4   3  -3 1859.01   78.39
  -4  -3   3 1748.33   71.99
  -4  -3   3 1800.12   78.29
  -4  -3   3 1784.52   75.99
   3   3  -3  824.52   39.40
   3   3  -3  818.52   38.30
  -3  -3   3  802.52   39.50
  -3  -3   3  832.72   36.90
  -3  -3   3  833.62   36.30
   2   3  -3  190.58   15.00
   2   3  -3  185.78   11.10
   2   3  -3  185.48   13.30
   2   3  -3  178.18   11.00
  -2  -3   3  180.68   14.60
  -2  -3   3  175.58   14.10
  -2  -3   3  164.68   11.70
   1   3  -3 2228.68   83.99
   1   3  -3 2263.07   90.19
   1   3  -3 2103.29   89.79
   1   3  -3 2076.09   89.79
  -1  -3   3 2257.47   89.69
  -1  -3   3 2087.09   89.89
  -1  -3   3 2219.18   84.29
   0   3  -3 2938.51  118.19
   0   3  -3 2774.82  109.69
   0  -3   3 2941.21  117.79
   0  -3   3 2878.91  110.19
  -1   3  -3  497.15   22.20
  -1   3  -3  534.25   23.10
  -1   3  -3  534.45   26.30
   1  -3   3  535.55   24.70
   1  -3   3  555.54   25.20
   1  -3   3  493.25   22.00
  -2   3  -3  587.64   26.60
  -2   3  -3  546.55   24.20
  -2   3  -3  551.34   28.50
   2  -3   3  572.94   24.20
   2  -3   3  565.44   26.30
   2  -3   3  648.84   27.50
  -3   3  -3  117.89   12.60
   3  -3   3  100.59    8.80
   3  -3   3  101.49    7.70
   3  -3   3  102.09   14.80
  -4   3  -3    7.80    7.10
  -4   3  -3   -1.70    8.60
   4  -3   3    3.80    9.40
  -5   3  -3   39.00   10.50
  -5   3  -3   24.60   11.90
   5  -3   3   49.20   11.70
  -6   3  -3  281.07   22.80
  -6   3  -3  301.07   27.40
   6  -3   3  305.07   25.00
  -7   3  -3  -17.70   17.80
  -7   3  -3    4.00   13.10
  -8   3  -3   98.29   22.80
  -8   3  -3  119.29   25.30
   8  -3   3   99.49   20.70
   8   2  -3  267.47   28.50
   8   2  -3  246.68   30.50
  -8  -2   3  291.77   29.70
   7   2  -3   33.10   14.50
   7   2  -3   37.00   13.20
  -7  -2   3   54.99   15.00
   6   2  -3  411.86   28.00
   6   2  -3  444.26   28.90
  -6  -2   3  394.36   26.70
  -6  -2   3  455.65   30.00
   5   2  -3  661.23   34.00
   5   2  -3  674.63   35.10
  -5  -2   3  668.43   35.50
  -5  -2   3  633.94   32.00
   4   2  -3  103.19   14.50
   4   2  -3   91.09   14.40
  -4  -2   3   79.19   15.40
  -4  -2   3   89.39   13.60
  -4  -2   3   65.19   11.20
   3   2  -3 2256.87   96.39
   3   2  -3 2176.78   95.39
   3   2  -3 2398.96   88.59
   3   2  -3 2273.27   94.89
  -3  -2   3 2402.56   89.29
  -3  -2   3 2378.36   94.69
  -3  -2   3 2200.28   96.49
   2   2  -3 8060.19  299.27
   2   2  -3 8325.67  320.87
   2   2  -3 7728.13  323.97
  -2  -2   3 7959.20  320.47
  -2  -2   3 7976.50  299.27
  -2  -2   3 8003.50  324.27
   1   2  -3   32.50    7.20
   1   2  -3   24.90    5.20
   1   2  -3   25.40    4.70
  -1  -2   3   23.10    5.30
  -1  -2   3   26.70    5.70
  -1  -2   3   31.50    6.20
   0   2  -3  223.08   12.40
   0   2  -3  261.07   16.10
   0   2  -3  244.28   13.60
   0  -2   3  233.88   12.10
   0  -2   3  265.67   14.90
   0  -2   3  267.47   15.00
  -1   2  -3  914.71   39.50
  -1   2  -3  903.61   36.70
  -1   2  -3  849.72   36.50
   1  -2   3  930.41   37.70
   1  -2   3  938.01   39.20
   1  -2   3  886.61   36.00
  -2   2  -3  299.17   17.20
  -2   2  -3  267.47   16.80
   2  -2   3  291.57   17.80
   2  -2   3  266.17   13.20
   2  -2   3  298.07   15.20
  -3   2  -3   35.60    8.20
   3  -2   3   43.80    9.20
   3  -2   3   39.90    8.50
   3  -2   3   26.70    4.60
  -4   2  -3  148.19   14.80
  -4   2  -3  151.18   16.80
   4  -2   3  145.09   14.30
  -5   2  -3  446.66   25.80
  -5   2  -3  465.45   28.10
  -6   2  -3  328.07   28.50
  -6   2  -3  289.67   23.80
  -7   2  -3   -3.30   13.20
  -7   2  -3    9.20   16.80
  -8   2  -3   10.70   17.10
  -8   2  -3   31.00   21.00
   9   1  -3  205.78   31.30
   9   1  -3  178.98   34.90
  -9  -1   3  121.29   21.80
   8   1  -3  395.66   32.90
   8   1  -3  373.66   31.90
  -8  -1   3  397.06   34.20
  -8  -1   3  339.77   29.20
   7   1  -3   26.30   13.10
   7   1  -3   11.20   12.10
  -7  -1   3   13.70   13.10
  -7  -1   3   19.00   13.20
   6   1  -3   39.00   10.40
   6   1  -3   19.20   10.10
  -6  -1   3   34.80   11.20
  -6  -1   3   26.40   10.70
   5   1  -3  971.80   45.60
   5   1  -3  896.21   44.50
  -5  -1   3  988.70   41.80
  -5  -1   3  998.80   46.20
   4   1  -3   85.49   11.00
   4   1  -3  112.49   13.40
   4   1  -3  113.29   11.00
  -4  -1   3   97.89    9.90
  -4  -1   3  100.99   13.00
  -4  -1   3   94.29   15.60
   3   1  -3  833.92   38.70
   3   1  -3  938.01   36.40
   3   1  -3  924.21   40.00
  -3  -1   3  876.01   38.30
  -3  -1   3  901.41   36.70
  -3  -1   3  846.52   40.80
   2   1  -3 3054.89  135.19
   2   1  -3 3519.25  134.69
   2   1  -3 3387.86  124.79
  -2  -1   3 3405.46  124.89
  -2  -1   3 3304.97  133.89
  -2  -1   3 3145.79  135.79
   1   1  -3  124.29   10.60
   1   1  -3  118.69    8.60
   1   1  -3  102.59    9.10
  -1  -1   3  109.19   10.80
  -1  -1   3  118.29   10.20
  -1  -1   3  112.29    9.40
   0   1  -3    0.10    5.00
   0   1  -3   11.30    5.90
   0   1  -3   -4.80    4.60
   0   1  -3   -3.00    3.70
   0  -1   3   -3.40    4.80
   0  -1   3    3.30    4.10
   0  -1   3    1.40    4.00
   0  -1   3   10.10    5.70
  -1   1  -3  276.97   16.80
  -1   1  -3  277.77   15.90
   1  -1   3  297.67   15.40
   1  -1   3  314.07   14.20
   1  -1   3  294.67   16.20
  -2   1  -3   62.29    8.90
  -2   1  -3   63.49   10.90
   2  -1   3   49.30    8.60
   2  -1   3   50.89    7.10
   2  -1   3   61.29    6.20
  -3   1  -3  663.23   30.70
  -3   1  -3  672.03   29.80
   3  -1   3  615.14   27.10
   3  -1   3  656.33   30.30
  -4   1  -3 1821.72   81.09
  -4   1  -3 1968.10   76.79
   4  -1   3 1973.70   82.29
  -5   1  -3  363.66   24.00
   5  -1   3  394.26   25.90
  -6   1  -3   13.00   11.90
   6  -1   3   25.20   12.80
  -7   1  -3  118.99   24.00
   7  -1   3  151.08   27.40
  -8   1  -3   52.99   18.60
   8  -1   3   33.00   21.10
   9   0  -3    9.40   17.80
   9   0  -3   22.10   18.50
  -9   0   3   10.30   17.30
  -9   0   3   49.50   19.10
   8   0  -3  -13.20   15.10
   8   0  -3  -11.40   14.00
  -8   0   3   -0.80   14.80
  -8   0   3    2.50   14.10
   7   0  -3  124.39   21.20
   7   0  -3  125.59   20.40
  -7   0   3  122.49   22.60
  -7   0   3   83.99   13.80
   6   0  -3  187.78   19.60
  -6   0   3  184.38   21.70
  -6   0   3  178.78   18.60
   5   0  -3  525.15   27.10
   5   0  -3  601.64   30.50
  -5   0   3  593.54   27.60
  -5   0   3  576.74   31.50
   4   0  -3    6.10    6.30
   4   0  -3    3.90    7.30
  -4   0   3    3.90    8.50
  -4   0   3    3.20    7.40
   3   0  -3 1326.07   54.29
   3   0  -3 1211.38   53.09
   3   0  -3 1185.28   53.29
  -3   0   3 1252.97   54.99
  -3   0   3 1226.68   52.49
   2   0  -3 1290.07   51.69
   2   0  -3 1110.59   51.09
   2   0  -3 1197.98   47.00
  -2   0   3 1256.77   51.09
  -2   0   3 1153.88   46.80
  -2   0   3 1204.48   52.59
   1   0  -3  235.08   13.50
   1   0  -3  255.77   12.90
   1   0  -3  253.37   14.40
  -1   0   3  247.98   13.10
  -1   0   3  235.48   11.60
  -1   0   3  209.88   16.20
   0   0  -3 9268.77  349.96
   0   0  -3 9431.06  371.86
   0   0  -3 9056.49  376.26
   0   0   3 9138.09  347.07
   0   0   3 9147.18  376.36
   0   0   3 9396.36  349.87
   0   0   3 9770.92  371.86
  -1   0  -3 2629.24  112.29
  -1   0  -3 2647.14  104.89
  -1   0  -3 2797.42  110.79
   1   0   3 2806.32  110.49
   1   0   3 2734.23  112.79
   1   0   3 2744.33  104.49
   1   0   3 2738.13  103.69
  -2   0  -3   38.50    8.40
  -2   0  -3   22.60    5.60
   2   0   3   23.90    8.60
   2   0   3   16.00    3.80
  -3   0  -3 1271.57   51.69
  -3   0  -3 1302.87   51.99
  -3   0  -3 1181.48   54.39
   3   0   3 1323.67   56.19
   3   0   3 1186.88   49.70
  -4   0  -3  204.48   17.10
  -4   0  -3  175.68   16.40
   4   0   3  172.18   21.10
  -5   0  -3   14.70   10.20
   5   0   3  -17.20   11.80
  -6   0  -3  203.68   23.90
  -6   0  -3  205.48   21.70
   6   0   3  213.88   28.10
  -7   0  -3  116.29   24.00
  -7   0  -3  127.09   22.10
   7   0   3   87.69   20.10
  -8   0  -3   48.90   20.50
   8   0   3   17.50   22.70
   9  -1  -3   -0.50   17.10
   9  -1  -3    4.60   19.00
  -9   1   3    0.60   17.60
  -9   1   3   12.10   17.60
   8  -1  -3   84.79   16.00
   8  -1  -3   52.69   16.00
  -8   1   3   58.99   15.20
  -8   1   3   57.79   16.10
   7  -1  -3   29.60   13.40
  -7   1   3   44.60   13.70
  -7   1   3   35.60   12.20
   6  -1  -3  569.64   33.10
  -6   1   3  590.94   34.40
   5  -1  -3  915.21   43.10
  -5   1   3  910.31   43.80
  -5   1   3  876.61   37.80
   4  -1  -3  202.08   16.60
   4  -1  -3  223.28   12.40
  -4   1   3  180.18   12.10
  -4   1   3  199.08   18.50
   3  -1  -3    5.70    5.00
   3  -1  -3    3.10    7.30
   3  -1  -3    9.80    4.30
   3  -1  -3    4.60    4.80
  -3   1   3   -0.60    7.90
  -3   1   3    1.00    3.50
  -3   1   3    5.70    4.40
   2  -1  -3  445.76   20.80
   2  -1  -3  460.75   22.40
   2  -1  -3  443.66   21.50
   2  -1  -3  471.55   24.10
  -2   1   3  451.65   19.40
  -2   1   3  454.05   21.30
  -2   1   3  446.06   25.90
   1  -1  -3 1120.39   48.70
   1  -1  -3 1102.29   45.20
   1  -1  -3 1172.68   48.10
  -1   1   3 1130.99   47.40
  -1   1   3 1106.89   44.20
  -1   1   3 1095.09   50.19
   0  -1  -3 9699.73  357.06
   0  -1  -3 9287.07  383.86
   0  -1  -3 9974.50  378.86
   0   1   3 8906.01  353.16
   0   1   3 9367.56  384.16
   0   1   3 9999.00  353.36
   0   1   3 9050.50  356.46
   0   1   3 9596.84  378.56
  -1  -1  -3  266.07   15.10
  -1  -1  -3  270.87   17.10
   1   1   3  281.67   14.70
   1   1   3  281.47   14.20
   1   1   3  331.17   23.40
  -2  -1  -3  299.97   17.90
  -2  -1  -3  258.27   17.70
  -2  -1  -3  288.07   15.50
   2   1   3  256.97   14.00
   2   1   3  237.68   13.20
   2   1   3  321.27   23.30
  -3  -1  -3   29.20    9.30
   3   1   3   40.40   11.30
  -4  -1  -3  -11.60    9.60
  -4  -1  -3   -3.80    9.20
   4   1   3   -2.30   11.00
  -5  -1  -3   44.00   12.10
  -5  -1  -3   25.70   11.40
   5   1   3   41.50   15.10
  -6  -1  -3  987.80   47.40
  -6  -1  -3  936.91   47.10
   6   1   3 1045.80   54.09
  -7  -1  -3  253.37   25.30
  -7  -1  -3  189.18   28.50
   7   1   3  203.88   34.60
   9  -2  -3    4.20   17.50
  -9   2   3   11.10   18.20
   8  -2  -3   91.59   17.60
  -8   2   3   79.69   16.80
   7  -2  -3   74.09   14.10
   7  -2  -3   80.49   13.90
  -7   2   3   75.39   14.80
   6  -2  -3  340.07   18.80
   6  -2  -3  278.57   22.80
  -6   2   3  291.07   25.10
   5  -2  -3  759.32   39.90
   5  -2  -3  873.91   35.80
  -5   2   3  825.42   42.20
   4  -2  -3   22.00    8.00
   4  -2  -3   25.20    6.00
  -4   2   3   22.20    9.30
   3  -2  -3 1885.51   77.19
   3  -2  -3 1837.22   71.19
  -3   2   3 1738.83   70.39
  -3   2   3 1773.92   78.39
   2  -2  -3  864.01   35.10
   2  -2  -3  809.12   36.20
   2  -2  -3  799.52   37.00
   2  -2  -3  851.51   37.90
  -2   2   3  785.52   32.90
  -2   2   3  806.62   35.70
  -2   2   3  780.22   39.50
   1  -2  -3   46.50    9.00
  -1   2   3   39.20   11.30
  -1   2   3   25.10    5.50
   0  -2  -3  526.25   25.90
   0  -2  -3  574.84   26.60
   0  -2  -3  574.24   26.30
   0  -2  -3  577.84   27.20
   0   2   3  574.04   26.00
   0   2   3  521.15   23.70
   0   2   3  568.44   33.00
  -1  -2  -3  307.77   17.80
  -1  -2  -3  315.07   19.30
   1   2   3  334.37   26.40
   1   2   3  328.97   17.00
  -2  -2  -3  793.42   34.60
  -2  -2  -3  735.43   34.90
   2   2   3  794.72   41.10
  -3  -2  -3 1647.84   68.89
  -3  -2  -3 1655.03   68.19
   3   2   3 1745.53   76.39
  -4  -2  -3   19.60   11.70
  -4  -2  -3   30.00   11.70
   4   2   3   15.60   12.80
  -5  -2  -3  356.96   26.70
  -5  -2  -3  309.37   25.10
   5   2   3  326.47   29.90
  -6  -2  -3  288.57   27.30
  -6  -2  -3  265.07   26.30
   6   2   3  226.68   32.00
  -7  -2  -3   -0.10   19.10
  -7  -2  -3   13.10   16.20
   8  -3  -3   85.99   16.50
   8  -3  -3  121.89   17.80
  -8   3   3   92.29   18.00
   7  -3  -3   11.70   11.30
   7  -3  -3   21.90    9.10
  -7   3   3    3.20   13.40
   6  -3  -3  243.18   17.40
  -6   3   3  222.48   26.80
   5  -3  -3    4.50    8.80
   5  -3  -3    5.60    6.70
  -5   3   3   -0.70   10.10
   4  -3  -3  125.49   16.30
   4  -3  -3  155.68   12.50
  -4   3   3  160.08   19.40
   3  -3  -3  711.43   31.90
   3  -3  -3  740.03   35.60
  -3   3   3  721.03   37.40
   2  -3  -3  343.17   21.50
   2  -3  -3  349.57   19.60
  -2   3   3  365.26   24.90
   1  -3  -3  101.59   13.10
   1  -3  -3  103.19   13.60
   1  -3  -3   75.59   11.60
  -1   3   3   66.59   13.50
   0  -3  -3    2.40    7.40
   0   3   3    9.00   12.40
  -1  -3  -3  657.93   29.80
  -1  -3  -3  607.64   29.00
   1   3   3  640.34   36.60
   1   3   3  557.44   28.50
  -2  -3  -3 1778.32   72.49
  -2  -3  -3 1777.02   72.29
   2   3   3 1801.42   80.89
  -3  -3  -3  701.13   35.40
  -3  -3  -3  681.53   34.70
   3   3   3  719.43   41.30
  -4  -3  -3   18.00   14.00
  -4  -3  -3   -9.40   12.20
   4   3   3  -18.70   15.50
  -5  -3  -3  -11.10   13.50
  -5  -3  -3   17.70   14.70
   5   3   3  -12.20   16.40
  -6  -3  -3    4.60   16.70
  -6  -3  -3   20.00   15.40
   6   3   3  -18.40   18.30
   8  -4  -3   17.90   11.50
   8  -4  -3   23.50   13.00
  -8   4   3    7.10   15.80
   7  -4  -3    1.70    9.50
   6  -4  -3    2.40   11.10
   6  -4  -3   24.30    8.80
  -6   4   3   24.20   13.30
   5  -4  -3  422.06   22.50
   5  -4  -3  368.76   26.50
  -5   4   3  412.46   31.50
   4  -4  -3  195.38   19.60
   4  -4  -3  197.18   15.10
  -4   4   3  183.28   23.90
   3  -4  -3  951.60   44.80
   3  -4  -3  920.21   40.10
  -3   4   3  889.91   46.60
   2  -4  -3   12.90    7.30
   2  -4  -3   13.50    9.00
  -2   4   3   31.80   12.20
   1  -4  -3  482.15   24.70
   1  -4  -3  477.25   26.20
  -1   4   3  448.06   31.40
   0  -4  -3  574.64   28.60
   0   4   3  546.15   36.20
  -1  -4  -3  274.57   20.20
  -1  -4  -3  296.47   20.20
   1   4   3  257.07   28.10
  -2  -4  -3    6.10   11.00
  -2  -4  -3    5.10   11.00
   2   4   3   -2.80   15.60
  -3  -4  -3  226.68   23.30
  -3  -4  -3  186.88   21.70
   3   4   3  175.48   28.10
  -4  -4  -3  -19.50   14.60
  -4  -4  -3   23.80   14.10
  -5  -4  -3  208.18   26.70
  -5  -4  -3  156.08   26.50
   5   4   3  152.78   23.10
   8  -5  -3  122.39   20.70
  -8   5   3   83.09   19.30
   7  -5  -3  188.78   19.10
   7  -5  -3  134.49   22.70
  -7   5   3  149.99   21.80
   6  -5  -3  301.87   21.10
   6  -5  -3  256.57   25.60
  -6   5   3  282.77   31.60
   5  -5  -3  295.17   25.80
   5  -5  -3  280.37   19.80
  -5   5   3  304.57   30.40
   4  -5  -3   67.09   14.00
   4  -5  -3   94.89   13.00
  -4   5   3  118.79   26.50
  -4   5   3   78.79   15.00
   3  -5  -3   -2.20    7.20
   3  -5  -3   -7.30   10.80
  -3   5   3   -2.00   14.30
   2  -5  -3  258.07   17.60
   2  -5  -3  239.38   22.40
  -2   5   3  191.38   27.00
   1  -5  -3    8.80    9.20
   1  -5  -3   -3.00    9.90
  -1   5   3   17.20   14.70
   0  -5  -3   84.49   16.30
   0   5   3   80.59   18.50
  -1  -5  -3   62.19   12.10
  -1  -5  -3   69.39   13.20
   1   5   3   61.59   17.40
  -2  -5  -3  100.39   19.90
  -2  -5  -3   98.19   15.30
   2   5   3   83.09   19.90
  -3  -5  -3   -1.50   14.80
  -3  -5  -3   16.90   14.00
   3   5   3   -7.30   18.00
  -4  -5  -3  375.66   28.00
  -4  -5  -3  282.67   31.10
   4   5   3  277.77   34.90
  -5  -5  -3  179.98   30.60
   5   5   3  145.89   23.90
   7  -6  -3  204.38   26.30
   7  -6  -3  275.87   22.40
  -7   6   3  254.27   35.70
   6  -6  -3   10.60   10.50
  -6   6   3    9.50   18.00
   5  -6  -3    6.80   13.60
   5  -6  -3   33.10    9.50
  -5   6   3   43.50   17.80
   4  -6  -3  100.79   15.30
   4  -6  -3   89.19   16.30
  -4   6   3   93.99   19.40
   3  -6  -3   68.39   15.00
   3  -6  -3   71.29   10.90
  -3   6   3   89.69   19.40
   2  -6  -3  185.38   17.50
   2  -6  -3  166.48   23.60
  -2   6   3  140.19   28.80
   1  -6  -3  103.49   14.80
   1  -6  -3   87.29   15.80
  -1   6   3  135.79   28.90
   0  -6  -3  277.67   22.90
   0   6   3  300.07   33.60
  -1  -6  -3    2.70   12.10
  -1  -6  -3   28.30   13.70
   1   6   3  -10.70   17.70
  -2  -6  -3   39.10   15.50
  -2  -6  -3   38.30   15.80
   2   6   3  -12.40   19.10
  -3  -6  -3  469.05   31.80
  -3  -6  -3  342.87   33.80
   3   6   3  417.26   39.90
   6  -7  -3   -5.60   10.70
   6  -7  -3  -21.50   15.60
  -6   7   3    0.70   22.40
   5  -7  -3   33.00   16.90
   5  -7  -3   31.60   11.40
  -5   7   3   49.20   22.00
   4  -7  -3   62.39   11.80
   4  -7  -3   65.69   17.70
  -4   7   3   99.79   22.10
   3  -7  -3  295.17   31.20
   3  -7  -3  241.58   21.00
  -3   7   3  361.16   38.10
   2  -7  -3  409.16   26.40
   2  -7  -3  395.46   32.50
  -2   7   3  402.16   39.20
   1  -7  -3   84.29   16.60
   1  -7  -3   74.49   13.70
  -1   7   3   98.29   21.50
   0  -7  -3    9.10   13.90
   0   7   3   -9.10   20.10
  -1  -7  -3  217.58   24.30
   1   7   3  170.88   25.70
  -2  -7  -3  184.88   32.40
  -2  -7  -3  216.48   27.50
   2   7   3  158.28   24.90
   3  -8  -3   21.90   12.60
   3  -8  -3    8.70   18.90
  -3   8   3   35.90   24.30
   2  -8  -3    2.10   17.70
   2  -8  -3    7.90   13.50
  -2   8   3   22.50   21.40
   1  -8  -3   17.50   14.60
  -1   8   3   13.40   24.10
   2  10  -4  122.59   26.30
   2  10  -4  102.19   24.10
  -2 -10   4   88.49   20.40
   1  10  -4  -28.80   21.50
   1  10  -4    8.50   21.70
  -1 -10   4   33.30   16.30
   0  10  -4   42.60   21.80
   0 -10   4   20.30   16.20
  -1  10  -4  209.08   35.70
   1 -10   4  239.08   28.10
   1 -10   4  197.58   19.90
  -2  10  -4  164.88   34.70
   2 -10   4  209.48   25.90
   2 -10   4  145.59   19.50
  -3  10  -4  128.59   23.30
   3 -10   4  180.88   19.80
   3 -10   4  150.38   27.50
  -4  10  -4   10.80   19.20
   4 -10   4   14.30   16.60
   4 -10   4   -2.40   11.60
   3   9  -4   21.70   21.00
  -3  -9   4   54.89   16.70
   2   9  -4  -27.60   17.60
   2   9  -4   19.60   18.50
  -2  -9   4   13.50   15.10
   1   9  -4  445.36   36.40
   1   9  -4  383.16   35.30
  -1  -9   4  398.66   29.90
   0   9  -4  464.55   38.70
   0  -9   4  481.75   31.20
  -1   9  -4  300.07   31.90
   1  -9   4  262.17   20.20
   1  -9   4  309.97   25.50
  -2   9  -4    8.80   17.60
   2  -9   4   12.90   12.70
   2  -9   4    2.60    9.20
  -3   9  -4  -18.60   17.10
   3  -9   4   19.50    9.30
   3  -9   4   22.00   12.90
  -4   9  -4   15.40   16.50
   4  -9   4   12.00   14.20
   4  -9   4   16.90   10.10
  -5   9  -4   61.29   18.20
   5  -9   4   45.30   11.60
   6  -9   4   82.89   20.10
   6  -9   4   80.89   12.90
   5   8  -4  110.99   23.10
  -5  -8   4  110.89   18.40
   4   8  -4   -8.40   18.60
  -4  -8   4    7.20   14.30
   3   8  -4   -1.60   16.40
  -3  -8   4   -6.50   14.30
   2   8  -4   70.39   16.50
  -2  -8   4   76.39   14.80
   1   8  -4  667.23   40.30
   1   8  -4  617.34   38.30
  -1  -8   4  674.83   35.00
   0   8  -4  450.95   33.20
   0  -8   4  416.56   27.30
  -1   8  -4   42.70   14.80
   1  -8   4   31.80    8.80
   1  -8   4   21.20   12.00
  -2   8  -4   -0.30   14.10
   2  -8   4   15.30    8.50
   2  -8   4   18.70   11.00
  -3   8  -4    4.50   14.40
   3  -8   4    5.70   12.60
   3  -8   4   23.70    8.60
  -4   8  -4  184.68   27.00
   4  -8   4  149.59   23.30
   4  -8   4  162.98   15.70
  -5   8  -4  305.37   32.40
   5  -8   4  235.58   27.90
   5  -8   4  293.57   20.30
  -6   8  -4  120.79   20.70
   6  -8   4  100.99   17.30
   6  -8   4  108.09   19.30
  -7   8  -4   13.70   21.00
   7  -8   4   -1.80   19.60
   7  -8   4  -19.70   12.40
   6   7  -4   -6.00   18.50
  -6  -7   4   25.00   16.40
   5   7  -4   27.00   17.80
  -5  -7   4   24.30   15.40
   4   7  -4    3.70   14.80
  -4  -7   4   35.30   13.30
   3   7  -4   -9.70   14.20
   3   7  -4   12.50   14.20
  -3  -7   4   17.30   12.10
   2   7  -4  632.94   37.20
   2   7  -4  659.13   36.80
  -2  -7   4  619.34   33.70
   1   7  -4  341.97   26.40
   1   7  -4  382.26   27.30
  -1  -7   4  357.66   24.00
   0   7  -4  190.78   23.10
   0  -7   4  135.79   18.20
  -1   7  -4  281.77   24.90
   1  -7   4  288.57   17.70
   1  -7   4  291.87   21.60
  -2   7  -4  560.64   33.90
   2  -7   4  579.84   27.30
   2  -7   4  577.94   30.80
  -3   7  -4  393.86   29.40
   3  -7   4  401.96   26.50
   3  -7   4  414.76   22.50
  -4   7  -4  922.81   49.20
   4  -7   4  993.90   41.80
   4  -7   4  871.71   44.50
   5  -7   4   63.19   10.10
   5  -7   4   52.79   14.70
  -6   7  -4   21.20   17.60
  -6   7  -4   22.30   12.50
   6  -7   4   17.60   15.60
  -7   7  -4   63.29   21.00
   7  -7   4   42.00   12.20
   7  -7   4   37.20   19.70
   6   6  -4    1.20   15.90
  -6  -6   4   26.80   14.40
   5   6  -4   59.39   15.50
  -5  -6   4  102.09   20.10
   4   6  -4   61.09   15.00
   4   6  -4   96.59   21.20
  -4  -6   4   77.49   13.80
   3   6  -4  160.38   20.80
   3   6  -4  159.88   21.50
  -3  -6   4  135.99   18.40
   2   6  -4  201.58   20.50
   2   6  -4  212.38   21.60
  -2  -6   4  205.98   18.70
   1   6  -4    1.10    8.80
   1   6  -4    4.00    9.40
  -1  -6   4   -7.80    8.00
   0   6  -4   -4.70    9.40
   0  -6   4   -5.80    8.20
  -1   6  -4 2188.48   94.29
   1  -6   4 2160.18   86.39
   1  -6   4 2205.98   87.49
   1  -6   4 2251.87   86.09
  -2   6  -4 1671.83   67.99
  -2   6  -4 1660.03   74.39
   2  -6   4 1648.83   66.99
   2  -6   4 1708.23   68.69
  -3   6  -4  220.48   18.00
  -3   6  -4  214.48   21.60
   3  -6   4  216.68   20.30
   3  -6   4  218.88   14.60
  -4   6  -4    0.40   11.60
  -4   6  -4   -2.80    8.90
   4  -6   4    4.40    6.30
   4  -6   4    5.90   11.10
  -5   6  -4  104.49   17.30
  -5   6  -4  111.59   24.50
   5  -6   4  117.29   13.20
   5  -6   4   76.39   15.50
  -6   6  -4   93.79   19.10
  -6   6  -4  106.09   19.30
   6  -6   4  106.69   17.50
   6  -6   4  110.09   14.80
  -7   6  -4  235.08   24.20
  -7   6  -4  314.57   36.80
   7  -6   4  305.47   20.60
   7  -6   4  281.07   32.50
  -8   6  -4    1.40   25.90
  -8   6  -4   24.10   16.50
   8  -6   4    0.50   21.00
   7   5  -4  -24.30   15.90
  -7  -5   4    2.80   15.70
   6   5  -4  263.17   27.60
  -6  -5   4  272.37   24.30
   5   5  -4  528.95   35.00
   5   5  -4  624.64   35.90
  -5  -5   4  595.64   32.60
   4   5  -4  162.98   21.30
   4   5  -4  177.58   21.90
  -4  -5   4  162.38   19.10
   3   5  -4  123.79   18.70
   3   5  -4   91.69   13.80
  -3  -5   4  121.39   16.60
   2   5  -4   96.59   17.10
   2   5  -4   75.89   11.10
  -2  -5   4  105.09   13.90
   1   5  -4   72.09   13.20
   1   5  -4   75.89   14.70
   1   5  -4   88.79   13.40
  -1  -5   4   66.49   10.30
   0   5  -4  847.72   40.00
   0  -5   4  802.92   37.00
  -1   5  -4 2488.25  104.39
  -1   5  -4 2522.65   96.49
   1  -5   4 2425.96   95.79
   1  -5   4 2493.05   97.19
   1  -5   4 2455.85   95.89
  -2   5  -4   76.59   16.50
  -2   5  -4   84.29   12.40
   2  -5   4   87.49   15.60
   2  -5   4   72.59    9.70
  -3   5  -4  345.27   20.60
  -3   5  -4  327.47   24.60
   3  -5   4  354.86   23.10
   3  -5   4  348.47   18.70
  -4   5  -4  518.15   32.90
  -4   5  -4  532.25   28.00
   4  -5   4  539.25   30.00
   4  -5   4  525.35   25.60
  -5   5  -4   38.10   10.80
  -5   5  -4   37.70   13.90
   5  -5   4   26.70    7.70
   5  -5   4   23.60   13.00
  -6   5  -4  639.34   33.20
  -6   5  -4  589.84   41.30
   6  -5   4  607.94   38.40
   6  -5   4  646.94   30.60
  -7   5  -4  380.66   27.30
  -7   5  -4  412.66   38.20
   7  -5   4  382.26   35.30
   7  -5   4  409.86   23.30
  -8   5  -4   -5.20   24.40
  -8   5  -4   11.80   16.40
   8  -5   4   29.40   13.40
   8  -5   4   -9.10   21.50
   8   4  -4  106.39   20.00
   7   4  -4  181.28   26.00
  -7  -4   4  179.88   25.40
   6   4  -4  262.27   25.50
   6   4  -4  262.77   28.10
  -6  -4   4  319.17   24.10
   5   4  -4  619.84   36.70
   5   4  -4  710.13   36.60
  -5  -4   4  650.03   34.30
   4   4  -4  142.79   19.50
   4   4  -4  132.29   18.60
  -4  -4   4  124.99   16.90
  -4  -4   4  160.58   20.40
   3   4  -4  473.35   27.80
   3   4  -4  462.45   28.00
  -3  -4   4  513.95   25.50
  -3  -4   4  492.65   28.40
   2   4  -4   67.69   10.40
   2   4  -4   73.99   15.00
   2   4  -4   66.39   14.00
  -2  -4   4   70.49   10.00
  -2  -4   4   62.29    9.50
  -2  -4   4   44.80    8.70
   1   4  -4   17.10    6.90
   1   4  -4   10.90    9.40
   1   4  -4   11.40    6.40
  -1  -4   4   14.60    7.30
  -1  -4   4   12.80    4.60
  -1  -4   4   22.50    8.30
   0   4  -4  189.38   17.50
   0   4  -4  186.98   10.60
   0  -4   4  214.78   12.10
   0  -4   4  199.28   17.10
  -1   4  -4  336.57   18.10
  -1   4  -4  331.97   22.10
  -1   4  -4  294.17   14.60
   1  -4   4  312.07   15.70
   1  -4   4  352.76   17.70
   1  -4   4  343.07   21.00
  -2   4  -4   68.29   11.60
  -2   4  -4   80.59   15.00
   2  -4   4   63.29    7.30
   2  -4   4   85.29   15.10
  -3   4  -4  731.03   32.70
  -3   4  -4  682.83   36.50
   3  -4   4  724.03   34.40
  -4   4  -4 1384.66   57.29
  -4   4  -4 1299.77   62.29
   4  -4   4 1408.06   58.89
  -5   4  -4  177.18   24.10
  -5   4  -4  147.79   17.80
   5  -4   4  186.18   22.20
  -6   4  -4  117.69   19.00
  -6   4  -4  133.79   27.40
   6  -4   4  129.29   24.10
  -7   4  -4   17.10   18.80
  -7   4  -4    2.70   13.60
   7  -4   4   -8.10   10.10
   7  -4   4   11.00   17.00
  -8   4  -4   29.60   17.20
  -8   4  -4    5.20   24.60
   8  -4   4   20.40   12.70
   8  -4   4   46.90   19.90
   8   3  -4  358.56   38.00
   8   3  -4  495.85   34.00
  -8  -3   4  434.76   34.60
   7   3  -4  182.68   25.10
   7   3  -4  171.18   25.90
  -7  -3   4  207.88   24.30
   6   3  -4    2.10   11.30
   6   3  -4    0.00   11.80
  -6  -3   4   21.50   12.40
  -6  -3   4   17.70   12.60
   5   3  -4   12.10   10.80
   5   3  -4   27.90   10.70
  -5  -3   4    5.30   10.20
  -5  -3   4   24.50   11.70
   4   3  -4  790.92   37.90
   4   3  -4  753.42   38.20
  -4  -3   4  777.62   35.80
  -4  -3   4  772.12   38.90
   3   3  -4  145.19   15.00
   3   3  -4  156.68   17.00
  -3  -3   4  147.99   14.10
  -3  -3   4  120.59   15.80
   2   3  -4  982.90   44.10
   2   3  -4 1000.30   40.80
   2   3  -4 1064.09   46.30
  -2  -3   4 1016.90   42.90
  -2  -3   4  997.70   43.70
  -2  -3   4 1013.70   45.70
   1   3  -4   43.60   10.10
   1   3  -4   62.59    7.70
   1   3  -4   73.59   15.30
  -1  -3   4   55.39    6.90
  -1  -3   4   52.19    9.40
   0   3  -4  359.86   21.30
   0   3  -4  272.47   15.50
   0  -3   4  331.97   17.00
   0  -3   4  256.27   14.70
  -1   3  -4   55.69   11.40
  -1   3  -4   83.69    7.00
  -1   3  -4   82.19   14.20
   1  -3   4   64.09    6.50
   1  -3   4   85.39    8.70
   1  -3   4   97.09   15.10
  -2   3  -4  339.07   16.90
  -2   3  -4  380.06   23.40
  -2   3  -4  418.86   20.60
   2  -3   4  371.66   18.90
   2  -3   4  400.76   22.30
   2  -3   4  377.66   16.90
  -3   3  -4  768.52   38.60
  -3   3  -4  814.62   35.60
   3  -3   4  768.52   37.00
   3  -3   4  832.72   37.60
  -4   3  -4  655.53   35.30
  -4   3  -4  679.73   32.20
   4  -3   4  674.93   33.80
  -5   3  -4   27.90   13.40
  -5   3  -4   40.80   10.70
   5  -3   4   21.10   12.50
  -6   3  -4  142.29   27.10
  -6   3  -4  171.98   20.60
   6  -3   4  206.18   23.60
  -7   3  -4   12.00   14.60
  -7   3  -4   -1.60   19.00
  -8   3  -4  104.19   19.20
  -8   3  -4   52.39   23.90
   8  -3   4  164.18   30.80
   8   2  -4  170.98   30.90
   8   2  -4  230.78   29.00
  -8  -2   4  180.18   27.80
   7   2  -4   37.00   15.20
   7   2  -4   73.69   14.50
  -7  -2   4   73.59   15.50
  -7  -2   4   61.79   14.70
   6   2  -4  353.16   25.60
   6   2  -4  304.07   26.10
  -6  -2   4  333.07   24.00
  -6  -2   4  354.46   27.00
   5   2  -4  506.85   29.50
   5   2  -4  481.35   29.30
  -5  -2   4  534.05   30.50
  -5  -2   4  520.95   27.70
   4   2  -4  253.37   19.60
  -4  -2   4  272.47   18.70
  -4  -2   4  255.67   21.10
   3   2  -4  970.20   39.70
   3   2  -4  989.30   43.70
  -3  -2   4  914.11   44.40
  -3  -2   4  976.30   40.60
   2   2  -4  912.91   40.20
   2   2  -4  877.01   38.30
   2   2  -4  881.21   35.80
  -2  -2   4  884.21   36.70
  -2  -2   4  819.92   39.70
  -2  -2   4  846.82   37.70
   1   2  -4  802.82   32.90
   1   2  -4  800.02   37.50
   1   2  -4  780.72   35.50
  -1  -2   4  815.82   35.50
  -1  -2   4  834.42   34.40
  -1  -2   4  781.32   35.90
   0   2  -4   13.80    5.40
   0   2  -4   18.60    7.20
   0  -2   4    6.40    6.10
   0  -2   4    9.60    4.60
   0  -2   4    9.60    4.10
  -1   2  -4  246.28   13.10
  -1   2  -4  273.27   17.70
  -1   2  -4  224.18   16.10
   1  -2   4  285.17   18.10
   1  -2   4  244.78   12.40
   1  -2   4  284.87   14.50
  -2   2  -4  237.48   16.40
  -2   2  -4  199.08   15.20
   2  -2   4  232.98   17.60
   2  -2   4  198.48   14.60
  -3   2  -4  307.57   19.60
  -3   2  -4  277.87   18.10
   3  -2   4  279.67   19.90
   3  -2   4  296.57   18.50
  -4   2  -4   83.69   16.70
  -4   2  -4   78.99   11.70
   4  -2   4   90.29   17.80
   4  -2   4   81.09   15.70
  -5   2  -4  333.17   27.50
  -5   2  -4  438.16   24.70
  -6   2  -4  355.26   29.60
  -6   2  -4  337.67   26.00
  -7   2  -4  153.18   25.50
  -8   2  -4   12.60   17.80
   8   1  -4   42.00   16.40
   8   1  -4   69.29   17.30
  -8  -1   4   66.29   17.10
  -8  -1   4   54.39   16.40
   7   1  -4  262.47   24.20
   7   1  -4  274.07   25.20
  -7  -1   4  256.67   26.40
  -7  -1   4  252.97   23.80
   6   1  -4  419.46   27.30
   6   1  -4  391.46   27.20
  -6  -1   4  401.26   25.60
  -6  -1   4  420.46   28.80
   5   1  -4 1217.28   56.19
  -5  -1   4 1213.98   51.99
  -5  -1   4 1302.37   57.99
   4   1  -4   33.90    8.70
   4   1  -4   33.20    8.10
  -4  -1   4   34.60    8.30
  -4  -1   4   21.00    9.10
   3   1  -4   74.59   10.50
   3   1  -4   65.09   13.20
  -3  -1   4   62.99   10.10
  -3  -1   4   64.09   11.20
   2   1  -4   58.69   13.00
   2   1  -4   60.99    7.20
   2   1  -4   57.99    9.50
  -2  -1   4   42.20    6.80
  -2  -1   4   64.29   10.60
  -2  -1   4   52.09    9.50
   1   1  -4    3.20    5.10
   1   1  -4    7.30    5.60
   1   1  -4   -0.10    4.40
  -1  -1   4   -3.50    3.70
  -1  -1   4    1.20    5.80
  -1  -1   4    6.40    4.40
  -1  -1   4   -2.00    5.60
   0   1  -4  135.29   12.10
   0   1  -4  142.29    8.90
   0   1  -4  120.99   11.10
   0  -1   4  129.29   13.00
   0  -1   4  115.19    8.20
   0  -1   4  164.58    9.50
   0  -1   4  167.08   12.70
  -1   1  -4 5747.52  245.38
  -1   1  -4 6245.88  228.98
  -1   1  -4 6419.66  243.38
   1  -1   4 5894.41  245.48
   1  -1   4 6213.48  242.88
   1  -1   4 5824.02  227.68
   1  -1   4 5973.30  228.48
  -2   1  -4   33.60    8.10
  -2   1  -4   34.40    8.20
   2  -1   4   29.50    4.60
   2  -1   4   40.10    9.50
   2  -1   4   29.80    4.50
   2  -1   4   29.90    9.70
   2  -1   4   39.50    7.80
  -3   1  -4   28.80    9.70
  -4   1  -4  557.14   28.60
   4  -1   4  564.64   31.80
  -5   1  -4  288.17   22.10
   5  -1   4  299.47   25.40
  -6   1  -4  102.19   21.40
   6  -1   4  128.59   26.40
  -7   1  -4  110.39   19.50
   7  -1   4   91.39   20.60
  -8   1  -4   45.60   21.00
   8   0  -4  130.49   26.30
   8   0  -4  185.08   25.10
  -8   0   4  176.68   27.70
  -8   0   4  167.98   24.50
   7   0  -4  274.67   25.90
  -7   0   4  267.67   24.00
  -7   0   4  327.87   28.20
   6   0  -4  226.08   21.10
  -6   0   4  225.68   23.00
  -6   0   4  211.18   19.00
   5   0  -4  161.88   17.10
  -5   0   4  160.68   18.70
   4   0  -4  203.58   16.80
  -4   0   4  202.08   19.40
   3   0  -4  398.76   22.50
  -3   0   4  397.56   24.40
   2   0  -4  257.57   15.20
   2   0  -4  253.87   14.00
   2   0  -4  303.37   18.40
  -2   0   4  274.17   13.50
  -2   0   4  263.27   14.40
  -2   0   4  271.87   19.50
   1   0  -4 1613.04   62.79
   1   0  -4 1663.03   67.29
   1   0  -4 1558.94   67.19
  -1   0   4 1494.15   61.59
  -1   0   4 1669.03   66.29
  -1   0   4 1521.25   68.49
   0   0  -4 3398.76  131.69
   0   0  -4 3726.73  139.99
   0   0  -4 3321.27  141.29
   0   0   4 3555.84  130.69
   0   0   4 3238.78  141.99
   0   0   4 3466.25  139.29
   0   0   4 3345.47  131.09
  -1   0  -4  247.68   16.50
  -1   0  -4  230.78   15.90
  -1   0  -4  265.97   17.10
   1   0   4  258.07   17.20
   1   0   4  212.78   11.90
   1   0   4  254.47   13.70
   1   0   4  263.97   22.10
   1   0   4  249.68   15.00
  -2   0  -4  432.96   24.40
  -2   0  -4  492.15   24.30
   2   0   4  504.65   30.00
  -3   0  -4  598.04   29.10
   3   0   4  609.84   34.70
  -4   0  -4  510.55   28.20
   4   0   4  545.55   33.50
  -5   0  -4   15.70   12.90
   5   0   4    8.30   14.00
  -6   0  -4   52.39   14.70
   6   0   4    2.60   16.40
  -7   0  -4   13.40   17.30
   7   0   4   -5.90   19.90
   8  -1  -4  200.58   26.50
  -8   1   4  219.98   29.90
   7  -1  -4  112.79   20.30
  -7   1   4   91.99   15.10
   6  -1  -4   33.40   10.90
  -6   1   4   42.00   11.90
   5  -1  -4  283.47   16.40
   5  -1  -4  252.77   20.80
  -5   1   4  234.98   23.60
   4  -1  -4 1428.86   55.79
   4  -1  -4 1400.36   61.49
  -4   1   4 1417.76   62.59
  -4   1   4 1285.27   55.19
   3  -1  -4 1101.69   44.10
   3  -1  -4 1123.29   48.80
  -3   1   4 1024.80   49.30
  -3   1   4 1026.70   43.10
   2  -1  -4  787.42   34.70
   2  -1  -4  747.03   31.40
  -2   1   4  717.73   36.10
  -2   1   4  624.74   29.30
   1  -1  -4  428.66   22.50
   1  -1  -4  472.25   23.90
   1  -1  -4  456.45   22.40
  -1   1   4  429.96   26.90
  -1   1   4  433.76   21.40
   0  -1  -4    1.50    7.40
   0  -1  -4    4.80    7.10
   0   1   4   -3.60    6.60
   0   1   4   -5.50   10.40
   0   1   4   -5.60    5.50
   0   1   4   10.60    7.30
  -1  -1  -4  364.06   20.60
   1   1   4  344.77   18.70
   1   1   4  374.16   26.40
  -2  -1  -4  257.67   17.90
   2   1   4  284.97   26.50
  -3  -1  -4  748.73   36.30
   3   1   4  802.82   42.60
  -4  -1  -4  158.88   18.70
  -4  -1  -4  151.58   19.00
   4   1   4  164.18   25.80
  -5  -1  -4   50.09   14.60
  -5  -1  -4   19.50   13.20
   5   1   4   38.30   17.00
  -6  -1  -4    6.80   16.10
   6   1   4    0.50   18.30
  -7  -1  -4   50.79   19.90
   7   1   4   28.20   22.00
   8  -2  -4  153.08   25.80
  -8   2   4  228.58   30.90
   7  -2  -4  212.58   17.80
   7  -2  -4  150.28   22.60
  -7   2   4  188.18   26.30
   6  -2  -4  544.35   33.60
   6  -2  -4  607.24   28.90
  -6   2   4  589.64   36.80
   5  -2  -4  795.62   40.90
   5  -2  -4  797.42   36.00
  -5   2   4  825.52   42.30
   4  -2  -4  539.25   30.50
   4  -2  -4  567.84   26.70
  -4   2   4  534.55   32.70
   3  -2  -4  -13.40    8.20
   3  -2  -4    0.80    6.10
  -3   2   4   -6.20    9.80
   2  -2  -4   27.10    7.30
   2  -2  -4   22.20    8.40
  -2   2   4   17.50   10.10
   1  -2  -4  664.43   33.50
   1  -2  -4  758.62   32.30
   1  -2  -4  718.43   33.50
  -1   2   4  647.34   32.40
  -1   2   4  700.73   37.30
   0  -2  -4  177.88   16.90
   0  -2  -4  207.98   16.90
   0  -2  -4  190.48   15.20
   0   2   4  171.88   14.50
   0   2   4  188.38   21.30
  -1  -2  -4  465.75   24.80
   1   2   4  504.45   31.70
   1   2   4  460.85   24.70
  -2  -2  -4  629.74   31.40
   2   2   4  664.73   40.20
  -3  -2  -4   94.49   16.00
  -3  -2  -4   94.89   17.90
   3   2   4   78.99   16.40
  -4  -2  -4   43.70   13.20
  -4  -2  -4   50.19   14.70
  -5  -2  -4   31.00   14.30
  -5  -2  -4   31.60   14.40
   5   2   4   -9.30   18.90
  -6  -2  -4  117.39   23.70
  -6  -2  -4   88.09   18.50
   6   2   4   62.49   22.50
   8  -3  -4   69.19   13.40
   8  -3  -4   46.40   15.30
  -8   3   4   58.79   17.30
   7  -3  -4  263.37   25.60
   7  -3  -4  306.27   21.90
  -7   3   4  281.07   29.50
   6  -3  -4  123.19   16.60
   6  -3  -4  100.79   18.80
  -6   3   4  139.79   24.90
   5  -3  -4  320.47   19.90
   5  -3  -4  306.87   23.20
  -5   3   4  305.47   28.60
   4  -3  -4   70.19   15.90
   4  -3  -4   99.29   13.20
  -4   3   4  100.39   21.00
   3  -3  -4  187.38   19.10
   3  -3  -4  215.38   15.80
  -3   3   4  204.88   22.60
   2  -3  -4 1187.98   53.99
   2  -3  -4 1211.28   50.09
  -2   3   4 1149.58   56.59
   1  -3  -4  949.11   41.80
   1  -3  -4  949.90   44.00
  -1   3   4  945.91   48.40
   0  -3  -4   -5.00    7.80
   0  -3  -4   -2.30    8.00
   0   3   4  -10.00   13.20
  -1  -3  -4  562.84   28.90
   1   3   4  547.25   36.50
  -2  -3  -4  202.28   19.70
  -2  -3  -4  168.28   18.60
   2   3   4  170.28   28.40
  -3  -3  -4   33.00   13.00
  -3  -3  -4   27.90   12.70
   3   3   4   23.60   17.90
  -4  -3  -4  111.29   22.30
  -4  -3  -4  113.09   22.40
   4   3   4   81.09   19.40
  -5  -3  -4  216.48   27.10
  -5  -3  -4  195.88   27.30
   5   3   4  189.38   33.50
  -6  -3  -4  161.68   28.20
  -6  -3  -4  129.59   22.00
   6   3   4  101.69   24.90
   8  -4  -4   94.19   17.10
  -8   4   4  129.09   21.10
   7  -4  -4   37.50   11.90
   7  -4  -4   35.30   13.40
  -7   4   4   21.90   18.00
   6  -4  -4   98.09   19.30
   6  -4  -4   85.69   17.00
  -6   4   4  140.39   25.80
   5  -4  -4  101.39   15.70
   5  -4  -4   99.09   18.80
  -5   4   4   65.79   16.30
   4  -4  -4  183.78   20.60
   4  -4  -4  171.28   16.60
  -4   4   4  162.28   27.50
   3  -4  -4  547.65   32.00
   3  -4  -4  552.34   28.10
  -3   4   4  553.04   36.00
   2  -4  -4 1287.07   54.49
   2  -4  -4 1303.77   58.79
  -2   4   4 1234.48   61.49
   1  -4  -4   38.10   11.10
   1  -4  -4   43.10   10.40
  -1   4   4   34.90   14.90
   0  -4  -4    4.00    9.90
   0   4   4    4.60   14.90
  -1  -4  -4   13.60   10.70
  -1  -4  -4   -5.40   10.60
   1   4   4    1.20   16.80
  -2  -4  -4   69.19   14.00
  -2  -4  -4   62.69   13.40
   2   4   4   45.20   18.60
  -3  -4  -4   52.79   15.10
  -3  -4  -4   41.70   14.30
   3   4   4   62.49   19.80
  -4  -4  -4  631.04   37.70
  -4  -4  -4  574.04   36.50
   4   4   4  587.64   43.50
  -5  -4  -4   76.09   19.60
  -5  -4  -4   87.89   19.60
   5   4   4   68.59   22.40
   7  -5  -4   39.80   14.20
   7  -5  -4   44.80   12.30
  -7   5   4   58.29   19.10
   6  -5  -4   30.20   11.40
   6  -5  -4   28.80   12.60
  -6   5   4   38.90   18.80
   5  -5  -4   65.49   11.70
   5  -5  -4   49.30   13.10
  -5   5   4   79.99   17.50
   4  -5  -4  224.38   24.20
   4  -5  -4  235.08   19.20
  -4   5   4  270.17   31.70
   3  -5  -4  221.08   24.80
   3  -5  -4  222.48   18.00
  -3   5   4  220.08   30.30
   2  -5  -4  255.57   20.70
   2  -5  -4  265.07   25.60
  -2   5   4  315.37   30.00
   1  -5  -4   49.10   11.40
   1  -5  -4   23.40   12.70
  -1   5   4   40.90   16.80
   0  -5  -4  311.27   22.80
   0   5   4  299.47   31.80
  -1  -5  -4  189.78   20.90
   1   5   4  151.18   30.70
  -2  -5  -4   26.50   15.30
  -2  -5  -4   34.50   14.60
   2   5   4   24.70   18.90
  -3  -5  -4  257.77   29.10
  -3  -5  -4  224.58   27.00
  -4  -5  -4  389.16   34.80
  -4  -5  -4  422.56   32.80
   4   5   4  348.07   41.60
   6  -6  -4  170.78   21.20
   6  -6  -4  157.08   25.60
  -6   6   4  161.38   25.70
   5  -6  -4  147.09   24.80
   5  -6  -4  133.39   18.90
  -5   6   4  173.28   36.80
   4  -6  -4   88.39   16.50
   4  -6  -4  133.69   17.40
  -4   6   4  168.08   35.70
   3  -6  -4   20.70   15.20
   3  -6  -4   19.60   10.50
  -3   6   4   24.50   20.70
   2  -6  -4    4.40   15.10
   2  -6  -4   -0.60    9.70
  -2   6   4   20.80   17.50
   1  -6  -4   50.89   16.30
   1  -6  -4   84.59   14.00
  -1   6   4   81.89   19.20
   0  -6  -4  296.57   24.40
   0   6   4  288.97   33.60
  -1  -6  -4  205.48   23.50
   1   6   4  194.78   33.80
  -2  -6  -4   65.09   16.60
  -2  -6  -4   68.59   19.20
   2   6   4   25.60   20.90
   4  -7  -4   13.10   17.30
   4  -7  -4   15.70   11.70
  -4   7   4   27.40   22.20
   3  -7  -4   26.80   17.20
  -3   7   4   45.10   23.70
   2  -7  -4   68.99   19.70
   2  -7  -4   78.79   13.90
   1  -7  -4  107.39   21.90
   1  -7  -4   95.79   19.90
   0  -7  -4   23.10   15.30
   0   7   4   94.19   21.60
   2  10  -5   74.79   25.20
  -2 -10   5   85.89   18.40
   1  10  -5  183.38   37.90
  -1 -10   5  158.08   28.30
   0  10  -5  116.29   25.60
   0 -10   5  154.58   27.30
  -1  10  -5   45.40   21.40
   1 -10   5   40.70   16.30
   1 -10   5   29.90   11.70
  -2  10  -5   -1.00   19.90
   2 -10   5   17.70   16.30
   2 -10   5  -12.80   10.70
  -3  10  -5  130.19   22.90
   3 -10   5  133.09   27.70
   3 -10   5  122.59   18.90
   4 -10   5  127.29   20.10
   3   9  -5  169.78   33.30
   3   9  -5  285.67   36.60
  -3  -9   5  250.47   28.20
   2   9  -5  254.57   35.60
   2   9  -5  214.58   32.50
  -2  -9   5  236.98   26.50
   1   9  -5   44.10   19.70
   0   9  -5  -14.40   17.30
   0  -9   5   17.00   14.20
  -1   9  -5   34.70   17.30
   1  -9   5   16.00   14.00
   1  -9   5   29.60   10.00
  -2   9  -5  140.89   21.50
   2  -9   5  168.68   23.40
   2  -9   5  131.99   17.60
  -3   9  -5  135.49   29.00
   3  -9   5  115.49   24.20
   3  -9   5  141.09   17.20
  -4   9  -5   51.09   18.50
   4  -9   5   23.50   15.60
   4  -9   5   43.00   11.00
  -5   9  -5   51.69   19.40
   5  -9   5   49.20   11.60
   5  -9   5   27.60   17.70
  -6   9  -5   27.50   20.60
   5   8  -5  114.39   22.40
  -5  -8   5  163.58   26.00
   4   8  -5  593.54   40.70
   4   8  -5  587.14   42.30
  -4  -8   5  539.15   35.90
   3   8  -5   46.00   16.80
   3   8  -5   60.39   18.70
  -3  -8   5   66.49   14.70
   2   8  -5   13.90   15.70
   2   8  -5   11.00   14.90
  -2  -8   5   12.10   12.10
   1   8  -5   34.70   15.10
  -1  -8   5   24.50   12.10
   0   8  -5   34.10   15.90
   0  -8   5   29.60   12.30
  -1   8  -5   24.90   15.30
   1  -8   5   28.40   12.30
   1  -8   5   35.70    8.60
  -2   8  -5  434.86   32.10
   2  -8   5  407.96   22.90
   2  -8   5  400.86   28.20
  -3   8  -5   99.29   18.60
   3  -8   5   82.39   15.30
   3  -8   5   75.49   11.50
  -4   8  -5  136.69   27.80
   4  -8   5  138.39   24.40
   4  -8   5  164.38   16.70
  -5   8  -5    2.10   16.70
   5  -8   5    5.20   10.20
  -6   8  -5  232.98   36.10
   6  -8   5  203.58   31.10
   6  -8   5  244.08   20.70
   6   7  -5   39.20   19.90
  -6  -7   5   40.00   16.60
   5   7  -5  394.56   33.60
   5   7  -5  359.96   32.80
  -5  -7   5  355.46   28.30
   4   7  -5  199.58   26.90
   4   7  -5  250.27   27.60
  -4  -7   5  178.98   23.30
   3   7  -5   44.50   15.00
   3   7  -5   18.00   14.20
  -3  -7   5    8.90   12.60
   2   7  -5   67.09   13.30
   2   7  -5   70.19   15.70
  -2  -7   5   75.59   13.10
   1   7  -5  107.29   16.60
  -1  -7   5  116.49   17.60
   0   7  -5  593.34   35.10
   0  -7   5  563.94   31.30
  -1   7  -5 1080.29   52.59
   1  -7   5 1074.59   45.10
   1  -7   5 1047.40   48.10
  -2   7  -5  119.29   22.50
   2  -7   5  129.39   14.00
   2  -7   5  134.39   19.80
  -3   7  -5    7.30   10.70
  -3   7  -5   -3.40   12.40
   3  -7   5   21.80    7.90
   3  -7   5    3.60   13.40
  -4   7  -5   85.69   16.90
  -4   7  -5   82.19   13.30
   4  -7   5   58.09   15.20
   4  -7   5   87.19   13.30
  -5   7  -5  238.78   29.80
  -5   7  -5  178.88   21.40
   5  -7   5  233.98   17.10
   5  -7   5  142.59   26.30
  -6   7  -5   30.80   20.00
  -6   7  -5   14.90   13.50
   6  -7   5   36.20   10.40
   6  -7   5    3.10   18.10
  -7   7  -5   52.59   24.20
  -7   7  -5   44.00   15.70
   7  -7   5   29.80   21.10
   6   6  -5   50.69   19.40
   6   6  -5   55.19   16.90
  -6  -6   5   51.09   15.50
   5   6  -5   85.09   17.80
   5   6  -5   81.39   16.00
  -5  -6   5  102.99   19.70
   4   6  -5  106.49   16.00
   4   6  -5   82.29   16.40
  -4  -6   5  108.49   19.20
   3   6  -5  339.57   26.30
   3   6  -5  349.07   27.40
  -3  -6   5  353.86   24.20
   2   6  -5 2200.78   97.19
   2   6  -5 2371.76   97.49
  -2  -6   5 2241.68   90.79
   1   6  -5 1618.44   72.09
  -1  -6   5 1648.54   67.69
   0   6  -5   14.30   11.10
   0  -6   5   12.50    9.30
  -1   6  -5   11.90   10.40
  -1   6  -5   23.00    8.90
   1  -6   5   11.00    6.40
   1  -6   5    4.80    9.50
  -2   6  -5  173.68   16.30
  -2   6  -5  160.48   20.90
   2  -6   5  172.88   19.70
   2  -6   5  169.28   13.10
  -3   6  -5  142.99   16.20
  -3   6  -5  114.69   21.30
   3  -6   5  146.09   20.50
   3  -6   5  153.28   13.10
  -4   6  -5   89.29   16.60
  -4   6  -5   77.89   15.60
   4  -6   5   77.39   15.00
   4  -6   5   73.69   12.10
  -5   6  -5   36.40   11.30
  -5   6  -5   36.50   16.50
   5  -6   5   20.90    8.40
   5  -6   5    7.20   15.70
  -6   6  -5   18.40   12.40
  -6   6  -5   29.80   18.40
   6  -6   5   21.50    9.40
   6  -6   5   22.00   16.60
  -7   6  -5  113.99   25.20
  -7   6  -5  157.38   22.00
   7  -6   5  135.09   23.70
   7   5  -5  169.88   29.00
   7   5  -5  122.59   24.30
  -7  -5   5  197.88   26.70
   6   5  -5    6.30   14.20
   6   5  -5   19.80   17.70
  -6  -5   5   39.70   14.30
   5   5  -5    9.20   12.40
   5   5  -5  -18.50   15.10
  -5  -5   5   -1.40   12.00
   4   5  -5   51.79   15.10
   4   5  -5   78.59   13.10
  -4  -5   5   49.50   11.60
   3   5  -5 2474.15  106.29
   3   5  -5 2583.94  106.99
  -3  -5   5 2455.65   99.19
   2   5  -5 1124.69   52.49
   2   5  -5 1137.19   51.69
  -2  -5   5 1136.89   51.89
  -2  -5   5 1118.89   48.60
   1   5  -5    7.40    9.60
  -1  -5   5    5.60    8.20
   0   5  -5 1582.94   70.19
   0  -5   5 1643.94   66.29
  -1   5  -5   77.99   12.90
  -1   5  -5   53.89   11.70
   1  -5   5   72.09   11.70
  -2   5  -5   48.00   11.00
   2  -5   5   43.50   10.90
  -3   5  -5  643.14   36.00
  -3   5  -5  650.23   32.00
   3  -5   5  663.13   34.50
  -4   5  -5  227.98   24.20
  -4   5  -5  185.18   18.40
   4  -5   5  203.68   22.90
  -5   5  -5  109.09   17.40
  -5   5  -5  119.69   26.00
   5  -5   5  114.69   17.20
  -6   5  -5   31.90   12.20
  -6   5  -5   60.79   18.90
  -7   5  -5   14.60   15.50
  -7   5  -5   17.30   21.60
   7  -5   5    8.50   11.30
   7  -5   5  -15.20   19.40
   7   4  -5   26.60   14.20
   7   4  -5  -10.40   18.20
  -7  -4   5    2.10   15.40
   6   4  -5  242.98   29.40
   6   4  -5  235.28   25.70
  -6  -4   5  298.57   28.70
  -6  -4   5  257.87   24.20
   5   4  -5   95.39   20.60
   5   4  -5   66.59   15.70
  -5  -4   5  128.19   22.90
  -5  -4   5   81.49   14.00
   4   4  -5  264.37   23.70
   4   4  -5  309.27   23.70
  -4  -4   5  267.67   24.20
  -4  -4   5  249.08   21.10
   3   4  -5   26.70   11.10
   3   4  -5   28.20    9.30
  -3  -4   5   26.20    9.40
  -3  -4   5   30.50   10.00
   2   4  -5   70.69   12.00
   2   4  -5   42.30   10.90
   2   4  -5   62.59   12.70
  -2  -4   5   49.40    9.90
  -2  -4   5   66.99   14.40
   1   4  -5   18.90    9.30
  -1  -4   5   15.10    8.80
   0   4  -5 2060.79   87.99
   0  -4   5 2063.69   82.09
  -1   4  -5 1114.09   44.60
  -1   4  -5 1036.10   49.00
   1  -4   5 1045.30   43.30
   1  -4   5 1084.39   46.50
  -2   4  -5  752.82   33.00
  -2   4  -5  690.13   37.10
   2  -4   5  735.73   35.60
  -3   4  -5   92.49   17.90
  -3   4  -5   75.19   10.90
   3  -4   5   72.59   12.30
  -4   4  -5   47.10   13.30
  -4   4  -5   23.30    9.60
   4  -4   5   46.60   13.10
  -5   4  -5    5.90   14.40
  -5   4  -5   -9.20   10.40
   5  -4   5   -2.60   14.40
  -6   4  -5  244.98   22.20
  -6   4  -5  252.57   31.80
   6  -4   5  228.78   28.50
  -7   4  -5  159.38   25.20
  -7   4  -5  226.68   36.60
   7  -4   5  237.98   31.70
   8   3  -5   81.09   18.00
   8   3  -5   40.00   20.70
  -8  -3   5   89.29   18.90
  -8  -3   5   84.59   18.20
   7   3  -5   66.49   15.30
   7   3  -5   31.70   16.30
  -7  -3   5   67.69   15.60
  -7  -3   5   62.39   15.80
   6   3  -5   -7.10   12.40
   6   3  -5   14.30   12.20
  -6  -3   5    9.30   12.90
  -6  -3   5   21.40   12.80
   5   3  -5  173.98   21.80
   5   3  -5  188.08   18.80
  -5  -3   5  154.68   21.10
  -5  -3   5  153.68   19.60
   4   3  -5  398.56   24.80
   4   3  -5  366.16   24.90
  -4  -3   5  367.06   25.70
  -4  -3   5  383.36   23.50
   3   3  -5  164.58   18.10
  -3  -3   5  122.79   17.70
  -3  -3   5  164.28   15.10
   2   3  -5   36.30    9.70
  -2  -3   5   27.30    8.70
  -2  -3   5   33.10    8.80
   1   3  -5 1913.41   82.49
   1   3  -5 2102.29   84.19
   1   3  -5 1888.81   76.99
  -1  -3   5 1930.81   82.79
  -1  -3   5 1997.40   78.09
   0   3  -5 2347.86   99.99
   0   3  -5 2425.56   92.29
   0  -3   5 2333.57   91.79
   0  -3   5 2421.36   93.79
  -1   3  -5  476.25   27.00
  -1   3  -5  483.95   23.30
   1  -3   5  499.15   26.50
   1  -3   5  451.15   20.80
  -2   3  -5    7.00    9.30
  -2   3  -5   19.50    7.80
   2  -3   5   -3.50    9.00
  -3   3  -5  495.25   25.10
  -3   3  -5  416.26   27.20
   3  -3   5  459.55   27.40
  -4   3  -5  -15.40   11.70
  -4   3  -5   -6.20    9.50
   4  -3   5   -4.70   11.70
  -5   3  -5  671.63   40.20
  -5   3  -5  744.83   35.60
   5  -3   5  688.93   38.60
  -6   3  -5  257.17   31.00
  -6   3  -5  217.08   22.90
   6  -3   5  246.48   26.70
  -7   3  -5   83.09   21.10
  -7   3  -5   42.60   16.40
   7  -3   5   80.69   18.70
   8   2  -5    7.70   17.20
   8   2  -5   39.40   16.80
  -8  -2   5   43.60   16.70
  -8  -2   5   65.59   17.10
   7   2  -5  138.19   22.60
   7   2  -5   86.99   17.10
  -7  -2   5  157.98   25.10
  -7  -2   5  118.39   22.60
   6   2  -5  183.68   21.40
   6   2  -5  168.58   22.70
  -6  -2   5  162.88   20.30
  -6  -2   5  210.98   23.60
   5   2  -5  172.88   20.10
  -5  -2   5  170.08   18.90
  -5  -2   5  179.78   21.70
   4   2  -5    0.20    9.00
  -4  -2   5    8.10    9.10
  -4  -2   5   -4.50    8.70
   3   2  -5  868.31   41.20
   3   2  -5  904.21   37.80
  -3  -2   5  878.11   38.00
  -3  -2   5  849.61   42.00
   2   2  -5 1248.38   54.39
   2   2  -5 1155.68   52.49
   2   2  -5 1199.88   49.40
  -2  -2   5 1228.48   54.79
  -2  -2   5 1264.07   50.39
   1   2  -5  552.94   28.30
   1   2  -5  495.45   22.80
   1   2  -5  506.05   23.00
   1   2  -5  480.75   24.90
  -1  -2   5  462.15   26.20
  -1  -2   5  519.25   26.10
   0   2  -5   65.69   13.00
   0   2  -5   72.49   11.60
   0   2  -5   62.69    7.50
   0   2  -5   74.69   11.50
   0  -2   5   77.29    8.20
   0  -2   5   87.19   14.60
   0  -2   5   80.39   14.30
  -1   2  -5  -14.20    9.00
  -1   2  -5   -7.90    7.20
   1  -2   5   -8.50    5.40
   1  -2   5    7.20    8.90
  -2   2  -5  302.87   18.40
  -2   2  -5  267.97   19.80
   2  -2   5  295.27   21.00
  -3   2  -5  710.63   31.90
  -3   2  -5  649.24   34.10
   3  -2   5  619.14   34.60
   3  -2   5  691.53   34.00
  -4   2  -5  593.74   29.60
  -4   2  -5  519.35   32.50
   4  -2   5  589.14   32.00
  -5   2  -5  457.15   28.40
  -5   2  -5  453.95   31.70
   5  -2   5  480.65   30.30
  -6   2  -5   15.50   13.60
   6  -2   5   44.00   15.40
   7  -2   5   66.89   19.00
   8   1  -5  243.08   32.10
   8   1  -5  289.87   26.70
  -8  -1   5  185.88   29.30
  -8  -1   5  204.98   29.20
   7   1  -5  225.48   25.30
   7   1  -5  249.78   27.00
  -7  -1   5  262.77   26.80
  -7  -1   5  235.88   24.40
   6   1  -5   17.90   11.60
  -6  -1   5   -5.20   11.20
  -6  -1   5   28.00   11.10
   5   1  -5  249.48   22.10
  -5  -1   5  256.07   22.70
  -5  -1   5  245.38   18.90
   4   1  -5   29.00   10.50
   4   1  -5    7.70    9.00
  -4  -1   5   25.50    8.70
  -4  -1   5   25.90   10.10
   3   1  -5  880.61   40.80
   3   1  -5  823.22   36.70
  -3  -1   5  833.52   41.10
  -3  -1   5  848.92   36.10
   2   1  -5  914.01   38.70
   2   1  -5  936.41   38.50
   2   1  -5  940.01   42.70
  -2  -1   5  936.91   39.10
  -2  -1   5  883.71   43.30
   1   1  -5  309.17   17.80
   1   1  -5  321.67   20.70
   1   1  -5  315.57   17.20
   1   1  -5  346.17   18.30
  -1  -1   5  337.37   19.40
  -1  -1   5  293.77   22.30
  -1  -1   5  310.67   15.70
   0   1  -5  439.06   24.90
   0   1  -5  450.65   23.30
   0   1  -5  398.76   19.90
   0   1  -5  454.75   22.10
   0  -1   5  421.26   25.50
   0  -1   5  408.76   18.90
   0  -1   5  453.65   23.80
   0  -1   5  382.66   21.00
  -1   1  -5   17.10    8.50
  -1   1  -5    9.30    9.10
  -1   1  -5    4.40    8.00
   1  -1   5    9.80    6.30
   1  -1   5   20.10    9.90
   1  -1   5   16.30    9.80
  -2   1  -5  616.84   30.80
  -2   1  -5  572.84   31.60
  -2   1  -5  631.64   29.30
   2  -1   5  575.74   30.70
   2  -1   5  643.34   31.10
   2  -1   5  655.83   34.50
  -3   1  -5  930.41   40.40
   3  -1   5  943.71   45.30
   3  -1   5  889.11   41.60
   3  -1   5  830.52   42.70
  -4   1  -5  382.36   24.90
   4  -1   5  446.96   27.20
   4  -1   5  414.76   31.10
  -5   1  -5  139.09   19.20
   5  -1   5   95.59   17.30
  -6   1  -5  132.89   23.90
   6  -1   5  115.59   20.60
  -7   1  -5  133.89   27.30
   7  -1   5   76.49   23.30
   8   0  -5   -2.70   14.90
   8   0  -5  -12.10   15.40
  -8   0   5    6.30   14.50
  -8   0   5    9.20   15.60
   7   0  -5  -17.80   12.80
  -7   0   5  -16.70   12.50
   6   0  -5  347.37   26.10
  -6   0   5  360.16   28.00
   5   0  -5  196.78   19.40
  -5   0   5  209.18   22.20
   4   0  -5  716.03   36.70
  -4   0   5  729.83   37.80
   3   0  -5  303.27   20.50
   3   0  -5  332.97   18.00
  -3   0   5  264.57   16.40
  -3   0   5  313.37   23.10
   1   0  -5   37.10    8.90
   1   0  -5   27.10    8.40
   1   0  -5   36.00    7.10
  -1   0   5   32.70    9.90
   0   0  -5 1159.58   47.20
   0   0  -5 1189.38   50.39
   0   0   5 1117.59   51.89
   0   0   5 1043.10   48.60
   0   0   5 1094.49   46.60
  -1   0  -5  573.44   29.80
  -1   0  -5  604.34   28.40
   1   0   5  558.84   28.90
   1   0   5  592.34   29.50
   1   0   5  591.64   32.60
  -2   0  -5  409.86   22.60
   2   0   5  416.46   24.10
   2   0   5  401.16   29.10
   2   0   5  353.06   22.90
  -3   0  -5   40.40   10.40
   3   0   5   18.30   15.10
  -4   0  -5  369.56   25.60
   4   0   5  454.15   33.70
  -5   0  -5  264.57   23.40
   5   0   5  256.87   32.30
   6   0   5   53.39   21.30
  -7   0  -5   26.90   21.30
   7   0   5    3.20   24.30
   8  -1  -5   85.79   17.30
  -8   1   5  106.09   19.60
   7  -1  -5  181.98   23.30
  -7   1   5  193.48   26.20
   6  -1  -5  485.05   31.30
  -6   1   5  536.75   33.70
   5  -1  -5  320.17   20.00
   5  -1  -5  276.37   22.50
  -5   1   5  321.47   26.20
   4  -1  -5  552.24   26.70
   4  -1  -5  511.05   30.00
  -4   1   5  560.44   33.00
   3  -1  -5  220.28   15.50
   3  -1  -5  184.98   17.20
  -3   1   5  193.48   20.10
   2  -1  -5   85.79   14.30
   2  -1  -5   89.99   13.30
  -2   1   5  110.89   18.70
   1  -1  -5  730.13   34.70
   1  -1  -5  664.43   31.60
  -1   1   5  669.83   37.00
   0  -1  -5 1573.14   65.19
   0  -1  -5 1456.05   61.69
   0   1   5 1534.95   61.39
   0   1   5 1540.75   68.59
   0   1   5 1428.86   64.59
   0   1   5 1531.95   60.99
  -1  -1  -5   54.99    9.60
   1   1   5   48.40   13.40
   1   1   5   57.19   11.00
   1   1   5   39.90    9.30
  -2  -1  -5  193.28   17.20
   2   1   5  196.98   26.60
  -3  -1  -5  288.67   22.50
   3   1   5  283.67   31.90
  -4  -1  -5   53.39   12.70
   4   1   5   56.99   19.30
  -5  -1  -5   66.99   15.50
   5   1   5   43.50   20.90
  -6  -1  -5   81.09   19.00
   6   1   5   47.90   22.50
   8  -2  -5  309.97   28.60
  -8   2   5  249.78   32.80
   7  -2  -5  440.16   30.40
   7  -2  -5  445.76   27.60
  -7   2   5  454.15   34.50
   6  -2  -5   14.70    9.90
   6  -2  -5    6.70   10.50
  -6   2   5   -7.20   14.10
   5  -2  -5   11.00    9.50
   5  -2  -5   20.20    9.90
  -5   2   5   20.40   12.70
   4  -2  -5   73.89   13.60
   4  -2  -5   54.79   11.50
  -4   2   5   56.69   13.30
   3  -2  -5  213.58   17.30
   3  -2  -5  234.98   20.20
  -3   2   5  228.18   24.40
   2  -2  -5  285.17   19.60
   2  -2  -5  326.87   22.00
  -2   2   5  291.87   25.30
   1  -2  -5  930.71   44.00
   1  -2  -5  928.21   41.40
  -1   2   5  926.41   46.90
   0  -2  -5    2.90    8.90
   0  -2  -5    2.60    8.90
   0  -2  -5   -4.90   11.10
   0   2   5  -14.50   12.60
   0   2   5  -10.60    9.80
  -1  -2  -5    8.90    9.00
   1   2   5    4.20   14.20
  -2  -2  -5  135.99   17.80
   2   2   5  123.79   26.90
  -3  -2  -5  193.08   20.20
   3   2   5  146.79   31.30
  -4  -2  -5   95.89   16.90
   4   2   5   69.79   22.10
  -5  -2  -5   96.59   17.90
   5   2   5   89.59   22.70
   8  -3  -5   66.09   16.00
   8  -3  -5   59.99   15.20
   7  -3  -5   23.70   12.10
   7  -3  -5   21.90   12.90
  -7   3   5   40.70   17.00
   6  -3  -5  464.75   32.90
   6  -3  -5  535.15   29.90
  -6   3   5  569.84   36.60
   5  -3  -5  299.07   22.30
   5  -3  -5  304.27   25.60
  -5   3   5  345.97   31.40
   4  -3  -5    6.70   11.20
   4  -3  -5   15.30    9.20
  -4   3   5   24.70   14.10
   3  -3  -5   28.10   10.00
   3  -3  -5   42.40   11.80
  -3   3   5   32.50   14.10
   2  -3  -5 1206.78   56.19
   2  -3  -5 1227.68   52.39
  -2   3   5 1203.88   59.99
   1  -3  -5  651.13   35.50
   1  -3  -5  698.23   33.70
  -1   3   5  665.13   40.20
   0  -3  -5  238.38   19.30
   0  -3  -5  193.98   21.40
   0   3   5  253.87   28.20
  -1  -3  -5  306.57   21.70
   1   3   5  280.37   32.30
  -2  -3  -5  648.44   34.80
   2   3   5  698.13   44.10
  -3  -3  -5   54.49   14.10
   3   3   5   -0.40   19.10
  -4  -3  -5   35.60   16.50
  -5  -3  -5   23.10   18.70
   5   3   5    4.20   24.30
   7  -4  -5   31.80   13.60
  -7   4   5   22.40   19.10
   6  -4  -5  119.79   15.60
   6  -4  -5  112.99   22.60
  -6   4   5  154.08   30.10
   5  -4  -5  214.68   20.50
   5  -4  -5  176.78   24.00
  -5   4   5  259.97   31.60
   4  -4  -5  109.09   22.20
   4  -4  -5  129.99   17.00
   3  -4  -5  221.58   24.30
   3  -4  -5  216.48   19.10
   2  -4  -5   13.80    9.80
   2  -4  -5   19.50   12.60
  -2   4   5   24.70   15.00
   1  -4  -5  143.89   21.30
   1  -4  -5  156.38   18.10
  -1   4   5  143.79   27.20
   0  -4  -5  651.33   34.40
   0   4   5  731.83   43.70
  -1  -4  -5  468.05   27.80
   1   4   5  429.46   37.00
  -2  -4  -5   43.20   13.50
   2   4   5  -13.60   18.70
  -3  -4  -5   37.00   16.20
   3   4   5  -19.60   19.50
  -4  -4  -5   50.89   18.70
   4   4   5  -25.60   22.80
   6  -5  -5  114.29   21.40
   6  -5  -5  109.49   18.20
  -6   5   5  183.48   35.90
   5  -5  -5  268.27   28.40
   5  -5  -5  221.38   22.00
   4  -5  -5    4.00   11.00
  -4   5   5   32.30   19.30
   3  -5  -5  550.04   30.50
   3  -5  -5  505.45   36.70
  -3   5   5  613.44   41.40
   2  -5  -5  266.57   21.60
   2  -5  -5  310.77   28.30
  -2   5   5  312.17   32.90
   1  -5  -5   91.49   17.10
   1  -5  -5   95.79   16.10
  -1   5   5  145.09   30.10
   0  -5  -5  194.48   20.40
   1   5   5   22.10   20.00
  -2  -5  -5    2.00   15.80
   5  -6  -5   42.70   12.90
  -5   6   5   50.99   23.50
   4  -6  -5   94.19   19.20
   4  -6  -5  106.09   20.40
   3  -6  -5  420.76   36.70
   3  -6  -5  484.25   28.70
  -3   6   5  563.84   44.10
   2  -6  -5   60.89   17.80
   2  -6  -5   30.90   12.90
   1  -6  -5   19.00   13.10
   1  -6  -5    9.30   17.30
  -1   6   5   17.30   19.80
   0  -6  -5    6.90   14.20
   0   6   5   -2.20   19.90
  -1  -6  -5    0.70   16.30
   1   6   5    1.70   21.00
   2  10  -6   24.00   24.90
  -2 -10   6   10.20   16.80
   1  10  -6   -3.00   22.90
  -1 -10   6   54.29   17.50
   0  10  -6  186.88   37.60
   0 -10   6  191.08   26.90
  -1  10  -6  384.46   39.10
   1 -10   6  378.56   32.10
  -2  10  -6   74.99   22.90
   2 -10   6   87.29   17.90
   2 -10   6   89.89   13.10
   3 -10   6  -12.60   16.20
   3 -10   6   14.00   12.70
  -4  10  -6   25.60   21.20
   4 -10   6   14.00   13.00
   4 -10   6    4.00   17.80
   3   9  -6   24.40   20.80
   3   9  -6   28.60   19.30
  -3  -9   6   19.30   16.00
   2   9  -6  162.68   31.80
   2   9  -6   83.59   19.20
  -2  -9   6  135.99   23.70
   1   9  -6  296.77   32.80
  -1  -9   6  236.28   25.50
   0   9  -6   66.59   20.70
   0  -9   6   63.09   15.20
  -1   9  -6   35.90   19.30
   1  -9   6   71.49   15.70
  -2   9  -6  177.38   29.50
   2  -9   6   79.89   16.80
   2  -9   6  132.09   17.10
  -3   9  -6   33.50   19.40
   3  -9   6   22.50   15.80
   3  -9   6   29.70   10.90
  -4   9  -6  391.06   35.80
   4  -9   6  359.36   24.40
   4  -9   6  287.97   31.80
  -5   9  -6  206.78   34.00
   5  -9   6  217.38   22.00
   5   8  -6   70.39   23.00
   5   8  -6   59.59   19.30
  -5  -8   6   29.20   15.50
   4   8  -6   12.80   16.50
   4   8  -6   36.10   19.80
  -4  -8   6   26.10   15.00
   3   8  -6   66.89   16.80
   3   8  -6   97.79   19.80
  -3  -8   6  110.29   16.80
   2   8  -6  272.17   27.60
   2   8  -6  281.77   31.60
  -2  -8   6  268.57   24.60
   1   8  -6   95.29   18.60
  -1  -8   6  101.69   20.00
   0   8  -6   21.00   14.50
   0  -8   6  -11.20   11.70
  -1   8  -6  134.89   19.20
   1  -8   6  100.19   15.60
   1  -8   6  117.79   14.90
  -2   8  -6    2.80   15.10
   2  -8   6    1.10   13.40
   2  -8   6    3.80    9.10
  -3   8  -6 1091.29   49.40
  -3   8  -6  968.60   54.89
   3  -8   6 1113.09   46.80
   3  -8   6 1007.60   50.89
  -4   8  -6  527.05   40.60
  -4   8  -6  596.94   34.50
   4  -8   6  637.04   30.50
   4  -8   6  499.65   36.80
  -5   8  -6   30.60   18.90
  -5   8  -6   16.30   14.70
   5  -8   6   26.10   11.60
   5  -8   6    3.40   18.00
  -6   8  -6   37.90   15.70
   6  -8   6   34.50   20.20
   6   7  -6   -8.40   19.20
   5   7  -6   45.30   18.60
   5   7  -6   68.49   20.20
  -5  -7   6   49.30   15.80
   4   7  -6    7.10   16.10
   4   7  -6   -8.00   15.00
  -4  -7   6    6.90   13.10
   3   7  -6  231.98   25.80
   3   7  -6  252.07   26.90
  -3  -7   6  269.87   23.70
   2   7  -6  387.26   29.10
   2   7  -6  367.86   27.30
  -2  -7   6  339.17   25.10
   1   7  -6   80.59   15.70
  -1  -7   6   71.09   13.60
   0   7  -6  -15.40   12.50
   0  -7   6    5.00   10.70
  -1   7  -6  260.37   26.10
  -1   7  -6  314.47   21.50
   1  -7   6  292.47   24.40
   1  -7   6  310.17   18.00
  -2   7  -6  120.39   17.80
  -2   7  -6  123.79   23.70
   2  -7   6  134.09   14.20
   2  -7   6  124.49   21.60
  -3   7  -6  351.66   31.80
  -3   7  -6  410.36   25.70
   3  -7   6  435.46   22.80
   3  -7   6  369.46   29.30
  -4   7  -6  186.88   27.30
  -4   7  -6  164.18   19.90
   4  -7   6  147.39   25.20
   4  -7   6  180.88   15.60
  -5   7  -6   56.29   19.50
  -5   7  -6   75.99   13.20
   5  -7   6   41.50   17.90
   5  -7   6   83.99   15.00
  -6   7  -6  388.66   27.10
  -6   7  -6  312.47   40.80
   6  -7   6  281.37   35.10
   6  -7   6  411.46   23.10
   6   6  -6  198.08   31.40
   6   6  -6  214.78   33.00
  -6  -6   6  239.08   26.20
   5   6  -6  619.04   37.80
   5   6  -6  572.64   39.70
  -5  -6   6  592.24   34.70
   4   6  -6   65.89   16.80
   4   6  -6   47.00   14.60
  -4  -6   6   58.99   14.00
   3   6  -6   68.19   16.20
   3   6  -6  101.99   19.90
  -3  -6   6   97.69   18.00
   2   6  -6   16.80   13.40
   2   6  -6   22.30   10.80
  -2  -6   6   14.60   11.40
   1   6  -6   11.30   11.50
  -1  -6   6   20.90   10.50
   0   6  -6  297.07   24.00
   0  -6   6  292.07   22.90
  -1   6  -6  608.94   36.10
  -1   6  -6  630.44   30.40
   1  -6   6  628.34   33.40
   1  -6   6  614.24   28.80
  -2   6  -6    5.60   11.60
  -2   6  -6   17.20    9.70
   2  -6   6  -11.20   11.70
  -3   6  -6   92.99   16.30
  -3   6  -6   77.79   16.00
   3  -6   6   72.99   14.90
  -4   6  -6   15.10   15.10
  -4   6  -6   31.80   11.80
   4  -6   6    7.40   14.10
  -5   6  -6  214.58   31.80
  -5   6  -6  220.38   21.70
   5  -6   6  165.98   28.10
  -6   6  -6  346.37   27.20
  -6   6  -6  391.46   40.30
   6  -6   6  364.06   23.30
   6  -6   6  354.86   34.70
  -7   6  -6   32.80   16.10
  -7   6  -6   41.50   26.70
   7  -6   6    6.30   12.70
   7  -6   6   12.10   20.90
   7   5  -6  341.77   31.90
   7   5  -6  246.48   37.30
  -7  -5   6  288.27   29.80
   6   5  -6 1363.56   62.59
   6   5  -6 1166.18   62.29
  -6  -5   6 1198.48   56.99
   5   5  -6    7.90   16.30
   5   5  -6    7.80   13.50
  -5  -5   6   36.50   15.00
  -5  -5   6   19.60   12.00
   4   5  -6  105.59   17.70
   4   5  -6  151.68   22.40
  -4  -5   6  106.89   19.20
  -4  -5   6  155.38   24.60
   3   5  -6   13.10   12.60
   3   5  -6   19.20   11.50
  -3  -5   6   10.70   11.30
  -3  -5   6   22.50   10.60
   2   5  -6   -1.20   10.80
   2   5  -6   -3.80   10.00
  -2  -5   6   11.10   10.30
  -2  -5   6    4.30    9.40
   1   5  -6    9.70   10.70
  -1  -5   6   24.50    9.90
   0   5  -6 1183.38   54.69
   0  -5   6 1178.78   51.49
  -1   5  -6   97.39   14.20
  -1   5  -6  113.89   18.00
   1  -5   6  104.09   18.20
  -2   5  -6  137.79   20.60
  -2   5  -6  109.69   15.70
   2  -5   6  147.39   19.10
  -3   5  -6  -15.00    9.70
  -3   5  -6   11.60   12.90
   3  -5   6  -12.20   12.10
  -4   5  -6  113.59   18.90
  -4   5  -6  132.29   18.00
   4  -5   6  108.19   22.70
  -5   5  -6  129.09   18.80
  -5   5  -6  100.09   20.60
   5  -5   6  102.09   18.20
  -6   5  -6  339.77   26.90
  -6   5  -6  378.96   39.20
   6  -5   6  327.27   32.60
  -7   5  -6   17.30   24.20
  -7   5  -6    2.10   15.80
   7   4  -6  213.18   29.30
   7   4  -6  187.88   34.60
  -7  -4   6  265.37   31.20
  -7  -4   6  211.88   26.60
   6   4  -6   84.49   19.20
   6   4  -6  109.09   24.50
  -6  -4   6  114.39   21.00
  -6  -4   6  119.99   26.30
   5   4  -6  215.58   27.20
   5   4  -6  257.67   24.40
  -5  -4   6  210.28   22.90
  -5  -4   6  277.67   26.70
   4   4  -6  105.09   18.50
   4   4  -6  105.29   21.60
  -4  -4   6  137.69   18.00
  -4  -4   6  118.09   20.70
   3   4  -6  155.18   20.40
  -3  -4   6  159.48   17.90
  -3  -4   6  160.88   20.60
   2   4  -6  397.26   26.60
  -2  -4   6  415.96   24.30
  -2  -4   6  429.56   26.60
   1   4  -6  620.44   33.00
  -1  -4   6  611.94   31.40
  -1  -4   6  600.14   31.40
   0   4  -6  740.63   37.20
   0   4  -6  705.83   32.30
   0  -4   6  690.13   31.70
   0  -4   6  733.43   35.30
  -1   4  -6   -4.80    8.50
  -1   4  -6   13.00   10.20
   1  -4   6    7.60   10.10
  -2   4  -6   -3.90   10.60
  -2   4  -6   -6.50    8.40
   2  -4   6    2.80   10.50
  -3   4  -6  819.82   37.40
  -3   4  -6  758.82   41.80
   3  -4   6  811.52   40.20
  -4   4  -6  213.88   19.00
  -4   4  -6  199.08   26.40
   4  -4   6  197.68   24.10
  -5   4  -6   12.90   12.50
  -5   4  -6    5.80   16.40
   5  -4   6   24.60   16.30
  -6   4  -6   55.79   14.90
  -6   4  -6   89.19   22.10
   6  -4   6   78.49   19.10
  -7   4  -6   48.00   17.20
  -7   4  -6   51.19   23.90
   7  -4   6   48.00   21.30
   8   3  -6   52.09   22.20
   8   3  -6   92.39   18.30
  -8  -3   6   78.09   18.50
  -8  -3   6   54.39   19.50
   7   3  -6   13.70   14.50
   7   3  -6  -11.30   16.60
  -7  -3   6    5.10   13.30
  -7  -3   6   13.80   15.90
   6   3  -6   12.00   14.70
   6   3  -6    5.60   10.90
  -6  -3   6   13.00   12.70
  -6  -3   6    7.50   13.50
   5   3  -6  211.08   23.60
  -5  -3   6  229.98   21.50
  -5  -3   6  207.88   24.60
   4   3  -6 1279.17   59.19
  -4  -3   6 1255.77   54.09
  -4  -3   6 1285.07   60.39
   3   3  -6  710.23   37.00
  -3  -3   6  687.03   33.60
  -3  -3   6  685.63   36.50
   2   3  -6  265.27   21.30
  -2  -3   6  264.57   21.20
  -2  -3   6  247.18   19.40
   1   3  -6  224.28   19.60
   1   3  -6  207.98   17.90
  -1  -3   6  211.78   19.00
  -1  -3   6  220.28   18.90
   0   3  -6  110.69   14.00
   0   3  -6  105.99   17.00
   0  -3   6   80.89   17.30
   0  -3   6  130.49   11.60
  -1   3  -6  812.92   41.20
  -1   3  -6  849.22   37.00
   1  -3   6  830.22   39.40
  -2   3  -6  741.73   35.00
  -2   3  -6  766.62   38.60
   2  -3   6  771.42   37.50
  -3   3  -6  139.99   16.50
  -3   3  -6  132.19   21.80
   3  -3   6  128.39   19.90
  -4   3  -6   22.20   14.60
  -4   3  -6    4.20   11.70
   4  -3   6   16.40   14.40
  -5   3  -6   78.79   13.40
  -5   3  -6   70.89   17.80
   5  -3   6   76.29   16.80
  -6   3  -6   41.90   14.80
  -6   3  -6   56.49   20.20
   6  -3   6   56.79   18.20
  -7   3  -6  101.39   18.50
   7  -3   6   64.39   20.60
   8   2  -6    5.80   18.20
   8   2  -6   19.90   15.80
  -8  -2   6   36.70   16.50
  -8  -2   6   16.70   18.00
   7   2  -6   -6.80   14.50
  -7  -2   6    7.10   14.30
  -7  -2   6    4.40   14.10
   6   2  -6    0.70   12.80
  -6  -2   6   13.40   12.10
  -6  -2   6    5.60   13.10
   5   2  -6 1223.58   57.99
  -5  -2   6 1200.58   52.59
  -5  -2   6 1242.48   59.29
   4   2  -6 1046.30   50.09
  -4  -2   6 1043.80   46.10
  -4  -2   6 1093.29   51.69
   3   2  -6   36.30   10.50
  -3  -2   6   24.80   10.70
  -3  -2   6   39.70   10.30
   2   2  -6  964.70   45.60
  -2  -2   6  949.31   42.00
  -2  -2   6  948.51   45.50
   1   2  -6  512.65   24.00
   1   2  -6  493.65   28.20
  -1  -2   6  465.75   23.40
  -1  -2   6  496.85   27.10
  -1  -2   6  459.55   28.10
   0   2  -6  689.63   35.20
   0   2  -6  698.33   31.00
   0   2  -6  628.54   34.50
   0  -2   6  667.13   34.40
   0  -2   6  654.83   32.70
  -1   2  -6  778.52   40.80
  -1   2  -6  870.51   41.00
  -1   2  -6  820.02   37.00
   1  -2   6  855.11   39.30
  -2   2  -6  169.68   19.30
  -2   2  -6  149.19   16.00
   2  -2   6  152.98   19.20
  -3   2  -6   55.69   14.00
  -3   2  -6   52.09   10.70
   3  -2   6   55.79   12.90
  -4   2  -6   34.60   14.20
  -4   2  -6   28.50   11.40
   4  -2   6   35.00   14.30
  -5   2  -6   95.59   19.70
   5  -2   6   84.39   17.20
  -6   2  -6  362.66   29.00
   6  -2   6  392.86   31.70
  -7   2  -6  -10.00   19.00
   7  -2   6   55.59   20.40
   8   1  -6  130.19   22.30
   8   1  -6  121.49   27.10
  -8  -1   6  181.08   28.50
   7   1  -6  -15.10   14.00
  -7  -1   6    8.50   14.10
  -7  -1   6    3.90   14.30
   6   1  -6  242.78   25.40
  -6  -1   6  226.08   22.00
  -6  -1   6  300.47   27.30
   5   1  -6  238.78   23.10
  -5  -1   6  260.27   24.30
  -5  -1   6  201.48   20.00
   4   1  -6    5.90    9.90
  -4  -1   6   21.80    9.70
  -4  -1   6   11.10   11.10
   3   1  -6  181.08   19.60
   3   1  -6  198.98   18.60
  -3  -1   6  213.38   17.50
   2   1  -6 2655.33  110.19
   2   1  -6 2721.13  101.99
   2   1  -6 2496.15  101.39
  -2  -1   6 2727.23  101.99
  -2  -1   6 2666.03  111.39
  -2  -1   6 2446.46  101.39
   1   1  -6  236.28   16.70
   1   1  -6  208.68   17.00
   1   1  -6  225.08   20.00
  -1  -1   6  239.28   22.10
  -1  -1   6  243.48   19.40
   0   1  -6  167.28   18.70
   0   1  -6  143.39   14.50
   0  -1   6  166.98   20.30
   0  -1   6  111.69   18.40
  -1   1  -6  290.97   22.20
  -1   1  -6  256.77   18.70
   1  -1   6  257.87   23.50
   1  -1   6  265.57   21.50
  -2   1  -6   47.90   10.40
  -2   1  -6   52.29   11.90
   2  -1   6   57.79   13.30
   2  -1   6   59.09   13.90
  -3   1  -6   16.50   12.30
  -3   1  -6   17.60   10.60
   3  -1   6   33.90   13.40
   3  -1   6   11.60   15.80
  -4   1  -6  700.23   36.90
   4  -1   6  741.73   39.70
   4  -1   6  749.23   44.20
  -5   1  -6  238.48   23.10
   5  -1   6  223.48   25.40
   5  -1   6  218.78   35.20
  -6   1  -6   57.39   17.60
   6  -1   6   20.20   23.30
   6  -1   6   76.19   17.80
   8   0  -6  118.99   26.80
  -8   0   6  163.98   30.40
   7   0  -6  109.09   22.10
  -7   0   6   83.99   16.20
   6   0  -6    0.20   11.10
  -6   0   6    8.00   12.80
   5   0  -6  151.48   19.20
  -5   0   6  182.18   24.70
   4   0  -6    3.60    9.30
   4   0  -6    9.10    9.90
  -4   0   6   -1.00   10.80
   3   0  -6  400.86   25.60
   3   0  -6  380.86   22.60
  -3   0   6  374.16   28.30
   2   0  -6 1672.73   72.69
   2   0  -6 1662.23   67.29
  -2   0   6 1636.24   74.59
   1   0  -6  106.89   14.50
   1   0  -6  110.89   17.10
  -1   0   6  145.49   19.70
  -1   0   6  113.39   16.20
   0   0  -6  167.28   20.00
   0   0  -6  185.88   16.00
   0   0   6  156.98   18.60
   0   0   6  191.98   22.50
  -1   0  -6  263.27   23.20
  -1   0  -6  316.17   20.10
   1   0   6  285.97   23.70
   1   0   6  296.47   27.20
  -2   0  -6    4.20   10.20
   2   0   6   14.10   11.40
   2   0   6  -14.50   14.30
   2   0   6    9.30   13.10
  -3   0  -6  564.54   30.70
   3   0   6  558.94   33.40
   3   0   6  571.54   39.40
  -4   0  -6  586.94   34.10
   4   0   6  651.53   44.60
   4   0   6  675.83   37.80
  -5   0  -6   43.00   15.50
   5   0   6    3.20   21.80
  -6   0  -6    0.50   17.40
   6   0   6   -9.70   24.90
   8  -1  -6   68.89   16.70
  -8   1   6   68.39   19.10
   7  -1  -6  101.09   15.80
  -7   1   6   94.69   16.90
   6  -1  -6   12.60   11.90
  -6   1   6   32.90   14.50
   5  -1  -6  505.75   28.50
   5  -1  -6  516.25   31.40
  -5   1   6  540.45   34.30
   4  -1  -6  296.57   23.30
   4  -1  -6  298.77   20.80
  -4   1   6  311.17   27.50
   3  -1  -6  201.08   19.90
   3  -1  -6  202.48   18.30
  -3   1   6  156.78   23.30
   2  -1  -6   67.59   12.40
   2  -1  -6   83.09   15.40
  -2   1   6   95.89   21.30
   1  -1  -6   20.10    9.50
   1  -1  -6   13.80    9.60
  -1   1   6   10.20   13.00
   0  -1  -6  339.77   21.90
   0  -1  -6  342.97   24.40
   0   1   6  310.27   28.50
   0   1   6  332.17   23.50
  -1  -1  -6  461.65   26.30
  -1  -1  -6  414.86   29.00
   1   1   6  461.25   28.90
   1   1   6  476.85   34.40
  -2  -1  -6   98.09   16.10
   2   1   6   50.79   19.00
   2   1   6   69.09   15.20
  -3  -1  -6  492.25   29.60
   3   1   6  470.25   39.90
   3   1   6  527.35   33.30
  -4  -1  -6   57.89   14.70
   4   1   6   11.30   21.70
  -5  -1  -6  -13.10   16.00
   7  -2  -6   21.40   13.40
   7  -2  -6   60.59   14.50
  -7   2   6   44.70   17.20
   6  -2  -6  276.47   25.10
   6  -2  -6  295.67   23.40
  -6   2   6  312.17   30.70
   5  -2  -6  768.52   42.40
   5  -2  -6  822.82   38.80
  -5   2   6  804.52   46.50
   4  -2  -6    3.90    9.90
   4  -2  -6   -0.30   10.50
  -4   2   6    0.70   13.00
   3  -2  -6  357.36   23.30
   3  -2  -6  297.97   25.10
  -3   2   6  366.96   31.30
   2  -2  -6   39.30   12.00
   2  -2  -6   40.70   11.40
  -2   2   6   33.50   14.80
   1  -2  -6   43.30   10.70
   1  -2  -6   46.80   13.10
  -1   2   6   62.39   15.00
   0  -2  -6  402.16   24.70
   0  -2  -6  400.66   27.60
   0   2   6  398.36   33.90
  -1  -2  -6  804.72   38.90
   1   2   6  805.52   40.90
   1   2   6  829.52   47.50
  -2  -2  -6   15.80   11.30
   2   2   6   48.60   14.90
   2   2   6    1.80   19.10
   3   2   6   55.29   21.20
  -4  -2  -6   26.70   16.60
   4   2   6   -6.00   22.60
  -5  -2  -6   33.60   19.20
   5   2   6  -21.60   26.50
   7  -3  -6   65.19   14.90
   7  -3  -6   49.30   14.50
  -7   3   6   74.09   20.70
   6  -3  -6  162.38   21.10
   6  -3  -6  159.18   23.30
  -6   3   6  223.38   28.90
   5  -3  -6  233.18   22.30
   5  -3  -6  214.58   24.90
  -5   3   6  224.08   32.40
   4  -3  -6    7.70   11.00
   4  -3  -6    9.80   12.40
  -4   3   6   -9.20   15.10
   3  -3  -6  101.89   21.90
   3  -3  -6  135.09   17.90
  -3   3   6  176.08   28.40
   2  -3  -6  158.38   23.00
   2  -3  -6  178.58   18.90
  -2   3   6  193.98   28.90
   1  -3  -6  107.09   23.00
   1  -3  -6  147.99   17.20
  -1   3   6  133.29   26.60
   0  -3  -6  178.78   19.20
   0  -3  -6  170.98   23.00
   0   3   6  157.88   29.70
  -1  -3  -6   50.09   12.70
   1   3   6   78.59   18.70
   1   3   6   87.59   17.40
  -2  -3  -6  182.18   21.50
   2   3   6  128.79   22.90
  -3  -3  -6  462.45   29.80
   3   3   6  367.86   42.00
   6  -4  -6  196.78   26.00
   6  -4  -6  201.68   23.40
  -6   4   6  162.38   36.20
   5  -4  -6   -3.00   13.90
   5  -4  -6   -5.20   12.70
  -5   4   6   32.30   17.80
   4  -4  -6   49.40   15.30
   4  -4  -6   66.29   12.70
  -4   4   6   54.19   19.70
   3  -4  -6  441.36   27.90
   3  -4  -6  433.86   33.40
  -3   4   6  561.24   38.80
   2  -4  -6  521.15   36.00
   2  -4  -6  531.35   30.70
  -2   4   6  559.84   41.20
   1  -4  -6  -11.30   10.70
  -1   4   6    6.40   17.10
   0  -4  -6   43.10   12.40
   0   4   6   59.69   20.10
  -1  -4  -6  186.58   21.70
   1   4   6  226.48   31.60
   2   4   6   47.20   21.00
   5  -5  -6  111.39   18.90
   5  -5  -6   97.39   16.50
   4  -5  -6  234.78   29.90
   4  -5  -6  206.68   22.30
  -4   5   6  307.17   40.30
   3  -5  -6  316.37   31.10
   3  -5  -6  283.27   24.00
   2  -5  -6  -10.80   16.40
  -2   5   6   41.50   20.20
   1  -5  -6  125.49   19.40
   1  -5  -6  108.39   20.30
   0  -5  -6   31.70   13.90
   0   5   6   76.79   22.20
  -1  -5  -6    7.10   15.50
   1   5   6   64.89   21.50
   1  10  -7  158.98   26.70
  -1 -10   7  218.68   27.80
   0  10  -7  265.57   39.20
   0 -10   7  216.48   28.30
  -1  10  -7    4.70   22.00
   1 -10   7   14.60   16.80
  -2  10  -7  109.89   23.50
   2 -10   7  117.89   20.50
   2 -10   7   90.19   18.40
  -3  10  -7  143.99   24.70
   3 -10   7  164.08   21.70
   3 -10   7  171.48   30.20
   3   9  -7  142.29   31.70
   3   9  -7  110.29   24.40
   2   9  -7  320.47   36.80
  -2  -9   7  288.47   27.80
   1   9  -7    9.80   18.00
  -1  -9   7   17.90   14.60
   0   9  -7  233.68   31.60
   0  -9   7  156.38   24.90
  -1   9  -7  379.86   37.20
   1  -9   7  393.76   30.10
  -2   9  -7  166.78   23.10
   2  -9   7  188.88   19.60
   2  -9   7  155.48   26.50
  -3   9  -7   51.99   19.90
   3  -9   7   56.49   17.40
   3  -9   7   69.49   12.80
  -4   9  -7   69.79   21.70
   4  -9   7   78.19   13.90
   4  -9   7   63.19   19.10
   4   8  -7  214.88   31.20
   4   8  -7  124.79   21.10
  -4  -8   7  188.48   25.20
   3   8  -7   68.29   18.60
   3   8  -7    6.40   17.40
  -3  -8   7   38.50   14.60
   2   8  -7   -7.60   16.60
  -2  -8   7    2.80   12.10
   1   8  -7  795.52   47.30
  -1  -8   7  794.72   41.50
   0   8  -7  497.25   36.90
   0  -8   7  489.25   30.90
  -1   8  -7   22.30   15.60
   1  -8   7   12.10    9.50
   1  -8   7   28.30   14.20
  -2   8  -7   27.50   17.10
  -2   8  -7   12.30   12.90
   2  -8   7    4.00   14.10
   2  -8   7   27.90    9.70
  -3   8  -7   76.09   15.40
  -3   8  -7   52.29   19.00
   3  -8   7   70.59   17.00
   3  -8   7   75.99   15.70
  -4   8  -7   69.19   15.60
   4  -8   7   69.49   12.20
  -5   8  -7   95.69   17.00
  -5   8  -7  104.89   22.50
   5  -8   7   49.99   20.10
   5  -8   7   94.49   19.20
   5   7  -7  143.99   21.50
  -5  -7   7  157.08   25.40
   4   7  -7  -16.20   17.70
   4   7  -7  -16.80   15.60
  -4  -7   7   -4.40   13.80
   3   7  -7   26.60   15.20
   3   7  -7   32.90   14.40
  -3  -7   7   36.70   12.70
   2   7  -7  375.06   29.70
   2   7  -7  352.06   27.40
  -2  -7   7  352.06   26.30
   1   7  -7  316.47   26.90
  -1  -7   7  262.07   24.10
   0   7  -7   34.30   14.70
   0  -7   7   36.20   13.20
  -1   7  -7   88.89   16.50
  -1   7  -7   60.49   12.60
   1  -7   7   68.99   12.80
   1  -7   7  100.99   20.70
  -2   7  -7   29.20   14.50
  -2   7  -7    9.60   11.60
   2  -7   7   18.90   13.80
  -3   7  -7   26.40   16.90
  -3   7  -7  -11.00   12.30
   3  -7   7   10.00    9.10
  -4   7  -7  261.87   24.60
  -4   7  -7  238.98   32.40
   4  -7   7  261.77   19.50
   4  -7   7  234.08   28.30
  -5   7  -7  210.78   23.50
  -5   7  -7  181.88   26.50
   5  -7   7  148.59   29.30
   5  -7   7  200.88   19.20
  -6   7  -7  129.09   25.70
  -6   7  -7  105.19   17.00
   6  -7   7   73.99   13.50
   6  -7   7  101.29   23.10
   6   6  -7   15.30   17.50
   6   6  -7    4.10   20.90
  -6  -6   7   15.20   15.10
   5   6  -7   28.50   18.50
   5   6  -7   43.80   15.90
  -5  -6   7   65.99   15.20
   4   6  -7   45.30   16.20
   4   6  -7   17.30   15.30
  -4  -6   7   61.19   16.00
  -4  -6   7   44.60   13.40
   3   6  -7   82.79   16.30
   3   6  -7   79.79   15.50
  -3  -6   7   94.19   18.60
  -3  -6   7  115.79   25.10
   2   6  -7  439.36   31.60
   2   6  -7  484.65   29.70
  -2  -6   7  440.06   29.40
  -2  -6   7  463.05   31.30
   1   6  -7   99.09   19.90
  -1  -6   7   90.19   18.40
   0  -6   7   87.39   14.30
  -1   6  -7  154.28   18.00
  -1   6  -7  165.28   23.30
   1  -6   7  176.78   21.80
  -2   6  -7  969.30   51.59
  -2   6  -7 1031.90   45.20
   2  -6   7  964.00   47.70
  -3   6  -7   69.79   15.70
  -3   6  -7   62.09   13.00
   3  -6   7   51.89   15.10
  -4   6  -7  203.98   21.80
  -4   6  -7  153.38   22.80
   4  -6   7  163.68   25.80
  -5   6  -7   30.70   14.30
  -5   6  -7   42.90   20.10
   5  -6   7   -2.80   17.00
  -6   6  -7   31.20   24.30
  -6   6  -7   36.60   15.80
   6  -6   7   -2.90   19.70
   6   5  -7   16.20   16.80
  -6  -5   7   -2.20   17.00
  -6  -5   7    7.20   15.10
   5   5  -7   66.69   18.10
   5   5  -7   87.29   17.20
  -5  -5   7   66.69   15.50
  -5  -5   7   69.39   17.20
   4   5  -7  445.16   31.10
   4   5  -7  408.66   32.10
  -4  -5   7  439.36   33.00
  -4  -5   7  413.46   28.50
   3   5  -7   98.69   22.20
   3   5  -7  130.09   19.20
  -3  -5   7  117.09   19.20
  -3  -5   7  131.59   22.40
   2   5  -7   40.70   11.20
   2   5  -7   52.69   13.40
  -2  -5   7   57.59   12.40
  -2  -5   7   36.00   11.80
   1   5  -7  108.09   20.40
  -1  -5   7  115.69   19.10
   0   5  -7   31.50    9.90
   0   5  -7   44.50   12.00
   0  -5   7   45.40   12.80
  -1   5  -7 1262.47   51.79
  -1   5  -7 1136.09   56.49
   1  -5   7 1214.68   54.69
  -2   5  -7  551.04   36.60
  -2   5  -7  581.74   31.10
   2  -5   7  646.94   34.50
  -3   5  -7    4.40   14.10
  -3   5  -7   10.90   12.20
   3  -5   7    5.60   14.20
  -4   5  -7    3.50   16.50
  -4   5  -7   13.50   12.20
   4  -5   7   -2.30   15.30
  -5   5  -7  -17.10   13.20
  -5   5  -7   35.70   19.30
   5  -5   7  -21.20   16.40
  -6   5  -7   55.19   15.80
  -6   5  -7   12.40   23.10
   6  -5   7   23.90   20.20
   7   4  -7    4.20   17.50
   7   4  -7  -26.20   20.70
  -7  -4   7   25.90   16.60
  -7  -4   7   21.20   17.80
   6   4  -7  230.18   26.80
  -6  -4   7  221.68   28.60
  -6  -4   7  162.68   24.30
   5   4  -7  435.36   34.20
   5   4  -7  510.35   31.70
  -5  -4   7  452.65   30.20
  -5  -4   7  499.95   34.00
   4   4  -7  133.29   22.60
  -4  -4   7  128.99   19.70
  -4  -4   7  131.39   24.10
   3   4  -7   -5.60   11.70
  -3  -4   7   -4.60   11.90
   2   4  -7   92.19   15.00
  -2  -4   7   92.89   18.10
  -2  -4   7   93.19   19.70
   1   4  -7    0.10   10.50
  -1  -4   7   -2.10   11.00
  -1  -4   7  -11.00   10.20
   0   4  -7  539.35   32.70
   0   4  -7  549.35   27.40
   0  -4   7  542.65   31.30
  -1   4  -7 1261.17   53.09
  -1   4  -7 1214.68   58.19
   1  -4   7 1263.77   55.59
  -2   4  -7  165.88   23.20
  -2   4  -7  163.28   18.20
   2  -4   7  180.88   22.20
  -3   4  -7  107.39   18.10
  -3   4  -7  117.79   18.90
   3  -4   7  119.09   22.40
  -4   4  -7  509.55   30.40
  -4   4  -7  470.15   37.00
   4  -4   7  550.84   34.40
  -5   4  -7   41.40   14.30
  -5   4  -7   59.09   19.50
   5  -4   7   39.00   18.00
  -6   4  -7   68.69   24.50
  -6   4  -7   66.99   16.10
   7   3  -7  375.56   29.40
   7   3  -7  348.27   34.90
  -7  -3   7  400.46   32.70
  -7  -3   7  314.67   30.00
  -6  -3   7    1.40   13.80
  -6  -3   7  -11.70   13.90
   5   3  -7  221.68   24.60
  -5  -3   7  238.28   22.90
  -5  -3   7  198.98   28.00
   3   3  -7  -13.80   11.60
  -3  -3   7  -14.80   11.10
  -3  -3   7   -3.40   10.70
   2   3  -7  251.57   22.20
  -2  -3   7  196.98   23.80
  -2  -3   7  241.58   21.50
   1   3  -7 1008.10   48.40
   1   3  -7 1003.10   42.40
  -1  -3   7 1006.60   45.40
  -1  -3   7 1022.40   47.40
  -1  -3   7  895.91   42.80
   0   3  -7   81.19   14.00
   0   3  -7   77.79   14.80
   0  -3   7   99.09   19.20
  -1   3  -7  389.66   24.10
  -1   3  -7  403.46   28.50
   1  -3   7  424.76   27.80
  -2   3  -7   43.50   12.70
  -2   3  -7   66.09   12.40
   2  -3   7   25.80   12.90
  -3   3  -7  697.73   34.20
  -3   3  -7  570.24   39.30
   3  -3   7  719.43   37.50
  -4   3  -7  436.86   35.40
  -4   3  -7  521.15   29.10
   4  -3   7  452.65   33.60
  -5   3  -7   11.70   14.30
  -5   3  -7   38.60   18.50
   5  -3   7   -2.00   17.20
  -6   3  -7   30.70   16.00
  -6   3  -7   24.70   22.70
   6  -3   7   24.90   19.50
   7   2  -7   68.19   16.40
  -7  -2   7   55.39   17.10
  -7  -2   7   31.40   16.20
   6   2  -7  103.79   20.90
  -6  -2   7   79.59   16.40
  -6  -2   7   83.89   15.50
   5   2  -7   -1.10   11.80
  -5  -2   7    4.70   12.50
  -4  -2   7  116.49   23.00
  -4  -2   7  134.09   18.50
   3   2  -7  547.25   32.00
  -3  -2   7  547.45   29.90
  -3  -2   7  550.74   34.40
   2   2  -7 1305.57   59.99
   2   2  -7 1272.37   53.39
  -2  -2   7 1280.27   55.19
  -2  -2   7 1282.07   60.29
   1   2  -7  122.49   15.60
   1   2  -7  106.09   19.00
  -1  -2   7  113.29   20.30
  -1  -2   7  113.79   20.10
   0   2  -7   29.90    9.70
   0   2  -7    0.00   11.70
   0  -2   7   16.40   12.30
   0  -2   7   11.40   12.00
  -1   2  -7   30.60   10.30
  -1   2  -7   11.00   12.30
   1  -2   7   -8.00   12.60
   1  -2   7    7.80   11.80
  -2   2  -7  326.07   27.50
  -2   2  -7  378.26   24.00
   2  -2   7  362.76   27.40
  -3   2  -7   72.99   16.10
   3  -2   7   52.49   16.30
  -4   2  -7   94.59   19.20
  -4   2  -7  115.69   25.60
   4  -2   7   57.79   16.80
  -5   2  -7    5.80   14.20
   5  -2   7  -22.70   17.40
  -6   2  -7   52.29   18.10
   6  -2   7   19.60   20.40
   7   1  -7   22.20   15.90
  -7  -1   7   80.19   16.50
   6   1  -7  165.48   24.10
  -6  -1   7  205.48   28.00
   5   1  -7  356.86   27.80
  -5  -1   7  393.16   31.00
   4   1  -7  228.28   22.30
  -4  -1   7  216.28   25.80
   3   1  -7  284.37   21.00
   3   1  -7  294.87   23.30
  -3  -1   7  288.07   26.60
  -3  -1   7  284.47   22.10
   2   1  -7  351.56   22.40
   2   1  -7  368.26   25.30
  -2  -1   7  366.16   28.10
  -2  -1   7  340.47   24.70
   1   1  -7  108.69   20.60
   1   1  -7  126.39   16.30
  -1  -1   7  153.38   20.60
  -1  -1   7  171.28   24.30
   0   1  -7   25.70   13.20
   0   1  -7   34.80   10.00
   0  -1   7   42.60   13.40
   0  -1   7   44.00   13.40
  -1   1  -7  440.96   26.60
  -1   1  -7  431.46   30.20
   1  -1   7  455.25   31.90
   1  -1   7  446.86   28.60
  -2   1  -7   22.60   14.50
  -2   1  -7   43.00   11.20
   2  -1   7   38.30   16.60
   2  -1   7   17.70   15.60
  -3   1  -7   10.00   12.00
  -3   1  -7   15.20   14.50
   3  -1   7   16.70   16.10
   3  -1   7   21.40   17.80
  -4   1  -7  177.98   21.10
   4  -1   7  223.68   28.30
   4  -1   7  138.19   23.60
  -5   1  -7   22.30   15.50
   5  -1   7   -2.80   22.70
   5  -1   7   35.50   18.50
   7   0  -7   69.89   17.10
  -7   0   7   79.49   17.50
   6   0  -7  171.18   24.70
  -6   0   7  247.48   27.80
   5   0  -7  324.47   27.30
  -5   0   7  345.97   31.10
   4   0  -7   50.79   12.40
   4   0  -7   47.50   12.80
  -4   0   7   54.59   15.20
   3   0  -7    1.10   10.20
  -3   0   7   -0.10   13.20
   2   0  -7   10.60   10.20
   2   0  -7    6.90   11.10
  -2   0   7  -15.90   13.20
   1   0  -7  330.27   23.10
   1   0  -7  352.06   26.10
  -1   0   7  352.06   29.80
  -1   0   7  350.66   25.70
   0   0  -7  484.35   27.80
   0   0  -7  513.35   32.20
   0   0   7  476.65   31.00
   0   0   7  486.85   35.30
  -1   0  -7  588.94   30.00
  -1   0  -7  520.25   35.10
   1   0   7  566.24   33.70
   1   0   7  551.04   38.40
  -2   0  -7   65.29   13.00
  -2   0  -7   28.00   15.10
   2   0   7   41.80   17.30
   2   0   7   52.69   18.90
  -3   0  -7   32.70   12.60
   3   0   7  -10.30   19.70
   3   0   7   10.30   17.60
  -4   0  -7  104.09   21.70
   4   0   7   87.89   20.80
   4   0   7   46.10   23.30
  -5   0  -7   71.99   18.20
   5   0   7   91.99   26.70
   5   0   7  122.39   22.20
   7  -1  -7  125.69   22.90
   6  -1  -7   37.50   13.10
   6  -1  -7   24.80   13.70
  -6   1   7   32.50   16.20
   5  -1  -7   11.90   12.50
   5  -1  -7    9.50   12.60
  -5   1   7   35.10   13.90
   4  -1  -7  -12.80   11.30
   4  -1  -7    0.10   12.20
  -4   1   7   -8.30   14.90
   3  -1  -7  209.28   20.70
   3  -1  -7  167.18   23.50
  -3   1   7  218.58   27.90
   2  -1  -7  522.05   32.70
   2  -1  -7  515.55   29.70
  -2   1   7  544.45   37.10
   1  -1  -7  821.62   43.90
   1  -1  -7  843.12   40.20
  -1   1   7  862.51   47.90
   0  -1  -7  269.07   21.90
   0  -1  -7  302.07   28.20
   0   1   7  271.27   25.80
   0   1   7  337.57   30.70
  -1  -1  -7   15.50   11.40
  -1  -1  -7    8.00   14.50
   1   1   7  -19.90   15.20
   1   1   7   21.10   18.10
  -2  -1  -7   48.60   12.30
   2   1   7   27.60   17.80
   2   1   7   44.50   19.20
  -3  -1  -7  216.48   23.60
   3   1   7  137.29   24.60
   3   1   7  168.78   29.60
  -4  -1  -7  244.68   27.00
   4   1   7  340.07   34.50
   6  -2  -7   33.10   13.70
  -6   2   7   34.00   16.20
   5  -2  -7   -2.80   12.60
   5  -2  -7   15.70   12.50
  -5   2   7   17.10   16.80
   4  -2  -7  324.67   28.30
   4  -2  -7  393.06   27.20
  -4   2   7  442.76   35.00
   3  -2  -7  464.95   28.40
   3  -2  -7  396.76   32.70
  -3   2   7  452.65   37.00
   2  -2  -7  240.58   26.60
   2  -2  -7  254.47   22.00
  -2   2   7  327.87   31.40
   1  -2  -7   12.80   13.00
   1  -2  -7   23.20   10.80
  -1   2   7   37.50   16.80
   0  -2  -7   12.30   14.30
   0  -2  -7   22.00   12.20
   0   2   7   14.60   17.50
  -1  -2  -7   22.70   12.20
   1   2   7   32.00   20.00
   1   2   7   38.10   18.70
  -2  -2  -7  393.06   27.00
   2   2   7  394.66   35.30
   2   2   7  462.85   39.20
  -3  -2  -7  235.48   26.50
   3   2   7  302.17   33.60
   3   2   7  187.48   39.80
   6  -3  -7  124.89   17.30
   6  -3  -7  107.09   18.30
   5  -3  -7  133.59   25.80
   5  -3  -7  171.48   22.80
  -5   3   7  202.88   34.50
   4  -3  -7  188.68   23.20
   4  -3  -7  224.58   27.10
  -4   3   7  285.97   33.70
   3  -3  -7  -11.80   12.50
   3  -3  -7   -0.90   14.30
  -3   3   7   44.30   18.90
   2  -3  -7   23.20   11.50
  -2   3   7   46.30   18.50
   1  -3  -7   52.19   16.30
   1  -3  -7   53.59   12.30
   0  -3  -7   73.19   17.60
   0  -3  -7   74.99   14.00
   0   3   7   65.99   20.10
  -1  -3  -7  404.06   26.70
   1   3   7  383.86   39.70
   1   3   7  382.36   35.90
  -2  -3  -7  382.66   29.10
   2   3   7  446.56   39.50
   2   3   7  500.75   41.30
   4  -4  -7  -11.50   16.40
  -4   4   7   -0.70   21.20
   3  -4  -7    3.50   13.30
   3  -4  -7   -1.70   16.50
   2  -4  -7   86.69   14.60
   2  -4  -7   58.29   19.00
   1  -4  -7  166.98   30.30
   1  -4  -7  160.68   21.50
   0  -4  -7   65.89   14.40
   0   4   7   53.29   21.30
   0 -10   8  172.28   28.20
  -1  10  -8  213.08   38.50
   1 -10   8  230.78   29.10
  -2  10  -8   74.89   23.10
   2 -10   8   52.19   14.10
   2 -10   8   55.89   18.00
   3   9  -8   57.99   19.90
   3   9  -8  103.09   23.80
   2   9  -8  285.47   38.00
  -2  -9   8  379.66   28.40
   1   9  -8  216.18   34.10
  -1  -9   8  218.88   25.70
   0   9  -8   61.09   20.00
   0  -9   8   85.39   16.70
  -1   9  -8   77.09   19.70
   1  -9   8   13.70   14.90
  -2   9  -8   60.39   20.60
  -2   9  -8   28.40   16.50
   2  -9   8    3.60   15.70
  -3   9  -8   38.00   20.60
  -3   9  -8   56.19   17.60
   3  -9   8   77.29   13.70
   3  -9   8   17.50   17.50
  -4   9  -8  -16.30   17.50
   4  -9   8  -19.70   18.40
   4   8  -8  191.78   33.20
   4   8  -8  234.78   32.00
  -4  -8   8  226.18   27.60
   3   8  -8  184.88   28.30
   3   8  -8  136.59   20.40
   2   8  -8  200.78   27.80
   1   8  -8  268.87   31.30
  -1  -8   8  231.98   25.20
   0   8  -8  -18.00   16.80
   0  -8   8    5.30   12.90
  -1   8  -8   18.80   17.20
   1  -8   8   -2.10   14.10
   1  -8   8   24.50   10.30
  -2   8  -8   52.09   14.90
   2  -8   8   63.69   11.10
   2  -8   8   26.10   15.60
  -3   8  -8  137.29   23.70
   3  -8   8  118.99   20.00
   3  -8   8  143.19   17.90
  -4   8  -8  126.89   24.00
  -4   8  -8   98.89   17.10
   4  -8   8   31.40   19.40
   4  -8   8   70.09   12.90
  -5   8  -8   55.99   26.30
   5   7  -8   87.99   22.10
   5   7  -8  104.89   20.60
  -5  -7   8  120.09   18.80
   4   7  -8  124.39   27.30
  -4  -7   8  140.19   23.70
   3   7  -8   57.89   17.60
   3   7  -8   82.19   16.90
  -3  -7   8   78.19   14.60
   2   7  -8   83.99   16.90
  -2  -7   8   67.19   14.90
   1   7  -8   31.80   14.40
  -1  -7   8   49.90   14.00
   0   7  -8  177.88   25.70
   0  -7   8  154.48   23.30
  -1   7  -8  169.68   20.50
  -1   7  -8  125.09   27.00
   1  -7   8  118.69   22.20
  -2   7  -8  312.27   25.50
  -2   7  -8  293.07   30.60
   2  -7   8  279.27   27.60
  -3   7  -8  271.87   25.70
  -3   7  -8  329.47   34.00
   3  -7   8  218.48   27.80
  -4   7  -8  114.59   23.20
  -4   7  -8   53.29   22.40
   4  -7   8   66.79   18.20
  -5   7  -8   58.69   23.50
  -5   7  -8   52.49   16.60
   5  -7   8    7.90   19.60
   5   6  -8  124.39   20.90
   5   6  -8  104.29   21.60
  -5  -6   8  175.98   32.70
  -5  -6   8  102.39   18.30
   4   6  -8  286.27   29.80
   4   6  -8  367.26   33.20
  -4  -6   8  326.97   27.70
  -4  -6   8  357.76   34.60
   3   6  -8   33.50   15.10
   3   6  -8   15.40   15.00
  -3  -6   8   19.50   15.00
  -3  -6   8   15.60   12.80
   2   6  -8  451.75   33.40
  -2  -6   8  489.85   33.10
  -2  -6   8  474.45   30.90
   1   6  -8  349.37   28.90
  -1  -6   8  400.16   27.10
   0   6  -8   74.39   15.20
   0  -6   8  110.19   21.00
  -1   6  -8  332.77   25.40
  -1   6  -8  361.16   29.90
   1  -6   8  360.96   28.40
  -2   6  -8  293.97   24.60
  -2   6  -8  294.67   31.40
   2  -6   8  271.27   27.50
  -3   6  -8   29.40   17.70
  -3   6  -8    7.40   13.60
   3  -6   8    6.90   15.30
  -4   6  -8   63.49   15.70
  -4   6  -8   49.00   20.80
   4  -6   8   30.40   17.70
  -5   6  -8  267.07   37.50
  -5   6  -8  212.28   25.30
   6   5  -8  118.69   22.60
  -6  -5   8  126.99   19.90
  -6  -5   8  160.98   32.50
   5   5  -8   28.80   15.30
   5   5  -8   15.20   17.10
  -5  -5   8   35.40   17.10
  -5  -5   8   16.90   15.60
   4   5  -8   37.40   14.70
   4   5  -8   21.90   16.40
  -4  -5   8   48.70   14.20
  -4  -5   8   38.70   15.20
   3   5  -8  893.81   48.80
  -3  -5   8  936.41   48.70
  -3  -5   8  899.31   44.60
   2   5  -8  949.60   49.50
  -2  -5   8  998.50   49.50
  -2  -5   8  963.90   46.50
   1   5  -8   74.59   15.50
  -1  -5   8   71.99   15.30
   0   5  -8   -6.00   12.90
   0   5  -8    6.40   10.90
   0  -5   8    4.70   13.40
  -1   5  -8   26.90   12.80
  -1   5  -8   50.99   14.30
   1  -5   8   15.60   14.50
  -2   5  -8   78.79   17.30
  -2   5  -8   70.49   13.80
   2  -5   8   75.09   15.80
  -3   5  -8  180.98   22.40
  -3   5  -8  178.58   30.90
   3  -5   8  146.59   26.30
  -4   5  -8  253.17   35.10
  -4   5  -8  183.78   23.50
   4  -5   8  176.78   28.40
  -5   5  -8  271.77   25.90
  -5   5  -8  239.78   37.30
   5  -5   8  234.78   31.50
   6   4  -8   22.40   15.30
   6   4  -8   16.40   18.20
  -6  -4   8   21.60   15.80
  -6  -4   8   13.20   17.10
   5   4  -8  152.98   25.70
  -5  -4   8  157.78   24.20
  -5  -4   8  153.78   29.10
   4   4  -8  168.98   24.30
  -4  -4   8  174.88   28.90
  -4  -4   8  231.38   22.60
   3   4  -8  465.65   32.50
  -3  -4   8  513.95   34.60
  -3  -4   8  490.65   31.30
   2   4  -8   20.30   14.10
  -2  -4   8   35.00   14.20
  -2  -4   8   55.49   14.40
   1   4  -8   54.49   13.90
  -1  -4   8   31.10   14.00
  -1  -4   8   27.00   13.80
   0   4  -8  152.88   24.10
   0   4  -8  196.18   19.10
   0  -4   8  158.88   24.60
  -1   4  -8  140.09   18.90
  -1   4  -8   95.59   16.80
   1  -4   8  146.39   23.30
  -2   4  -8   61.39   16.50
  -2   4  -8   82.99   13.80
   2  -4   8   65.49   16.80
  -3   4  -8  578.84   32.20
  -3   4  -8  554.54   39.20
   3  -4   8  469.55   35.30
  -4   4  -8  253.27   24.70
  -4   4  -8  283.37   33.40
   4  -4   8  212.18   27.40
  -5   4  -8   45.60   15.80
  -5   4  -8   43.60   21.80
   5  -4   8   20.30   19.40
   7   3  -8   53.49   18.10
   7   3  -8   16.30   18.50
  -7  -3   8   63.79   18.10
  -7  -3   8   56.79   17.50
   6   3  -8   19.60   16.30
  -6  -3   8   46.80   17.20
  -6  -3   8   42.50   15.70
   5   3  -8  327.07   29.20
  -5  -3   8  316.57   27.40
  -5  -3   8  343.87   32.30
   4   3  -8  256.47   27.70
  -4  -3   8  285.87   24.20
  -4  -3   8  320.37   30.50
   3   3  -8   -2.40   12.80
  -3  -3   8    4.10   13.70
  -3  -3   8  -10.20   12.50
   2   3  -8   92.49   15.70
  -2  -3   8   83.69   16.20
  -2  -3   8   93.39   15.40
   1   3  -8   21.30   10.90
   1   3  -8   -0.20   13.30
  -1  -3   8   -2.90   14.00
  -1  -3   8   -6.60   13.20
   0   3  -8 1366.26   56.19
   0   3  -8 1233.08   61.89
   0  -3   8 1312.17   58.99
  -1   3  -8  380.86   24.90
  -1   3  -8  319.87   29.60
   1  -3   8  369.96   29.70
  -2   3  -8   89.59   14.10
  -2   3  -8  127.49   24.70
   2  -3   8   77.69   17.30
  -3   3  -8   -0.10   12.70
  -3   3  -8  -16.20   17.20
   3  -3   8   17.90   17.00
  -4   3  -8   34.90   19.00
  -4   3  -8   26.50   14.40
   4  -3   8    1.10   18.60
  -5   3  -8   29.50   21.60
  -5   3  -8   -3.00   15.90
   7   2  -8   39.20   16.80
  -7  -2   8   33.20   18.10
  -7  -2   8   75.79   19.00
   6   2  -8  152.78   23.30
  -6  -2   8  117.19   24.50
   5   2  -8  128.79   23.10
  -5  -2   8  158.18   22.70
   4   2  -8  213.08   23.90
  -4  -2   8  244.28   22.80
  -4  -2   8  287.57   30.10
   3   2  -8    1.90   12.20
  -3  -2   8   26.50   14.50
  -3  -2   8   20.40   12.90
   2   2  -8  205.98   18.60
   2   2  -8  166.18   23.60
  -2  -2   8  166.48   26.90
  -2  -2   8  168.58   22.70
   1   2  -8  531.75   29.60
   1   2  -8  493.35   34.00
  -1  -2   8  523.05   33.30
  -1  -2   8  538.75   35.20
   0   2  -8  201.58   20.70
   0   2  -8  160.18   25.30
   0  -2   8  176.28   28.20
   0  -2   8  166.58   24.60
  -1   2  -8   17.00   12.00
  -1   2  -8    9.40   15.10
   1  -2   8    4.80   15.10
   1  -2   8   -0.90   15.30
  -2   2  -8    6.70   12.90
  -2   2  -8   20.70   15.10
   2  -2   8   -3.30   16.10
  -3   2  -8   46.30   17.30
  -3   2  -8   63.89   14.90
   3  -2   8   35.70   18.00
  -4   2  -8   41.80   19.00
  -4   2  -8    7.20   14.60
   4  -2   8   -4.60   19.80
  -5   2  -8  259.27   26.50
   5  -2   8  237.48   34.90
   7   1  -8  109.19   18.30
   6   1  -8   91.89   17.30
  -6  -1   8  116.79   18.90
   5   1  -8  -11.90   11.30
  -5  -1   8   -5.50   16.10
   4   1  -8    7.50   12.00
  -4  -1   8   21.20   14.70
   3   1  -8  101.59   19.80
   3   1  -8  104.09   21.90
  -3  -1   8  123.69   20.40
  -3  -1   8  121.99   19.00
   2   1  -8  372.16   24.80
   2   1  -8  370.76   29.30
  -2  -1   8  344.47   28.00
  -2  -1   8  377.36   31.70
   1   1  -8   30.70   12.50
   1   1  -8   31.60   14.90
  -1  -1   8   -7.40   15.40
  -1  -1   8    2.20   16.20
   0   1  -8   38.20   12.10
   0   1  -8   32.90   15.80
   0  -1   8   56.29   16.70
   0  -1   8   26.70   16.20
  -1   1  -8   57.29   16.80
   1  -1   8   55.19   18.60
   1  -1   8   45.00   17.20
  -2   1  -8  103.79   20.00
   2  -1   8   83.59   18.20
   2  -1   8   59.09   19.10
  -3   1  -8  306.67   32.20
  -3   1  -8  338.97   26.40
   3  -1   8  356.06   38.60
   3  -1   8  239.88   32.70
  -4   1  -8  255.97   25.30
   4  -1   8  268.37   34.20
   4  -1   8  266.37   39.60
   6   0  -8  -10.00   13.80
  -6   0   8    2.00   17.20
   5   0  -8   18.80   13.20
  -5   0   8   28.90   16.60
   4   0  -8   -3.60   13.70
   4   0  -8   -0.80   12.70
  -4   0   8   17.00   15.80
   3   0  -8  232.78   22.80
   3   0  -8  250.77   24.20
  -3   0   8  190.88   30.50
   2   0  -8  433.46   32.40
   2   0  -8  420.86   27.90
  -2   0   8  450.75   37.60
   1   0  -8  202.38   21.40
   1   0  -8  193.78   27.40
  -1   0   8  184.08   25.60
  -1   0   8  242.28   30.30
   0   0  -8   35.20   17.00
   0   0  -8   73.59   14.00
   0   0   8   59.79   17.70
   0   0   8   87.39   19.50
  -1   0  -8  303.77   23.50
  -1   0  -8  216.88   29.40
   1   0   8  230.18   28.70
   1   0   8  306.97   33.10
  -2   0  -8  245.08   24.30
   2   0   8  241.18   37.30
   3   0   8   89.99   24.60
   3   0   8   95.59   23.90
  -4   0  -8   22.00   16.30
   4   0   8   63.79   23.70
   4   0   8   43.50   26.10
   6  -1  -8   59.39   18.20
   6  -1  -8   51.99   15.60
  -6   1   8   46.60   18.50
   5  -1  -8  284.57   26.60
   5  -1  -8  233.78   27.70
  -5   1   8  328.87   32.30
   4  -1  -8  583.24   34.10
   4  -1  -8  557.74   37.70
  -4   1   8  616.54   42.50
   3  -1  -8  127.89   22.00
   3  -1  -8  136.49   23.50
   2  -1  -8    3.00   12.40
   2  -1  -8   -2.70   14.50
  -2   1   8   42.00   19.00
   1  -1  -8   -1.30   15.40
   1  -1  -8    2.60   12.20
  -1   1   8   50.99   19.10
   0  -1  -8  584.04   40.30
   0  -1  -8  635.94   33.80
   0   1   8  699.63   45.80
   0   1   8  535.85   39.00
  -1  -1  -8   72.09   14.20
   1   1   8   66.59   21.10
   1   1   8   72.59   19.90
  -2  -1  -8    5.00   14.70
   2   1   8  -14.30   23.00
  -3  -1  -8   40.80   16.80
   3   1   8    5.10   24.40
   3   1   8   26.00   24.50
   5  -2  -8  129.69   27.90
   5  -2  -8  130.49   24.60
  -5   2   8  187.08   33.80
   4  -2  -8   30.10   14.90
   4  -2  -8   24.00   16.60
   3  -2  -8  115.69   22.00
  -3   2   8  101.49   22.10
   2  -2  -8  164.88   26.20
   2  -2  -8  156.18   22.20
   1  -2  -8  143.99   29.20
   1  -2  -8  206.48   21.80
  -1   2   8  244.28   35.00
   0  -2  -8  152.28   20.10
  -1  -2  -8    2.00   13.60
   1   2   8  -31.10   21.40
   1   2   8  -31.00   21.50
   2   2   8    1.10   24.10
   2   2   8   17.20   24.60
   3  -3  -8  164.98   21.70
   3  -3  -8  103.29   21.00
   2  -3  -8  175.38   23.50
   2  -3  -8  174.38   30.30
   1  -3  -8  198.98   23.10
   1  -3  -8  121.49   22.90
   0   3   8  168.18   35.00
   1   9  -9   20.60   20.60
  -1  -9   9   -1.50   16.00
   0   9  -9   78.19   21.20
   0  -9   9   41.70   15.90
  -1   9  -9  264.57   33.80
   1  -9   9  201.38   28.00
  -2   9  -9  243.38   35.10
  -2   9  -9  174.68   29.00
   2  -9   9  199.08   22.30
   2  -9   9  165.88   28.60
   3   8  -9    6.30   18.90
   3   8  -9   19.30   17.90
   2   8  -9   36.50   17.10
  -2  -8   9   26.00   15.00
  -1  -8   9   79.49   15.90
   0  -8   9   64.09   16.10
  -1   8  -9  135.79   24.10
   1  -8   9   94.49   17.80
   1  -8   9  108.49   19.00
  -2   8  -9   63.09   17.00
   2  -8   9   44.40   17.60
   2  -8   9   63.09   13.10
  -3   8  -9   65.99   18.80
  -3   8  -9  104.49   23.90
   3  -8   9   51.79   13.90
   4   7  -9    7.60   18.90
   4   7  -9   21.30   18.80
  -4  -7   9   14.20   16.40
  -4  -7   9   35.70   20.90
   3   7  -9    0.60   16.80
   3   7  -9  -21.70   16.10
  -3  -7   9   14.00   14.70
  -3  -7   9   30.80   19.10
   2   7  -9  268.57   27.50
  -2  -7   9  254.37   27.00
   1   7  -9  299.77   28.80
  -1  -7   9  336.87   27.60
   0  -7   9  111.99   23.10
  -1   7  -9   35.30   16.90
  -1   7  -9  -11.50   13.70
   1  -7   9  -17.50   13.90
  -2   7  -9   12.50   15.00
  -2   7  -9   23.60   18.30
   2  -7   9   -1.80   16.10
  -3   7  -9  103.49   18.00
   3  -7   9   60.29   18.60
  -4   7  -9  146.79   20.10
  -4   7  -9  175.18   39.40
   4  -7   9  136.59   22.00
   5   6  -9   39.90   20.10
   5   6  -9   59.79   21.60
  -5  -6   9   74.49   18.10
  -5  -6   9   69.19   21.90
   4   6  -9    6.80   16.30
   4   6  -9   30.20   17.00
  -4  -6   9   26.90   19.10
  -4  -6   9   36.10   16.40
   3   6  -9  161.88   25.00
   3   6  -9  201.48   25.70
  -3  -6   9  134.39   18.40
  -3  -6   9  188.58   29.30
   2   6  -9  903.51   48.30
  -2  -6   9  904.51   45.60
  -2  -6   9  852.11   47.50
   1   6  -9  137.19   23.20
  -1  -6   9  172.78   24.50
   0   6  -9   33.20   14.30
   0  -6   9   19.00   15.40
  -1   6  -9  604.54   37.40
  -1   6  -9  516.55   32.80
   1  -6   9  530.85   35.20
  -2   6  -9    3.10   18.80
  -2   6  -9   12.30   14.20
  -3   6  -9    4.70   20.10
  -3   6  -9   34.40   15.50
   3  -6   9  -23.20   16.70
  -4   6  -9  129.79   25.90
  -4   6  -9  127.29   26.60
   4  -6   9   87.99   21.30
   5   5  -9  170.58   29.00
   5   5  -9  239.68   29.50
  -5  -5   9  219.88   33.00
  -5  -5   9  223.18   27.30
   4   5  -9   35.40   16.60
  -4  -5   9   37.80   18.00
  -4  -5   9   69.29   15.80
   3   5  -9  221.58   26.10
  -3  -5   9  226.28   25.90
  -3  -5   9  246.88   31.00
   2   5  -9   41.40   14.10
  -2  -5   9   41.90   16.90
  -2  -5   9   71.59   15.90
   1   5  -9   20.80   13.90
  -1  -5   9    8.60   15.10
   0   5  -9  291.17   24.50
   0   5  -9  312.87   28.90
   0  -5   9  297.17   28.50
  -1   5  -9  412.16   31.30
  -1   5  -9  352.66   27.80
   1  -5   9  354.86   31.60
  -2   5  -9   49.90   15.60
   2  -5   9   41.70   17.20
  -3   5  -9   23.70   15.10
  -3   5  -9   43.90   20.50
   3  -5   9   16.20   17.40
  -4   5  -9    1.40   16.60
  -4   5  -9   10.40   23.10
   4  -5   9   -5.00   18.60
   6   4  -9  315.77   33.30
   6   4  -9  233.48   32.20
  -6  -4   9  276.27   35.30
  -6  -4   9  255.77   30.30
   5   4  -9    6.00   15.70
  -5  -4   9   27.70   18.20
  -5  -4   9   35.00   15.50
   4   4  -9   -7.30   14.60
  -4  -4   9   18.20   15.20
   3   4  -9   -2.30   13.80
  -3  -4   9   -1.70   16.40
  -3  -4   9  -12.20   14.50
  -2  -4   9   65.59   16.10
  -2  -4   9   66.29   16.70
   1   4  -9   58.99   13.70
   1   4  -9   54.29   15.50
  -1  -4   9   29.30   16.60
  -1  -4   9   10.20   16.90
   0   4  -9  726.03   43.50
   0   4  -9  736.03   37.90
   0  -4   9  750.62   42.40
  -1   4  -9  321.67   30.70
  -1   4  -9  317.57   25.30
   1  -4   9  309.07   30.90
  -2   4  -9    5.10   14.40
   2  -4   9  -29.70   16.70
  -3   4  -9   37.00   15.30
  -3   4  -9   25.50   21.80
   3  -4   9   30.80   18.40
  -4   4  -9   51.99   17.70
   4  -4   9   52.19   20.50
  -6  -3   9   71.69   18.50
  -6  -3   9   73.89   20.30
  -5  -3   9   16.30   15.30
  -5  -3   9   18.80   18.00
   4   3  -9  245.88   27.60
  -4  -3   9  287.87   26.60
   3   3  -9  120.09   22.30
  -3  -3   9  164.08   29.30
  -3  -3   9  111.79   17.40
   2   3  -9   59.29   15.80
  -2  -3   9   69.49   17.30
  -2  -3   9   83.29   17.10
   1   3  -9  204.48   26.70
   1   3  -9  257.17   22.50
  -1  -3   9  234.68   30.40
  -1  -3   9  254.67   28.20
   0   3  -9  302.37   30.60
   0   3  -9  321.57   25.60
   0  -3   9  311.77   30.40
   0  -3   9  319.07   32.10
  -1   3  -9  -19.30   16.30
  -1   3  -9   11.90   13.80
   1  -3   9  -12.90   16.90
  -2   3  -9   59.59   15.00
   2  -3   9   52.29   19.60
  -3   3  -9  146.39   25.30
  -3   3  -9  201.08   23.90
   3  -3   9  154.08   30.80
  -4   3  -9  159.08   25.30
  -4   3  -9  208.28   36.70
   6   2  -9  -22.40   15.40
  -6  -2   9    7.60   18.00
   5   2  -9  234.98   26.30
  -5  -2   9  282.27   27.50
   4   2  -9  533.55   35.90
  -4  -2   9  529.35   34.50
  -4  -2   9  676.93   43.10
   3   2  -9    1.10   14.70
  -3  -2   9   32.30   15.50
  -3  -2   9   21.80   16.70
   2   2  -9  -22.10   13.80
  -2  -2   9    0.00   16.30
  -2  -2   9    6.60   15.80
   1   2  -9   71.29   17.50
   1   2  -9   71.69   15.10
  -1  -2   9   57.09   17.70
  -1  -2   9   67.59   17.50
   0   2  -9    9.40   14.30
   0   2  -9  -11.20   16.20
   0  -2   9  -21.20   17.90
   0  -2   9   16.40   18.40
  -1   2  -9  219.78   30.50
  -1   2  -9  301.67   25.60
   1  -2   9  200.58   33.20
   1  -2   9  237.78   31.30
  -2   2  -9  365.06   34.70
  -2   2  -9  351.66   28.00
   2  -2   9  294.87   33.80
  -3   2  -9  197.28   35.00
  -3   2  -9  196.68   24.70
  -4   2  -9   63.79   18.00
   4  -2   9   15.20   22.50
   6   1  -9   24.00   15.80
  -6  -1   9   25.00   18.80
   5   1  -9  235.98   26.10
  -5  -1   9  307.77   35.00
   4   1  -9   39.70   15.50
  -4  -1   9   75.89   18.00
   3   1  -9   32.50   15.50
   3   1  -9   60.29   14.70
  -3  -1   9   42.00   18.60
   2   1  -9  158.58   22.60
  -2  -1   9  167.98   31.90
  -2  -1   9  112.29   19.30
   1   1  -9  147.29   27.60
  -1  -1   9  128.09   21.70
  -1  -1   9  169.98   34.70
   0   1  -9  117.69   22.70
   0  -1   9   69.19   20.80
   0  -1   9   31.00   19.50
  -1   1  -9  454.85   31.20
  -1   1  -9  415.56   35.60
   1  -1   9  436.66   40.20
   1  -1   9  350.46   37.00
  -2   1  -9  184.78   32.10
  -2   1  -9  186.48   24.00
   2  -1   9  126.49   23.00
   2  -1   9  251.67   37.60
   3  -1   9   19.60   22.40
   3  -1   9   13.50   24.10
   5   0  -9  110.49   22.40
   5   0  -9   92.59   19.80
   4   0  -9    9.20   14.90
   4   0  -9   39.40   15.80
  -4   0   9    4.40   18.30
   3   0  -9  -24.40   15.70
   3   0  -9   -6.90   14.80
  -3   0   9  -10.30   18.90
   2   0  -9  714.43   38.30
   2   0  -9  660.93   43.80
  -2   0   9  795.42   49.70
   1   0  -9  129.09   29.00
   1   0  -9  146.79   22.50
   0   0  -9   16.00   19.60
   0   0  -9   32.60   13.80
   0   0   9   -1.90   20.30
   0   0   9   62.29   21.80
  -1   0  -9   74.49   16.20
  -1   0  -9   50.39   20.80
   1   0   9   85.69   24.40
  -2   0  -9   24.20   17.00
   2   0   9   14.30   21.90
   2   0   9   57.99   24.00
   4  -1  -9   27.30   16.40
   4  -1  -9   17.40   15.90
  -4   1   9   40.10   21.10
   3  -1  -9  114.39   19.80
   2  -1  -9  129.39   23.60
   2  -1  -9  135.49   21.40
   1  -1  -9   55.59   15.10
   1  -1  -9   16.90   19.70
   0  -1  -9  -30.30   21.40
   0  -1  -9   30.10   14.50
   0   1   9   46.90   22.90
  -1  -1  -9  268.87   25.30
   1   1   9  302.47   42.20
   2  -2  -9   30.90   16.20
  -2   2   9   72.69   24.30
   2   8 -10  140.99   27.10
  -2  -8  10  111.69   19.20
  -1  -8  10   44.50   16.60
   0   8 -10  208.08   32.80
  -1   8 -10   20.20   20.70
   1  -8  10   19.00   16.80
  -2   8 -10  279.07   37.40
   3   7 -10  -13.30   17.00
   3   7 -10    6.10   19.80
  -3  -7  10   -0.20   17.20
  -3  -7  10    2.50   21.40
   2   7 -10  -20.30   15.80
  -2  -7  10   11.70   16.60
   1   7 -10   60.09   16.70
   0  -7  10   72.49   18.20
  -1   7 -10  125.59   26.60
  -1   7 -10  140.49   31.50
   1  -7  10  120.29   19.60
  -2   7 -10   76.69   18.10
  -2   7 -10  124.09   24.30
   2  -7  10   33.60   18.80
   4   6 -10   23.20   17.90
   4   6 -10   10.50   17.10
  -4  -6  10   39.30   17.00
  -4  -6  10    0.60   20.10
   3   6 -10    4.40   15.90
   3   6 -10   14.60   17.40
  -3  -6  10    3.70   19.10
  -3  -6  10  -12.70   16.30
   2   6 -10  108.19   24.30
  -2  -6  10  140.09   26.30
   1   6 -10   93.39   17.90
  -1  -6  10  132.19   26.60
   0   6 -10   73.99   16.80
   0   6 -10   76.79   17.00
   0  -6  10   78.59   18.60
  -1   6 -10   45.40   16.40
   1  -6  10   68.49   18.70
  -2   6 -10   81.99   18.50
  -2   6 -10   98.99   23.90
  -3   6 -10   32.60   23.50
  -3   6 -10  -11.50   18.00
   3  -6  10    4.60   18.60
  -4  -5  10   48.40   21.20
  -4  -5  10   78.99   17.90
   3   5 -10  108.49   23.50
  -3  -5  10   86.99   19.70
  -3  -5  10  116.19   22.30
   2   5 -10  136.49   24.00
  -2  -5  10  179.58   33.00
  -2  -5  10  200.48   27.00
   1   5 -10   68.49   16.80
  -1  -5  10   80.99   19.70
   0   5 -10  -10.40   16.60
   0   5 -10   28.80   15.40
   0  -5  10   19.10   18.30
  -1   5 -10   82.29   17.00
  -1   5 -10   81.69   19.70
   1  -5  10   41.20   21.30
  -2   5 -10   96.69   19.10
   2  -5  10   99.29   21.60
  -3   5 -10   15.30   17.80
  -3   5 -10   44.00   24.00
  -4  -4  10  304.57   38.00
  -4  -4  10  268.57   29.80
   3   4 -10  106.89   23.60
  -3  -4  10  106.29   19.20
   2   4 -10   18.10   15.40
  -2  -4  10   27.90   17.40
  -2  -4  10   37.40   19.10
   1   4 -10   -3.90   15.90
   1   4 -10   21.20   14.80
  -1  -4  10   12.20   18.80
  -1  -4  10   -3.10   17.30
   0   4 -10   -8.40   18.00
   0   4 -10   20.30   16.40
   0  -4  10   -3.70   18.60
  -1   4 -10   46.10   19.90
  -1   4 -10   82.69   17.30
   1  -4  10   17.90   19.60
  -2   4 -10  151.58   25.30
   2  -4  10   87.49   22.10
  -3   4 -10   35.30   25.10
   3  -4  10   29.50   22.20
   4   3 -10  325.17   31.00
  -4  -3  10  441.56   39.80
  -4  -3  10  366.56   32.90
  -3  -3  10   38.90   22.00
  -3  -3  10   49.80   17.90
   2   3 -10  -20.00   15.90
  -2  -3  10   -3.10   18.20
  -2  -3  10   20.00   19.60
   1   3 -10   81.49   19.80
  -1  -3  10   48.80   20.30
  -1  -3  10   51.99   20.10
   0   3 -10  118.69   18.30
   0   3 -10  137.19   29.10
   0  -3  10   57.29   21.60
   0  -3  10   88.69   20.90
  -1   3 -10  369.76   29.30
  -1   3 -10  275.27   35.10
   1  -3  10  336.67   35.60
  -2   3 -10   94.39   18.20
   2  -3  10  113.59   23.70
   4   2 -10  208.28   28.90
  -4  -2  10  196.28   30.10
  -4  -2  10  243.38   37.80
   3   2 -10   39.10   17.90
  -3  -2  10   73.09   21.20
  -3  -2  10   61.79   19.40
   2   2 -10  325.57   33.50
   2   2 -10  391.66   30.50
  -2  -2  10  339.87   33.70
  -2  -2  10  383.66   40.50
   1   2 -10  501.85   41.20
   1   2 -10  603.64   36.50
  -1  -2  10  565.94   45.20
  -1  -2  10  561.64   40.50
   0   2 -10   47.20   16.30
   0   2 -10   30.20   19.20
   0  -2  10   32.80   23.50
   0  -2  10    2.80   21.40
  -1   2 -10  -22.30   19.70
  -1   2 -10   44.70   16.90
   1  -2  10  -19.20   21.80
   1  -2  10   59.39   24.10
  -2   2 -10   27.20   17.40
  -2   2 -10   45.00   23.00
   2  -2  10  -29.80   24.30
   4   1 -10   15.30   17.60
  -4  -1  10   89.79   22.00
   3   1 -10  165.68   31.70
   3   1 -10  215.58   27.70
  -3  -1  10  234.18   38.20
   2   1 -10  445.46   37.70
   2   1 -10  475.55   31.70
  -2  -1  10  472.05   43.80
  -2  -1  10  381.16   37.50
   1   1 -10   36.50   21.20
  -1  -1  10   81.39   23.90
  -1  -1  10   29.80   22.10
   0   1 -10  -11.00   20.60
   0   1 -10   33.20   17.40
   0  -1  10    2.10   22.40
   0  -1  10   38.60   24.60
  -1   1 -10   71.19   18.40
  -1   1 -10   27.60   22.00
   1  -1  10    4.80   24.10
   2   0 -10  177.58   26.50
   2   0 -10  105.99   24.30
   1   0 -10   61.39   17.20
  -1   0  10   59.09   27.00
   1   6 -11   31.60   18.00
  -1  -6  11   10.30   20.40
   0   6 -11   63.29   19.20
   0  -6  11    2.80   20.20
   2   5 -11  101.99   19.20
  -2  -5  11  129.89   26.60
  -2  -5  11  132.09   22.50
   1   5 -11  -12.80   19.00
  -1  -5  11   34.60   20.70
   0   5 -11   28.10   19.80
   0   5 -11   50.79   18.80
   0  -5  11    8.90   20.80
   2   4 -11   27.60   18.20
  -2  -4  11   19.80   23.90
  -2  -4  11   15.50   20.60
   1   4 -11   91.89   19.30
   1   4 -11   97.99   20.60
  -1  -4  11   81.49   23.10
  -1  -4  11   92.09   24.80
   0   4 -11  154.28   29.50
   0  -4  11  128.59   25.10
   2   3 -11   35.10   20.70
   1   3 -11  115.69   21.90
   1   3 -11  145.89   29.40
  -1  -3  11   87.09   25.50
  -1  -3  11   64.89   23.60
;
_shelx_hkl_checksum              69667
#END Tags that were not found in dictionaries
loop_
_space_group_symop_operation_xyz
'x, y, z'
'-x, -y, -z'
loop_
_atom_site_label
_atom_site_type_symbol
_atom_site_fract_x
_atom_site_fract_y
_atom_site_fract_z
_atom_site_U_iso_or_equiv
_atom_site_adp_type
_atom_site_occupancy
_atom_site_site_symmetry_order
_atom_site_calc_flag
_atom_site_refinement_flags_adp
Zn Zn 0.58976(7) 0.63432(6) 0.78713(6) 0.02380(17) Uani 1 1 d U
F1 F 0.2383(3) 0.6288(3) 0.8246(3) 0.0351(7) Uani 1 1 d U
F2 F 0.3185(3) 0.4047(3) 0.8094(3) 0.0336(6) Uani 1 1 d U
F3 F 0.2516(3) 0.5242(3) 0.5087(3) 0.0264(6) Uani 1 1 d U
F4 F 0.0641(3) 0.3757(3) 0.5738(3) 0.0329(6) Uani 1 1 d U
F5 F 0.4704(3) 0.2831(3) 0.5262(3) 0.0276(6) Uani 1 1 d U
F6 F 0.2139(3) 0.1361(3) 0.4932(3) 0.0361(7) Uani 1 1 d U
F7 F 0.1016(3) 0.1832(4) 0.2422(3) 0.0399(7) Uani 1 1 d U
F8 F 0.3265(4) 0.0656(3) 0.2279(3) 0.0371(7) Uani 1 1 d U
N1 N 0.6396(5) 0.8127(5) 1.0258(5) 0.0321(9) Uani 1 1 d U
N2 N 0.7433(5) 0.4817(5) 0.8176(4) 0.0268(9) Uani 1 1 d U
C1 C 0.3383(6) 0.5166(5) 0.7458(5) 0.0232(9) Uani 1 1 d U
C2 C 0.2377(5) 0.4204(5) 0.5774(5) 0.0235(9) Uani 1 1 d U
C3 C 0.2979(6) 0.2627(5) 0.4706(5) 0.0249(10) Uani 1 1 d U
C4 C 0.2788(6) 0.2199(5) 0.2957(5) 0.0264(10) Uani 1 1 d U
C5 C 0.6801(6) 0.9225(5) 1.1477(5) 0.0242(10) Uani 1 1 d U
C6 C 0.7336(7) 1.0619(7) 1.3030(6) 0.0325(11) Uani 1 1 d U
H3 H 0.747(7) 1.155(7) 1.292(6) 0.049(17) Uiso 1 1 d .
H2 H 0.834(7) 1.054(7) 1.352(6) 0.052(17) Uiso 1 1 d .
H1 H 0.646(8) 1.060(7) 1.362(7) 0.066(19) Uiso 1 1 d .
C7 C 0.8177(5) 0.3888(5) 0.8266(5) 0.0216(9) Uani 1 1 d U
C8 C 0.9122(7) 0.2686(6) 0.8356(7) 0.0292(11) Uani 1 1 d U
H6 H 0.892(6) 0.257(6) 0.921(6) 0.030(13) Uiso 1 1 d .
H5 H 0.856(8) 0.164(8) 0.753(7) 0.07(2) Uiso 1 1 d .
H4 H 1.023(8) 0.310(7) 0.838(7) 0.059(18) Uiso 1 1 d .
loop_
_atom_site_aniso_label
_atom_site_aniso_U_11
_atom_site_aniso_U_22
_atom_site_aniso_U_33
_atom_site_aniso_U_23
_atom_site_aniso_U_13
_atom_site_aniso_U_12
Zn 0.0260(3) 0.0234(3) 0.0226(3) 0.0098(2) 0.0076(2) 0.0067(2)
F1 0.0349(15) 0.0427(16) 0.0295(15) 0.0131(13) 0.0159(12) 0.0174(13)
F2 0.0322(15) 0.0451(17) 0.0350(15) 0.0281(14) 0.0103(12) 0.0067(13)
F3 0.0315(14) 0.0278(14) 0.0272(14) 0.0162(12) 0.0096(11) 0.0121(11)
F4 0.0187(13) 0.0454(17) 0.0366(15) 0.0201(14) 0.0088(12) 0.0048(12)
F5 0.0275(14) 0.0275(14) 0.0289(14) 0.0124(12) 0.0058(11) 0.0094(11)
F6 0.0439(16) 0.0262(14) 0.0430(17) 0.0210(13) 0.0134(14) 0.0007(13)
F7 0.0234(14) 0.0542(18) 0.0305(16) 0.0138(14) 0.0002(12) -0.0055(13)
F8 0.0485(17) 0.0206(14) 0.0369(16) 0.0082(12) 0.0127(14) 0.0038(13)
N1 0.039(2) 0.033(2) 0.028(2) 0.0148(19) 0.0092(19) 0.0118(19)
N2 0.030(2) 0.029(2) 0.020(2) 0.0092(17) 0.0062(17) 0.0074(18)
C1 0.030(2) 0.028(2) 0.023(2) 0.0176(19) 0.0144(18) 0.0136(19)
C2 0.018(2) 0.027(2) 0.031(2) 0.019(2) 0.0086(19) 0.0022(18)
C3 0.027(2) 0.019(2) 0.027(2) 0.0117(19) 0.0052(19) -0.0025(19)
C4 0.024(2) 0.018(2) 0.028(2) 0.005(2) 0.0004(19) -0.0008(19)
C5 0.030(2) 0.024(2) 0.026(2) 0.015(2) 0.008(2) 0.012(2)
C6 0.034(3) 0.031(3) 0.032(3) 0.012(2) 0.008(2) 0.011(2)
C7 0.020(2) 0.025(2) 0.017(2) 0.0079(19) 0.0071(18) 0.0008(19)
C8 0.031(3) 0.024(3) 0.036(3) 0.016(3) 0.010(2) 0.004(2)
loop_
_atom_type_symbol
_atom_type_description
_atom_type_scat_dispersion_real
_atom_type_scat_dispersion_imag
_atom_type_scat_source
C C 0.0033 0.0016 'International Tables Vol C Tables 4.2.6.8 and 6.1.1.4'
H H 0.0000 0.0000 'International Tables Vol C Tables 4.2.6.8 and 6.1.1.4'
N N 0.0061 0.0033 'International Tables Vol C Tables 4.2.6.8 and 6.1.1.4'
F F 0.0171 0.0103 'International Tables Vol C Tables 4.2.6.8 and 6.1.1.4'
Zn Zn 0.2839 1.4301 'International Tables Vol C Tables 4.2.6.8 and 6.1.1.4'
loop_
_geom_angle_atom_site_label_1
_geom_angle_atom_site_label_2
_geom_angle_atom_site_label_3
_geom_angle
_geom_angle_site_symmetry_1
_geom_angle_site_symmetry_3
C1 Zn C4 134.44(17) . 2_666
C1 Zn N2 106.98(15) . .
C4 Zn N2 110.04(16) 2_666 .
C1 Zn N1 105.24(16) . .
C4 Zn N1 96.14(17) 2_666 .
N2 Zn N1 96.37(14) . .
C5 N1 Zn 170.5(4) . .
C7 N2 Zn 174.9(4) . .
F1 C1 F2 103.7(3) . .
F1 C1 C2 104.5(3) . .
F2 C1 C2 104.5(3) . .
F1 C1 Zn 110.2(3) . .
F2 C1 Zn 112.2(3) . .
C2 C1 Zn 120.2(3) . .
F3 C2 F4 105.8(3) . .
F3 C2 C1 107.3(3) . .
F4 C2 C1 111.9(3) . .
F3 C2 C3 108.3(3) . .
F4 C2 C3 107.1(3) . .
C1 C2 C3 116.0(3) . .
F6 C3 F5 105.7(3) . .
F6 C3 C4 111.6(3) . .
F5 C3 C4 107.5(3) . .
F6 C3 C2 107.8(3) . .
F5 C3 C2 107.7(3) . .
C4 C3 C2 116.0(4) . .
F7 C4 F8 104.0(3) . .
F7 C4 C3 105.0(3) . .
F8 C4 C3 103.2(3) . .
F7 C4 Zn 112.0(3) . 2_666
F8 C4 Zn 107.7(3) . 2_666
C3 C4 Zn 123.2(3) . 2_666
N1 C5 C6 179.3(5) . .
N2 C7 C8 179.1(5) . .
loop_
_geom_bond_atom_site_label_1
_geom_bond_atom_site_label_2
_geom_bond_distance
_geom_bond_site_symmetry_2
Zn C1 2.032(4) .
Zn C4 2.036(5) 2_666
Zn N2 2.077(4) .
Zn N1 2.102(4) .
F1 C1 1.393(4) .
F2 C1 1.396(5) .
F3 C2 1.366(5) .
F4 C2 1.366(5) .
F5 C3 1.370(5) .
F6 C3 1.361(5) .
F7 C4 1.383(5) .
F8 C4 1.409(5) .
N1 C5 1.135(5) .
N2 C7 1.133(5) .
C1 C2 1.518(6) .
C2 C3 1.545(6) .
C3 C4 1.520(6) .
C4 Zn 2.036(4) 2_666
C5 C6 1.446(7) .
C7 C8 1.449(6) .
