#------------------------------------------------------------------------------
#$Date: 2016-03-21 14:10:15 +0200 (Mon, 21 Mar 2016) $
#$Revision: 178711 $
#$URL: svn://www.crystallography.net/cod/cif/4/08/22/4082209.cif $
#------------------------------------------------------------------------------
#
# This file is available in the Crystallography Open Database (COD),
# http://www.crystallography.net/
#
# All data on this site have been placed in the public domain by the
# contributors.
#
data_4082209
loop_
_publ_author_name
'Kaplan, Peter T.'
'Xu, Long'
'Chen, Bo'
'McGarry, Katherine R.'
'Yu, Siqi'
'Wang, Huan'
'Vicic, David A.'
_publ_section_title
;
 Mild, Safe, and Versatile Reagents for (CF2)nTransfer and the
 Construction of Fluoroalkyl-Containing Rings
;
_journal_issue                   24
_journal_name_full               Organometallics
_journal_page_first              7552
_journal_paper_doi               10.1021/om401016k
_journal_volume                  32
_journal_year                    2013
_chemical_formula_sum            'C18 H8 F12 I2'
_chemical_formula_weight         706.04
_chemical_name_systematic
;
 ?
;
_space_group_crystal_system      monoclinic
_space_group_IT_number           14
_space_group_name_Hall           '-P 2ybc'
_space_group_name_H-M_alt        'P 1 21/c 1'
_symmetry_space_group_name_Hall  '-P 2ybc'
_symmetry_space_group_name_H-M   'P 1 21/c 1'
_atom_sites_solution_hydrogens   difmap
_audit_creation_method           SHELXL-2013
_cell_angle_alpha                90
_cell_angle_beta                 92.484(2)
_cell_angle_gamma                90
_cell_formula_units_Z            2
_cell_length_a                   14.8632(18)
_cell_length_b                   10.1182(13)
_cell_length_c                   6.5713(8)
_cell_measurement_temperature    100(2)
_cell_volume                     987.3(2)
_computing_structure_refinement  'SHELXL-2013 (Sheldrick, 2013)'
_diffrn_ambient_temperature      100(2)
_diffrn_measured_fraction_theta_full 0.997
_diffrn_measured_fraction_theta_max 0.998
_diffrn_radiation_type           MoK\a
_diffrn_radiation_wavelength     0.71073
_diffrn_reflns_av_R_equivalents  0.0193
_diffrn_reflns_av_unetI/netI     0.0143
_diffrn_reflns_Laue_measured_fraction_full 0.997
_diffrn_reflns_Laue_measured_fraction_max 0.998
_diffrn_reflns_limit_h_max       18
_diffrn_reflns_limit_h_min       -18
_diffrn_reflns_limit_k_max       12
_diffrn_reflns_limit_k_min       -12
_diffrn_reflns_limit_l_max       8
_diffrn_reflns_limit_l_min       -8
_diffrn_reflns_number            8264
_diffrn_reflns_point_group_measured_fraction_full 0.997
_diffrn_reflns_point_group_measured_fraction_max 0.998
_diffrn_reflns_theta_full        25.242
_diffrn_reflns_theta_max         26.371
_diffrn_reflns_theta_min         3.403
_exptl_absorpt_coefficient_mu    3.300
_exptl_absorpt_correction_T_max  0.7340
_exptl_absorpt_correction_T_min  0.2950
_exptl_absorpt_correction_type   multi-scan
_exptl_absorpt_process_details   Bruker
_exptl_crystal_colour            colorless
_exptl_crystal_density_diffrn    2.375
_exptl_crystal_F_000             660
_exptl_crystal_size_max          0.490
_exptl_crystal_size_mid          0.200
_exptl_crystal_size_min          0.100
_refine_diff_density_max         0.563
_refine_diff_density_min         -0.624
_refine_diff_density_rms         0.100
_refine_ls_extinction_method     none
_refine_ls_goodness_of_fit_ref   1.165
_refine_ls_hydrogen_treatment    refall
_refine_ls_matrix_type           full
_refine_ls_number_parameters     161
_refine_ls_number_reflns         2015
_refine_ls_number_restraints     41
_refine_ls_restrained_S_all      1.153
_refine_ls_R_factor_all          0.0178
_refine_ls_R_factor_gt           0.0171
_refine_ls_shift/su_max          0.003
_refine_ls_shift/su_mean         0.000
_refine_ls_structure_factor_coef Fsqd
_refine_ls_weighting_details
'w=1/[\s^2^(Fo^2^)+(0.0214P)^2^+0.7048P] where P=(Fo^2^+2Fc^2^)/3'
_refine_ls_weighting_scheme      calc
_refine_ls_wR_factor_gt          0.0427
_refine_ls_wR_factor_ref         0.0434
_reflns_Friedel_coverage         0.000
_reflns_number_gt                1954
_reflns_number_total             2015
_reflns_threshold_expression     'I > 2\s(I)'
_cod_data_source_file            om401016k_si_002.cif
_cod_data_source_block           Compound18
_cod_depositor_comments
;
The following automatic conversions were performed:

'_exptl_absorpt_correction_type' value 'Multi-scan' changed to
'multi-scan' according to
/home/saulius/struct/CIF-dictionaries/cif_core.dic dictionary named
'cif_core.dic' version 2.4.2 from 2011-04-26.

Automatic conversion script
Id: cif_fix_values 1891 2012-01-12 08:04:46Z andrius 
;
_cod_database_code               4082209
#BEGIN Tags that were not found in dictionaries:
_shelx_space_group_comment
;
The symmetry employed for this shelxl refinement is uniquely defined
by the following loop, which should always be used as a source of
symmetry information in preference to the above space-group names.
They are only intended as comments.
;
_shelx_estimated_absorpt_t_min   0.295
_shelx_estimated_absorpt_t_max   0.734
_shelxl_version_number           2013-3
_shelx_res_file
;
REM Solution 1  R1  0.086  Rweak  0.002,  Alpha = 0.0455  in P2(1)/c
REM Formula:  C9 F6 I
TITL xxx in P2(1)/c
CELL  0.71073  14.8632  10.1182   6.5713   90.000   92.484   90.000
ZERR    2.00   0.00180   0.00130   0.00080   0.0000   0.0024   0.0000
LATT  1
SYMM -X, 1/2+Y, 1/2-Z
SFAC C H F I
UNIT 36 16 24 4
TEMP -173.160
SIZE 0.100 0.200 0.490
SHEL 999 0.800
ACTA
L.S. 10
BOND
LIST 6
FMAP 2
PLAN 5
DELU
WGHT    0.021400    0.704800
FVAR       0.40711
I1    4    0.637439    0.867054    0.526362    11.00000    0.01710    0.02096 =
         0.02238   -0.00424   -0.00614   -0.00215
F1    3    0.822476    0.817059    0.728257    11.00000    0.01575    0.00921 =
         0.02178   -0.00089    0.00225    0.00061
F2    3    0.894381    0.918808    0.977015    11.00000    0.01434    0.02371 =
         0.01256    0.00308   -0.00283    0.00478
F3    3    0.918635    1.131723    0.761027    11.00000    0.02078    0.01119 =
         0.02725   -0.00788    0.00900   -0.00349
F4    3    0.829447    1.064309    0.511319    11.00000    0.01279    0.02912 =
         0.01870    0.01110    0.00048    0.00497
F5    3    0.931469    0.867517    0.421255    11.00000    0.01940    0.02077 =
         0.02408   -0.01288    0.00702   -0.01071
F6    3    1.017068    0.886513    0.698112    11.00000    0.01518    0.02076 =
         0.02251    0.00930    0.00308    0.00749
C1    1    0.751777    1.002725    0.879183    11.00000    0.01224    0.01202 =
         0.01265    0.00288    0.00217    0.00111
C2    1    0.666503    0.987194    0.783529    11.00000    0.01561    0.01215 =
         0.01374    0.00224    0.00117   -0.00191
C3    1    0.593128    1.054295    0.858105    11.00000    0.01237    0.01818 =
         0.02209    0.00607    0.00313   -0.00019
C4    1    0.603911    1.136561    1.026363    11.00000    0.01874    0.01892 =
         0.02292    0.00379    0.00894    0.00032
C5    1    0.688193    1.154091    1.120106    11.00000    0.02190    0.01857 =
         0.01518   -0.00055    0.00456    0.00134
C7    1    0.837351    0.937218    0.812750    11.00000    0.01191    0.01185 =
         0.01276    0.00072   -0.00160    0.00075
C6    1    0.761263    1.087313    1.046756    11.00000    0.01616    0.01795 =
         0.01330    0.00152    0.00004   -0.00054
C8    1    0.888672    1.023782    0.659915    11.00000    0.01028    0.01098 =
         0.01420   -0.00013   -0.00135    0.00035
C9    1    0.967597    0.953318    0.556161    11.00000    0.01127    0.00969 =
         0.01443   -0.00135   -0.00064   -0.00022
H5    2    0.698220    1.209819    1.234283    11.00000    0.02327
H3    2    0.534982    1.044045    0.794716    11.00000    0.02048
H4    2    0.553096    1.183087    1.082359    11.00000    0.02232
H7    2    0.818291    1.098330    1.118930    11.00000    0.02665

HKLF 4

REM  xxx in P2(1)/c
REM R1 =  0.0171 for    1954 Fo > 4sig(Fo)  and  0.0178 for all    2015 data
REM    161 parameters refined using     41 restraints

END

WGHT      0.0214      0.7048

REM Highest difference peak  0.563,  deepest hole -0.624,  1-sigma level  0.100
Q1    1   1.0000  1.0000  0.5000  10.50000  0.05    0.56
Q2    1   0.9304  0.9891  0.6112  11.00000  0.05    0.44
Q3    1   0.8643  0.9817  0.7344  11.00000  0.05    0.41
Q4    1   0.7536  1.0423  0.9585  11.00000  0.05    0.37
Q5    1   0.7865  0.9692  0.8584  11.00000  0.05    0.36
;
_shelx_res_checksum              28215
_shelx_hkl_file
;
   0   0   2 3981.10   91.19
   0   0   2 3863.61   91.19
   0   0   2 3784.22   96.09
   0   0   2 3881.51   95.69
   0   0  -2 3769.12   91.19
   0   0  -2 3825.12   96.09
   0   0   3   -0.20    0.20
   0   0  -3    0.30    0.30
   0   0  -3   -0.40    0.20
   0   0   3    0.00    0.20
   0   0   3   -0.60    0.20
   0   0   3   -0.10    0.20
   0   0   4 3604.34   81.99
   0   0  -4 3429.36   81.99
   0   0   4 3479.25   86.39
   0   0  -4 3456.75   86.29
   0   0   4 3497.35   81.99
   0   0   5   -0.10    0.40
   0   0  -5    1.30    0.40
   0   0   5    1.20    0.40
   0   0  -6  372.96   10.50
   0   0   6  380.06    9.80
   0   0   6  383.26   10.60
   0   0  -7   -0.80    0.60
   0   0   7    0.00    0.70
   0   0   8   45.10    2.70
   0   0   9    1.20    1.40
   0   1   1 1353.36   37.90
   0   1  -1 1715.33   40.20
   0   1  -1 1722.03   37.90
   0   1   1 1616.54   40.00
   0  -1   1 1712.43   38.10
   0  -1  -1 1415.76   37.80
   0  -1   1 1740.73   38.10
   0  -1   1 1443.36   39.70
   0  -1  -1 1717.53   40.00
   0   1   2   37.50    1.40
   0   1  -2   40.20    1.30
   0   1   2   39.70    1.20
   0   1  -2   39.00    1.20
   0   1  -2   39.30    1.30
   0   1   2   42.10    1.40
   0  -1  -2   42.00    1.40
   0  -1  -2   38.80    1.20
   0  -1   2   38.00    1.30
   0  -1   2   40.90    1.40
   0  -1   2   41.60    1.30
   0   1   3 1534.65   39.70
   0   1   3 1592.64   39.60
   0   1   3 1644.94   37.50
   0   1  -3 1634.94   37.60
   0   1  -3 1647.94   39.60
   0  -1   3 1592.24   37.60
   0  -1  -3 1498.85   39.60
   0  -1   3 1576.54   37.60
   0  -1  -3 1583.24   37.50
   0  -1   3 1621.24   39.60
   0   1   4   20.80    1.20
   0   1  -4   20.50    1.00
   0   1  -4   20.40    1.10
   0   1   4   20.20    1.00
   0   1   4   20.00    1.00
   0  -1   4   20.10    1.00
   0  -1  -4   18.70    1.10
   0  -1   4   19.50    1.00
   0  -1  -4   21.50    0.90
   0   1   5  347.57    9.00
   0   1   5  356.76    9.90
   0   1   5  356.96    9.10
   0   1  -5  357.76    9.70
   0  -1   5  361.06    9.20
   0  -1   5  360.06    9.80
   0  -1  -5  354.66    9.00
   0  -1  -5  356.26    9.70
   0   1   6  485.55   12.10
   0   1  -6  479.45   13.00
   0   1   6  472.95   13.10
   0  -1   6  474.35   12.20
   0  -1   6  479.95   13.10
   0  -1  -6  480.15   12.00
   0   1   7   20.40    1.50
   0   1  -7   19.80    1.60
   0   1   7   23.20    1.80
   0  -1   7   19.60    1.70
   0  -1   7   20.70    1.50
   0   1  -8  104.59    4.10
   0   1   8  105.29    4.40
   0  -1   8  100.69    4.20
   0  -1   8  108.29    3.80
   0   1   9    4.20    1.50
   0  -1   9    3.70    1.40
   0  -2   0 1602.64   39.00
   0  -2   0 1500.85   37.10
   0   2  -1  749.62   17.60
   0   2   1  699.93   18.40
   0   2   1  756.52   17.40
   0   2  -1  700.83   18.40
   0  -2  -1  744.73   18.50
   0  -2  -1  734.63   17.40
   0  -2   1  752.22   18.40
   0   2   2   31.80    1.10
   0   2   2   32.20    1.30
   0   2  -2   34.10    1.30
   0  -2   2   30.90    1.20
   0  -2   2   34.70    1.20
   0  -2  -2   29.90    1.30
   0  -2   2   32.30    1.30
   0  -2  -2   28.90    1.10
   0   2  -3  677.23   16.60
   0   2   3  662.73   17.40
   0   2   3  704.03   16.40
   0   2  -3  697.93   17.40
   0   2   3  679.33   17.50
   0  -2   3  693.73   16.50
   0  -2  -3  655.73   17.50
   0  -2   3  695.03   16.60
   0  -2   3  690.13   17.40
   0  -2  -3  695.23   16.40
   0   2  -4   11.40    0.90
   0   2   4   10.70    1.00
   0   2   4   12.50    0.90
   0  -2   4   11.80    0.80
   0  -2  -4   12.40    0.70
   0  -2   4   13.40    0.90
   0   2   5 1063.29   25.20
   0   2   5 1056.09   26.90
   0   2  -5 1052.09   26.70
   0   2   5 1010.70   25.10
   0  -2   5 1049.20   25.40
   0  -2  -5 1053.99   25.10
   0   2   6   52.69    2.50
   0   2  -6   54.19    2.40
   0   2   6   54.39    2.00
   0  -2   6   53.19    2.20
   0  -2  -6   54.69    2.00
   0  -2   6   51.59    2.40
   0   2   7  994.50   25.40
   0   2   7  990.80   23.50
   0   2  -7  935.11   25.00
   0  -2  -7  981.00   23.40
   0  -2   7  887.51   25.10
   0  -2   7  985.90   23.70
   0   2  -8   -1.30    0.90
   0  -2   8   -0.60    1.00
   0  -2   8    1.00    0.90
   0  -2   9  249.68    8.20
   0   3   0    2.00    0.30
   0   3   1 2642.64   65.59
   0   3  -1 2607.84   65.79
   0   3   1 2710.43   62.39
   0  -3   1 2692.33   65.59
   0  -3   1 2662.03   62.29
   0  -3  -1 2558.34   62.59
   0  -3  -1 2577.14   65.19
   0   3  -2    7.30    0.60
   0   3  -2    7.10    0.50
   0   3   2    8.10    0.50
   0  -3   2    9.30    0.60
   0  -3   2    7.90    0.60
   0  -3  -2    7.60    0.60
   0   3   3  537.05   14.00
   0   3  -3  529.35   13.80
   0   3   3  541.45   12.90
   0   3  -3  536.45   13.20
   0  -3   3  525.55   13.80
   0  -3   3  531.15   13.10
   0  -3   3  539.35   13.20
   0  -3  -3  541.45   12.90
   0   3  -4   13.80    1.00
   0   3   4   12.80    1.10
   0   3   4   12.40    0.80
   0  -3   4   13.00    0.90
   0  -3  -4   16.00    0.90
   0   3  -5  478.15   12.60
   0   3   5  474.45   12.80
   0   3   5  458.85   11.60
   0  -3   5  470.05   12.00
   0  -3  -5  469.65   11.60
   0   3   6   91.69    2.90
   0   3   6   89.49    3.50
   0   3  -6   85.59    3.30
   0  -3   6   92.59    3.20
   0  -3  -6   90.49    2.80
   0   3  -7    2.40    0.80
   0   3   7    1.80    0.70
   0  -3   7    2.00    0.90
   0  -3   7    1.70    0.80
   0   3  -8   40.40    2.60
   0   3   8   45.40    3.00
   0  -3   8   47.20    2.80
   0  -3   8   49.20    2.50
   0  -3   9   13.90    2.50
   0   4   0 7916.91  179.18
   0   4   0 7393.36  188.58
   0  -4   0 7592.04  179.28
   0  -4   0 7405.26  188.18
   0   4  -1   70.89    2.30
   0   4   1   69.79    2.30
   0   4   1   67.59    2.00
   0   4  -1   65.99    2.10
   0  -4  -1   67.89    2.00
   0  -4  -1   66.89    2.30
   0  -4   1   68.39    2.20
   0  -4   1   69.49    2.10
   0   4  -2 3061.49   78.89
   0   4   2 3144.29   78.59
   0   4   2 3284.77   74.79
   0   4  -2 3347.67   74.79
   0  -4   2 3198.28   78.49
   0  -4  -2 3197.08   78.59
   0  -4   2 3130.69   75.19
   0  -4  -2 3086.99   74.99
   0   4   3    0.80    0.40
   0   4  -3    1.40    0.40
   0  -4   3    0.80    0.30
   0  -4   3    1.10    0.40
   0   4   4 1925.01   46.30
   0   4   4 1967.00   49.20
   0   4  -4 1979.80   49.00
   0  -4  -4 1970.30   46.30
   0  -4   4 1971.90   46.70
   0   4   5    1.50    0.60
   0   4  -5    1.00    0.50
   0   4   5    0.60    0.50
   0  -4  -5    0.10    0.40
   0  -4   5    0.20    0.50
   0   4   6  145.99    5.00
   0   4  -6  138.99    4.70
   0  -4  -6  138.19    4.00
   0  -4   6  141.99    4.50
   0   4  -7    1.90    0.80
   0  -4   7    1.20    0.80
   0  -4   7    1.10    0.80
   0   4  -8   15.90    2.00
   0   4   8   13.40    2.10
   0  -4   8   10.50    1.80
   0  -4   8   18.30    2.00
   0   5   0    0.60    0.30
   0  -5   0    0.40    0.30
   0   5   1  616.34   16.00
   0   5  -1  609.04   15.20
   0   5   1  641.34   15.10
   0   5  -1  654.83   16.10
   0  -5   1  615.74   15.20
   0  -5   1  622.44   15.90
   0  -5  -1  623.44   15.10
   0  -5  -1  596.64   16.00
   0   5   2   99.99    2.90
   0   5  -2  105.79    3.40
   0   5   2  104.29    3.40
   0  -5   2   99.89    3.20
   0  -5  -2  107.89    3.00
   0  -5   2  103.59    3.10
   0   5  -3  195.18    5.60
   0   5   3  187.28    5.70
   0   5   3  192.58    5.00
   0  -5   3  181.78    5.30
   0  -5  -3  191.58    5.10
   0   5   4   68.79    2.30
   0   5   4   71.39    2.80
   0   5  -4   71.89    2.70
   0  -5   4   71.79    2.60
   0  -5  -4   72.59    2.40
   0   5  -5   67.79    2.70
   0   5   5   66.69    2.90
   0   5   5   66.19    2.40
   0  -5  -5   67.09    2.30
   0  -5   5   69.39    2.60
   0   5   6  768.62   20.20
   0   5  -6  732.43   19.80
   0  -5   6  753.82   18.90
   0  -5  -6  752.12   18.30
   0   5   7   20.40    2.10
   0   5  -7   25.30    1.90
   0  -5   7   23.60    1.70
   0   5   8  218.88    7.50
   0   5  -8  219.18    7.10
   0  -5   8  217.28    7.20
   0  -5   8  222.18    6.80
   0   6   0  262.47    6.90
   0   6   0  264.07    7.30
   0  -6   0  262.47    6.80
   0   6   1    0.50    0.40
   0   6   1    0.40    0.40
   0   6  -1    0.50    0.40
   0  -6  -1    0.50    0.30
   0  -6   1    0.60    0.30
   0   6  -2   13.90    1.20
   0   6   2   15.60    0.90
   0   6   2   16.80    1.10
   0  -6   2   15.10    1.00
   0  -6  -2   16.10    1.00
   0   6  -3  507.55   14.00
   0   6   3  524.45   14.00
   0   6   3  519.95   12.80
   0  -6   3  540.75   13.30
   0  -6  -3  522.05   13.00
   0   6  -4    1.30    0.60
   0   6   4    1.20    0.60
   0  -6   4    1.10    0.50
   0   6   5   96.19    3.90
   0   6  -5  101.19    3.70
   0  -6   5  102.59    3.60
   0  -6  -5  109.99    3.30
   0   6   6   18.10    1.80
   0   6  -6   23.70    1.70
   0  -6   6   18.20    1.50
   0   6  -7  479.55   13.70
   0   6   7  507.35   14.30
   0  -6   7  499.75   13.20
   0  -6   8    3.80    1.40
   0  -6   8    6.00    1.30
   0   7   0    0.30    0.40
   0  -7   0    0.50    0.30
   0   7  -1 1811.42   44.70
   0   7   1 1774.22   44.60
   0  -7  -1 1754.32   42.20
   0  -7   1 1774.92   42.40
   0   7   2   10.40    1.10
   0   7  -2   11.00    1.20
   0  -7   2    9.90    0.90
   0   7  -3  731.63   20.20
   0   7   3  769.02   20.10
   0  -7  -3  781.32   18.80
   0  -7   3  783.42   19.10
   0   7   4   13.80    1.40
   0   7  -4   17.30    1.40
   0  -7   4   13.70    1.20
   0   7  -5  273.17    8.10
   0   7   5  264.47    8.30
   0  -7   5  265.07    7.70
   0  -7  -5  275.17    7.30
   0   7  -6   28.10    2.10
   0   7   6   31.90    2.30
   0  -7   6   34.20    2.00
   0   7  -7   21.50    2.20
   0   7   7   22.80    2.30
   0  -7   7   22.60    2.10
   0   8   0 1514.05   38.00
   0  -8   0 1492.75   36.00
   0   8   1    0.50    0.50
   0   8  -1    0.80    0.60
   0  -8   1    0.90    0.40
   0  -8  -1    0.80    0.40
   0   8   2  658.23   17.60
   0   8  -2  661.53   17.70
   0  -8   2  659.73   16.60
   0  -8  -2  668.33   16.40
   0   8  -3   59.99    2.90
   0   8   3   64.09    2.80
   0  -8  -3   63.79    2.40
   0  -8   3   62.69    2.50
   0   8   4  293.87    8.60
   0   8  -4  282.77    8.60
   0  -8   4  289.17    8.00
   0  -8  -4  269.87    7.70
   0   8   5   70.89    3.30
   0   8  -5   69.29    3.20
   0  -8   5   67.79    2.90
   0  -8  -5   73.09    2.80
   0   8  -6   49.99    2.70
   0   8   6   49.70    2.90
   0  -8   6   45.80    2.50
   0   9   0    3.90    0.70
   0   9  -1   84.39    3.30
   0   9   1   82.59    3.20
   0  -9  -1   83.79    2.90
   0  -9   1   80.59    3.00
   0   9   2   58.89    2.70
   0   9  -2   58.89    2.80
   0  -9  -2   60.19    2.40
   0  -9   2   58.29    2.40
   0   9   3    5.10    0.90
   0   9  -3    3.30    0.90
   0  -9  -3    4.90    0.80
   0  -9   3    3.70    0.70
   0   9   4  349.47   10.30
   0   9  -4  328.77   10.20
   0  -9  -4  325.57    9.30
   0  -9   4  364.56    9.60
   0   9   5   31.40    2.30
   0   9  -5   29.90    2.40
   0  -9   5   31.70    1.90
   0   9   6  340.47   10.60
   0   9  -6  353.46   10.30
   0  -9   6  338.97    9.80
   0  10   0  314.67    8.90
   0 -10   0  283.67    8.20
   0  10   1   16.60    1.50
   0  10  -1   17.80    1.60
   0 -10   1   16.30    1.30
   0 -10  -1   17.70    1.40
   0  10  -2  308.07    9.30
   0  10   2  306.87    9.10
   0 -10   2  302.17    8.50
   0 -10  -2  308.17    8.40
   0  10  -3   97.79    4.40
   0  10   3  107.59    4.10
   0 -10   3  107.89    3.80
   0 -10  -3  105.69    3.80
   0  10  -4   34.20    2.70
   0  10   4   40.40    2.50
   0 -10  -4   34.20    2.40
   0 -10   4   43.50    2.20
   0  10  -5   97.79    4.30
   0  10   5   96.49    4.30
   0 -10   5  100.89    3.90
   0  11   0    1.20    0.80
   0 -11   0   -0.10    0.60
   0  11   1  986.60   26.10
   0  11  -1  996.60   26.20
   0 -11   1  993.60   24.70
   0 -11  -1  991.40   24.50
   0  11  -2    6.30    1.20
   0  11   2    8.40    1.50
   0 -11   2    8.80    1.30
   0 -11  -2    8.20    1.40
   0  11   3  565.24   15.30
   0  11  -3  501.05   15.50
   0 -11  -3  558.34   14.30
   0 -11   3  551.74   14.40
   0  11   4    1.30    1.00
   0  11  -4    0.80    1.30
   0 -11   4    1.70    0.90
   0  11  -5   61.09    3.70
   0  12   0  405.36   11.80
   0 -12   0  398.26   10.90
   0  12   1    2.30    0.90
   0  12  -1    0.90    1.00
   0 -12  -1    2.50    0.90
   0 -12   1    2.20    0.80
   0  12   2  209.28    7.00
   0  12  -2  207.08    7.30
   0 -12   2  209.48    6.60
   0 -12  -2  209.18    6.40
   0  12   3  132.19    5.20
   0  12  -3  127.59    5.60
   0 -12  -3  141.09    5.20
   0 -12   3  128.59    4.70
   0  12  -4  118.09    5.30
   0  13   0    0.90    1.10
   0 -13   0    1.70    1.00
   0  13  -1   83.79    4.10
   0  13   1   78.19    3.80
   0 -13   1   79.79    3.40
   0 -13  -1   79.29    3.50
   0  13   2   52.59    3.10
   0  13  -2   47.50    3.50
   0 -13  -2   58.59    3.00
  -1   0   9   -0.20    1.30
  -1   0   8  612.54   16.90
  -1   0   8  616.74   15.70
  -1   0   7    0.10    0.70
   1   0  -6 1275.27   33.20
  -1   0   6 1337.47   31.60
   1   0  -6 1301.67   31.40
  -1   0   6 1320.27   33.40
  -1   0   5    0.30    0.40
   1   0  -5   -0.10    0.40
  -1   0   5    0.30    0.40
   1   0  -5   -0.60    0.40
   1   0  -4 1548.25   37.00
  -1   0   4 1587.84   39.00
  -1   0   4 1555.74   39.00
   1   0  -4 1575.94   39.00
  -1   0   4 1547.55   37.00
  -1   0   4 1547.25   37.10
   1   0  -3    0.00    0.30
   1   0  -3   -0.60    0.20
  -1   0   3   -0.50    0.20
  -1   0   3   -0.20    0.30
  -1   0   2 3359.76   78.99
  -1   0   2 3256.97   83.09
  -1   0   2 3521.95   83.09
   1   0  -2 3360.36   82.99
   1   0  -2 3175.78   78.99
   1   0  -1    0.40    0.20
   1   0   1   -1.40    0.10
   1   0   1   -1.70    0.10
   1   0   2 1046.70   24.10
   1   0   2 1026.00   24.10
   1   0   2 1064.79   25.50
  -1   0  -2  959.20   24.00
  -1   0  -2 1001.10   25.50
   1   0   3   -0.70    0.30
   1   0   3   -1.10    0.30
  -1   0  -3   -1.60    0.30
   1   0   3   -1.10    0.20
  -1   0  -3   -1.10    0.20
  -1   0  -4  326.27    8.10
   1   0   4  320.27    8.10
   1   0   4  320.37    8.90
   1   0   4  329.27    8.10
  -1   0  -4  320.47    8.80
   1   0   5   -0.60    0.50
  -1   0  -5    0.00    0.40
   1   0   5   -0.50    0.40
   1   0   5   -0.10    0.40
   1   0   6   93.99    3.60
   1   0   6   94.09    3.00
  -1   0  -6   93.09    3.40
   1   0   7    0.60    0.80
  -1   0  -7   -0.60    0.70
   1   0   7    0.20    0.60
   1   0   8  136.19    5.20
   1   0   9   -2.00    1.40
  -1   1   9  122.79    5.10
  -1  -1   9  128.79    5.10
  -1   1   8  112.79    4.50
  -1  -1   8  113.59    4.00
  -1  -1   8  118.19    4.50
  -1   1   7  384.26    9.90
   1   1  -7  365.66   10.50
  -1   1   7  380.76   10.80
   1  -1  -7  369.16    9.80
  -1  -1   7  374.76   10.70
  -1  -1   7  377.66   10.00
  -1   1   6    8.40    0.90
   1   1  -6    7.20    1.00
  -1   1   6    6.00    0.90
  -1  -1   6    7.40    1.00
  -1  -1   6    7.80    1.10
   1  -1  -6    7.50    0.90
   1   1  -5  637.14   16.80
  -1   1   5  649.64   17.00
   1   1  -5  637.74   15.90
  -1   1   5  649.04   16.00
   1  -1  -5  650.93   15.90
  -1  -1   5  659.93   16.10
  -1  -1   5  654.93   16.90
   1   1  -4    0.50    0.30
  -1   1   4    1.40    0.40
  -1   1   4    1.30    0.40
  -1  -1   4    0.40    0.40
   1  -1  -4    0.60    0.30
  -1  -1   4    0.00    0.30
  -1  -1   4    0.80    0.40
  -1  -1   4    0.10    0.30
  -1   1   3 1330.07   31.80
   1   1  -3 1376.36   31.90
  -1   1   3 1349.77   33.60
   1   1  -3 1326.87   33.40
  -1   1   3 1375.96   33.50
   1  -1  -3 1345.57   31.80
  -1  -1   3 1316.47   31.90
  -1  -1   3 1338.57   31.90
  -1  -1   3 1345.17   33.50
   1   1  -2  260.37    6.60
  -1   1   2  276.97    6.90
   1   1  -2  265.17    6.90
  -1   1   2  256.37    6.90
  -1   1   2  273.07    6.60
  -1  -1   2  254.27    6.60
   1  -1  -2  261.97    6.50
   1  -1  -2  267.37    7.00
  -1  -1   2  270.97    6.60
  -1  -1   2  275.87    6.90
   1   1  -1 1654.13   41.20
  -1   1   1 1586.24   39.10
   1   1  -1 1722.53   39.40
   1   1  -1 1714.53   39.20
  -1   1   1 1674.03   41.30
   1  -1  -1 1745.73   41.30
   1  -1  -1 1669.43   39.30
  -1  -1   1 1460.75   41.00
  -1   1  -1  765.52   19.60
   1   1   1  838.62   19.50
   1   1   1  693.23   18.40
  -1   1  -1  822.22   18.60
  -1  -1  -1  750.52   18.50
   1  -1   1  811.82   19.60
   1  -1   1  788.22   18.60
  -1  -1  -1  828.22   19.60
   1   1   2 1469.25   36.30
   1   1   2 1541.15   36.30
  -1   1  -2 1554.14   34.40
  -1   1  -2 1476.75   36.30
   1   1   2 1266.07   34.20
  -1  -1  -2 1331.07   34.40
   1  -1   2 1474.25   34.40
   1  -1   2 1520.35   34.40
   1  -1   2 1529.05   36.30
   1   1   3  843.82   19.50
   1   1   3  822.52   20.70
  -1   1  -3  841.02   19.70
  -1   1  -3  757.52   20.70
   1   1   3  822.72   20.80
   1   1   3  808.82   19.50
  -1  -1  -3  799.72   19.40
  -1  -1  -3  846.62   20.80
   1  -1   3  826.32   19.60
   1  -1   3  818.82   19.60
   1  -1   3  840.22   20.80
   1   1   4 2488.45   57.39
   1   1   4 2413.16   57.39
   1   1   4 2431.86   60.69
  -1   1  -4 2436.86   60.59
  -1  -1  -4 2426.66   57.29
   1  -1   4 2449.25   57.49
  -1  -1  -4 2474.05   60.59
   1  -1   4 2405.76   57.39
  -1   1  -5    9.00    1.00
   1   1   5    5.80    0.70
   1   1   5    8.50    1.00
   1   1   5    5.60    0.90
  -1  -1  -5    7.00    0.90
   1  -1   5    8.80    1.00
  -1  -1  -5    6.90    0.70
   1  -1   5    6.00    0.80
   1   1   6  334.07    9.60
   1   1   6  339.37    8.60
  -1   1  -6  329.87    9.40
  -1  -1  -6  329.07    9.50
   1  -1   6  331.57    9.50
   1  -1   6  340.67    8.70
  -1   1  -7   46.10    2.30
   1   1   7   42.20    2.50
   1   1   7   45.30    2.00
   1  -1   7   45.50    2.50
   1  -1   7   46.00    2.10
   1   1   8  153.58    5.60
  -1   1  -8  143.49    5.20
   1  -1   8  148.19    5.40
   1  -1   9   63.89    3.60
  -1   2   9   96.99    4.60
  -1  -2   9   97.59    4.40
  -1   2   8   12.80    2.00
   1   2  -8   13.80    1.80
  -1  -2   8   16.10    1.70
  -1  -2   8   17.30    1.90
   1   2  -7   33.80    2.00
  -1   2   7   36.50    1.80
  -1   2   7   35.30    2.20
  -1  -2   7   36.30    2.10
  -1  -2   7   34.60    1.90
   1  -2  -7   32.00    1.80
  -1   2   6   50.89    2.40
  -1   2   6   50.19    2.00
   1   2  -6   49.60    2.20
  -1  -2   6   51.99    2.30
   1  -2  -6   50.69    2.00
  -1  -2   6   53.79    2.20
  -1   2   5  109.19    3.70
   1   2  -5  103.09    3.50
   1  -2  -5  109.99    3.20
  -1  -2   5  109.69    3.60
  -1  -2   5  109.89    3.40
  -1   2   4    0.20    0.40
  -1   2   4    0.40    0.40
   1   2  -4   -0.10    0.30
   1  -2  -4    0.30    0.30
  -1  -2   4    0.90    0.40
  -1  -2   4   -0.50    0.30
   1   2  -3   44.40    1.60
  -1   2   3   44.70    1.50
  -1   2   3   43.70    1.70
  -1   2   3   44.20    1.60
   1  -2  -3   41.30    1.70
   1  -2  -3   42.50    1.50
  -1  -2   3   43.60    1.60
  -1  -2   3   46.30    1.70
  -1  -2   3   43.50    1.50
  -1   2   2 1145.79   29.10
   1   2  -2 1169.68   27.70
   1   2  -2 1157.08   28.90
  -1   2   2 1182.98   27.50
  -1  -2   2 1203.18   27.70
  -1  -2   2 1160.88   28.90
   1  -2  -2 1139.49   29.00
   1  -2  -2 1149.19   27.60
  -1  -2   2 1177.58   27.60
   1   2  -1 3064.79   78.69
  -1   2   1 3229.48   74.99
  -1   2   1 3122.49   78.99
   1  -2  -1 2999.30   74.99
   1  -2  -1 3191.28   78.79
  -1  -2   1 3173.48   74.99
  -1  -2   1 3236.38   78.59
  -1  -2   1 3270.27   74.99
  -1   2   0  376.46    9.60
  -1   2   0  367.86    9.10
   1   2   0  372.66    9.50
   1   2   0  399.96    9.10
   1  -2   0  387.86    9.60
   1  -2   0  363.36    9.10
  -1  -2   0  384.36    9.50
  -1  -2   0  373.26    9.00
   1   2   1 4304.17   98.99
   1   2   1 4103.79  104.99
  -1   2  -1 4392.36   99.79
   1  -2   1 3932.91  104.69
  -1  -2  -1 4151.48  104.69
   1  -2   1 4310.07   99.89
  -1  -2  -1 4257.77   99.09
  -1   2  -2   21.80    0.90
  -1   2  -2   21.60    1.00
   1   2   2   21.10    0.70
   1   2   2   19.80    1.00
   1   2   2   19.50    0.90
  -1  -2  -2   20.90    0.80
   1  -2   2   21.20    0.90
   1  -2   2   19.70    1.00
   1   2   3 2935.81   73.59
   1   2   3 2847.62   69.59
  -1   2  -3 3071.49   73.49
  -1   2  -3 3154.88   69.89
   1   2   3 2962.30   73.49
   1  -2   3 2947.10   69.79
   1  -2   3 2988.80   73.49
   1  -2   3 2974.60   69.79
  -1  -2  -3 3009.50   73.59
  -1  -2  -3 2823.12   70.09
  -1   2  -4   68.59    2.50
   1   2   4   68.19    2.10
  -1   2  -4   66.79    2.30
   1   2   4   66.39    2.50
   1  -2   4   64.59    2.20
  -1  -2  -4   67.99    2.00
   1  -2   4   66.39    2.20
  -1   2  -5 1328.87   33.70
   1   2   5 1339.07   34.00
   1   2   5 1361.36   31.70
   1   2   5 1290.37   31.70
   1  -2   5 1340.17   31.90
  -1  -2  -5 1341.77   31.60
   1   2   6    2.70    0.80
  -1   2  -6    3.10    0.70
   1  -2   6    3.70    0.80
   1  -2   6    3.80    0.60
   1   2   7  198.28    5.50
   1   2   7  197.38    6.50
  -1   2  -7  186.98    6.20
   1  -2   7  194.78    6.30
   1  -2   7  201.98    5.80
  -1   2  -8   -0.60    0.90
   1   2   8   -1.30    1.10
   1  -2   8   -0.80    0.90
   1  -2   8    0.70    1.00
  -1   2  -9  145.79    5.50
   1  -2   9  146.59    5.70
   1   3  -8   99.29    4.00
  -1   3   8  106.99    4.40
  -1  -3   8  106.69    3.90
  -1  -3   8  102.29    4.20
  -1   3   7  372.86    9.70
  -1   3   7  378.96   10.80
   1   3  -7  353.86   10.30
  -1  -3   7  374.56   10.00
  -1  -3   7  365.86   10.50
   1  -3  -7  367.26    9.60
   1   3  -6    0.30    0.60
  -1   3   6   -0.10    0.60
   1  -3  -6    0.60    0.50
  -1  -3   6    1.10    0.60
  -1  -3   6    1.50    0.60
  -1   3   5 1450.65   36.90
   1   3  -5 1431.86   36.60
  -1  -3   5 1478.05   35.00
   1  -3  -5 1455.45   34.60
   1   3  -4   11.30    0.80
  -1   3   4   10.90    0.90
  -1   3   4   11.90    1.00
   1  -3  -4   12.20    0.80
  -1  -3   4   11.20    0.90
   1   3  -3  476.85   12.20
  -1   3   3  494.15   12.90
   1   3  -3  501.95   12.70
  -1   3   3  496.75   12.00
  -1  -3   3  495.35   12.20
   1  -3  -3  500.65   12.00
  -1  -3   3  485.05   12.10
  -1  -3   3  485.55   12.70
   1   3  -2   89.19    2.70
  -1   3   2   84.69    2.80
  -1   3   2   90.39    2.50
  -1  -3   2   88.99    2.60
  -1  -3   2   85.09    2.60
  -1  -3   2   88.49    2.60
   1  -3  -2   87.59    2.70
   1  -3  -2   87.39    2.50
  -1   3   1  624.04   16.00
   1   3  -1  633.54   15.90
  -1   3   1  658.33   15.10
   1   3  -1  644.44   15.20
  -1  -3   1  638.44   15.20
  -1  -3   1  634.64   15.80
   1  -3  -1  617.84   16.00
   1  -3  -1  615.34   15.10
  -1   3   0  261.97    6.20
  -1   3   0  252.87    6.60
   1   3   0  257.07    6.20
   1   3   0  253.67    6.60
   1  -3   0  241.48    6.60
   1  -3   0  244.08    6.20
  -1  -3   0  254.07    6.50
  -1  -3   0  241.18    6.20
   1   3   1 1035.80   26.00
  -1   3  -1 1041.10   26.10
   1   3   1 1055.89   24.50
  -1  -3  -1 1038.70   24.50
  -1  -3  -1 1045.60   26.00
   1  -3   1 1031.30   26.00
  -1   3  -2 1332.97   33.30
  -1   3  -2 1347.67   31.60
   1   3   2 1246.08   33.30
   1   3   2 1411.06   31.30
   1   3   2 1319.67   33.20
  -1  -3  -2 1313.37   33.30
  -1  -3  -2 1313.77   31.40
   1  -3   2 1325.97   33.20
   1  -3   2 1384.16   31.60
  -1   3  -3  605.14   14.60
   1   3   3  605.44   15.40
   1   3   3  615.64   14.20
  -1   3  -3  598.24   15.30
   1  -3   3  565.64   15.30
  -1  -3  -3  596.44   14.20
   1  -3   3  589.44   14.50
   1  -3   3  578.14   14.40
  -1   3  -4  877.21   22.50
   1   3   4  878.01   22.60
   1   3   4  873.51   20.90
  -1  -3  -4  880.21   20.90
   1  -3   4  881.31   21.30
  -1   3  -5  104.09    3.50
   1   3   5   99.79    3.70
   1   3   5   99.09    3.00
   1  -3   5  101.69    3.30
  -1  -3  -5  100.69    2.90
   1   3   6  240.28    6.30
   1   3   6  238.78    7.40
  -1   3  -6  232.28    7.10
  -1  -3  -6  233.88    6.20
   1  -3   6  240.98    6.60
  -1   3  -7   32.80    2.10
   1   3   7   35.30    2.30
   1  -3   7   32.70    1.90
   1  -3   7   34.10    2.20
  -1   3  -8  111.19    4.40
   1   3   8  111.39    4.60
   1  -3   8  105.89    4.00
   1  -3   8  110.39    4.50
  -1   3  -9   88.29    4.20
   1  -3   9   90.19    4.30
   1   4  -8  285.97    8.60
  -1   4   8  283.77    9.10
  -1  -4   8  283.47    8.70
  -1  -4   8  291.57    8.30
  -1   4   7   23.80    2.00
  -1   4   7   24.40    1.60
   1   4  -7   25.20    1.80
  -1  -4   7   24.30    1.80
  -1  -4   7   21.50    1.80
  -1   4   6  976.90   26.00
   1   4  -6 1015.40   25.70
   1  -4  -6 1017.20   24.10
  -1  -4   6  980.90   24.60
   1   4  -5   29.90    1.60
  -1   4   5   27.90    1.70
   1  -4  -5   30.30    1.40
  -1  -4   5   29.20    1.60
  -1   4   4 1258.57   31.90
  -1   4   4 1251.07   29.90
   1   4  -4 1255.37   31.60
  -1  -4   4 1257.07   30.20
   1  -4  -4 1248.38   29.90
   1   4  -3   22.30    1.20
  -1   4   3   22.10    1.20
  -1   4   3   21.70    1.00
  -1  -4   3   18.80    1.10
  -1  -4   3   21.60    1.10
   1  -4  -3   21.80    1.10
  -1   4   2 4273.97  100.09
  -1   4   2 4235.88  106.19
   1   4  -2 4150.88  105.79
   1   4  -2 4317.67   99.79
   1  -4  -2 4432.16  104.89
   1  -4  -2 4165.88  100.79
  -1  -4   2 4265.17   99.69
  -1  -4   2 4193.78  105.09
  -1  -4   2 4225.18  101.19
  -1   4   1  171.38    5.20
  -1   4   1  188.48    4.80
   1   4  -1  196.18    5.20
  -1  -4   1  189.98    5.00
   1  -4  -1  187.88    4.80
  -1  -4   1  190.98    4.90
   1  -4  -1  184.88    5.20
   1   4   0  249.68    5.90
  -1   4   0  231.18    5.90
   1   4   0  234.88    6.20
  -1   4   0  230.68    6.20
  -1  -4   0  224.98    6.20
   1  -4   0  228.78    5.90
   1  -4   0  233.38    6.30
  -1  -4   0  225.28    5.80
   1   4   1 1263.27   29.00
   1   4   1 1204.68   30.70
  -1   4  -1 1277.47   30.80
   1  -4   1 1225.98   29.20
  -1  -4  -1 1193.58   29.00
   1  -4   1 1223.08   30.70
  -1  -4  -1 1207.98   30.70
   1   4   2  779.42   20.00
  -1   4  -2  806.32   20.10
  -1   4  -2  777.12   18.90
   1   4   2  806.32   18.60
   1  -4   2  762.22   19.90
   1  -4   2  807.22   19.00
  -1  -4  -2  789.02   18.70
  -1  -4  -2  741.63   19.90
   1   4   3  375.46   10.30
   1   4   3  392.56    9.30
  -1   4  -3  381.96   10.30
   1  -4   3  380.26    9.70
  -1  -4  -3  375.66    9.40
  -1   4  -4   20.00    1.30
   1   4   4   22.00    1.40
   1   4   4   21.80    1.00
  -1  -4  -4   23.50    1.00
   1  -4   4   19.50    1.20
   1   4   5  384.86    9.70
   1   4   5  392.96   11.00
  -1   4  -5  392.56   10.80
  -1  -4  -5  395.96    9.70
   1  -4   5  391.66   10.20
  -1   4  -6    7.70    1.20
   1   4   6    5.30    0.90
   1   4   6    8.40    1.00
   1  -4   6    6.50    1.00
  -1  -4  -6    7.70    0.90
   1   4   7   54.29    3.00
  -1   4  -7   50.89    2.70
   1  -4   7   55.59    2.50
   1   4   8   86.49    4.00
  -1   4  -8   82.09    3.70
   1  -4   8   81.69    3.80
   1  -4   8   79.89    3.40
  -1   5   8   16.10    2.30
  -1  -5   8   12.60    1.90
  -1  -5   8   16.50    2.10
  -1   5   7  211.88    6.90
   1   5  -7  193.38    6.40
  -1  -5   7  210.18    6.30
  -1   5   6    7.20    1.10
   1   5  -6    8.10    1.20
   1  -5  -6    6.80    1.10
  -1  -5   6    5.70    0.90
   1   5  -5  367.06   10.10
  -1   5   5  369.36   10.40
  -1  -5   5  363.76    9.80
   1  -5  -5  363.56    9.40
   1   5  -4   11.50    1.10
  -1   5   4   11.10    1.00
  -1   5   4    9.60    1.10
  -1  -5   4   10.40    1.00
   1  -5  -4   12.50    1.00
  -1   5   3  549.65   13.20
   1   5  -3  546.05   14.10
  -1   5   3  544.45   14.20
  -1  -5   3  525.05   13.40
  -1  -5   3  523.95   13.90
   1  -5  -3  536.25   13.30
  -1   5   2 1130.19   26.90
   1   5  -2 1127.29   28.50
  -1   5   2 1105.89   28.50
  -1  -5   2 1117.29   28.30
  -1  -5   2 1134.09   27.10
   1  -5  -2 1155.08   27.00
  -1   5   1   80.19    2.40
   1   5  -1   85.19    2.70
  -1   5   1   77.89    2.70
   1   5  -1   80.99    2.50
   1  -5  -1   82.09    2.40
   1  -5  -1   80.39    2.70
  -1  -5   1   69.19    2.50
  -1   5   0 1493.25   37.30
  -1   5   0 1505.75   35.40
   1   5   0 1507.05   37.20
   1   5   0 1531.75   35.40
  -1  -5   0 1467.45   37.20
  -1  -5   0 1475.65   35.30
   1  -5   0 1458.75   37.30
   1  -5   0 1498.65   35.40
  -1   5  -1  914.81   22.30
   1   5   1  885.51   22.20
  -1   5  -1  871.51   21.10
   1   5   1  906.81   20.90
   1  -5   1  877.41   21.10
  -1  -5  -1  809.32   20.90
  -1  -5  -1  863.21   22.10
   1  -5   1  867.91   22.10
   1   5   2 1700.23   40.20
   1   5   2 1694.23   42.70
  -1   5  -2 1685.53   42.80
   1  -5   2 1684.13   40.60
  -1  -5  -2 1772.82   40.30
   1   5   3   53.39    1.70
  -1   5  -3   57.69    2.30
   1   5   3   54.59    2.20
  -1  -5  -3   51.79    1.80
   1  -5   3   52.39    2.00
  -1   5  -4 2092.69   52.59
   1   5   4 2090.39   52.69
   1   5   4 2107.49   49.40
   1  -5   4 2070.19   49.90
  -1  -5  -4 2131.09   49.50
   1   5   5   10.70    1.30
   1   5   5    9.70    1.00
  -1   5  -5    9.40    1.10
  -1  -5  -5    9.50    0.80
   1  -5   5   11.30    1.00
   1   5   6  534.95   14.70
  -1   5  -6  525.05   14.40
   1  -5   6  514.75   13.50
   1   5   7   26.20    2.20
  -1   5  -7   28.60    2.00
   1  -5   7   27.80    1.90
   1   5   8   82.89    4.10
  -1   5  -8   82.69    3.70
   1  -5   8   81.69    3.90
   1  -5   8   80.19    3.50
  -1   6   7    3.40    1.10
   1   6  -7    5.20    1.00
  -1  -6   7    6.10    1.00
  -1   6   6   91.39    3.80
   1   6  -6   88.09    3.50
  -1  -6   6   91.39    3.50
   1  -6  -6   92.89    3.10
   1   6  -5    9.10    1.20
  -1   6   5    8.00    1.30
   1  -6  -5   11.50    1.20
  -1  -6   5    8.70    1.10
   1   6  -4  108.29    3.70
  -1   6   4  106.39    3.90
   1  -6  -4  105.59    3.40
  -1  -6   4  108.69    3.60
  -1   6   3  133.39    4.40
   1   6  -3  140.19    4.40
   1  -6  -3  136.99    4.00
  -1  -6   3  135.29    4.10
  -1   6   2  439.16   12.00
   1   6  -2  448.66   12.00
  -1   6   2  432.26   11.00
  -1  -6   2  453.45   11.30
   1  -6  -2  455.55   11.20
  -1   6   1 1047.40   25.50
   1   6  -1 1112.69   27.00
  -1   6   1 1053.59   27.00
  -1  -6   1 1085.59   25.60
   1  -6  -1 1074.09   25.50
  -1  -6   1 1018.00   26.80
  -1   6   0  317.87    8.50
   1   6   0  323.17    8.50
   1   6   0  307.77    8.00
   1  -6   0  300.87    8.00
  -1  -6   0  312.97    8.00
  -1   6  -1 3369.96   84.29
   1   6   1 3566.74   79.89
   1   6   1 3473.35   84.19
   1  -6   1 3286.67   79.99
  -1  -6  -1 3311.87   80.39
  -1   6  -2   88.59    3.20
   1   6   2   91.29    3.20
   1   6   2   90.19    2.70
   1  -6   2   88.99    2.90
  -1  -6  -2   93.09    2.70
   1   6   3 2245.88   55.49
  -1   6  -3 2171.48   55.59
   1   6   3 2229.28   52.19
   1  -6   3 2258.97   52.69
  -1  -6  -3 2175.38   52.39
   1   6   4   56.99    2.00
  -1   6  -4   57.99    2.60
   1   6   4   59.79    2.60
   1  -6   4   57.79    2.30
  -1  -6  -4   60.99    2.10
  -1   6  -5 1663.63   40.70
   1   6   5 1597.34   40.90
  -1  -6  -5 1612.04   37.90
   1  -6   5 1519.25   38.50
  -1   6  -6    2.30    0.80
   1   6   6    1.60    0.90
   1  -6   6    0.80    0.70
   1   6   7  311.97    9.60
  -1   6  -7  298.27    9.10
   1  -6   7  295.57    8.60
  -1   6  -8   16.40    2.40
   1  -6   8   23.40    2.30
  -1   7   7  178.48    6.50
  -1  -7   7  179.88    5.80
  -1   7   6   15.80    1.80
   1   7  -6   17.00    1.60
  -1  -7   6   14.60    1.50
   1   7  -5  533.25   14.70
  -1   7   5  537.45   15.00
  -1  -7   5  543.95   14.10
   1  -7  -5  558.14   13.80
  -1   7   4  122.79    4.40
   1   7  -4  131.79    4.30
  -1  -7   4  121.09    4.00
   1  -7  -4  120.39    3.90
   1   7  -3  663.73   18.80
  -1   7   3  721.63   18.90
   1  -7  -3  747.83   17.80
  -1  -7   3  737.13   17.90
   1   7  -2  378.46   10.50
  -1   7   2  374.86   10.50
  -1  -7   2  379.76    9.90
   1  -7  -2  391.86    9.80
  -1   7   1  544.95   14.50
   1   7  -1  562.44   14.50
   1  -7  -1  540.55   13.60
  -1  -7   1  546.05   13.70
   1   7   0   85.69    3.00
  -1   7   0   84.79    3.00
   1  -7   0   86.49    2.80
  -1  -7   0   82.59    2.70
   1   7   1  120.69    3.90
  -1   7  -1  122.29    4.00
  -1  -7  -1  116.49    3.50
   1  -7   1  117.19    3.60
   1   7   2  522.85   14.20
  -1   7  -2  541.95   14.40
  -1  -7  -2  544.75   13.20
   1  -7   2  522.35   13.40
   1   7   3  124.99    4.30
   1   7   3  125.09    3.60
  -1   7  -3  121.79    4.40
   1  -7   3  127.09    4.00
  -1  -7  -3  126.79    3.80
   1   7   4  281.37    8.30
  -1   7  -4  271.37    8.30
   1  -7   4  278.57    7.70
  -1  -7  -4  278.57    7.40
  -1   7  -5   32.80    2.10
   1   7   5   30.00    2.00
   1  -7   5   28.10    1.80
  -1  -7  -5   30.90    1.60
  -1   7  -6  214.08    6.90
   1   7   6  217.78    7.20
   1  -7   6  210.68    6.40
   1   7   7   25.50    2.30
  -1   7  -7   21.40    2.30
  -1   8   6  415.56   12.20
   1   8  -6  405.66   11.70
  -1  -8   6  416.26   11.40
   1   8  -5   19.10    1.80
  -1   8   5   15.70    1.70
   1  -8  -5   19.70    1.70
  -1  -8   5   17.40    1.50
  -1   8   4  972.40   25.20
   1   8  -4  969.70   25.00
   1  -8  -4  917.11   23.60
  -1  -8   4  971.40   23.80
  -1   8   3   28.20    1.80
   1   8  -3   25.10    1.90
   1  -8  -3   27.80    1.60
  -1  -8   3   27.60    1.60
   1   8  -2 1145.89   29.40
  -1   8   2 1134.19   29.20
   1  -8  -2 1156.68   27.60
  -1  -8   2 1126.09   27.80
   1   8  -1   43.90    2.10
  -1   8   1   45.40    2.10
   1  -8  -1   42.60    1.80
  -1  -8   1   41.30    1.80
   1   8   0  449.76   12.00
  -1   8   0  446.16   12.10
   1  -8   0  443.96   11.30
  -1  -8   0  430.46   11.20
  -1   8  -1  537.25   14.20
   1   8   1  521.15   14.00
   1  -8   1  514.85   13.30
  -1  -8  -1  525.35   13.10
   1   8   2  579.24   16.20
  -1   8  -2  624.84   16.40
   1  -8   2  601.04   15.30
  -1  -8  -2  618.94   15.10
  -1   8  -3  182.38    6.10
   1   8   3  188.98    6.00
   1  -8   3  180.08    5.50
  -1  -8  -3  187.58    5.30
  -1   8  -4   69.89    3.20
   1   8   4   71.99    3.20
  -1  -8  -4   70.19    2.70
   1  -8   4   70.39    2.80
   1   8   5   97.09    4.00
  -1   8  -5   92.59    3.90
   1  -8   5   98.49    3.60
  -1   8  -6    1.40    1.00
   1   8   6    0.50    1.00
   1  -8   6    0.30    0.80
  -1   8  -7   52.89    3.20
  -1   9   6    2.00    1.10
  -1  -9   6    2.00    1.00
  -1   9   5   10.20    1.70
   1   9  -5   15.00    1.80
  -1  -9   5   12.70    1.50
   1   9  -4   20.60    1.90
  -1   9   4   19.30    1.70
  -1  -9   4   17.30    1.50
   1  -9  -4   20.20    1.80
   1   9  -3  161.88    5.90
  -1   9   3  186.68    6.00
  -1  -9   3  181.88    5.50
   1  -9  -3  189.08    5.50
   1   9  -2  393.16   11.30
  -1   9   2  406.96   11.20
   1  -9  -2  412.86   10.50
  -1  -9   2  378.36   10.50
   1   9  -1   80.09    3.20
  -1   9   1   81.99    3.20
  -1  -9   1   78.59    2.90
   1  -9  -1   79.39    2.90
  -1   9   0  369.16   10.40
   1   9   0  371.26   10.30
   1  -9   0  364.06    9.70
  -1  -9   0  359.56    9.60
  -1   9  -1   95.89    3.60
   1   9   1   93.99    3.50
   1  -9   1   91.49    3.20
  -1  -9  -1   92.29    3.10
   1   9   2 1184.48   31.00
  -1   9  -2 1218.98   31.30
  -1  -9  -2 1230.08   29.20
   1  -9   2 1186.68   29.40
  -1   9  -3   34.70    2.40
   1   9   3   37.10    2.20
  -1  -9  -3   35.00    1.90
   1  -9   3   34.60    1.90
   1   9   4  507.65   13.60
  -1   9  -4  419.76   13.40
   1  -9   4  516.65   12.70
  -1  -9  -4  454.55   12.30
   1   9   5    1.00    0.90
   1  -9   5    0.40    0.80
  -1   9  -6  149.39    5.60
   1   9   6  145.39    5.70
   1  -9   6  142.79    5.00
  -1  10   5    0.70    1.00
   1  10  -5    1.40    1.20
  -1 -10   5    0.60    0.90
  -1  10   4  109.39    4.30
   1  10  -4   92.89    4.20
  -1 -10   4  108.69    3.90
   1 -10  -4  100.19    3.90
   1  10  -3  164.18    6.30
  -1  10   3  187.48    6.20
  -1 -10   3  195.68    5.90
   1 -10  -3  199.78    5.80
  -1  10   2  141.09    5.00
   1  10  -2  145.89    5.20
  -1 -10   2  142.29    4.60
   1 -10  -2  141.99    4.60
   1  10  -1  173.88    5.70
  -1  10   1  169.08    5.60
  -1 -10   1  174.08    5.30
   1 -10  -1  169.18    5.20
   1  10   0   89.79    3.60
  -1  10   0   92.09    3.60
  -1 -10   0   87.39    3.20
   1 -10   0   90.89    3.20
  -1  10  -1 1054.89   27.00
   1  10   1  992.00   26.70
   1 -10   1 1017.10   25.30
  -1 -10  -1 1048.70   25.20
  -1  10  -2    1.50    0.90
   1  10   2    0.20    0.70
  -1 -10  -2    0.40    0.60
   1 -10   2    1.00    0.60
  -1  10  -3  687.83   19.40
   1  10   3  710.93   19.20
  -1 -10  -3  713.23   17.80
   1 -10   3  711.03   18.00
   1  10   4   20.70    1.90
  -1  10  -4   12.70    2.20
   1 -10   4   18.10    1.60
  -1  10  -5  430.76   13.10
   1  10   5  456.15   13.20
   1 -10   5  446.06   12.10
  -1  10  -6   -2.70    1.50
   1  11  -4    0.70    1.20
  -1  11   4    0.80    1.00
  -1 -11   4    1.30    0.90
  -1  11   3  276.37    8.50
   1  11  -3  240.18    8.60
   1 -11  -3  280.77    7.90
  -1 -11   3  283.07    8.00
  -1  11   2   48.80    2.70
   1  11  -2   49.50    2.90
  -1 -11   2   49.99    2.40
   1 -11  -2   49.99    2.50
  -1  11   1   74.39    3.40
   1  11  -1   76.29    3.50
  -1 -11   1   76.99    3.10
   1 -11  -1   83.79    3.10
  -1  11   0   33.10    2.20
   1  11   0   30.50    2.20
   1 -11   0   33.30    1.90
  -1 -11   0   33.10    1.90
   1  11   1   73.09    3.30
  -1  11  -1   75.79    3.50
  -1 -11  -1   77.49    3.00
   1 -11   1   73.49    3.00
   1  11   2   33.00    2.20
  -1  11  -2   30.30    2.40
  -1 -11  -2   31.80    2.00
   1 -11   2   28.40    1.90
  -1  11  -3    1.70    1.20
   1  11   3    0.70    0.90
  -1 -11  -3    1.10    1.00
   1 -11   3    1.70    0.80
   1  11   4   61.89    3.30
  -1  11  -4   53.39    3.50
   1 -11   4   63.99    2.90
  -1  11  -5    0.30    1.40
   1  12  -3    6.00    1.50
   1 -12  -3    7.70    1.30
  -1  12   2  291.67    9.20
   1  12  -2  292.67    9.40
   1 -12  -2  303.67    8.50
  -1 -12   2  292.77    8.50
  -1  12   1   45.70    2.70
   1  12  -1   46.30    2.90
  -1 -12   1   42.90    2.40
   1 -12  -1   45.40    2.40
   1  12   0   59.89    3.20
  -1  12   0   62.09    3.20
   1 -12   0   59.99    2.80
  -1 -12   0   62.29    2.80
  -1  12  -1  155.18    5.70
   1  12   1  150.48    5.50
   1 -12   1  146.79    5.00
  -1 -12  -1  148.39    4.90
  -1  12  -2  108.99    4.90
   1  12   2  110.69    4.50
  -1 -12  -2  117.89    4.20
   1 -12   2  109.99    4.20
  -1  12  -3   64.89    3.90
   1  12   3   64.69    3.40
   1 -12   3   64.69    3.00
  -1  12  -4    8.50    1.70
   1  13  -3    6.80    1.80
   1  13  -2   92.69    4.70
  -1  13   2  101.69    4.40
   1 -13  -2  102.49    4.10
   1  13  -1    2.10    1.20
  -1  13   1    0.30    1.00
   1 -13  -1    0.30    1.00
  -1 -13   1    1.10    1.10
  -1  13   0  158.38    5.90
   1  13   0  155.78    5.90
   1 -13   0  149.69    5.30
  -1 -13   0  157.98    5.30
  -1  13  -1    3.10    1.30
   1  13   1    0.10    1.10
  -1 -13  -1    2.90    1.10
   1 -13   1    2.10    1.00
   1  13   2  364.46   11.20
  -1  13  -2  377.66   11.70
  -1  13  -3   24.80    3.20
  -1  13  -4   76.49    4.80
   1  14  -2   30.70    3.30
   1  14  -1  107.79    5.00
   1  14   0   71.79    4.10
  -1 -14  -1   66.09    3.60
  -2   0   9    0.20    1.40
  -2   0   8  183.88    6.20
  -2   0   8  179.18    5.60
  -2   0   7   -0.50    0.70
  -2   0   7   -0.30    0.70
   2   0  -7   -0.10    0.70
   2   0  -6  632.64   15.60
  -2   0   6  620.24   15.70
  -2   0   6  625.84   16.60
  -2   0   5    0.40    0.40
   2   0  -5    0.50    0.40
   2   0  -5    0.50    0.40
  -2   0   5    0.10    0.40
  -2   0   4 1248.68   31.80
  -2   0   4 1278.67   30.40
  -2   0   4 1268.47   31.90
   2   0  -4 1284.17   30.30
   2   0  -4 1300.87   31.80
  -2   0   4 1244.48   30.30
  -2   0   3    0.70    0.30
  -2   0   3    0.90    0.30
  -2   0   3    0.90    0.30
   2   0  -3    1.40    0.30
  -2   0   2  162.78    4.30
   2   0  -2  153.48    4.20
  -2   0   2  163.58    4.20
  -2   0   2  153.78    4.30
   2   0  -1   -1.90    0.40
  -2   0   1   -3.10    0.20
  -2   0   1   -2.80    0.30
   2   0   1   -3.60    0.20
   2   0   1   -3.90    0.20
  -2   0  -2 1470.35   34.70
   2   0   2 1483.25   34.70
   2   0   2 1533.65   36.70
   2   0   2 1424.46   34.80
   2   0   3   -0.80    0.20
  -2   0  -3    0.10    0.30
   2   0   3   -0.90    0.30
  -2   0  -4 2173.68   54.19
   2   0   4 2161.78   51.19
   2   0   4 2158.38   54.29
   2   0   4 2212.98   51.19
   2   0   5    1.30    0.50
   2   0   5    0.90    0.40
  -2   0  -5    0.30    0.40
   2   0   5    1.70    0.50
  -2   0  -6 1207.18   30.90
   2   0   6 1200.88   31.10
   2   0   6 1208.88   28.90
  -2   0  -7   -0.50    0.70
   2   0   7    0.10    0.60
   2   0   7    0.70    0.80
  -2   0  -8  665.93   18.20
   2   0   8  665.93   18.40
  -2   1   9   18.90    2.60
  -2  -1   9   19.80    2.60
  -2   1   8   19.90    1.70
  -2   1   8   18.50    2.00
   2  -1  -8   14.80    1.70
  -2  -1   8   20.60    1.80
  -2  -1   8   18.00    1.90
  -2   1   7   13.00    1.30
  -2   1   7   11.60    1.50
   2  -1  -7   12.80    1.40
  -2  -1   7    8.70    1.40
  -2  -1   7   10.40    1.40
  -2   1   6  224.78    6.40
  -2   1   6  228.68    6.80
   2   1  -6  225.28    6.30
   2   1  -6  231.28    6.70
  -2  -1   6  229.88    6.40
   2  -1  -6  227.68    6.30
  -2  -1   6  229.98    6.70
  -2   1   5   41.10    1.90
   2   1  -5   42.10    1.70
   2   1  -5   38.30    1.70
  -2  -1   5   42.00    1.80
  -2  -1   5   41.70    1.80
   2  -1  -5   39.20    1.70
   2   1  -4 1364.96   34.10
  -2   1   4 1392.26   34.30
  -2   1   4 1337.77   32.50
   2   1  -4 1350.66   32.50
  -2  -1   4 1375.86   34.20
  -2  -1   4 1353.86   32.70
  -2  -1   4 1378.26   34.20
   2  -1  -4 1378.76   32.50
   2   1  -3    2.70    0.50
  -2   1   3    2.70    0.50
  -2   1   3    3.20    0.50
   2   1  -3    3.90    0.50
  -2  -1   3    2.80    0.40
  -2  -1   3    4.00    0.50
  -2  -1   3    4.00    0.50
  -2  -1   3    4.40    0.50
   2  -1  -3    3.30    0.50
   2  -1  -3    3.20    0.50
   2   1  -2 1176.78   29.10
  -2   1   2 1195.78   29.20
  -2   1   2 1181.18   27.90
   2   1  -2 1148.09   27.90
  -2   1   2 1166.18   29.30
  -2  -1   2 1181.88   27.90
  -2  -1   2 1223.98   29.20
  -2  -1   2 1173.88   28.00
   2  -1  -2 1160.38   29.30
   2  -1  -2 1186.48   27.90
  -2   1   1   44.30    1.40
  -2  -1   1   47.70    1.40
   2  -1  -1   44.80    1.40
   2  -1  -1   47.70    1.40
  -2   1   0 1013.80   24.40
   2   1   0 1007.70   25.70
   2   1   0 1075.39   25.70
  -2   1   0 1076.69   25.90
  -2  -1   0 1047.70   24.50
  -2  -1   0  997.70   24.50
   2  -1   0 1044.90   25.60
  -2   1  -1  215.18    5.20
   2   1   1  206.98    5.60
   2   1   1  222.38    5.60
  -2  -1  -1  213.28    5.50
   2  -1   1  210.98    5.20
   2   1   2 1768.82   42.30
   2   1   2 1819.72   44.80
   2   1   2 1847.42   44.70
  -2   1  -2 1879.41   42.40
   2   1   2 1713.83   42.40
  -2   1  -2 1863.51   44.80
   2  -1   2 1834.52   42.40
  -2  -1  -2 1804.32   44.70
   2  -1   2 1870.41   44.80
  -2  -1  -2 1673.43   42.40
   2   1   3 1477.05   34.40
   2   1   3 1436.86   36.50
   2   1   3 1436.06   36.60
  -2   1  -3 1522.75   34.60
   2   1   3 1448.66   34.40
  -2   1  -3 1481.55   36.50
  -2  -1  -3 1393.06   34.30
   2  -1   3 1474.15   34.50
   2  -1   3 1513.75   34.50
  -2  -1  -3 1484.65   36.50
   2  -1   3 1416.96   36.50
   2   1   4  471.45   11.20
  -2   1  -4  453.85   12.20
   2   1   4  452.05   12.30
   2   1   4  462.15   11.20
  -2  -1  -4  452.95   11.10
  -2  -1  -4  473.55   12.20
   2  -1   4  457.65   11.30
   2  -1   4  450.95   11.30
   2   1   5  450.55   10.90
   2   1   5  441.66   10.90
   2   1   5  442.96   12.10
  -2   1  -5  448.76   12.00
   2  -1   5  444.76   11.10
  -2  -1  -5  437.96   12.00
   2  -1   5  436.56   11.10
   2   1   6  130.39    4.50
  -2   1  -6  130.09    4.40
   2   1   6  133.89    3.70
  -2  -1  -6  126.39    4.40
   2  -1   6  126.49    3.80
   2  -1   6  127.19    4.50
   2   1   7  295.57    7.70
  -2   1  -7  287.37    8.70
   2   1   7  286.97    8.90
   2  -1   7  290.37    8.90
  -2  -1  -7  286.77    8.70
   2  -1   7  303.17    7.90
  -2   1  -8    2.40    1.00
   2   1   8    3.50    1.10
   2  -1   8    4.00    1.10
  -2   2   9   24.40    2.70
  -2   2   8   26.50    2.30
  -2  -2   8   21.00    2.10
  -2  -2   8   27.80    2.00
  -2   2   7  301.67    8.90
   2   2  -7  289.97    8.50
  -2   2   7  300.07    8.10
  -2  -2   7  298.17    8.70
   2  -2  -7  292.07    8.00
  -2  -2   7  294.77    8.30
  -2   2   6    5.20    0.70
   2   2  -6    3.60    0.70
  -2   2   6    4.80    0.80
  -2  -2   6    4.10    0.70
   2  -2  -6    6.20    0.90
  -2  -2   6    4.30    0.70
   2   2  -5 1739.13   42.00
   2   2  -5 1782.42   44.00
  -2   2   5 1769.72   44.30
   2  -2  -5 1728.73   41.90
  -2  -2   5 1773.62   44.10
  -2  -2   5 1781.02   42.10
   2   2  -4    1.20    0.40
   2   2  -4    1.30    0.40
  -2   2   4    1.30    0.40
  -2   2   4    2.10    0.50
  -2  -2   4    1.30    0.40
   2  -2  -4    2.10    0.40
  -2   2   3 3852.11   94.19
  -2   2   3 3849.42   95.09
   2   2  -3 3733.33   90.29
  -2   2   3 3655.43   89.59
   2   2  -3 3849.31   94.79
   2  -2  -3 3886.91   90.49
  -2  -2   3 3726.63   89.59
   2  -2  -3 4035.40   94.29
  -2  -2   3 3925.31   89.79
  -2  -2   3 3700.13   94.29
   2   2  -2  319.97    8.20
   2   2  -2  320.27    8.20
   2   2  -2  330.17    8.40
  -2   2   2  326.37    8.60
  -2   2   2  333.57    8.10
  -2  -2   2  353.46    8.40
  -2  -2   2  327.97    8.20
   2  -2  -2  320.87    8.60
  -2  -2   2  328.87    8.20
   2  -2  -2  319.97    8.20
  -2   2   1 9396.76  233.58
  -2   2   1 9008.90  221.98
   2   2  -1 9336.47  222.08
   2   2  -1 9853.61  222.38
   2   2  -1 9703.53  232.48
  -2  -2   1 9937.71  222.08
  -2  -2   1 9466.25  222.38
   2  -2  -1 8195.18  221.78
   2  -2  -1 9999.00  233.68
  -2   2   0   -0.30    0.40
   2   2   0   -0.80    0.40
  -2   2   0   -0.70    0.50
   2   2   0   -0.70    0.30
  -2  -2   0   -1.10    0.30
  -2  -2   0    0.00    0.30
   2  -2   0    0.30    0.50
  -2  -2   0   -0.10    0.30
   2  -2   0   -0.90    0.40
  -2   2  -1 5086.49  133.69
   2   2   1 5592.24  133.19
   2   2   1 5221.58  133.39
   2   2   1 5613.44  125.69
  -2   2  -1 5524.75  126.69
  -2  -2  -1 5412.26  133.39
   2  -2   1 5397.06  126.79
  -2  -2  -1 5457.05  125.69
   2  -2   1 4912.01  133.09
  -2   2  -2   67.59    2.00
   2   2   2   70.59    2.30
  -2   2  -2   67.69    2.20
   2   2   2   66.09    2.20
  -2  -2  -2   68.19    2.20
  -2  -2  -2   66.09    2.20
   2  -2   2   67.49    2.00
   2  -2   2   67.59    2.20
  -2   2  -3 2662.43   64.69
   2   2   3 2670.13   64.79
   2   2   3 2516.35   60.99
  -2   2  -3 2666.73   61.39
  -2  -2  -3 2418.46   61.29
   2  -2   3 2520.95   64.59
  -2  -2  -3 2702.83   64.69
   2  -2   3 2608.74   61.29
   2  -2   3 2721.63   61.39
   2   2   4   27.40    1.50
  -2   2  -4   28.40    1.40
   2   2   4   27.90    1.00
   2   2   4   27.70    1.10
  -2   2  -4   28.90    1.30
  -2  -2  -4   27.70    1.00
  -2  -2  -4   27.40    1.40
   2  -2   4   27.30    1.20
   2  -2   4   27.10    1.20
   2   2   5  748.23   17.80
   2   2   5  763.22   17.80
  -2   2  -5  759.22   19.30
   2   2   5  745.63   19.50
  -2  -2  -5  667.83   17.70
  -2  -2  -5  752.52   19.30
   2  -2   5  745.63   18.10
   2   2   6    0.20    0.50
  -2   2  -6   -0.20    0.60
   2   2   6    0.90    0.70
   2  -2   6    0.70    0.60
  -2   2  -7  384.36   11.10
   2   2   7  386.56   11.40
   2  -2   7  393.26   10.20
   2  -2   7  388.86   11.20
   2   2   8    5.10    1.20
  -2   2  -8    3.40    1.10
   2  -2   8    4.80    1.20
  -2  -3   9   51.89    3.20
  -2   3   8   42.30    2.80
   2   3  -8   43.30    2.50
  -2  -3   8   43.30    2.50
  -2  -3   8   40.60    2.40
   2   3  -7  477.85   13.40
  -2   3   7  506.35   13.90
  -2   3   7  497.65   12.80
  -2  -3   7  497.85   13.10
  -2  -3   7  502.95   13.60
   2  -3  -7  497.75   12.70
   2   3  -6   15.40    1.20
  -2   3   6   14.80    1.40
  -2  -3   6   10.50    1.20
   2  -3  -6   13.00    1.10
  -2  -3   6   15.20    1.30
   2   3  -5  128.29    4.00
  -2   3   5  127.99    4.20
   2  -3  -5  127.29    3.80
  -2  -3   5  127.39    4.00
  -2   3   4 1223.98   30.60
   2   3  -4 1242.08   30.30
  -2   3   4 1184.28   28.90
   2  -3  -4 1201.78   28.90
  -2  -3   4 1228.88   29.20
  -2  -3   4 1177.78   30.40
   2   3  -3  950.80   23.50
  -2   3   3  972.20   24.70
  -2   3   3  960.10   23.30
   2   3  -3  985.10   24.40
  -2  -3   3  986.40   24.40
   2  -3  -3  982.70   23.40
  -2  -3   3  967.60   23.40
  -2  -3   3  996.90   23.50
  -2   3   2   82.99    2.40
   2   3  -2   84.69    2.50
   2   3  -2   83.89    2.50
  -2   3   2   78.59    2.60
  -2  -3   2   85.09    2.40
   2  -3  -2   84.59    2.50
  -2  -3   2   83.49    2.50
  -2  -3   2   85.39    2.50
   2  -3  -2   81.99    2.60
   2   3  -1  212.78    5.60
   2   3  -1  213.38    5.40
  -2   3   1  213.18    5.40
  -2  -3   1  203.38    5.40
  -2  -3   1  213.38    5.30
  -2  -3   1  214.48    5.50
   2  -3  -1  216.68    5.40
   2  -3  -1  204.58    5.70
  -2   3   0 1152.28   27.40
  -2   3   0 1167.68   28.80
   2   3   0 1130.99   28.70
   2   3   0 1203.48   27.30
  -2  -3   0 1161.78   28.70
  -2  -3   0 1129.29   27.30
   2  -3   0 1155.58   28.80
   2  -3   0 1153.58   27.40
   2   3   1    2.00    0.30
  -2   3  -1    1.80    0.30
   2  -3   1    2.20    0.40
   2   3   2 1016.50   24.80
   2   3   2  999.10   23.10
  -2   3  -2  963.10   23.50
  -2   3  -2  927.01   24.80
   2   3   2 1002.40   24.70
  -2  -3  -2  955.50   23.20
  -2  -3  -2 1000.00   24.80
   2  -3   2  998.50   23.50
   2  -3   2  987.80   24.80
  -2   3  -3 1573.84   39.30
   2   3   3 1585.54   39.40
   2   3   3 1585.44   36.80
  -2   3  -3 1565.64   37.30
   2  -3   3 1618.54   37.30
  -2  -3  -3 1497.25   36.90
   2   3   4  440.46   10.60
   2   3   4  442.76   11.90
  -2   3  -4  444.56   11.80
  -2  -3  -4  440.26   10.60
   2  -3   4  433.86   11.00
   2   3   5  474.45   11.60
  -2   3  -5  465.45   12.80
   2   3   5  476.65   13.00
   2   3   5  475.05   11.60
  -2  -3  -5  485.45   11.50
   2  -3   5  473.05   12.00
   2   3   6  169.48    5.90
  -2   3  -6  187.28    5.80
   2   3   6  183.78    4.80
   2  -3   6  177.78    5.20
  -2  -3  -6  179.28    4.70
  -2   3  -7  515.75   14.20
   2   3   7  522.15   14.50
   2  -3   7  508.55   14.30
   2  -3   7  493.05   13.10
   2   3   8   14.00    2.10
  -2   3  -8   21.10    2.00
   2  -3   8   19.30    1.80
   2  -3   8   21.30    2.20
  -2   4   8  277.57    8.90
  -2  -4   8  277.17    8.20
  -2  -4   8  284.57    8.60
  -2   4   7   10.50    1.70
   2   4  -7   15.00    1.50
  -2  -4   7   11.90    1.60
  -2  -4   7   14.30    1.60
   2  -4  -7   12.10    1.40
   2   4  -6  526.95   14.10
  -2   4   6  531.85   14.60
   2  -4  -6  537.45   13.40
  -2  -4   6  525.55   13.70
   2   4  -5    0.50    0.50
  -2   4   5    0.00    0.50
   2  -4  -5    0.50    0.50
  -2  -4   5    1.20    0.50
  -2   4   4  501.95   13.40
   2   4  -4  498.15   13.00
   2  -4  -4  509.85   12.50
  -2  -4   4  483.95   13.00
  -2  -4   4  509.35   12.70
  -2   4   3   34.70    1.30
   2   4  -3   30.80    1.40
  -2   4   3   29.60    1.50
  -2  -4   3   29.80    1.40
   2  -4  -3   31.00    1.40
  -2  -4   3   31.80    1.30
   2   4  -2  242.78    6.50
   2   4  -2  256.87    6.70
  -2   4   2  251.57    6.40
  -2   4   2  242.88    6.80
   2  -4  -2  259.27    6.50
  -2  -4   2  247.78    6.40
   2  -4  -2  238.98    6.80
  -2  -4   2  248.18    6.60
  -2  -4   2  241.88    6.50
   2   4  -1    0.60    0.30
   2   4  -1    0.60    0.30
  -2   4   1    0.90    0.40
  -2  -4   1    1.50    0.40
   2  -4  -1    1.00    0.30
   2  -4  -1    0.70    0.40
  -2  -4   1    0.60    0.30
   2   4   0  139.49    3.70
  -2   4   0  135.39    3.80
   2   4   0  136.39    4.00
  -2   4   0  142.99    4.10
   2  -4   0  140.29    3.80
   2  -4   0  145.09    4.10
  -2  -4   0  139.99    3.90
  -2  -4   0  135.79    3.70
   2   4   1  193.58    5.50
  -2   4  -1  183.18    5.50
  -2   4  -1  195.08    5.20
   2   4   1  205.48    5.00
  -2  -4  -1  191.28    5.00
  -2  -4  -1  199.48    5.40
   2  -4   1  202.98    5.50
  -2   4  -2 2835.32   65.79
   2   4   2 2916.01   69.29
   2   4   2 2847.11   65.49
   2   4   2 2745.83   69.09
  -2   4  -2 2827.12   69.39
  -2  -4  -2 2692.23   69.19
   2  -4   2 2701.13   69.19
   2  -4   2 2885.61   65.79
  -2  -4  -2 2712.73   65.89
   2   4   3   51.99    2.10
   2   4   3   52.99    1.60
  -2   4  -3   49.70    2.10
   2  -4   3   53.39    1.90
  -2  -4  -3   52.99    1.60
  -2   4  -4  840.32   21.70
   2   4   4  828.72   21.80
   2   4   4  849.32   19.90
  -2  -4  -4  834.02   20.00
   2  -4   4  847.22   20.50
   2   4   5  184.78    4.90
   2   4   5  189.38    6.00
  -2   4  -5  191.48    5.90
   2  -4   5  182.48    5.40
  -2  -4  -5  198.48    4.90
   2   4   6 1056.19   27.50
   2   4   6 1069.39   25.10
  -2   4  -6 1035.90   27.20
   2  -4   6 1033.60   25.60
  -2   4  -7    4.40    1.00
   2   4   7    2.10    1.00
   2  -4   7    3.70    0.90
  -2   4  -8  317.07    9.80
   2   4   8  323.57   10.20
   2  -4   8  329.47    9.10
   2  -4   8  319.27    9.90
  -2   5   8   15.10    2.30
  -2  -5   8   17.40    2.00
  -2   5   7   -1.00    0.90
   2   5  -7   -0.40    0.80
  -2  -5   7    0.90    0.90
  -2  -5   7    1.00    0.90
  -2   5   6  372.16   10.80
   2   5  -6  365.16   10.20
  -2  -5   6  377.96   10.10
   2  -5  -6  371.56    9.70
  -2   5   5   54.19    2.50
   2   5  -5   54.89    2.20
  -2  -5   5   57.79    2.40
   2  -5  -5   58.69    2.20
   2   5  -4 1252.27   31.20
  -2   5   4 1226.68   31.50
   2  -5  -4 1218.08   29.80
  -2  -5   4 1253.37   30.00
  -2   5   3   18.60    1.20
  -2   5   3   18.30    1.10
   2   5  -3   18.90    1.10
   2  -5  -3   18.70    1.10
  -2  -5   3   16.90    1.10
  -2  -5   3   18.60    1.10
  -2   5   2 1396.46   35.60
  -2   5   2 1457.75   33.70
   2   5  -2 1378.76   35.40
  -2  -5   2 1405.26   35.20
   2  -5  -2 1442.96   33.70
  -2  -5   2 1415.16   33.80
  -2   5   1   14.40    0.80
   2   5  -1   15.90    0.90
   2   5  -1   16.00    1.00
  -2  -5   1   14.60    0.90
   2  -5  -1   15.40    0.90
  -2  -5   1   14.10    0.90
  -2   5   0 1830.42   44.60
   2   5   0 1861.41   42.30
   2   5   0 1743.43   44.40
  -2   5   0 1776.62   42.30
   2  -5   0 1771.32   42.30
   2  -5   0 1716.43   44.60
  -2  -5   0 1809.22   44.40
  -2  -5   0 1794.02   42.20
   2   5   1  109.49    3.40
  -2   5  -1  114.89    3.60
   2   5   1  111.49    3.00
   2  -5   1  108.19    3.40
  -2  -5  -1  106.49    3.40
  -2  -5  -1  110.89    3.00
   2   5   2  550.44   14.70
  -2   5  -2  570.74   14.80
   2   5   2  572.04   13.50
  -2  -5  -2  564.14   13.60
   2  -5   2  552.34   13.90
   2   5   3  277.77    7.90
   2   5   3  284.67    6.90
  -2   5  -3  278.47    8.00
   2  -5   3  284.37    7.40
  -2  -5  -3  273.97    7.00
   2   5   4  294.77    8.60
  -2   5  -4  301.47    8.60
   2   5   4  300.57    7.40
   2  -5   4  291.17    7.90
  -2  -5  -4  300.07    7.40
   2   5   5   40.80    2.20
  -2   5  -5   38.30    2.00
   2  -5   5   38.70    1.90
  -2  -5  -5   41.20    1.50
  -2   5  -6   22.50    1.70
   2   5   6   20.90    1.80
   2  -5   6   17.90    1.50
   2   5   7  157.08    5.60
  -2   5  -7  150.38    5.40
   2  -5   7  149.49    4.90
  -2   5  -8    1.60    1.20
   2  -5   8    3.80    1.20
   2  -5   8    1.70    1.30
  -2   6   7   31.40    2.50
  -2  -6   7   32.80    2.20
  -2   6   6   10.10    1.60
   2   6  -6   11.10    1.40
  -2  -6   6   10.70    1.40
   2  -6  -6   10.60    1.40
   2   6  -5  783.52   20.20
  -2   6   5  758.22   20.70
   2  -6  -5  793.12   19.30
  -2  -6   5  783.32   19.60
   2   6  -4  296.47    8.00
  -2   6   4  283.07    8.30
  -2  -6   4  280.97    7.80
   2  -6  -4  280.97    7.70
  -2   6   3 2498.55   62.89
   2   6  -3 2521.55   62.69
   2  -6  -3 2522.25   59.69
  -2  -6   3 2540.35   59.79
   2   6  -2  118.09    3.80
   2  -6  -2  121.49    3.60
  -2  -6   2  122.29    3.70
  -2  -6   2  114.69    3.60
   2   6  -1 1341.27   32.30
  -2   6   1 1282.97   32.40
  -2  -6   1 1296.47   30.70
   2  -6  -1 1262.17   30.70
  -2  -6   1 1235.08   32.10
  -2   6   0   75.99    2.70
   2   6   0   76.89    2.40
   2   6   0   78.09    2.60
  -2  -6   0   74.69    2.40
   2  -6   0   75.19    2.50
  -2  -6   0   79.79    2.60
   2   6   1 1840.02   42.80
  -2   6  -1 1823.22   45.30
   2   6   1 1796.92   45.20
  -2  -6  -1 1786.42   42.80
   2  -6   1 1799.72   43.00
   2   6   2   11.90    0.80
  -2   6  -2   12.10    1.10
   2   6   2   12.00    1.10
  -2  -6  -2   13.40    0.80
   2  -6   2   13.70    0.90
   2   6   3  687.73   18.40
  -2   6  -3  723.93   18.60
   2   6   3  705.33   16.90
   2  -6   3  705.93   17.40
  -2  -6  -3  683.93   17.00
  -2   6  -4  191.98    6.10
   2   6   4  185.48    5.00
   2   6   4  191.48    6.10
  -2  -6  -4  195.28    5.10
   2  -6   4  192.28    5.50
   2   6   5  148.99    5.10
  -2   6  -5  152.28    5.10
   2  -6   5  135.59    4.50
  -2  -6  -5  148.29    4.00
   2   6   6    1.80    0.90
  -2   6  -6    1.80    0.80
   2  -6   6    1.80    0.70
  -2   6  -7   29.10    2.30
   2   6   7   22.00    2.30
   2  -6   7   26.20    1.90
  -2   6  -8   82.59    4.20
   2  -6   8   87.89    3.70
  -2   7   7  430.86   12.80
  -2  -7   7  432.86   11.90
  -2   7   6    0.90    0.90
   2   7  -6    3.20    0.80
  -2  -7   6    2.30    0.80
   2  -7  -6    2.10    0.90
  -2   7   5  331.37    9.80
   2   7  -5  328.17    9.30
  -2  -7   5  329.37    9.20
   2  -7  -5  333.27    8.90
  -2   7   4  381.16   10.80
   2   7  -4  405.76   10.60
  -2  -7   4  363.86   10.20
   2  -7  -4  377.76   10.10
  -2   7   3  128.49    4.40
   2   7  -3  126.59    4.30
   2  -7  -3  133.89    4.10
  -2  -7   3  126.69    4.10
   2   7  -2   39.90    2.00
  -2   7   2   42.30    2.00
  -2  -7   2   42.30    1.80
   2  -7  -2   41.80    1.80
  -2   7   1   50.89    2.20
   2   7  -1   54.59    2.20
  -2  -7   1   50.59    2.00
   2  -7  -1   52.59    2.00
  -2   7   0  534.95   14.10
   2   7   0  540.15   14.00
   2  -7   0  532.45   13.30
  -2  -7   0  520.85   13.20
   2   7   1   21.10    1.40
   2  -7   1   21.30    1.20
  -2  -7  -1   21.50    1.10
  -2   7  -2   53.39    2.50
   2   7   2   51.89    1.90
   2   7   2   53.79    2.30
  -2  -7  -2   54.59    1.90
   2  -7   2   51.69    2.10
  -2   7  -3  743.93   19.60
   2   7   3  728.63   17.80
   2   7   3  756.92   19.50
  -2  -7  -3  715.23   17.90
   2  -7   3  738.03   18.30
  -2   7  -4   59.19    2.80
   2   7   4   57.49    2.70
  -2  -7  -4   62.09    2.10
   2  -7   4   57.49    2.40
   2   7   5  785.02   20.90
  -2   7  -5  764.92   20.80
   2  -7   5  776.62   19.50
  -2   7  -6   48.40    2.70
   2   7   6   45.00    2.80
   2  -7   6   43.60    2.30
  -2   7  -7  342.77   10.40
   2   7   7  339.97   10.70
   2  -7   7  342.77    9.60
  -2   7  -8    4.80    1.60
  -2   8   7    9.00    1.50
  -2   8   6  196.18    6.70
  -2  -8   6  195.58    6.20
  -2   8   5    3.70    0.90
   2   8  -5    3.60    0.90
   2  -8  -5    6.30    1.00
  -2  -8   5    3.70    0.80
  -2   8   4  492.65   13.80
   2   8  -4  494.55   13.50
  -2  -8   4  502.55   13.00
   2  -8  -4  482.35   12.80
  -2   8   3    8.30    1.20
  -2  -8   3    5.20    1.00
   2  -8  -3    6.20    1.10
  -2   8   2   19.60    1.40
   2   8  -2   18.20    1.60
   2  -8  -2   22.80    1.30
  -2  -8   2   21.40    1.30
  -2   8   1  370.66   10.30
   2   8  -1  380.06   10.30
  -2  -8   1  370.26    9.70
   2  -8  -1  360.46    9.60
   2   8   0   20.70    1.40
  -2   8   0   19.40    1.40
  -2  -8   0   18.80    1.20
   2  -8   0   19.30    1.20
  -2   8  -1   49.60    2.30
   2   8   1   50.19    2.20
   2  -8   1   48.60    2.10
  -2  -8  -1   52.39    2.00
   2   8   2  597.14   16.30
  -2   8  -2  633.64   16.60
   2  -8   2  600.14   15.30
  -2  -8  -2  603.54   15.10
   2   8   3   61.09    2.70
  -2   8  -3   55.29    2.90
  -2  -8  -3   56.19    2.20
   2  -8   3   52.79    2.30
  -2   8  -4  252.17    8.20
   2   8   4  273.17    8.20
  -2  -8  -4  262.47    7.10
   2  -8   4  269.37    7.50
  -2   8  -5    4.70    1.00
   2   8   5    4.20    1.00
   2  -8   5    5.10    0.90
  -2   8  -6  329.97   10.00
   2   8   6  324.97   10.20
   2  -8   6  328.17    9.30
  -2   8  -7   20.80    2.60
  -2   9   6  144.79    5.50
  -2  -9   6  141.49    5.00
  -2   9   5   57.19    3.00
   2   9  -5   57.29    2.80
   2  -9  -5   50.79    2.70
  -2  -9   5   56.89    2.70
   2   9  -4  886.31   23.30
  -2   9   4  891.11   23.60
   2  -9  -4  859.21   22.10
  -2  -9   4  906.31   22.30
  -2   9   3    7.00    1.20
   2   9  -3    6.60    1.10
  -2  -9   3    4.20    0.70
   2  -9  -3    5.00    0.90
   2   9  -2  380.36   11.10
  -2   9   2  403.36   11.10
  -2  -9   2  371.66   10.30
   2  -9  -2  409.26   10.40
  -2   9   1   59.59    2.60
   2   9  -1   59.29    2.60
  -2  -9   1   55.99    2.30
   2  -9  -1   58.79    2.30
  -2   9   0 1527.95   38.70
   2   9   0 1536.75   38.60
  -2  -9   0 1491.45   36.50
   2  -9   0 1521.75   36.60
   2   9   1   11.70    1.30
  -2   9  -1   12.20    1.40
  -2  -9  -1   13.90    1.10
   2  -9   1   11.50    1.10
   2   9   2  260.67    8.00
  -2   9  -2  269.37    8.20
   2  -9   2  260.17    7.40
  -2  -9  -2  268.27    7.20
  -2   9  -3   43.80    2.70
   2   9   3   44.80    2.50
  -2  -9  -3   44.80    2.10
   2  -9   3   43.20    2.10
  -2   9  -4  263.77    8.90
   2   9   4  294.77    8.80
   2  -9   4  293.17    8.10
  -2   9  -5   25.20    2.30
   2   9   5   24.80    2.20
   2  -9   5   27.20    1.90
   2   9   6   56.29    3.10
  -2   9  -6   42.30    3.20
   2  -9   6   53.49    2.70
  -2   9  -7   23.70    2.80
  -2  10   5  195.98    6.80
  -2 -10   5  184.08    6.10
  -2  10   4   32.90    2.20
   2  10  -4   32.70    2.40
  -2 -10   4   27.30    1.90
   2 -10  -4   32.60    2.30
  -2  10   3  374.16   10.60
   2  10  -3  316.27   10.60
   2 -10  -3  379.16   10.00
  -2 -10   3  377.66   10.00
   2  10  -2   40.90    2.50
  -2  10   2   43.30    2.30
  -2 -10   2   45.20    2.10
   2 -10  -2   42.40    2.10
   2  10  -1  363.36   10.40
  -2  10   1  357.66   10.30
  -2 -10   1  356.66    9.60
   2 -10  -1  354.36    9.60
  -2  10   0    6.10    1.20
   2  10   0    7.00    1.30
   2 -10   0    8.20    1.00
  -2 -10   0    7.70    1.10
  -2  10  -1  464.15   13.50
   2  10   1  477.55   13.40
   2 -10   1  493.05   12.70
  -2 -10  -1  499.75   12.50
  -2  10  -2   52.89    2.90
   2  10   2   51.59    2.60
   2 -10   2   51.19    2.40
  -2 -10  -2   54.29    2.40
   2  10   3  234.78    7.60
  -2  10  -3  240.78    7.90
   2 -10   3  241.28    7.00
  -2 -10  -3  231.78    6.80
  -2  10  -4   65.69    3.70
   2  10   4   77.99    3.60
   2 -10   4   76.39    3.10
   2  10   5   82.29    3.90
  -2  10  -5   82.39    4.10
   2 -10   5   84.89    3.50
  -2  10  -6  168.78    6.50
   2  11  -4   34.20    2.80
  -2  11   4   37.90    2.50
   2 -11  -4   37.20    2.70
  -2 -11   4   33.30    2.20
  -2  11   3  105.29    4.20
   2  11  -3   91.49    4.40
   2 -11  -3  103.59    3.90
  -2 -11   3  101.69    3.80
  -2  11   2    8.30    1.40
   2  11  -2    9.40    1.80
  -2 -11   2    9.50    1.30
   2 -11  -2   10.40    1.40
  -2  11   1   -0.50    0.70
   2  11  -1    1.90    0.90
   2 -11  -1    0.60    0.70
  -2 -11   1    0.00    0.70
   2  11   0  169.08    5.80
  -2  11   0  169.98    5.90
   2 -11   0  175.28    5.40
  -2 -11   0  166.48    5.30
  -2  11  -1   56.59    2.90
   2  11   1   55.39    2.80
   2 -11   1   55.09    2.50
  -2 -11  -1   55.99    2.50
   2  11   2    0.60    0.80
  -2  11  -2   -1.10    0.90
   2 -11   2    0.90    0.70
  -2 -11  -2    1.80    0.80
  -2  11  -3  244.38    8.40
   2  11   3  250.67    8.00
   2 -11   3  251.87    7.40
   2  11   4    1.80    1.10
  -2  11  -4    2.30    1.30
   2 -11   4    3.20    0.90
  -2  11  -5  177.88    6.90
  -2  12   3   96.99    4.10
   2  12  -3   88.59    4.50
   2 -12  -3   99.49    4.10
  -2 -12   3   94.89    3.80
  -2  12   2    5.20    1.10
   2  12  -2    5.80    1.30
  -2 -12   2    4.90    1.00
   2 -12  -2    7.50    1.20
   2  12  -1  282.47    8.90
  -2  12   1  285.47    8.90
   2 -12  -1  285.67    8.20
  -2 -12   1  284.27    8.20
   2  12   0   60.29    3.20
  -2  12   0   63.99    3.20
   2 -12   0   60.19    2.80
  -2 -12   0   61.69    2.80
   2  12   1  184.28    6.40
  -2  12  -1  192.98    6.60
   2 -12   1  181.28    5.90
  -2 -12  -1  186.18    5.80
   2  12   2   65.69    3.40
  -2  12  -2   66.19    3.60
  -2 -12  -2   66.89    3.00
   2 -12   2   61.69    3.00
   2  12   3   46.60    2.90
  -2  12  -3   49.99    3.40
   2 -12   3   52.19    2.80
  -2  12  -4   80.39    4.50
  -2  12  -5   52.99    4.20
   2  13  -2  227.88    8.10
   2 -13  -2  245.38    7.40
   2  13  -1    2.00    1.30
  -2  13   1    2.60    1.10
  -2 -13   1    2.60    1.10
   2 -13  -1    1.70    1.00
   2  13   0  229.88    7.70
  -2  13   0  223.18    7.70
   2 -13   0  231.48    7.10
  -2 -13   0  229.18    7.00
  -2  13  -1    0.30    1.20
   2  13   1    0.50    1.10
  -2 -13  -1    2.20    1.00
   2 -13   1   -0.40    1.10
  -2  13  -2  260.67    8.70
   2  13   2  248.88    8.30
  -2  13  -3    4.90    1.70
   2  14  -1  116.09    5.30
   2  14   0   20.30    2.70
  -3   0   8  100.09    4.00
  -3   0   8   99.69    3.70
  -3   0   7    0.50    0.80
  -3   0   7    0.00    0.70
   3   0  -7    1.40    0.80
   3   0  -6    3.30    0.60
  -3   0   6    2.40    0.60
  -3   0   6    3.40    0.70
   3   0  -5    0.90    0.50
  -3   0   5    0.10    0.40
  -3   0   5    1.80    0.50
  -3   0   4   81.99    2.60
   3   0  -4   77.99    2.60
  -3   0   4   76.69    2.60
  -3   0   3    0.10    0.20
   3   0  -3    0.10    0.30
   3   0  -2 2150.28   54.09
  -3   0   2 2072.09   54.19
  -3   0   2 2234.38   53.89
   3   0  -2 2239.48   51.49
  -3   0   2 2242.98   51.39
   3   0  -1    0.90    0.20
   3   0  -1    1.10    0.20
   3   0   0 3372.66   78.39
  -3   0   0 3325.67   78.39
  -3   0   0 3154.28   82.09
   3   0   0 3389.86   82.09
  -3   0  -1    0.10    0.10
   3   0   1    0.00    0.20
  -3   0  -1    0.60    0.30
  -3   0  -2 2024.80   50.29
   3   0   2 2009.40   47.60
   3   0   2 2148.09   50.29
  -3   0  -2 1918.01   47.50
   3   0   3   -2.10    0.20
  -3   0  -3   -2.00    0.30
   3   0   3   -1.30    0.30
   3   0   3   -2.30    0.20
   3   0   4 1101.49   26.10
  -3   0  -4 1096.69   28.00
   3   0   4 1109.39   26.20
   3   0   5    0.80    0.50
   3   0   5    0.70    0.30
   3   0   5    0.70    0.50
  -3   0  -5    0.20    0.40
   3   0   6  325.77    8.20
   3   0   6  314.97    9.30
  -3   0  -6  315.87    9.20
   3   0   7    2.80    0.90
  -3   0  -7    1.50    0.80
  -3   0  -8  171.88    6.00
   3   0   8  172.48    6.20
  -3   1   9  165.48    6.10
  -3   1   8  196.98    6.50
  -3   1   8  186.48    5.90
   3  -1  -8  192.88    5.80
  -3  -1   8  182.18    5.90
  -3  -1   8  195.18    6.30
  -3   1   7  121.99    4.30
  -3   1   7  117.39    4.00
   3   1  -7  120.89    4.00
  -3  -1   7  120.69    4.20
  -3  -1   7  120.49    4.10
   3  -1  -7  122.49    3.90
  -3   1   6  626.64   16.60
   3   1  -6  630.94   15.70
  -3   1   6  613.54   15.80
  -3  -1   6  633.04   16.50
   3  -1  -6  622.74   15.60
  -3  -1   6  631.34   15.90
   3   1  -5    1.20    0.50
   3   1  -5    0.10    0.40
  -3   1   5   -0.10    0.40
   3  -1  -5    0.30    0.40
  -3  -1   5    1.60    0.50
  -3  -1   5    0.50    0.40
  -3   1   4  641.84   16.40
   3   1  -4  637.14   15.70
   3   1  -4  605.94   16.20
  -3   1   4  617.74   16.30
  -3  -1   4  640.54   15.80
  -3  -1   4  654.83   16.30
  -3  -1   4  654.83   16.30
   3  -1  -4  651.23   15.60
   3   1  -3  325.27    8.40
  -3   1   3  324.47    8.20
  -3   1   3  324.17    8.50
   3   1  -3  326.17    8.20
  -3   1   3  315.77    8.50
   3  -1  -3  328.37    8.20
   3  -1  -3  311.27    8.50
  -3  -1   3  325.77    8.30
  -3  -1   3  339.27    8.40
  -3  -1   3  326.67    8.20
  -3  -1   3  323.67    8.40
  -3   1   2 3033.10   77.39
   3   1  -2 3048.90   76.99
  -3   1   2 3111.79   73.29
   3   1  -2 3163.98   73.99
  -3  -1   2 3107.69   77.29
  -3  -1   2 3199.28   77.09
   3  -1  -2 3182.38   77.29
   3  -1  -2 3094.79   73.69
  -3  -1   2 3096.09   73.29
   3   1  -1  536.45   12.90
  -3   1   1  510.75   13.50
  -3  -1   1  552.44   12.90
   3  -1  -1  554.94   13.50
   3   1   0  837.82   19.90
   3   1   0  816.42   20.80
  -3   1   0  876.81   21.00
   3   1   0  787.92   20.80
  -3   1   0  902.71   20.00
  -3  -1   0  795.32   19.80
   3  -1   0  880.31   20.00
  -3  -1   0  830.82   20.90
   3  -1   0  868.91   21.00
  -3   1  -1 2993.50   70.19
  -3   1  -1 2796.12   73.99
   3   1   1 3105.49   73.89
   3  -1   1 3025.40   70.29
  -3  -1  -1 2930.31   74.09
  -3   1  -2  926.11   22.10
   3   1   2  934.11   23.50
  -3   1  -2  917.71   23.40
   3  -1   2  926.31   22.00
   3  -1   2  939.31   23.40
  -3  -1  -2  952.50   23.40
   3   1   3  982.60   25.20
  -3   1  -3  977.80   25.20
  -3   1  -3 1016.50   23.70
   3   1   3  977.30   23.40
   3   1   3 1009.90   23.40
   3   1   3 1035.60   25.30
   3  -1   3 1003.80   23.60
  -3  -1  -3 1012.70   25.20
   3  -1   3  981.60   23.60
   3  -1   3  964.40   25.10
   3   1   4   62.19    1.80
   3   1   4   61.49    2.40
  -3   1  -4   65.39    2.40
   3   1   4   66.79    1.90
  -3  -1  -4   63.39    2.40
   3  -1   4   63.09    2.00
   3  -1   4   62.89    2.00
   3   1   5  777.42   20.30
   3   1   5  719.23   18.50
   3   1   5  786.82   18.60
  -3   1  -5  792.12   20.20
   3  -1   5  774.82   18.70
   3  -1   5  761.42   18.70
  -3  -1  -5  813.62   20.30
  -3   1  -6  201.28    6.30
   3   1   6  209.58    5.40
   3   1   6  206.78    6.50
  -3  -1  -6  200.38    6.30
   3  -1   6  199.68    6.40
   3  -1   6  201.08    5.50
   3   1   7  239.78    7.60
  -3   1  -7  236.38    7.40
  -3  -1  -7  237.38    7.40
   3  -1   7  236.58    6.50
   3  -1   7  230.48    7.50
   3   1   8  241.88    8.00
  -3   1  -8  241.38    7.80
   3  -1   8  239.88    7.90
  -3   2   9  183.68    6.60
  -3  -2   9  179.18    6.10
  -3   2   8    2.80    1.10
  -3   2   8    3.90    1.00
  -3  -2   8    2.40    1.00
  -3  -2   8    1.90    1.00
   3  -2  -8    2.70    1.10
  -3   2   7  509.05   13.20
   3   2  -7  495.75   13.70
  -3   2   7  523.25   14.10
  -3  -2   7  519.05   13.90
   3  -2  -7  515.95   13.10
  -3  -2   7  504.85   13.40
   3   2  -6   10.00    1.10
   3   2  -6   10.10    1.20
  -3   2   6   10.90    1.30
   3  -2  -6    9.40    1.10
  -3  -2   6   10.10    1.10
  -3  -2   6   12.00    1.10
  -3   2   5  824.62   21.40
   3   2  -5  835.42   21.10
   3   2  -5  810.72   20.30
   3  -2  -5  828.92   20.20
  -3  -2   5  836.12   21.20
  -3  -2   5  830.12   20.40
   3   2  -4   10.40    0.80
   3   2  -4   10.80    0.90
  -3   2   4   10.10    0.90
  -3  -2   4   10.00    0.80
  -3  -2   4    9.10    0.80
   3  -2  -4   10.10    0.90
  -3   2   3 2313.57   58.29
  -3   2   3 2399.26   58.39
   3   2  -3 2416.66   55.69
  -3   2   3 2360.96   55.59
   3   2  -3 2300.27   58.09
   3  -2  -3 2297.47   58.39
   3  -2  -3 2415.36   55.59
  -3  -2   3 2324.67   55.59
  -3  -2   3 2397.56   58.19
  -3  -2   3 2359.66   55.69
   3   2  -2  583.64   14.30
  -3   2   2  570.64   14.60
  -3   2   2  577.24   13.90
   3  -2  -2  579.44   13.90
  -3  -2   2  566.94   13.90
  -3  -2   2  556.74   14.00
   3  -2  -2  560.04   14.60
  -3  -2   2  594.54   14.30
   3   2  -1 2518.55   58.39
  -3   2   1 2402.86   61.49
  -3   2   1 2432.46   58.19
  -3  -2   1 2455.25   57.89
  -3  -2   1 2476.25   58.19
   3  -2  -1 2515.35   60.99
   3  -2  -1 2435.96   58.29
   3   2   0   73.89    2.00
  -3   2   0   70.19    2.20
   3   2   0   70.49    2.00
   3   2   0   74.19    2.00
   3   2   0   75.49    2.00
  -3   2   0   78.59    2.10
  -3  -2   0   73.89    2.00
  -3  -2   0   71.79    2.00
   3  -2   0   71.29    2.10
  -3  -2   0   74.39    2.00
   3   2   1  780.82   19.10
  -3   2  -1  768.42   18.20
  -3   2  -1  749.73   19.30
   3   2   1  755.72   19.20
   3  -2   1  757.02   18.20
   3  -2   1  751.62   19.30
  -3  -2  -1  791.12   19.20
   3   2   2  268.87    7.30
  -3   2  -2  271.37    7.40
  -3   2  -2  268.67    6.80
   3  -2   2  275.37    6.80
  -3  -2  -2  276.97    7.30
   3   2   3    8.20    0.90
  -3   2  -3    8.60    0.70
  -3   2  -3    9.90    0.90
  -3  -2  -3    9.00    0.80
   3  -2   3    7.30    0.60
   3   2   4   18.80    1.20
   3   2   4   19.20    0.80
   3   2   4   18.30    0.80
  -3   2  -4   19.30    1.10
  -3  -2  -4   19.80    1.20
   3  -2   4   16.80    1.00
   3  -2   4   18.30    0.90
   3   2   5  173.58    5.50
   3   2   5  175.68    4.50
   3   2   5  173.28    4.50
  -3   2  -5  172.18    5.40
  -3  -2  -5  175.58    5.40
   3  -2   5  172.48    4.80
   3   2   6  173.48    4.50
  -3   2  -6  167.88    5.50
   3   2   6  159.48    5.60
  -3  -2  -6  167.88    5.50
   3  -2   6  170.28    4.80
  -3   2  -7  317.27    9.70
   3   2   7  336.27   10.00
   3  -2   7  328.27    9.80
   3  -2   7  330.37    8.70
  -3   2  -8   11.50    1.90
   3   2   8    9.50    1.50
   3  -2   8    9.50    1.40
  -3   3   9   55.89    3.80
  -3   3   8  102.79    4.40
  -3  -3   8  100.99    3.90
  -3   3   7    6.70    1.20
   3   3  -7   11.00    1.40
  -3   3   7    7.20    1.10
   3  -3  -7    8.50    1.30
  -3  -3   7    7.30    1.30
  -3  -3   7    8.20    1.40
   3   3  -6  562.54   14.80
  -3   3   6  563.84   15.20
   3  -3  -6  568.64   14.20
  -3  -3   6  568.14   14.90
  -3  -3   6  548.85   14.40
   3   3  -5   81.09    2.70
  -3   3   5   75.49    3.00
  -3  -3   5   82.49    2.80
  -3  -3   5   79.79    2.90
   3  -3  -5   79.09    2.70
   3   3  -4  450.15   12.10
  -3   3   4  469.15   12.50
  -3  -3   4  477.85   12.20
  -3  -3   4  463.75   11.90
   3  -3  -4  486.55   11.80
   3   3  -3  853.11   20.90
  -3   3   3  864.91   22.00
   3   3  -3  878.71   21.60
  -3   3   3  829.32   20.80
  -3  -3   3  888.11   21.70
   3  -3  -3  863.81   20.90
  -3  -3   3  876.61   21.00
   3   3  -2 3688.03   94.69
   3   3  -2 4109.59   89.69
  -3   3   2 3487.75   94.69
  -3   3   2 3769.12   89.69
  -3  -3   2 3872.11   94.59
   3  -3  -2 3771.02   90.09
  -3  -3   2 3877.01   90.09
  -3  -3   2 3942.71   89.79
   3  -3  -2 3865.01   94.19
   3   3  -1 1674.43   39.30
   3   3  -1 1622.44   41.10
  -3   3   1 1636.34   39.30
  -3   3   1 1687.43   41.30
  -3  -3   1 1720.23   39.30
   3  -3  -1 1674.63   41.40
   3  -3  -1 1727.73   39.40
  -3  -3   1 1577.24   41.00
  -3  -3   1 1674.43   39.30
   3   3   0  838.12   19.50
   3   3   0  773.42   20.40
  -3   3   0  832.62   19.60
  -3   3   0  826.12   20.60
  -3  -3   0  818.32   19.50
   3  -3   0  835.32   19.60
  -3  -3   0  825.02   20.50
   3  -3   0  802.52   20.60
  -3  -3   0  839.22   19.50
  -3   3  -1 2314.87   52.19
  -3   3  -1 2225.68   54.99
   3   3   1 2209.98   54.79
   3   3   1 2351.26   54.69
   3   3   1 2133.39   51.99
   3  -3   1 2199.78   54.89
  -3  -3  -1 2176.98   54.79
  -3  -3  -1 2072.39   52.19
   3  -3   1 2271.67   52.09
   3   3   2  418.46   10.70
   3   3   2  407.06   10.60
  -3   3  -2  426.76   10.90
  -3   3  -2  400.06   10.10
   3  -3   2  414.76   10.10
   3  -3   2  397.36   10.70
  -3  -3  -2  393.36   10.60
  -3   3  -3 1101.49   27.00
  -3   3  -3 1128.19   28.60
   3   3   3 1146.09   28.60
   3  -3   3 1142.79   27.00
   3   3   4   22.60    1.40
  -3   3  -4   22.80    1.40
   3   3   4   24.30    0.80
   3  -3   4   21.00    1.10
   3   3   5 1030.80   26.60
   3   3   5 1072.59   24.30
  -3   3  -5 1026.60   26.40
   3   3   5 1008.70   24.20
   3  -3   5 1022.00   24.80
  -3  -3  -5  988.90   24.20
   3   3   6  246.78    6.50
  -3   3  -6  261.77    7.80
   3   3   6  262.97    8.00
   3  -3   6  262.57    7.00
   3   3   7  118.59    4.70
  -3   3  -7  115.99    4.40
   3  -3   7  114.39    3.80
  -3   3  -8  136.29    5.10
   3   3   8  133.89    5.40
   3  -3   8  134.99    5.20
  -3   4   8   41.90    2.80
  -3  -4   8   40.20    2.50
  -3   4   7   21.90    1.90
   3   4  -7   17.20    1.70
  -3  -4   7   25.90    1.70
  -3  -4   7   21.10    1.80
   3  -4  -7   21.20    1.70
  -3   4   6   13.30    1.50
   3   4  -6   16.00    1.30
  -3  -4   6   14.10    1.30
   3  -4  -6   16.10    1.40
  -3  -4   6   14.10    1.30
   3   4  -5   10.90    1.00
  -3   4   5    8.20    1.10
   3  -4  -5   11.80    1.10
  -3  -4   5    8.90    1.00
  -3   4   4  150.38    4.70
   3   4  -4  153.48    4.30
   3  -4  -4  150.08    4.40
  -3  -4   4  150.18    4.40
  -3  -4   4  144.39    4.50
  -3   4   3  573.34   14.90
  -3   4   3  565.14   14.10
   3   4  -3  581.74   14.60
  -3  -4   3  574.24   14.50
   3  -4  -3  566.34   14.20
  -3  -4   3  575.24   14.30
   3   4  -2 2522.95   59.89
  -3   4   2 2483.85   59.79
   3   4  -2 2447.06   62.69
  -3   4   2 2573.54   62.99
   3  -4  -2 2532.65   59.89
   3  -4  -2 2621.24   62.99
  -3  -4   2 2498.85   62.49
  -3  -4   2 2579.84   59.79
  -3  -4   2 2595.24   59.89
   3   4  -1   70.79    2.20
  -3   4   1   67.29    2.30
  -3   4   1   69.09    2.10
   3   4  -1   72.59    2.20
  -3  -4   1   71.09    2.10
  -3  -4   1   69.29    2.20
   3  -4  -1   68.69    2.20
  -3  -4   1   67.19    2.10
   3   4   0 3204.98   82.79
  -3   4   0 3361.46   83.69
  -3   4   0 3365.96   78.29
   3   4   0 3455.95   78.29
   3  -4   0 3285.77   78.89
  -3  -4   0 3291.87   82.29
  -3  -4   0 3255.37   78.99
   3  -4   0 3460.55   82.29
  -3   4  -1  461.25   11.60
   3   4   1  436.56   11.40
   3   4   1  447.76   10.60
  -3   4  -1  438.16   10.80
   3  -4   1  434.36   10.80
  -3  -4  -1  428.66   10.60
   3  -4   1  425.26   11.40
  -3  -4  -1  438.66   11.40
   3   4   2  986.20   25.30
   3   4   2 1005.60   23.50
  -3   4  -2  940.21   23.90
  -3   4  -2 1020.60   25.50
  -3  -4  -2  965.40   23.60
   3  -4   2 1022.10   24.00
  -3  -4  -2 1052.59   25.40
   3   4   3    1.20    0.50
   3   4   3    2.80    0.40
  -3   4  -3    2.50    0.60
  -3  -4  -3    1.70    0.40
   3  -4   3    2.30    0.50
   3   4   4 1214.58   30.70
   3   4   4 1203.08   28.30
  -3   4  -4 1188.58   30.70
   3  -4   4 1213.18   28.90
  -3  -4  -4 1189.18   28.30
   3   4   5   50.89    1.60
  -3   4  -5   45.30    2.30
   3   4   5   50.09    2.40
   3  -4   5   49.99    2.00
   3   4   6  781.62   20.50
  -3   4  -6  745.83   20.30
   3  -4   6  757.42   18.90
  -3   4  -7   30.60    2.10
   3   4   7   25.20    2.20
   3  -4   7   24.80    1.80
  -3   4  -8  209.58    7.00
   3   4   8  203.88    7.20
   3  -4   8  202.18    7.10
  -3   5   8  107.59    4.60
  -3  -5   8  104.89    4.20
  -3   5   7   20.60    2.00
  -3  -5   7   17.30    1.80
   3  -5  -7   19.80    1.70
  -3  -5   7   21.00    1.80
  -3   5   6  427.76   12.10
   3   5  -6  415.46   11.50
  -3  -5   6  434.46   11.50
   3  -5  -6  433.76   11.20
  -3   5   5   46.40    2.30
   3   5  -5   49.10    2.00
   3  -5  -5   46.10    2.10
  -3  -5   5   47.50    2.20
  -3   5   4  151.68    4.80
   3   5  -4  148.09    4.40
   3  -5  -4  148.79    4.40
  -3  -5   4  142.59    4.40
  -3  -5   4  149.69    4.50
   3   5  -3    3.90    0.70
   3   5  -2  426.06   11.60
  -3   5   2  451.05   11.10
  -3   5   2  437.96   11.80
   3  -5  -2  457.05   11.20
  -3  -5   2  449.76   11.40
  -3  -5   2  445.76   11.20
   3   5  -1  508.85   12.60
  -3   5   1  482.55   12.10
  -3   5   1  486.75   12.80
   3   5  -1  496.25   12.10
  -3  -5   1  487.55   12.00
   3  -5  -1  479.45   12.10
  -3  -5   1  488.15   12.10
  -3  -5   1  480.75   12.50
  -3   5   0  285.97    7.60
   3   5   0  302.37    7.60
  -3   5   0  302.97    8.20
   3   5   0  305.97    8.00
  -3  -5   0  307.57    8.00
  -3  -5   0  305.27    7.60
   3  -5   0  288.57    7.60
   3   5   1 1215.28   30.70
   3   5   1 1230.28   29.00
  -3   5  -1 1266.67   31.00
  -3  -5  -1 1183.28   30.70
   3  -5   1 1235.38   29.30
  -3  -5  -1 1213.68   29.00
  -3   5  -2  377.76    9.90
   3   5   2  346.07    9.70
   3   5   2  361.66    8.70
   3  -5   2  350.46    9.10
  -3  -5  -2  348.17    8.70
  -3   5  -3  154.28    4.80
   3   5   3  149.19    3.80
   3   5   3  150.18    4.70
   3  -5   3  145.89    4.30
  -3  -5  -3  145.79    3.90
   3   5   4  221.28    6.70
   3   5   4  220.38    5.40
  -3   5  -4  217.88    6.70
  -3  -5  -4  214.18    5.40
   3  -5   4  216.48    6.00
   3   5   5  843.02   22.20
  -3   5  -5  844.32   22.10
   3  -5   5  832.12   20.70
  -3   5  -6   71.59    3.20
   3   5   6   74.49    3.40
   3  -5   6   69.19    2.70
   3   5   7   38.40    2.50
  -3   5  -7   36.80    2.40
   3  -5   7   34.00    2.00
  -3   5  -8   94.39    4.40
   3  -5   8  100.99    3.80
  -3   6   8   40.80    3.30
  -3   6   7  295.27    9.30
  -3  -6   7  299.77    8.70
  -3   6   6   -1.30    0.80
   3   6  -6    0.70    0.70
   3  -6  -6    0.00    0.80
   3   6  -5  631.54   16.60
  -3   6   5  637.04   17.20
   3  -6  -5  647.94   16.20
  -3  -6   5  642.94   16.40
   3   6  -4    1.00    0.50
  -3   6   4    1.50    0.60
   3  -6  -4    1.30    0.60
  -3  -6   4    0.50    0.50
   3   6  -3  787.52   19.80
  -3   6   3  777.02   20.20
   3  -6  -3  785.32   19.10
  -3  -6   3  759.22   19.10
  -3  -6   3  754.52   19.60
   3   6  -2  100.29    3.40
  -3   6   2  106.99    3.60
   3  -6  -2  111.69    3.30
  -3  -6   2  107.69    3.30
  -3  -6   2  103.69    3.30
  -3   6   1 1869.11   46.70
   3   6  -1 1937.71   46.60
  -3  -6   1 1884.71   44.30
   3  -6  -1 1806.32   44.30
  -3  -6   1 1840.42   46.40
   3   6   0  425.56   11.00
  -3   6   0  420.56   11.20
   3   6   0  419.16   10.40
  -3  -6   0  415.06   10.40
  -3  -6   0  405.16   10.90
   3  -6   0  415.06   10.50
   3   6   1  223.38    5.80
   3   6   1  222.48    6.40
  -3   6  -1  227.78    6.50
   3  -6   1  221.58    6.00
  -3  -6  -1  221.88    5.80
   3   6   2 1160.08   27.00
  -3   6  -2 1204.68   29.20
   3   6   2 1151.38   29.00
   3  -6   2 1124.49   27.40
  -3  -6  -2 1052.19   27.00
   3   6   3  115.69    4.00
  -3   6  -3  122.99    4.20
   3   6   3  116.39    3.20
   3  -6   3  114.89    3.60
  -3  -6  -3  115.29    3.30
   3   6   4  177.28    4.50
   3   6   4  176.88    5.70
  -3   6  -4  171.28    5.70
   3  -6   4  175.38    5.20
  -3  -6  -4  179.78    4.60
  -3   6  -5   22.00    1.80
   3   6   5   21.10    1.70
   3  -6   5   19.40    1.40
  -3   6  -6  106.19    4.30
   3   6   6  109.89    4.40
   3  -6   6  111.79    3.80
  -3   6  -7  151.78    5.80
   3   6   7  165.28    6.00
   3  -6   7  164.28    5.20
  -3   6  -8   37.20    3.00
   3  -6   8   37.00    2.60
  -3   7   7    4.70    1.20
  -3  -7   7    2.30    1.10
  -3   7   6  220.98    7.20
  -3  -7   6  218.68    6.70
   3  -7  -6  222.58    6.50
  -3   7   5   31.10    2.00
   3   7  -5   30.70    1.70
  -3  -7   5   25.90    1.80
   3  -7  -5   31.10    1.90
  -3   7   4   11.80    1.30
   3   7  -4   10.10    1.10
  -3  -7   4    8.00    1.00
   3   7  -3 1215.08   30.90
  -3   7   3 1187.68   31.20
  -3  -7   3 1227.28   29.60
   3  -7  -3 1239.28   29.60
   3   7  -2  307.07    9.10
  -3   7   2  333.07    9.20
  -3  -7   2  334.07    8.70
   3  -7  -2  336.47    8.70
   3   7  -1  892.11   22.00
  -3   7   1  841.02   22.10
  -3  -7   1  857.21   20.90
   3  -7  -1  840.32   20.90
   3   7   0  201.78    5.70
  -3   7   0  195.48    5.80
  -3  -7   0  189.08    5.30
   3  -7   0  192.98    5.40
   3   7   1 1197.48   30.60
  -3   7  -1 1214.58   30.80
   3   7   1 1170.98   28.80
  -3  -7  -1 1225.68   28.80
   3  -7   1 1213.68   29.10
   3   7   2   32.80    1.50
   3   7   2   34.40    1.80
  -3   7  -2   37.90    2.00
  -3  -7  -2   36.90    1.50
   3  -7   2   34.70    1.60
   3   7   3  632.84   16.90
  -3   7  -3  655.13   17.20
   3   7   3  632.64   15.30
   3  -7   3  636.44   15.90
  -3  -7  -3  600.64   15.40
  -3   7  -4    7.60    1.30
   3   7   4    4.80    0.90
  -3  -7  -4    7.40    0.90
   3  -7   4    6.20    0.90
  -3   7  -5  458.65   13.40
   3   7   5  483.15   13.40
   3  -7   5  469.05   12.30
  -3   7  -6   18.90    2.00
   3   7   6   16.60    1.90
   3  -7   6   17.50    1.60
  -3   7  -7  149.59    5.60
   3   7   7  142.19    5.70
   3  -7   7  145.09    5.00
  -3   8   7   17.80    2.30
  -3   8   6   31.90    2.40
  -3  -8   6   33.10    2.10
   3   8  -5  122.09    4.20
  -3   8   5  117.19    4.60
   3  -8  -5  114.69    4.20
  -3  -8   5  123.49    4.30
  -3   8   4  338.97   10.10
   3   8  -4  357.26    9.70
  -3  -8   4  343.17    9.50
   3  -8  -4  337.67    9.40
   3   8  -3  485.75   13.40
  -3   8   3  502.35   13.60
   3  -8  -3  527.15   12.90
  -3  -8   3  461.65   12.80
   3   8  -2  165.48    5.60
  -3   8   2  181.98    5.70
   3  -8  -2  184.08    5.30
  -3  -8   2  185.68    5.30
  -3   8   1  349.37    9.90
   3   8  -1  363.46    9.90
   3  -8  -1  354.56    9.30
  -3  -8   1  357.06    9.30
  -3   8   0 2480.65   61.59
   3   8   0 2528.25   61.39
  -3  -8   0 2402.26   58.29
   3  -8   0 2433.76   58.39
   3   8   1  114.09    4.00
  -3   8  -1  118.09    4.20
  -3  -8  -1  124.39    3.60
   3  -8   1  120.69    3.80
   3   8   2  855.21   22.60
  -3   8  -2  888.41   22.90
  -3  -8  -2  877.11   21.10
   3  -8   2  845.12   21.40
   3   8   3    2.00    0.70
  -3  -8  -3    2.00    0.60
   3  -8   3    2.60    0.60
  -3   8  -4 1105.19   30.70
   3   8   4 1226.28   30.70
   3  -8   4 1197.48   28.90
  -3   8  -5    9.90    1.70
   3  -8   5    9.20    1.20
  -3   8  -6  349.37   10.80
   3   8   6  355.96   10.90
   3  -8   6  352.96    9.80
  -3   8  -7   71.49    3.80
  -3   9   6  149.88    5.70
  -3   9   5    1.60    0.90
   3  -9  -5    1.50    1.10
  -3  -9   5    1.90    0.80
  -3   9   4  160.88    5.80
   3   9  -4  174.38    5.60
   3  -9  -4  168.78    5.50
  -3  -9   4  174.08    5.50
  -3   9   3  128.39    4.60
   3   9  -3  123.09    4.50
   3  -9  -3  132.69    4.30
  -3  -9   3  126.59    4.30
  -3   9   2  418.06   11.80
   3   9  -2  404.46   11.80
   3  -9  -2  440.26   11.10
  -3  -9   2  421.86   11.10
  -3   9   1  205.88    6.40
   3   9  -1  206.48    6.40
  -3  -9   1  203.38    5.90
   3  -9  -1  205.28    5.90
   3   9   0   78.29    3.00
  -3   9   0   76.89    3.10
  -3  -9   0   73.19    2.70
   3  -9   0   76.09    2.80
   3   9   1   78.59    3.10
  -3   9  -1   78.49    3.30
  -3  -9  -1   81.39    2.80
   3  -9   1   73.49    2.90
  -3   9  -2   58.19    2.90
   3   9   2   56.79    2.70
   3  -9   2   59.79    2.50
  -3  -9  -2   59.19    2.30
  -3   9  -3   19.30    2.00
   3   9   3   20.40    1.80
  -3  -9  -3   18.40    1.50
   3  -9   3   23.10    1.50
  -3   9  -4   37.00    2.60
   3   9   4   44.10    2.60
   3  -9   4   42.90    2.10
   3   9   5  147.09    5.40
  -3   9  -5  128.99    5.40
   3  -9   5  144.79    4.80
   3   9   6  125.99    5.10
  -3   9  -6  114.99    5.10
   3  -9   6  123.79    4.40
  -3   9  -7   87.19    4.60
  -3  10   5  283.47    9.20
   3 -10  -5  285.57    8.80
  -3 -10   5  303.47    8.70
  -3  10   4    3.70    0.90
   3  10  -4    4.10    1.10
  -3 -10   4    4.90    0.90
   3 -10  -4    6.40    1.20
  -3  10   3  330.57    9.90
   3  10  -3  314.67    9.90
  -3 -10   3  346.57    9.40
   3 -10  -3  349.27    9.40
   3  10  -2  173.08    6.10
  -3  10   2  191.88    6.10
   3 -10  -2  185.38    5.60
  -3 -10   2  192.78    5.70
  -3  10   1  978.90   25.60
   3  10  -1  979.10   25.50
   3 -10  -1  968.90   24.10
  -3 -10   1  981.20   24.10
  -3  10   0  184.08    6.00
   3  10   0  183.68    5.90
  -3 -10   0  179.78    5.40
   3 -10   0  179.48    5.50
   3  10   1   61.19    2.80
  -3  10  -1   58.79    2.90
   3 -10   1   55.49    2.50
  -3 -10  -1   56.99    2.40
  -3  10  -2  218.58    7.10
   3  10   2  212.48    6.80
  -3 -10  -2  212.08    6.10
   3 -10   2  208.68    6.30
   3  10   3  153.38    5.40
  -3  10  -3  158.38    5.80
  -3 -10  -3  136.79    4.70
   3 -10   3  148.89    4.90
   3  10   4  109.19    4.50
  -3  10  -4  101.89    4.60
   3 -10   4  107.09    3.90
  -3  10  -5   12.20    2.30
   3  10   5   11.20    2.00
   3 -10   5    9.10    1.60
  -3  10  -6   69.09    4.10
  -3  11   4    0.80    0.90
  -3 -11   4   -0.90    0.90
   3 -11  -4    2.40    1.30
   3  11  -3  127.29    5.30
  -3  11   3  144.89    5.20
   3 -11  -3  149.09    5.00
  -3 -11   3  142.89    4.90
   3  11  -2   26.00    2.30
  -3  11   2   23.20    2.00
  -3 -11   2   27.60    1.80
   3 -11  -2   26.80    1.90
  -3  11   1  193.88    6.40
   3  11  -1  186.68    6.30
   3 -11  -1  189.78    5.90
  -3 -11   1  193.08    5.80
   3  11   0    0.30    0.80
  -3  11   0    0.70    0.80
  -3 -11   0    0.90    0.70
   3 -11   0   -0.20    0.70
  -3  11  -1  829.62   22.10
   3  11   1  809.12   21.80
  -3 -11  -1  822.12   20.50
   3 -11   1  818.62   20.70
  -3  11  -2    4.80    1.10
   3  11   2    4.20    1.00
  -3 -11  -2    5.10    1.00
   3 -11   2    5.70    1.00
   3  11   3  188.38    6.90
  -3  11  -3  212.58    7.40
   3 -11   3  209.88    6.40
  -3  11  -4   -1.20    1.30
   3 -11   4    0.20    0.90
  -3  11  -5  179.58    7.00
  -3  12   3  100.29    4.30
   3 -12  -3  110.39    4.30
  -3 -12   3  101.39    4.00
   3  12  -2  193.18    6.90
  -3  12   2  205.28    6.90
   3 -12  -2  206.98    6.40
  -3 -12   2  201.28    6.30
   3  12  -1  109.19    4.60
  -3  12   1  110.09    4.50
   3 -12  -1  110.99    4.10
  -3 -12   1  117.09    4.10
  -3  12   0  385.46   11.50
   3  12   0  386.96   11.40
  -3 -12   0  392.16   10.60
   3 -12   0  387.86   10.70
  -3  12  -1  101.29    4.40
   3  12   1   92.49    4.00
   3 -12   1   95.29    3.70
  -3 -12  -1   96.09    3.70
   3  12   2  274.57    8.70
  -3  12  -2  290.07    9.20
   3 -12   2  270.27    8.20
   3  12   3   15.60    2.10
  -3  12  -3   17.50    2.60
  -3  12  -4  333.57   11.00
   3 -13  -3    1.30    1.50
   3 -13  -2  236.18    7.40
   3  13  -1    6.20    1.50
  -3  13   1    5.70    1.30
   3 -13  -1    7.70    1.20
  -3 -13   1    7.40    1.20
   3  13   0   60.79    3.40
  -3  13   0   58.59    3.30
  -3 -13   0   56.89    2.90
   3 -13   0   56.99    2.90
  -3  13  -1   21.40    2.50
   3  13   1   19.70    2.30
  -3 -13  -1   16.50    2.00
   3  13   2   11.50    2.10
  -3  13  -2    7.80    1.50
   3  14   0   78.59    4.20
   4   0  -8  295.17    8.40
  -4   0   8  294.87    8.60
  -4   0   8  307.97    9.00
  -4   0   7   -0.10    0.70
  -4   0   7    1.60    0.70
   4   0  -7   -0.70    0.80
  -4   0   6  270.17    7.50
   4   0  -6  266.77    7.30
  -4   0   6  260.77    7.60
  -4   0   5   -0.30    0.40
  -4   0   5    0.20    0.40
   4   0  -5   -0.60    0.40
   4   0  -4 2492.45   59.49
  -4   0   4 2551.04   62.29
  -4   0   4 2513.45   62.29
  -4   0   3    0.40    0.30
  -4   0   2 3588.84   83.09
   4   0  -2 3581.44   87.19
   4   0  -2 3127.69   83.09
  -4   0   2 3716.73   87.19
  -4   0   2 3600.34   87.29
  -4   0   1   -3.80    0.20
   4   0  -1   -3.50    0.30
   4   0  -1   -3.90    0.30
   4   0   0 7260.67  170.58
  -4   0   0 7638.84  170.58
   4   0   0 7451.35  178.88
  -4   0   0 6615.14  178.78
  -4   0  -1   -0.90    0.20
  -4   0  -1   -1.40    0.20
   4   0   1   -1.30    0.20
   4   0   2 3610.54   84.19
   4   0   2 3401.56   80.19
  -4   0  -2 3287.67   80.09
  -4   0  -2 3354.56   85.29
   4   0   3    0.90    0.20
  -4   0  -3    1.10    0.30
   4   0   4 1752.72   41.60
   4   0   4 1772.62   41.60
  -4   0  -4 1778.82   44.40
  -4   0  -5   -0.50    0.40
   4   0   5   -0.30    0.30
   4   0   5   -0.50    0.50
   4   0   6  660.23   18.00
   4   0   6  689.93   16.30
  -4   0  -6  659.53   17.90
   4   0   7   -0.20    0.80
  -4   0  -7   -1.00    0.70
   4   0   8    3.70    1.20
  -4   0  -8    2.00    1.00
  -4  -1   9   26.80    2.50
  -4   1   8  160.48    5.50
  -4   1   8  159.98    5.30
  -4  -1   8  158.38    5.40
  -4  -1   8  161.38    5.30
   4  -1  -8  158.58    5.20
  -4   1   7  216.58    6.50
  -4   1   7  225.28    6.90
   4   1  -7  225.18    6.50
  -4  -1   7  227.18    6.80
  -4  -1   7  225.98    6.60
   4  -1  -7  217.28    6.40
  -4   1   6   53.59    2.30
   4   1  -6   51.89    2.30
  -4   1   6   55.39    2.40
   4  -1  -6   56.19    2.30
  -4  -1   6   54.69    2.30
  -4  -1   6   52.19    2.30
  -4   1   5  342.47    9.30
   4   1  -5  338.17    9.00
  -4  -1   5  349.17    9.20
  -4  -1   5  340.67    9.10
   4  -1  -5  343.37    9.00
   4   1  -4  274.37    7.20
  -4   1   4  267.67    7.30
  -4   1   4  264.27    7.30
  -4  -1   4  274.87    7.20
   4  -1  -4  268.37    7.10
  -4  -1   4  269.97    7.20
  -4  -1   4  270.27    7.20
   4   1  -3  868.71   20.80
  -4   1   3  868.81   21.60
  -4   1   3  848.32   21.60
  -4   1   3  853.41   20.70
  -4  -1   3  828.52   20.70
  -4  -1   3  846.12   21.40
   4  -1  -3  877.31   20.80
   4  -1  -3  853.11   21.60
  -4  -1   3  895.81   21.50
  -4   1   2 1453.85   34.70
   4   1  -2 1476.35   34.60
  -4   1   2 1430.46   36.20
   4  -1  -2 1425.56   34.70
   4  -1  -2 1482.35   36.20
  -4  -1   2 1510.95   34.60
  -4   1   1 1135.49   30.50
  -4   1   1 1235.08   29.20
   4   1  -1 1278.77   29.20
   4  -1  -1 1211.18   29.20
   4  -1  -1 1311.97   30.60
  -4  -1   1 1238.78   29.20
   4   1   0  108.79    2.80
  -4   1   0  104.09    3.00
  -4   1   0  108.29    2.90
   4   1   0  110.49    2.90
   4  -1   0  110.99    3.00
  -4  -1   0  110.39    2.80
  -4  -1   0  110.59    2.90
   4  -1   0  106.59    2.90
  -4   1  -1 1839.02   42.90
  -4   1  -1 1770.72   45.20
   4   1   1 1963.80   45.20
   4   1   1 1736.53   42.90
   4  -1   1 1784.62   43.00
  -4  -1  -1 1847.62   42.80
   4  -1   1 1904.51   45.30
  -4  -1  -1 1778.62   45.10
   4   1   2 3086.49   72.69
  -4   1  -2 2952.90   69.09
  -4   1  -2 2749.92   72.69
   4  -1   2 2815.02   69.09
  -4  -1  -2 2976.80   73.29
   4  -1   2 3096.09   72.79
  -4   1  -3  963.80   22.60
  -4   1  -3  927.21   24.10
   4   1   3  950.50   24.20
  -4  -1  -3  943.51   24.10
   4  -1   3  962.60   22.50
  -4   1  -4  682.63   16.50
   4   1   4  670.93   17.80
   4   1   4  686.73   16.20
  -4   1  -4  676.63   17.80
   4   1   4  675.13   16.20
   4  -1   4  697.43   16.40
   4  -1   4  673.33   16.40
  -4  -1  -4  688.23   17.70
   4   1   5    6.90    0.80
   4   1   5    6.70    1.00
   4   1   5    8.20    0.60
  -4   1  -5    6.90    1.00
  -4  -1  -5    4.90    0.90
   4  -1   5    7.30    0.90
   4   1   6  484.85   14.10
  -4   1  -6  524.25   14.10
   4   1   6  517.55   12.50
   4  -1   6  514.15   14.20
  -4  -1  -6  496.85   14.00
   4  -1   6  531.85   12.70
   4   1   7   19.30    1.80
  -4   1  -7   19.60    1.70
   4  -1   7   20.00    1.80
  -4  -1  -7   18.00    1.70
   4  -1   7   15.00    1.40
   4   1   8  137.19    5.50
  -4   1  -8  150.18    5.40
   4  -1   8  145.19    5.50
  -4   2   9  198.68    7.10
  -4   2   8   -1.50    1.10
  -4   2   8    0.40    1.00
  -4  -2   8   -0.30    1.00
   4  -2  -8    1.90    1.10
  -4   2   7  321.27    9.90
  -4   2   7  347.47    9.50
  -4  -2   7  358.76    9.80
  -4  -2   7  350.96    9.60
   4  -2  -7  348.77    9.40
  -4   2   6   19.00    1.50
   4   2  -6   21.10    1.30
   4   2  -6   23.20    1.40
  -4  -2   6   20.70    1.50
  -4  -2   6   20.20    1.40
   4  -2  -6   19.80    1.40
   4   2  -5  594.04   14.90
   4   2  -5  596.34   15.30
  -4   2   5  587.34   15.60
  -4  -2   5  599.24   15.40
  -4  -2   5  591.14   15.00
   4  -2  -5  596.44   14.90
   4   2  -4   14.60    0.90
   4   2  -4   15.30    1.00
  -4   2   4   12.70    1.00
  -4  -2   4   14.90    0.90
   4  -2  -4   12.40    1.00
  -4  -2   4   15.00    0.90
  -4  -2   4   14.10    1.00
  -4   2   3   82.49    2.60
   4   2  -3   75.19    2.30
  -4   2   3   78.99    2.50
   4   2  -3   79.99    2.60
  -4  -2   3   82.19    2.60
   4  -2  -3   76.19    2.60
  -4  -2   3   79.89    2.30
  -4  -2   3   77.79    2.30
   4   2  -2    1.70    0.50
  -4   2   2    1.50    0.50
  -4   2   2    2.20    0.50
  -4  -2   2    0.50    0.40
   4  -2  -2    2.50    0.60
  -4  -2   2    0.90    0.50
  -4   2   1 1176.78   29.80
  -4   2   1 1179.08   28.50
   4   2  -1 1202.58   28.40
  -4  -2   1 1229.28   28.40
  -4  -2   1 1192.18   28.50
   4  -2  -1 1181.78   28.50
   4  -2  -1 1233.08   29.90
   4   2   0   -0.30    0.20
  -4   2   0   -0.70    0.20
   4   2   0   -0.50    0.20
  -4   2   0   -0.70    0.20
   4  -2   0   -0.40    0.20
   4  -2   0   -0.40    0.20
  -4  -2   0   -0.40    0.20
  -4  -2   0   -0.40    0.20
  -4   2  -1  737.13   17.50
   4   2   1  747.63   18.40
  -4   2  -1  737.33   18.60
   4   2   1  729.23   18.50
   4  -2   1  738.43   17.50
  -4  -2  -1  739.93   18.40
   4  -2   1  707.73   18.60
  -4   2  -2  123.89    3.70
  -4   2  -2  125.29    3.30
   4   2   2  123.69    3.60
   4   2   2  115.49    3.70
   4  -2   2  123.59    3.70
  -4  -2  -2  118.09    3.60
   4  -2   2  124.99    3.30
  -4   2  -3 1971.30   46.80
   4   2   3 1942.21   49.50
  -4   2  -3 1978.40   49.50
   4  -2   3 2017.50   46.70
  -4  -2  -3 2003.50   49.40
  -4   2  -4    7.90    0.90
   4   2   4    7.60    0.90
  -4   2  -4    9.40    0.90
  -4  -2  -4    7.10    0.80
   4  -2   4    8.70    0.80
   4  -2   4    8.10    0.60
  -4   2  -5  907.01   23.60
   4   2   5  913.11   23.70
   4  -2   5  905.11   21.90
  -4  -2  -5  912.31   23.60
   4   2   6   45.50    1.60
   4   2   6   44.00    2.40
  -4   2  -6   44.10    2.30
  -4  -2  -6   45.30    2.30
   4  -2   6   43.00    1.80
  -4   2  -7  644.64   17.80
   4   2   7  659.33   18.00
   4  -2   7  661.53   16.20
   4  -2   7  646.74   17.90
   4   2   8   -1.30    1.20
  -4   2  -8    1.40    1.00
   4  -2   8    1.10    1.10
  -4   3   9   22.40    3.10
  -4   3   8   35.30    2.30
  -4   3   8   31.30    2.50
  -4  -3   8   32.40    2.30
   4  -3  -8   34.10    2.50
   4   3  -7   86.89    3.20
  -4   3   7   85.09    3.60
  -4  -3   7   91.59    3.40
   4  -3  -7   84.29    3.30
  -4  -3   7   90.69    3.50
   4   3  -6    7.80    1.10
  -4   3   6    8.30    1.30
  -4  -3   6    9.50    1.20
  -4  -3   6    9.10    1.10
   4  -3  -6    9.70    1.20
  -4   3   5  390.36   10.70
   4   3  -5  385.86   10.30
   4   3  -5  385.06   10.20
  -4  -3   5  399.26   10.40
  -4  -3   5  395.56   10.40
   4  -3  -5  388.36   10.10
   4   3  -4   31.00    1.50
  -4   3   4   32.60    1.50
   4   3  -4   30.50    1.30
   4  -3  -4   30.90    1.50
  -4  -3   4   30.10    1.50
  -4  -3   4   29.20    1.30
  -4   3   3 1496.95   37.20
   4   3  -3 1511.75   35.50
  -4   3   3 1384.26   35.30
   4   3  -3 1479.75   36.80
  -4  -3   3 1556.64   36.80
   4  -3  -3 1494.85   35.50
  -4  -3   3 1483.25   35.50
  -4   3   2 1017.50   25.40
  -4   3   2 1052.19   26.60
   4   3  -2 1075.19   26.20
   4   3  -2 1060.59   25.40
   4  -3  -2 1099.29   25.50
   4  -3  -2 1076.39   26.70
  -4  -3   2 1044.40   25.50
  -4  -3   2 1060.59   26.20
  -4  -3   2 1069.29   25.40
  -4   3   1  795.92   18.80
  -4   3   1  779.42   19.70
   4   3  -1  780.22   18.80
   4   3  -1  778.22   19.50
   4  -3  -1  787.52   18.90
  -4  -3   1  789.92   19.40
   4  -3  -1  799.42   19.90
  -4  -3   1  782.42   18.70
  -4  -3   1  764.72   18.80
  -4   3   0  964.70   23.10
   4   3   0 1006.70   23.00
  -4   3   0  984.30   24.30
   4   3   0  967.40   24.10
  -4  -3   0  993.40   24.10
  -4  -3   0  956.00   23.00
   4  -3   0  992.60   24.30
  -4  -3   0 1019.00   22.90
   4  -3   0  837.62   23.00
   4   3   1 2514.75   62.59
  -4   3  -1 2274.27   62.69
   4   3   1 2574.14   62.49
   4   3   1 2557.14   59.59
  -4   3  -1 2666.93   59.59
  -4  -3  -1 2546.85   59.69
  -4  -3  -1 2409.06   59.69
   4  -3   1 2612.14   59.69
  -4  -3  -1 2662.93   62.59
   4   3   2 1226.58   30.00
   4   3   2 1180.18   29.80
  -4   3  -2 1213.18   30.10
  -4   3  -2 1174.48   28.30
  -4  -3  -2 1200.68   29.90
   4  -3   2 1232.28   28.30
   4  -3   2 1113.99   29.90
  -4   3  -3 1249.28   32.50
   4   3   3 1305.57   32.50
  -4   3  -3 1266.17   30.60
   4  -3   3 1322.47   30.60
   4   3   4  769.22   19.90
  -4   3  -4  741.93   19.80
   4  -3   4  765.82   18.40
   4   3   5  181.48    5.90
  -4   3  -5  181.88    5.70
   4  -3   5  181.28    5.10
  -4   3  -6  133.69    4.80
   4   3   6  139.59    5.00
   4  -3   6  143.19    4.20
   4   3   7   20.50    2.00
  -4   3  -7   16.30    1.80
   4  -3   7   19.60    1.50
  -4   3  -8  162.98    5.90
   4   3   8  160.98    6.10
   4  -3   8  161.28    6.00
  -4   4   8  145.49    5.40
  -4  -4   8  143.99    5.10
  -4   4   7    5.60    1.10
  -4  -4   7    5.40    1.00
  -4  -4   7    5.20    1.00
   4  -4  -7    5.20    1.00
  -4   4   6  158.48    5.30
   4   4  -6  157.88    4.80
  -4  -4   6  158.68    5.10
   4  -4  -6  163.08    5.00
  -4  -4   6  165.48    4.90
   4   4  -5  134.99    4.00
  -4   4   5  130.49    4.40
   4  -4  -5  133.79    4.10
  -4  -4   5  126.79    4.20
  -4   4   4 1163.28   29.60
   4   4  -4 1196.68   29.10
  -4  -4   4 1155.38   29.10
   4  -4  -4 1129.69   28.10
  -4  -4   4 1171.78   28.30
   4   4  -3   86.79    2.60
  -4   4   3   86.79    3.00
  -4  -4   3   88.29    2.60
  -4  -4   3   86.49    2.90
   4  -4  -3   87.29    2.90
  -4   4   2 2715.83   64.49
  -4   4   2 2768.02   67.79
   4   4  -2 2815.42   64.59
   4   4  -2 2481.35   67.39
   4  -4  -2 2760.12   64.59
  -4  -4   2 2818.52   64.59
  -4  -4   2 2862.81   64.49
  -4  -4   2 2673.13   67.29
   4   4  -1   42.10    1.50
  -4   4   1   41.40    1.50
  -4   4   1   41.50    1.70
   4   4  -1   42.20    1.50
  -4  -4   1   41.40    1.50
  -4  -4   1   43.50    1.50
   4  -4  -1   39.90    1.50
  -4  -4   1   43.10    1.40
   4  -4  -1   41.00    1.60
  -4   4   0 3172.68   81.79
   4   4   0 3189.88   81.59
  -4   4   0 3481.85   77.39
   4   4   0 3374.46   77.29
   4  -4   0 3364.86   81.39
  -4  -4   0 3392.46   77.69
  -4  -4   0 3195.28   77.89
  -4  -4   0 3313.97   81.39
   4  -4   0 3166.58   77.39
  -4   4  -1   82.29    2.50
   4   4   1   84.39    2.70
   4   4   1   83.59    2.30
   4   4   1   91.19    2.60
  -4  -4  -1   83.19    2.20
   4  -4   1   80.99    2.50
  -4  -4  -1   80.19    2.60
  -4  -4  -1   80.99    2.30
   4  -4   1   75.89    2.70
   4   4   2 4210.88   99.19
   4   4   2 3872.31   93.99
  -4   4  -2 4003.10   94.19
  -4   4  -2 4008.80   99.29
   4  -4   2 3999.20   94.59
  -4  -4  -2 3986.40   94.29
   4   4   3   59.09    2.40
  -4   4  -3   61.59    2.50
   4  -4   3   60.69    2.10
   4   4   4  915.41   23.70
  -4   4  -4  912.11   23.70
   4  -4   4  910.21   22.10
  -4   4  -5    2.10    0.70
   4  -4   5    2.90    0.50
  -4   4  -6   92.89    3.70
   4   4   6   90.09    3.80
   4  -4   6   85.29    3.10
  -4   4  -7   59.49    3.00
   4   4   7   55.49    3.10
   4  -4   7   56.59    2.50
  -4   4  -8   17.60    2.30
   4  -4   8   20.10    2.40
  -4   5   8  305.57    9.60
  -4   5   7    8.50    1.30
   4  -5  -7   13.00    1.70
  -4  -5   7    8.90    1.60
   4   5  -6  244.88    7.00
  -4   5   6  251.07    7.70
  -4  -5   6  247.48    7.30
   4  -5  -6  251.17    7.10
   4   5  -5  198.48    5.60
  -4   5   5  197.38    6.10
   4  -5  -5  201.68    5.80
  -4  -5   5  186.78    5.80
   4   5  -4  358.06    9.40
  -4   5   4  349.17    9.90
  -4  -5   4  358.36    9.40
  -4  -5   4  360.66    9.50
   4  -5  -4  348.27    9.40
  -4   5   3  492.35   13.20
   4   5  -3  514.75   12.80
  -4  -5   3  484.95   12.60
  -4  -5   3  483.75   12.60
   4  -5  -3  501.75   12.60
   4   5  -2    5.20    0.70
  -4   5   2    5.40    0.70
  -4  -5   2    4.40    0.70
   4  -5  -2    4.10    0.70
  -4  -5   2    5.00    0.60
   4   5  -1  376.96    9.70
  -4   5   1  376.96   10.20
   4   5  -1  388.26   10.00
   4  -5  -1  384.76    9.70
  -4  -5   1  388.46    9.60
  -4  -5   1  386.96    9.90
  -4  -5   1  391.86    9.70
   4   5   0   20.20    1.10
  -4   5   0   20.90    1.20
   4   5   0   20.30    1.00
  -4  -5   0   19.80    0.90
  -4  -5   0   21.10    1.00
   4  -5   0   20.20    1.10
  -4  -5   0   19.80    0.90
   4   5   1  213.68    6.10
  -4   5  -1  225.08    6.30
   4   5   1  219.78    5.50
  -4  -5  -1  214.68    5.50
  -4  -5  -1  210.88    6.00
   4  -5   1  217.38    5.80
   4   5   2  978.70   25.20
  -4   5  -2 1022.10   25.50
   4   5   2  981.90   23.40
   4  -5   2  986.60   23.90
  -4  -5  -2  983.90   23.50
  -4   5  -3  959.30   24.60
   4   5   3  941.51   24.40
   4  -5   3  948.91   23.00
   4   5   4  441.06   12.00
  -4   5  -4  426.66   12.00
   4  -5   4  429.66   11.10
   4   5   5    2.30    0.80
   4  -5   5    2.20    0.60
   4   5   6  656.93   17.80
  -4   5  -6  634.94   17.60
   4  -5   6  638.44   16.20
  -4   5  -7    6.40    1.10
   4   5   7    4.10    1.10
   4  -5   7    4.90    0.90
  -4   5  -8   99.39    4.60
  -4   6   8    2.10    1.50
  -4   6   7  289.27    9.10
   4  -6  -7  306.77    8.60
  -4  -6   7  285.47    8.60
  -4   6   6    5.10    1.00
   4  -6  -6    3.80    1.00
  -4  -6   6    4.50    0.90
   4   6  -5  232.78    6.60
  -4   6   5  230.18    7.20
  -4  -6   5  236.78    6.90
   4  -6  -5  235.08    6.80
  -4   6   4  249.68    7.50
   4   6  -4  256.67    6.90
  -4  -6   4  258.07    6.90
   4  -6  -4  248.08    7.00
  -4  -6   4  240.78    7.10
   4   6  -3  499.35   12.60
  -4   6   3  467.05   12.90
   4  -6  -3  480.35   12.30
  -4  -6   3  484.75   12.30
  -4  -6   3  467.15   12.40
  -4   6   2   21.10    1.30
   4   6  -2   19.30    1.30
   4  -6  -2   21.10    1.20
  -4  -6   2   22.40    1.20
  -4  -6   2   21.90    1.20
  -4   6   1  192.08    5.70
   4   6  -1  191.88    5.50
  -4  -6   1  200.68    5.50
  -4  -6   1  200.08    5.40
   4  -6  -1  193.98    5.40
   4   6   0  155.08    4.30
   4   6   0  163.18    4.60
  -4   6   0  154.48    4.80
  -4  -6   0  155.68    4.30
  -4  -6   0  150.58    4.50
   4  -6   0  151.68    4.40
   4   6   1  188.98    5.10
  -4   6  -1  207.38    5.90
   4   6   1  191.48    5.70
  -4  -6  -1  192.38    5.10
   4  -6   1  195.88    5.40
  -4   6  -2    1.00    0.50
   4   6   2    1.80    0.40
   4   6   2    2.50    0.50
   4  -6   2    2.30    0.50
  -4  -6  -2    2.30    0.40
  -4   6  -3  874.51   22.30
   4   6   3  852.01   22.00
   4   6   3  844.32   20.10
  -4  -6  -3  815.92   20.20
   4  -6   3  838.52   20.70
   4   6   4    0.90    0.70
  -4   6  -4    2.90    0.70
   4  -6   4    1.50    0.50
  -4   6  -5  378.16   11.30
   4   6   5  413.76   11.50
   4  -6   5  385.66   10.30
  -4   6  -6    1.80    0.90
   4   6   6   -0.90    0.90
   4  -6   6    0.50    0.70
  -4   6  -7  399.66   11.90
   4   6   7  395.06   12.00
   4  -6   7  394.36   10.70
  -4   7   7  175.18    6.20
  -4  -7   7  173.68    5.90
  -4   7   6   33.00    2.20
  -4  -7   6   30.30    2.00
   4  -7  -6   29.00    2.10
  -4   7   5  307.37    9.00
   4   7  -5  289.67    8.30
  -4  -7   5  306.17    8.50
   4  -7  -5  294.87    8.40
   4   7  -4   49.10    2.10
  -4   7   4   48.80    2.40
   4  -7  -4   51.19    2.30
  -4  -7   4   48.60    2.20
  -4   7   3  236.48    7.10
   4   7  -3  233.28    6.70
  -4  -7   3  230.28    6.60
   4  -7  -3  238.38    6.70
  -4   7   2    0.20    0.40
   4   7  -2    0.10    0.50
  -4  -7   2    0.60    0.60
   4  -7  -2   -0.10    0.50
  -4  -7   2    1.10    0.50
  -4   7   1 2205.08   55.99
   4   7  -1 2286.77   55.79
   4  -7  -1 2197.58   53.19
  -4  -7   1 2269.87   53.19
  -4   7   0   42.80    2.00
   4   7   0   44.90    1.90
   4  -7   0   42.60    1.80
  -4  -7   0   43.50    1.70
  -4   7  -1  905.11   23.10
   4   7   1  852.31   21.40
   4   7   1  893.21   22.90
   4  -7   1  907.31   21.80
  -4  -7  -1  888.31   21.40
   4   7   2   62.49    2.50
  -4   7  -2   54.09    2.50
   4   7   2   52.69    1.90
  -4  -7  -2   58.19    2.00
   4  -7   2   55.79    2.20
   4   7   3  892.71   21.30
  -4   7  -3  931.21   23.70
   4   7   3  911.31   23.40
  -4  -7  -3  833.22   21.40
   4  -7   3  900.11   22.00
   4   7   4  111.39    4.20
  -4   7  -4  115.59    4.40
   4  -7   4  107.89    3.70
   4   7   5   38.70    2.40
  -4   7  -5   33.60    2.40
   4  -7   5   37.00    1.90
   4   7   6   56.99    3.10
  -4   7  -6   54.39    3.00
   4  -7   6   53.39    2.50
   4   7   7    6.10    1.30
   4  -7   7    9.30    1.70
  -4   8   7   28.60    2.80
  -4   8   6   81.09    3.80
  -4  -8   6   76.89    3.40
   4  -8  -6   85.39    3.60
  -4   8   5  118.19    4.50
   4  -8  -5  113.59    4.20
  -4  -8   5  115.99    4.20
  -4   8   4  725.73   19.70
   4   8  -4  741.33   19.10
  -4  -8   4  723.83   18.60
   4  -8  -4  739.93   18.60
  -4   8   3    0.60    0.50
   4   8  -3    0.80    0.60
  -4  -8   3    0.00    0.50
   4  -8  -3    0.70    0.60
   4   8  -2  592.74   17.70
  -4   8   2  698.93   18.00
  -4  -8   2  710.63   17.10
   4  -8  -2  715.43   17.10
  -4   8   1   44.80    2.10
   4   8  -1   43.50    2.10
  -4  -8   1   43.20    1.90
   4  -8  -1   42.90    1.90
   4   8   0  801.32   20.40
  -4   8   0  779.92   20.60
  -4  -8   0  788.12   19.30
   4  -8   0  782.22   19.50
   4   8   1  164.28    5.20
  -4   8  -1  163.88    5.40
   4  -8   1  161.28    4.90
  -4  -8  -1  164.68    4.60
   4   8   2 1219.18   32.30
  -4   8  -2 1296.87   32.70
   4  -8   2 1251.47   30.70
  -4  -8  -2 1285.47   30.30
  -4   8  -3  155.48    5.40
   4   8   3  148.89    5.10
  -4  -8  -3  133.39    4.20
   4  -8   3  148.89    4.60
   4   8   4  297.47    9.00
  -4   8  -4  295.87    9.20
   4  -8   4  292.77    8.20
   4   8   5  110.39    4.40
  -4   8  -5   97.79    4.40
   4  -8   5  105.49    3.80
   4   8   6   13.10    2.10
  -4   8  -6   15.10    2.20
   4  -8   6   13.50    1.70
  -4   8  -7   43.30    3.20
  -4   9   6  148.09    5.60
  -4   9   5    2.60    1.00
  -4  -9   5    2.90    0.80
   4  -9  -5    2.60    1.20
  -4   9   4   64.59    3.00
   4   9  -4   62.29    2.80
   4  -9  -4   65.39    3.00
  -4  -9   4   62.79    2.80
  -4   9   3   19.50    1.70
   4   9  -3   22.80    1.70
  -4  -9   3   18.50    1.50
  -4   9   2    2.70    0.70
   4   9  -2    1.50    0.80
  -4  -9   2    3.80    0.70
   4   9  -1  408.16   11.30
  -4   9   1  405.56   11.40
   4  -9  -1  404.16   10.70
  -4  -9   1  401.96   10.60
  -4   9   0  130.69    4.60
   4   9   0  132.59    4.40
  -4  -9   0  127.79    4.00
   4  -9   0  126.49    4.20
   4   9   1   44.10    2.20
  -4   9  -1   45.00    2.40
   4  -9   1   44.20    2.10
  -4  -9  -1   44.80    1.90
  -4   9  -2  166.68    5.80
   4   9   2  163.78    5.60
   4  -9   2  164.18    5.10
  -4  -9  -2  176.68    4.90
   4   9   3  133.19    4.80
  -4   9  -3  139.39    5.20
   4  -9   3  131.89    4.40
  -4  -9  -3  117.29    4.00
   4   9   4  459.65   13.10
  -4   9  -4  450.65   13.30
   4  -9   4  451.85   12.10
  -4   9  -5    3.70    1.20
   4   9   5    4.60    1.10
   4  -9   5    3.90    0.90
  -4   9  -6  199.58    7.50
   4   9   6  217.18    7.60
   4  -9   6  206.28    6.50
  -4  10   5  126.59    4.80
  -4 -10   5  117.99    4.40
   4 -10  -5  117.89    4.80
  -4  10   4   23.20    1.90
   4 -10  -4   21.60    2.10
  -4 -10   4   21.70    1.80
  -4  10   3   28.70    2.00
   4  10  -3   33.70    2.30
  -4 -10   3   26.90    1.80
   4 -10  -3   25.10    2.00
  -4  10   2  285.77    8.40
   4  10  -2  244.68    8.20
   4 -10  -2  286.57    7.90
  -4 -10   2  282.27    7.80
  -4  10   1   98.49    3.80
   4  10  -1   93.89    3.70
   4 -10  -1   96.39    3.50
  -4 -10   1   91.29    3.30
  -4  10   0  345.77   10.20
   4  10   0  352.56   10.00
   4 -10   0  348.77    9.50
  -4 -10   0  344.27    9.30
  -4  10  -1   47.30    2.50
   4  10   1   40.90    2.30
   4 -10   1   40.50    2.10
  -4 -10  -1   40.90    2.00
   4  10   2    8.70    1.60
  -4  10  -2   11.00    1.60
  -4 -10  -2   11.70    1.30
   4 -10   2    9.10    1.20
  -4  10  -3  370.16   11.00
   4  10   3  348.47   10.60
   4 -10   3  348.47    9.80
   4  10   4   36.40    2.60
  -4  10  -4   35.90    2.70
   4 -10   4   37.00    2.10
  -4  10  -5  189.98    7.30
   4  10   5  212.58    7.30
   4 -10   5  209.58    6.50
  -4  10  -6   -0.60    1.60
  -4  11   4   33.60    2.40
  -4 -11   4   30.50    2.20
   4 -11  -4   39.80    2.70
  -4  11   3  254.47    8.10
   4 -11  -3  258.67    7.80
  -4 -11   3  259.47    7.70
  -4  11   2    2.70    0.80
   4  11  -2    2.00    1.10
  -4 -11   2    2.00    0.80
   4 -11  -2    3.00    0.90
  -4  11   1  469.45   13.30
   4  11  -1  461.55   13.10
   4 -11  -1  469.35   12.40
  -4 -11   1  466.65   12.30
   4  11   0    0.70    0.80
  -4  11   0    0.10    0.70
  -4 -11   0    1.40    0.80
   4 -11   0    1.10    0.70
   4  11   1  216.98    7.00
  -4  11  -1  227.28    7.30
  -4 -11  -1  205.08    6.30
   4 -11   1  218.78    6.60
  -4  11  -2   14.20    1.90
   4  11   2   14.10    1.80
   4 -11   2   14.80    1.50
  -4 -11  -2   14.70    1.60
   4  11   3  466.85   13.60
  -4  11  -3  477.75   14.00
   4 -11   3  461.95   12.70
   4  11   4    2.10    1.20
  -4  11  -4    3.70    1.40
   4 -11   4    5.40    1.10
  -4  11  -5   17.00    2.90
   4 -12  -4  119.89    4.90
  -4  12   3   25.20    2.20
   4 -12  -3   26.50    2.50
  -4 -12   3   26.90    2.10
  -4  12   2  241.18    7.90
   4  12  -2  221.18    7.90
  -4 -12   2  249.08    7.30
   4 -12  -2  253.97    7.50
  -4  12   1   25.80    2.10
   4  12  -1   27.00    2.40
   4 -12  -1   24.40    1.90
  -4 -12   1   26.80    2.00
   4  12   0  334.97    9.90
  -4  12   0  320.77   10.00
  -4 -12   0  329.57    9.20
   4 -12   0  323.97    9.30
   4  12   1  145.59    5.30
  -4  12  -1  148.69    5.70
  -4 -12  -1  141.19    4.80
   4 -12   1  144.59    5.00
   4  12   2  212.88    7.10
  -4  12  -2  212.18    7.40
   4 -12   2  205.08    6.60
   4  12   3   53.49    3.20
  -4  12  -3   53.69    3.60
  -4  12  -4   35.30    3.40
   4 -13  -2   13.20    2.20
   4  13  -1   -1.50    1.40
   4 -13  -1   -1.20    1.10
  -4 -13   1    0.50    1.10
  -4  13   0   64.69    3.50
   4  13   0   66.69    3.70
  -4 -13   0   66.39    3.10
  -4  13  -1    3.90    1.30
   4  13   1    4.60    1.30
   4  13   2  237.78    8.00
  -5   0   9    0.50    1.50
  -5   0   8  149.29    5.10
  -5   0   8  143.29    5.10
   5   0  -8  150.48    5.00
  -5   0   7    0.00    0.70
   5   0  -7    1.10    0.80
  -5   0   7   -0.40    0.70
  -5   0   6  766.32   19.50
   5   0  -6  783.92   19.30
  -5   0   6  775.32   20.00
   5   0  -5    0.00    0.50
  -5   0   5   -0.50    0.40
  -5   0   4 1556.24   39.70
   5   0  -4 1587.04   38.10
  -5   0   4 1645.44   39.70
  -5   0   3    0.30    0.30
   5   0  -3   -0.10    0.30
  -5   0   3    0.30    0.30
  -5   0   3    0.20    0.30
   5   0  -2 2817.12   62.29
  -5   0   2 2481.45   65.29
  -5   0   2 2700.53   62.19
   5   0  -2 2575.04   65.09
  -5   0   1    0.20    0.20
   5   0  -1   -0.50    0.20
  -5   0   1    0.00    0.20
   5   0  -1    0.00    0.20
  -5   0   0  956.20   23.90
   5   0   0  957.80   23.90
   5   0   0  955.30   22.80
  -5   0   0  978.50   22.80
  -5   0  -1   -1.20    0.20
   5   0   1   -0.20    0.40
  -5   0  -1   -0.90    0.30
   5   0   2   80.59    2.60
   5   0   2   75.19    2.10
  -5   0  -2   79.39    2.10
  -5   0  -2   79.89    2.60
  -5   0  -3   -1.00    0.30
  -5   0  -3   -0.30    0.30
   5   0   3   -0.70    0.20
   5   0   3   -0.20    0.20
   5   0   4   47.40    1.50
   5   0   4   51.99    1.60
  -5   0  -4   49.30    2.10
  -5   0  -5    0.50    0.50
   5   0   5    0.00    0.30
   5   0   5    0.20    0.50
   5   0   5    0.40    0.40
   5   0   6  105.39    4.10
   5   0   6  103.99    3.00
  -5   0  -6  105.59    3.90
   5   0   7    1.80    0.90
  -5   0  -7   -0.60    0.80
  -5   0  -8  292.77    9.20
   5   0   8  289.57    9.30
  -5   1   8    0.50    1.00
   5   1  -8   -0.70    1.00
  -5  -1   8    1.50    1.00
   5  -1  -8    1.00    1.10
  -5   1   7  328.27    9.30
   5   1  -7  328.07    9.00
  -5   1   7  318.47    9.10
  -5  -1   7  333.97    9.20
   5  -1  -7  323.27    9.00
  -5  -1   7  319.67    9.10
   5   1  -6   10.80    1.20
  -5   1   6    7.40    1.10
  -5  -1   6    6.90    1.10
  -5  -1   6    7.40    1.00
   5  -1  -6    8.40    1.20
   5   1  -5 1343.67   31.90
  -5   1   5 1327.77   33.30
   5  -1  -5 1327.77   31.90
  -5  -1   5 1305.37   32.00
  -5  -1   5 1280.77   33.10
  -5  -1   5 1343.97   33.10
  -5   1   4  642.04   16.60
  -5   1   4  644.04   16.70
   5   1  -4  654.53   16.10
  -5  -1   4  661.93   16.50
   5  -1  -4  650.43   16.70
  -5  -1   4  656.63   16.30
   5  -1  -4  659.33   16.20
  -5  -1   4  646.44   16.50
  -5   1   3  971.70   24.70
   5   1  -3  989.70   23.90
  -5   1   3  991.00   24.80
   5  -1  -3 1009.70   23.90
  -5  -1   3  973.30   24.60
  -5  -1   3 1023.50   24.60
   5  -1  -3  975.50   24.80
   5   1  -2    4.00    0.60
  -5   1   2    5.50    0.60
   5  -1  -2    4.60    0.50
  -5  -1   2    4.50    0.50
   5  -1  -2    4.60    0.60
  -5   1   1 1805.52   41.50
  -5   1   1 1601.44   43.30
   5   1  -1 1772.72   41.40
  -5  -1   1 1781.52   41.40
   5  -1  -1 1763.82   41.50
   5  -1  -1 1812.52   43.40
   5   1   0 2793.02   70.49
  -5   1   0 2900.21   70.99
  -5   1   0 2854.01   67.19
   5   1   0 2817.22   67.39
   5  -1   0 2811.62   70.19
   5  -1   0 2844.52   67.39
  -5  -1   0 2923.41   67.29
  -5  -1   0 2840.52   70.69
  -5   1  -1   50.69    1.50
   5   1   1   50.79    1.60
  -5   1  -1   47.50    1.70
   5   1   1   48.50    1.30
   5  -1   1   50.89    1.70
   5  -1   1   46.80    1.50
  -5  -1  -1   47.10    1.30
  -5  -1  -1   46.50    1.60
  -5   1  -2 1699.03   39.50
   5   1   2 1651.53   41.80
  -5   1  -2 1669.63   41.90
   5  -1   2 1704.63   39.50
  -5  -1  -2 1706.73   41.80
   5  -1   2 1656.53   41.90
   5   1   3   82.49    3.00
  -5   1  -3   87.69    2.40
  -5   1  -3   85.99    2.90
   5  -1   3   83.79    2.40
  -5  -1  -3   87.89    2.90
  -5   1  -4 1446.96   33.10
   5   1   4 1380.36   35.40
  -5   1  -4 1436.66   35.40
  -5  -1  -4 1422.06   35.30
   5  -1   4 1362.16   33.00
   5  -1   4 1319.97   32.90
   5   1   5   29.80    1.20
   5   1   5   31.50    1.10
   5   1   5   30.80    1.80
  -5   1  -5   34.70    1.80
   5  -1   5   29.80    1.20
  -5  -1  -5   32.30    1.80
   5  -1   5   29.10    1.40
   5   1   6  385.96   11.20
   5   1   6  387.26    9.50
  -5   1  -6  388.06   11.00
   5  -1   6  380.06   11.20
  -5  -1  -6  390.26   11.00
   5  -1   6  381.46    9.70
  -5   1  -7  392.26   11.30
   5   1   7  386.06   11.40
  -5  -1  -7  386.16   11.30
   5  -1   7  378.76   11.40
   5   1   8   44.40    3.00
  -5   1  -8   48.20    2.80
  -5  -1  -8   44.30    2.80
   5  -1   8   48.00    3.00
  -5   2   8    0.30    1.00
  -5   2   8   -1.60    1.10
  -5  -2   8   -2.10    1.10
   5  -2  -8   -0.20    1.10
  -5   2   7    0.70    0.80
   5   2  -7    2.30    0.80
  -5   2   7    2.60    0.90
  -5  -2   7    3.40    0.90
   5  -2  -7    2.10    0.90
  -5  -2   7    1.60    0.80
  -5   2   6  108.69    3.80
   5   2  -6  110.49    3.80
  -5  -2   6  106.59    3.80
  -5  -2   6  112.59    3.60
   5  -2  -6  112.09    3.70
  -5   2   5   16.70    1.20
   5   2  -5   16.40    1.30
  -5  -2   5   16.10    1.30
  -5  -2   5   18.60    1.10
  -5  -2   5   20.60    1.30
   5  -2  -5   18.00    1.30
   5   2  -4   52.09    2.00
  -5   2   4   52.29    2.00
  -5  -2   4   54.89    1.80
  -5  -2   4   51.89    1.80
   5  -2  -4   51.69    2.10
  -5  -2   4   51.19    2.10
   5   2  -3 1149.89   27.90
  -5   2   3 1194.88   29.10
   5  -2  -3 1151.48   29.10
   5  -2  -3 1147.79   27.90
  -5  -2   3 1151.28   28.70
  -5  -2   3 1172.98   28.00
  -5   2   2    3.80    0.50
  -5   2   2    3.00    0.50
   5   2  -2    2.80    0.40
   5  -2  -2    2.80    0.50
  -5  -2   2    2.30    0.40
  -5  -2   2    1.90    0.40
   5  -2  -2    3.20    0.60
  -5   2   1   94.09    2.80
   5   2  -1   96.29    2.70
   5  -2  -1   96.89    2.90
  -5  -2   1   95.49    2.80
  -5  -2   1   94.99    2.70
  -5   2   0    6.80    0.50
   5   2   0    7.10    0.50
   5   2   0    7.30    0.50
   5   2   0    7.40    0.50
  -5   2   0    8.10    0.60
  -5  -2   0    7.40    0.50
  -5  -2   0    7.40    0.50
   5  -2   0    7.70    0.60
   5  -2   0    6.40    0.60
   5   2   1 3848.61   93.19
   5   2   1 3744.03   93.49
   5   2   1 3656.53   88.29
  -5   2  -1 3702.43   93.99
  -5   2  -1 3850.11   88.79
  -5  -2  -1 3720.73   88.39
  -5  -2  -1 3818.92   93.79
  -5  -2  -1 3481.05   88.39
   5  -2   1 3755.52   88.99
   5  -2   1 4013.30   92.79
  -5   2  -2   52.39    2.00
   5   2   2   52.79    2.00
  -5   2  -2   52.49    1.70
   5   2   2   53.49    1.90
   5  -2   2   51.99    1.70
  -5  -2  -2   53.09    1.90
  -5   2  -3  952.30   24.70
   5   2   3  972.40   24.80
  -5   2  -3  950.70   23.10
  -5  -2  -3  986.90   24.70
   5  -2   3  977.10   23.10
   5   2   4    2.60    0.60
  -5   2  -4    2.30    0.50
   5  -2   4    2.70    0.50
  -5  -2  -4    1.70    0.50
  -5   2  -5 1714.33   43.70
   5   2   5 1725.43   43.80
   5  -2   5 1734.93   40.90
  -5  -2  -5 1720.13   43.60
  -5   2  -6   99.49    3.80
   5   2   6   96.69    3.90
   5  -2   6   96.69    3.10
  -5  -2  -6   97.99    3.80
   5   2   7  379.06   11.20
  -5   2  -7  369.86   11.00
  -5  -2  -7  370.26   10.90
   5  -2   7  369.16   11.10
  -5   2  -8    1.20    1.00
   5   2   8   -0.60    1.20
   5  -2   8    0.00    1.20
  -5   3   8   20.50    2.20
  -5   3   8   21.60    2.10
  -5  -3   8   20.00    2.00
   5  -3  -8   20.80    2.10
  -5   3   7  296.37    8.80
  -5  -3   7  292.87    8.50
   5  -3  -7  299.27    8.30
  -5   3   6   26.80    1.70
   5   3  -6   26.50    1.50
   5   3  -6   27.00    1.70
  -5  -3   6   26.30    1.50
  -5  -3   6   24.80    1.70
   5  -3  -6   25.30    1.70
   5   3  -5  834.22   21.30
   5   3  -5  829.92   20.90
  -5   3   5  847.82   21.90
   5  -3  -5  852.91   20.90
  -5  -3   5  836.52   21.50
  -5  -3   5  849.91   21.10
  -5  -3   5  871.91   21.50
   5   3  -4  172.68    4.60
  -5   3   4  167.78    5.10
   5   3  -4  170.88    5.00
  -5  -3   4  171.48    5.10
  -5  -3   4  175.58    4.70
   5  -3  -4  169.18    5.00
  -5  -3   4  171.08    4.70
  -5   3   3  468.35   12.10
   5   3  -3  457.25   11.70
   5  -3  -3  455.75   11.70
  -5  -3   3  473.15   11.80
  -5   3   2    1.70    0.40
  -5  -3   2    2.50    0.50
   5  -3  -2    2.60    0.50
   5  -3  -2    1.80    0.40
  -5   3   1  760.12   19.10
   5   3  -1  761.62   18.20
  -5   3   1  748.03   18.30
   5  -3  -1  765.72   19.20
  -5  -3   1  757.72   18.20
  -5  -3   1  743.13   18.10
   5  -3  -1  757.32   18.30
   5   3   0 1244.68   31.90
   5   3   0 1334.87   31.90
  -5   3   0 1174.68   32.10
  -5   3   0 1354.76   30.60
  -5  -3   0 1304.37   30.40
  -5  -3   0 1289.67   30.40
   5  -3   0 1319.67   32.20
   5  -3   0 1253.77   30.60
  -5  -3   0 1311.37   31.90
  -5   3  -1   20.60    0.90
   5   3   1   22.60    1.00
   5   3   1   19.70    1.00
   5  -3   1   18.50    0.90
  -5  -3  -1   18.20    0.70
  -5  -3  -1   19.30    0.70
  -5  -3  -1   23.70    1.00
  -5   3  -2  930.41   23.60
   5   3   2  878.01   23.20
  -5   3  -2  930.11   22.10
   5   3   2  933.51   23.40
   5  -3   2  942.71   22.10
  -5   3  -3  935.41   23.10
  -5   3  -3  963.80   24.70
   5   3   3  962.10   24.60
  -5  -3  -3  981.00   24.50
   5  -3   3  964.50   23.10
  -5   3  -4  711.43   18.80
   5   3   4  715.63   18.90
  -5  -3  -4  727.43   18.70
   5  -3   4  712.93   17.40
  -5   3  -5  201.08    6.30
   5   3   5  199.08    6.30
   5  -3   5  196.38    5.40
  -5   3  -6  278.37    8.40
   5   3   6  280.97    8.60
   5  -3   6  271.87    7.40
   5   3   7  148.49    5.50
  -5   3  -7  147.99    5.40
   5  -3   7  143.79    4.50
  -5   3  -8   44.90    3.00
   5   3   8   44.60    3.10
   5  -3   8   52.39    3.10
  -5   4   8   75.59    3.70
  -5   4   8   77.39    3.40
  -5  -4   8   67.59    3.30
  -5   4   7    2.70    0.90
   5  -4  -7    3.40    1.00
  -5  -4   7    3.50    0.90
   5   4  -6 1341.47   33.60
  -5   4   6 1312.77   34.20
  -5  -4   6 1372.46   33.70
   5  -4  -6 1338.97   32.60
  -5  -4   6 1328.37   32.80
  -5   4   5    3.90    0.70
   5   4  -5    5.60    0.80
  -5  -4   5    4.10    0.70
  -5  -4   5    5.20    0.80
   5  -4  -5    3.70    0.70
   5   4  -4 1059.19   25.90
  -5   4   4 1047.40   26.50
   5  -4  -4 1021.40   25.30
  -5  -4   4 1021.90   25.40
  -5  -4   4 1044.50   25.90
   5   4  -3   84.79    2.40
  -5   4   3   82.19    2.90
  -5  -4   3   83.09    2.80
  -5  -4   3   84.49    2.40
   5  -4  -3   86.29    2.90
   5   4  -2 1165.08   28.70
  -5   4   2 1154.18   29.10
   5  -4  -2 1173.48   27.90
  -5  -4   2 1143.29   27.80
  -5  -4   2 1153.78   28.60
  -5   4   1  453.95   11.80
   5   4  -1  449.56   11.40
  -5   4   1  434.66   11.20
  -5  -4   1  461.15   11.10
   5  -4  -1  440.86   11.20
  -5  -4   1  469.15   11.40
   5  -4  -1  447.86   11.90
  -5  -4   1  453.65   11.20
  -5   4   0  404.76   10.80
   5   4   0  415.36   10.50
   5   4   0  412.76   10.60
  -5   4   0  400.36   10.20
   5   4   0  412.86   10.10
   5  -4   0  398.86   10.80
  -5  -4   0  413.96   10.50
   5  -4   0  413.16   10.20
  -5  -4   0  418.26   10.00
  -5  -4   0  407.16   10.10
   5   4   1  960.10   25.30
   5   4   1 1016.50   23.80
   5   4   1 1037.30   25.20
  -5   4  -1  999.30   25.50
  -5   4  -1  989.50   24.10
  -5  -4  -1  983.10   23.80
  -5  -4  -1 1030.00   25.30
  -5  -4  -1 1022.20   23.70
   5  -4   1 1002.90   24.10
  -5   4  -2   39.70    1.60
   5   4   2   40.60    1.80
  -5   4  -2   38.90    1.80
   5  -4   2   38.90    1.50
   5   4   3   81.49    3.00
  -5   4  -3   75.39    2.90
   5  -4   3   76.69    2.50
  -5   4  -4   74.69    3.00
   5   4   4   78.29    3.10
   5  -4   4   74.69    2.50
   5   4   5  283.67    8.50
  -5   4  -5  272.87    8.40
   5  -4   5  283.07    7.50
  -5   4  -6  249.18    7.90
   5   4   6  256.97    8.00
   5  -4   6  251.97    6.90
  -5   4  -7    3.10    1.00
   5   4   7    1.40    1.00
   5  -4   7    3.70    0.90
  -5   4  -8  198.78    7.00
   5  -4   8  194.08    7.10
  -5   5   8   18.30    2.40
  -5   5   7  231.38    7.40
   5  -5  -7  231.48    6.90
  -5  -5   7  229.08    7.10
  -5   5   6   26.20    1.90
   5  -5  -6   21.90    1.80
  -5  -5   6   24.40    1.50
  -5  -5   6   25.30    1.80
   5   5  -5  303.57    8.10
  -5   5   5  300.87    8.80
   5  -5  -5  301.17    8.40
  -5  -5   5  309.17    8.50
  -5   5   4  509.05   13.90
   5   5  -4  524.95   13.20
   5  -5  -4  510.25   13.20
  -5  -5   4  514.75   13.30
  -5  -5   4  522.25   13.20
   5   5  -3  803.92   20.20
  -5   5   3  794.72   20.80
  -5  -5   3  821.72   20.10
   5  -5  -3  818.62   19.80
  -5  -5   3  778.92   19.80
  -5   5   2  794.72   20.40
   5   5  -2  804.12   20.00
   5  -5  -2  794.12   19.50
  -5  -5   2  784.22   19.50
  -5  -5   2  805.32   19.90
  -5   5   1  279.17    7.70
   5   5  -1  275.17    7.20
   5   5  -1  279.47    7.40
  -5  -5   1  271.17    7.20
  -5  -5   1  285.57    7.30
   5  -5  -1  275.67    7.30
  -5  -5   1  276.77    7.10
   5   5   0 1816.92   43.00
   5   5   0 1845.72   45.20
  -5   5   0 1811.72   45.50
  -5  -5   0 1833.02   43.00
   5  -5   0 1823.42   43.20
  -5  -5   0 1817.62   45.10
  -5  -5   0 1794.82   42.90
   5   5   1  122.29    3.60
   5   5   1  123.39    3.30
   5   5   1  126.79    3.80
   5  -5   1  118.99    3.60
  -5  -5  -1  118.59    3.70
  -5  -5  -1  127.09    3.30
  -5  -5  -1  121.69    3.30
   5   5   2 1729.53   41.00
   5   5   2 1754.72   43.70
  -5   5  -2 1778.22   44.00
  -5  -5  -2 1719.83   40.90
   5  -5   2 1747.03   41.50
  -5  -5  -2 1738.03   41.00
  -5   5  -3  132.39    4.40
   5   5   3  123.79    4.20
   5  -5   3  123.79    3.80
   5   5   4 1376.86   34.90
  -5   5  -4 1344.17   35.00
   5  -5   4 1369.36   32.80
   5   5   5    0.60    0.70
  -5   5  -5    1.10    0.70
   5  -5   5    0.10    0.50
  -5   5  -6  325.97   10.00
   5   5   6  332.57   10.10
   5  -5   6  333.37    8.90
  -5   5  -7   34.60    2.60
   5   5   7   31.10    2.60
   5  -5   7   39.60    2.10
  -5   6   8   27.90    2.70
  -5   6   7    7.50    1.20
   5  -6  -7    6.40    1.30
  -5  -6   7    7.60    1.20
  -5   6   6   36.70    2.20
   5  -6  -6   36.20    2.20
  -5  -6   6   34.80    2.10
   5   6  -5  113.59    3.40
  -5   6   5  105.19    4.00
  -5  -6   5  109.39    3.90
   5  -6  -5  105.39    3.80
   5   6  -4  280.57    7.50
  -5   6   4  280.67    8.20
  -5  -6   4  275.27    7.70
   5  -6  -4  285.97    7.90
  -5  -6   4  285.37    7.90
  -5   6   3  554.44   14.70
   5   6  -3  575.94   14.20
   5  -6  -3  547.55   14.00
  -5  -6   3  539.75   14.10
  -5  -6   3  539.85   14.00
  -5   6   2  379.06   10.30
   5   6  -2  371.56   10.00
  -5  -6   2  381.36    9.90
  -5  -6   2  376.36    9.80
   5  -6  -2  385.56    9.90
   5   6  -1 1088.79   27.30
  -5   6   1 1087.09   27.60
   5  -6  -1 1072.79   26.20
  -5  -6   1 1100.59   27.20
  -5  -6   1 1074.59   26.10
   5   6   0    0.40    0.40
  -5   6   0    0.80    0.40
   5   6   0    1.00    0.40
   5  -6   0    0.50    0.30
  -5  -6   0   -0.10    0.40
  -5  -6   0    0.30    0.30
  -5  -6   0    0.90    0.40
  -5   6  -1 3159.88   76.69
   5   6   1 3037.30   76.39
   5   6   1 3075.99   72.39
   5  -6   1 3152.58   72.79
  -5  -6  -1 3084.49   72.39
  -5  -6  -1 2994.80   72.29
   5   6   2   10.10    1.10
   5   6   2   10.40    0.70
  -5   6  -2   11.20    1.20
   5  -6   2   11.50    0.90
  -5  -6  -2   12.30    0.80
  -5   6  -3 1343.87   33.70
   5   6   3 1303.87   33.40
   5  -6   3 1279.17   31.50
   5   6   4    3.90    0.80
   5  -6   4    4.50    0.70
  -5   6  -5 1172.98   30.60
   5   6   5 1194.78   30.50
   5  -6   5 1133.89   28.40
   5   6   6   35.50    2.40
  -5   6  -6   33.70    2.50
   5  -6   6   35.20    1.90
   5   6   7  272.47    9.00
  -5   6  -7  279.97    9.00
   5  -6   7  274.47    7.90
  -5   7   7  171.28    6.20
  -5   7   6   18.10    1.90
  -5  -7   6   18.70    1.80
   5  -7  -6   21.40    2.00
  -5   7   5  359.66   10.20
   5  -7  -5  325.37    9.60
  -5  -7   5  361.46    9.80
  -5   7   4   46.80    2.40
   5   7  -4   51.39    2.00
  -5  -7   4   51.79    2.30
   5  -7  -4   52.49    2.40
   5   7  -3  191.58    5.50
  -5   7   3  187.68    5.80
  -5  -7   3  184.58    5.30
   5  -7  -3  184.88    5.60
  -5  -7   3  189.98    5.60
  -5   7   2  414.86   11.30
   5   7  -2  387.46   11.00
   5  -7  -2  415.76   10.70
  -5  -7   2  415.96   10.80
  -5  -7   2  419.16   10.70
   5   7  -1   59.19    2.30
  -5   7   1   57.89    2.40
  -5  -7   1   58.39    2.20
   5  -7  -1   57.19    2.20
  -5  -7   1   60.49    2.20
   5   7   0  325.07    8.60
  -5   7   0  312.37    8.90
   5  -7   0  306.47    8.30
  -5  -7   0  309.07    8.10
   5   7   1   11.90    1.00
   5   7   1   15.60    1.20
  -5  -7  -1   12.20    0.80
  -5  -7  -1   13.00    0.90
   5  -7   1   12.80    1.00
  -5   7  -2  337.17    9.60
   5   7   2  317.37    8.30
   5   7   2  328.97    9.30
   5  -7   2  327.97    8.80
  -5  -7  -2  340.47    8.30
   5   7   3  263.27    7.80
  -5   7  -3  276.97    8.10
   5   7   3  256.97    6.60
  -5  -7  -3  236.28    6.60
   5  -7   3  264.57    7.20
  -5   7  -4  249.38    8.10
   5   7   4  260.67    8.00
   5  -7   4  267.07    7.30
   5   7   5  214.68    7.00
  -5   7  -5  208.08    7.10
   5  -7   5  205.88    6.10
  -5   7  -6  140.79    5.50
   5   7   6  143.19    5.50
   5  -7   6  142.49    4.70
  -5   7  -7  206.68    7.30
   5  -7   7  202.68    6.30
  -5   8   6  404.66   11.90
  -5  -8   6  397.36   11.20
   5  -8  -6  400.26   11.20
  -5   8   5   10.80    1.60
   5  -8  -5   12.20    1.80
   5   8  -4  482.85   12.90
  -5   8   4  495.45   13.60
  -5  -8   4  494.95   13.00
   5  -8  -4  483.95   13.00
   5   8  -3   66.39    2.60
  -5   8   3   58.69    2.70
   5  -8  -3   64.79    2.70
  -5  -8   3   63.29    2.60
  -5   8   2 1172.68   28.90
   5   8  -2 1007.30   28.50
   5  -8  -2 1126.19   27.40
  -5  -8   2 1175.88   27.40
  -5   8   1  115.09    4.00
   5   8  -1  116.39    3.90
  -5  -8   1  114.89    3.70
   5  -8  -1  112.79    3.70
  -5   8   0    7.80    1.10
   5   8   0    7.60    1.00
  -5  -8   0    6.40    0.80
   5  -8   0   10.00    1.00
   5   8   1  200.98    6.10
  -5   8  -1  205.38    6.40
  -5  -8  -1  198.98    5.50
   5  -8   1  202.08    5.80
  -5   8  -2    2.10    0.70
   5   8   2    2.80    0.70
   5   8   2    3.60    0.80
   5  -8   2    1.50    0.60
  -5   8  -3  241.68    7.80
   5   8   3  253.17    7.50
   5  -8   3  256.77    7.00
  -5  -8  -3  214.98    6.30
  -5   8  -4   68.59    3.40
   5   8   4   69.09    3.20
   5  -8   4   68.69    2.80
   5   8   5  113.39    4.60
  -5   8  -5  109.79    4.70
   5  -8   5  110.39    4.00
  -5   8  -6   38.00    2.80
   5   8   6   41.50    2.90
   5  -8   6   39.40    2.40
  -5   9   6   37.60    2.60
   5  -9  -6   31.70    3.20
  -5   9   5  103.59    4.10
  -5  -9   5  100.19    3.90
   5  -9  -5   95.39    4.10
  -5   9   4  166.88    5.70
   5  -9  -4  168.88    5.60
  -5  -9   4  166.78    5.50
  -5   9   3    7.00    1.30
  -5  -9   3    6.00    1.10
   5  -9  -3    6.50    1.00
   5   9  -2  148.69    5.30
  -5   9   2  169.88    5.50
  -5  -9   2  169.78    5.10
   5  -9  -2  172.58    5.20
  -5   9   1    1.80    0.60
   5   9  -1    2.30    0.80
  -5  -9   1    3.50    0.60
   5   9   0  512.15   13.50
  -5   9   0  487.65   13.70
  -5  -9   0  502.05   12.70
   5  -9   0  486.25   12.80
   5   9   1    2.50    0.70
  -5   9  -1    2.60    0.70
   5  -9   1    2.30    0.60
  -5  -9  -1    1.80    0.60
  -5   9  -2  960.10   24.90
   5   9   2  910.71   24.50
   5  -9   2  935.41   23.30
  -5  -9  -2  941.71   22.80
  -5   9  -3   29.10    2.30
   5   9   3   31.80    2.10
   5  -9   3   30.80    1.90
  -5   9  -4  561.04   16.20
   5   9   4  569.24   15.90
   5  -9   4  571.74   14.80
  -5   9  -5    2.40    1.20
   5   9   5    2.00    1.10
   5  -9   5    1.50    0.90
  -5   9  -6  148.59    6.30
   5  -9   6  166.58    5.50
  -5  10   5   57.09    3.10
   5 -10  -5   61.49    3.40
  -5  10   4  129.69    4.90
  -5 -10   4  130.39    4.70
   5 -10  -4  136.09    4.90
  -5  10   3  161.38    5.60
  -5 -10   3  160.78    5.30
   5 -10  -3  170.38    5.50
   5  10  -2  120.39    4.70
  -5  10   2  137.69    4.90
   5 -10  -2  139.99    4.60
  -5 -10   2  139.59    4.50
   5  10  -1  270.67    8.20
  -5  10   1  275.17    8.40
  -5 -10   1  272.27    7.70
   5 -10  -1  279.37    7.80
  -5  10   0   27.50    1.90
   5  10   0   27.50    1.90
  -5 -10   0   28.40    1.60
   5 -10   0   29.60    1.70
   5  10   1  863.81   22.90
  -5  10  -1  892.81   23.40
   5 -10   1  868.01   21.90
  -5 -10  -1  864.51   21.50
  -5  10  -2   35.60    2.40
   5  10   2   38.40    2.40
  -5 -10  -2   35.20    1.90
   5 -10   2   34.80    2.00
   5  10   3  839.82   22.90
  -5  10  -3  873.31   23.40
   5 -10   3  853.11   21.60
  -5  10  -4   46.80    3.20
   5  10   4   55.39    3.10
   5 -10   4   52.99    2.60
  -5  10  -5  340.07   11.30
   5  10   5  360.96   11.10
   5 -10   5  366.36   10.20
   5 -11  -5   48.00    3.90
  -5  11   4   77.19    3.70
  -5 -11   4   83.09    3.50
   5 -11  -4   78.69    3.80
  -5  11   3  363.86   11.00
  -5 -11   3  374.16   10.40
   5 -11  -3  376.56   10.50
   5  11  -2    8.20    1.30
  -5  11   2    7.90    1.40
  -5 -11   2    8.00    1.30
   5 -11  -2    7.70    1.10
   5  11  -1   33.60    2.30
  -5  11   1   32.20    2.20
   5 -11  -1   33.40    2.00
  -5 -11   1   31.20    1.90
   5  11   0   47.60    2.70
  -5  11   0   54.69    2.80
   5 -11   0   51.39    2.50
  -5 -11   0   55.69    2.40
   5  11   1   29.60    2.20
  -5  11  -1   33.70    2.30
   5 -11   1   28.40    1.90
  -5 -11  -1   29.50    1.90
   5  11   2   50.39    2.80
  -5  11  -2   52.89    3.00
   5 -11   2   49.70    2.50
   5  11   3   36.50    2.70
  -5  11  -3   32.60    2.90
   5 -11   3   35.00    2.20
  -5  11  -4   24.30    2.80
   5  11   4   18.70    2.50
   5 -12  -4  101.09    4.50
  -5  12   3   29.90    2.50
   5 -12  -3   29.30    2.60
  -5 -12   3   28.20    2.30
  -5  12   2  181.68    6.40
  -5 -12   2  183.88    5.90
   5 -12  -2  186.28    6.10
   5  12  -1  116.59    4.70
  -5  12   1  113.99    4.70
  -5 -12   1  118.99    4.20
   5 -12  -1  115.69    4.30
   5  12   0   77.59    3.70
  -5  12   0   77.99    3.70
   5 -12   0   81.59    3.40
  -5 -12   0   82.69    3.30
  -5  12  -1   44.70    2.90
   5  12   1   42.70    2.70
   5 -12   1   44.70    2.40
  -5 -12  -1   39.70    2.40
   5  12   2   29.70    2.40
  -5  12  -2   26.80    2.50
   5 -12   2   29.10    2.00
   5  12   3  116.29    4.80
  -5  12  -3  108.89    5.20
  -5 -13   1    0.70    1.10
   5  13   0  163.08    6.00
  -5 -13   0  159.18    5.40
   5  13   1    2.50    1.30
   5  13   2  183.48    6.60
  -6   0   8  322.27    9.40
   6   0  -8  336.47    9.40
   6   0  -7    1.10    0.80
  -6   0   7    1.50    0.80
   6   0  -6  277.77    7.80
  -6   0   6  271.77    7.90
  -6   0   6  292.07    7.90
   6   0  -5   -0.20    0.50
  -6   0   4   68.69    2.30
  -6   0   4   73.29    2.30
   6   0  -4   71.09    2.50
   6   0  -3    0.10    0.30
  -6   0   3   -0.40    0.20
   6   0  -3   -1.00    0.30
  -6   0   3   -0.20    0.30
  -6   0   2    5.60    0.40
  -6   0   2    5.00    0.50
   6   0  -2    4.70    0.50
   6   0  -2    6.00    0.70
  -6   0   1   -1.60    0.20
   6   0  -1   -1.30    0.30
  -6   0   1   -1.00    0.20
   6   0   0  727.03   17.60
  -6   0   0  737.03   17.60
   6   0   0  753.92   18.50
  -6   0   0  730.43   18.40
   6   0   1    0.10    0.20
  -6   0  -1    0.20    0.20
   6   0   1    0.30    0.30
  -6   0  -2  304.97    7.30
   6   0   2  300.77    7.30
  -6   0  -2  302.47    8.10
   6   0   2  302.07    8.10
  -6   0  -3    1.20    0.30
  -6   0  -3    2.00    0.50
   6   0   4 3351.46   81.39
   6   0   4 3601.04   81.39
  -6   0  -4 3482.65   86.39
   6   0   5    0.80    0.50
   6   0   5   -1.00    0.60
   6   0   5    0.70    0.40
   6   0   6 1794.72   46.40
  -6   0  -6 1841.12   46.30
  -6   0  -7   -0.70    0.80
   6   0   7    1.10    0.90
   6   0   8  403.76   12.20
  -6   0  -8  394.96   11.90
   6   1  -8   63.49    3.00
  -6   1   8   61.59    3.00
  -6  -1   8   58.19    3.00
   6  -1  -8   64.49    3.10
  -6   1   7    0.90    0.80
   6   1  -7    1.20    0.90
  -6   1   7   -0.70    0.80
   6  -1  -7    1.30    0.90
  -6  -1   7    0.30    0.70
  -6  -1   7    1.50    0.80
   6   1  -6  363.56    9.90
  -6   1   6  367.26   10.00
   6  -1  -6  368.86    9.90
  -6  -1   6  370.16    9.90
  -6  -1   6  359.36   10.00
  -6   1   5   -0.10    0.40
   6   1  -5    1.90    0.60
  -6  -1   5    0.90    0.60
  -6  -1   5    0.50    0.40
  -6  -1   5    0.80    0.60
   6  -1  -5    0.90    0.60
  -6   1   4  770.42   20.10
  -6   1   4  799.22   20.10
   6   1  -4  815.02   19.50
   6  -1  -4  790.22   20.20
  -6  -1   4  771.82   19.90
  -6  -1   4  812.42   19.90
   6  -1  -4  797.32   19.50
  -6   1   3  120.89    3.50
   6   1  -3  123.79    3.60
   6  -1  -3  122.99    3.60
  -6   1   2 1784.92   45.30
  -6   1   2 1757.82   43.50
   6   1  -2 1890.01   43.50
   6  -1  -2 1820.52   43.50
   6  -1  -2 1914.71   45.40
  -6  -1   2 1851.81   43.50
   6   1  -1 1466.55   38.10
  -6   1   1 1594.74   39.80
  -6   1   1 1631.34   38.20
   6  -1  -1 1624.44   38.20
  -6  -1   1 1642.34   38.10
   6  -1  -1 1713.93   39.90
   6   1   0 1752.72   43.90
   6   1   0 1913.01   46.00
  -6   1   0 1900.71   46.20
  -6   1   0 1884.81   44.00
   6  -1   0 1862.01   46.20
   6  -1   0 1921.91   44.00
  -6  -1   0 1922.61   43.90
  -6  -1   0 1775.82   46.20
  -6   1  -1 1699.03   41.80
   6   1   1 1593.84   39.40
   6   1   1 1647.34   41.60
  -6   1  -1 1749.72   39.60
  -6  -1  -1 1676.73   41.70
   6  -1   1 1671.03   41.80
  -6  -1  -1 1714.73   39.40
   6  -1   1 1693.23   39.60
  -6   1  -2  421.76   11.00
   6   1   2  400.06   10.90
  -6   1  -2  431.26   10.10
   6  -1   2  418.56   10.10
  -6  -1  -2  420.96   10.90
   6  -1   2  406.06   11.00
  -6   1  -3 1578.94   41.30
  -6   1  -3 1667.93   38.80
  -6  -1  -3 1641.64   41.30
   6  -1   3 1693.63   38.80
  -6   1  -4   48.10    1.70
   6   1   4   46.80    2.20
  -6   1  -4   47.60    2.10
   6  -1   4   42.20    1.50
   6  -1   4   46.00    1.60
  -6  -1  -4   46.80    2.10
   6   1   5  899.11   24.00
  -6   1  -5  927.11   24.00
  -6  -1  -5  926.01   23.90
   6  -1   5  906.11   22.00
   6  -1   5  930.21   21.90
  -6   1  -6   52.39    2.60
   6   1   6   54.09    2.80
  -6  -1  -6   54.29    2.70
   6  -1   6   53.29    1.90
   6  -1   6   48.50    2.70
   6   1   7  313.37    9.80
  -6   1  -7  321.17    9.70
  -6  -1  -7  317.27    9.60
   6  -1   7  312.87    9.80
  -6   1  -8    8.10    1.40
  -6  -1  -8   12.40    1.90
   6  -1   8    7.00    1.40
  -6   2   8    5.40    1.20
  -6   2   8    3.70    1.10
   6  -2  -8    4.30    1.30
  -6  -2   8    4.60    1.20
   6   2  -7   79.29    3.20
  -6   2   7   78.19    3.20
   6  -2  -7   78.39    3.20
  -6  -2   7   78.59    3.30
  -6   2   6    0.60    0.60
   6   2  -6   -0.90    0.70
  -6  -2   6   -0.50    0.50
  -6  -2   6   -0.20    0.60
   6   2  -5  969.50   23.90
  -6   2   5  967.20   24.90
  -6  -2   5  977.90   24.60
  -6  -2   5  960.50   24.10
   6  -2  -5  985.50   24.00
  -6  -2   5  991.10   24.50
  -6   2   4    5.10    0.70
   6   2  -4    3.20    0.60
  -6  -2   4    4.20    0.60
   6  -2  -4    4.40    0.70
  -6  -2   4    5.30    0.60
  -6  -2   4    4.10    0.80
  -6   2   3 2060.39   49.70
   6   2  -3 1999.50   47.60
   6  -2  -3 1933.81   47.60
  -6  -2   3 2023.60   47.70
   6  -2  -3 2000.10   49.80
  -6   2   2    0.70    0.30
   6   2  -2    0.40    0.40
   6  -2  -2    0.10    0.40
  -6   2   1 9679.03  230.18
  -6   2   1 9879.71  241.68
   6   2  -1 9752.02  230.08
   6  -2  -1 9695.43  230.68
   6  -2  -1 9946.90  241.58
  -6  -2   1 9526.85  229.88
   6   2   0   55.29    1.70
   6   2   0   54.59    1.60
   6   2   0   51.79    1.70
  -6   2   0   54.29    1.80
   6  -2   0   53.19    1.80
  -6  -2   0   55.09    1.60
  -6  -2   0   53.89    1.60
   6  -2   0   53.09    1.90
  -6   2  -1  942.31   23.40
  -6   2  -1  954.30   22.10
   6   2   1  930.71   21.80
   6   2   1  937.41   23.20
   6   2   1  929.51   23.10
   6  -2   1  834.92   22.00
   6  -2   1  921.11   23.30
  -6  -2  -1  939.71   21.80
  -6  -2  -1  944.51   23.10
  -6  -2  -1  896.81   21.80
   6   2   2   10.00    0.80
  -6   2  -2   11.60    0.90
  -6   2  -2   10.10    0.70
   6   2   2    9.80    0.70
  -6  -2  -2    9.20    0.70
   6  -2   2    9.10    0.60
   6   2   3 2533.25   63.29
  -6   2  -3 2489.65   63.29
  -6   2  -3 2550.64   59.79
  -6  -2  -3 2546.75   63.19
   6  -2   3 2587.84   59.79
   6   2   4  104.49    3.80
  -6   2  -4  105.89    3.20
  -6   2  -4  104.39    3.70
   6  -2   4  105.59    3.00
  -6  -2  -4  106.59    3.70
   6   2   5  161.48    5.40
  -6   2  -5  158.48    5.30
   6  -2   5  152.68    4.30
  -6  -2  -5  163.48    5.20
  -6   2  -6    1.30    0.70
   6   2   6    1.50    0.80
  -6  -2  -6    0.20    0.60
   6  -2   6    1.20    0.50
  -6   2  -7   14.00    1.70
   6   2   7   16.20    2.00
  -6  -2  -7   17.40    1.70
   6  -2   7   12.80    1.90
  -6   2  -8   19.30    2.20
   6   2   8   19.60    2.60
   6  -2   8   21.90    2.40
  -6   3   8   46.20    2.80
  -6   3   8   45.40    2.90
  -6  -3   8   46.70    2.70
   6  -3  -8   47.90    2.80
  -6   3   7  199.58    6.30
  -6  -3   7  196.68    6.30
   6  -3  -7  196.28    6.10
  -6   3   6  177.68    5.50
   6   3  -6  175.18    5.40
   6  -3  -6  165.08    5.30
  -6  -3   6  177.58    5.10
  -6  -3   6  171.68    5.50
   6   3  -5   53.19    2.30
  -6   3   5   52.39    2.20
  -6  -3   5   49.30    1.90
   6  -3  -5   50.39    2.30
  -6  -3   5   53.29    2.10
  -6  -3   5   47.10    2.30
  -6   3   4  504.25   13.50
   6   3  -4  532.75   13.10
  -6  -3   4  514.65   13.20
   6  -3  -4  510.95   13.10
  -6   3   3    5.30    0.70
   6   3  -3    5.40    0.70
  -6  -3   3    5.20    0.70
   6   3  -2  945.41   23.00
  -6   3   2  971.90   24.10
   6  -3  -2  968.00   23.20
  -6  -3   2  944.21   23.10
   6  -3  -2  954.20   24.20
  -6   3   1    5.30    0.50
   6   3  -1    5.30    0.60
  -6   3   1    4.80    0.60
   6  -3  -1    5.80    0.70
  -6  -3   1    5.30    0.50
  -6  -3   1    4.10    0.60
   6   3   0  348.07    9.10
  -6   3   0  361.56    9.00
   6   3   0  361.86    9.10
  -6   3   0  366.36    9.50
   6   3   0  358.16    8.70
   6  -3   0  351.96    8.90
   6  -3   0  346.27    9.50
  -6  -3   0  352.16    8.80
  -6  -3   0  364.26    8.70
  -6   3  -1  568.94   13.60
   6   3   1  557.84   14.10
  -6   3  -1  563.14   14.50
   6   3   1  559.94   14.20
   6  -3   1  565.04   13.50
  -6  -3  -1  542.65   13.20
  -6  -3  -1  569.44   13.20
   6  -3   1  511.85   14.30
   6   3   2  390.26   10.40
  -6   3  -2  387.46   10.50
  -6   3  -2  378.36    9.70
  -6  -3  -2  389.16   10.30
   6  -3   2  392.66    9.70
  -6   3  -3  400.36   10.80
   6   3   3  389.56   10.70
  -6   3  -3  383.66    9.90
  -6  -3  -3  395.36   10.60
   6  -3   3  401.46    9.90
   6   3   4    7.20    1.10
  -6   3  -4    8.50    1.00
  -6  -3  -4    6.30    0.90
   6  -3   4    8.10    0.80
  -6   3  -5 1258.47   33.00
   6   3   5 1297.37   33.10
  -6  -3  -5 1292.07   32.90
   6  -3   5 1284.37   30.70
  -6   3  -6    8.50    1.40
   6   3   6   14.60    1.60
   6  -3   6   11.50    1.10
   6   3   7  143.09    5.50
  -6   3  -7  143.79    5.40
  -6   3  -8   16.70    2.30
   6  -3   8   13.20    2.30
  -6   4   8  199.98    6.80
   6  -4  -8  203.58    6.50
  -6   4   7    2.70    1.00
  -6  -4   7    2.10    0.90
   6  -4  -7    1.50    1.00
  -6   4   6   43.00    2.30
  -6  -4   6   42.20    2.20
   6  -4  -6   45.20    2.30
  -6   4   5  244.38    7.20
   6   4  -5  254.17    6.60
  -6  -4   5  237.38    6.60
  -6  -4   5  240.98    7.10
   6  -4  -5  242.88    7.00
  -6   4   4  337.17    9.30
   6   4  -4  340.27    9.00
   6  -4  -4  337.17    9.10
  -6  -4   4  335.17    9.10
  -6   4   3   39.20    1.70
   6   4  -3   35.60    1.60
   6  -4  -3   36.90    1.70
  -6  -4   3   36.10    1.70
   6   4  -2   25.70    1.30
  -6   4   2   28.40    1.40
   6  -4  -2   29.50    1.40
  -6  -4   2   27.50    1.40
  -6   4   1    0.80    0.40
   6   4  -1    1.20    0.30
  -6  -4   1    1.70    0.40
   6  -4  -1    0.70    0.40
  -6  -4   1    1.10    0.20
   6   4   0  183.98    5.10
  -6   4   0  190.38    5.40
   6   4   0  193.58    5.10
  -6  -4   0  179.68    4.90
  -6  -4   0  192.38    5.10
  -6  -4   0  188.28    4.90
   6  -4   0  193.18    5.10
  -6   4  -1    8.20    0.80
   6   4   1    5.80    0.70
   6   4   1    8.50    0.70
  -6  -4  -1    9.00    0.70
  -6  -4  -1    6.90    0.50
   6  -4   1    7.40    0.70
  -6  -4  -1    6.90    0.50
  -6   4  -2  810.12   20.90
   6   4   2  798.92   20.70
   6  -4   2  812.42   19.60
   6   4   3    1.90    0.60
  -6   4  -3    2.00    0.50
   6  -4   3    2.80    0.50
   6   4   4  622.04   16.70
  -6   4  -4  611.54   16.70
   6  -4   4  628.04   15.30
   6   4   5   62.69    3.00
  -6   4  -5   68.49    3.00
   6  -4   5   66.79    2.40
   6   4   6 1124.49   29.20
  -6   4  -6 1107.39   29.20
   6  -4   6 1094.49   26.90
   6   4   7    8.50    1.40
  -6   5   8   94.79    4.30
  -6   5   7   22.00    2.00
  -6  -5   7   20.10    1.90
   6  -5  -7   23.20    2.10
  -6   5   6  342.07   10.00
  -6  -5   6  351.46    9.80
   6  -5  -6  345.37    9.60
  -6   5   5   90.49    3.50
   6   5  -5   94.09    2.90
   6  -5  -5   93.49    3.50
  -6  -5   5   94.89    3.50
  -6  -5   5   93.99    2.90
  -6   5   4  591.24   15.80
   6   5  -4  585.24   15.00
  -6  -5   4  601.34   15.20
   6  -5  -4  597.44   15.10
  -6   5   3   29.10    1.60
  -6  -5   3   28.70    1.50
   6  -5  -3   30.10    1.60
  -6   5   2 2189.18   54.69
  -6  -5   2 2209.88   52.19
   6  -5  -2 2192.18   52.19
  -6   5   1  395.76   10.80
   6   5  -1  400.16   10.40
  -6  -5   1  410.86   10.20
  -6  -5   1  412.46   10.30
   6  -5  -1  398.66   10.30
   6   5   0 1703.63   42.80
   6   5   0 1749.12   40.80
  -6   5   0 1698.83   43.10
   6   5   0 1771.52   42.70
   6  -5   0 1667.83   40.90
  -6  -5   0 1749.43   40.70
  -6  -5   0 1702.53   42.70
  -6  -5   0 1726.03   40.60
   6   5   1  198.78    5.00
  -6   5  -1  194.98    5.80
   6   5   1  194.88    5.60
   6   5   1  193.88    5.50
  -6  -5  -1  190.78    5.50
  -6  -5  -1  193.58    5.00
  -6  -5  -1  194.18    4.90
   6  -5   1  193.78    5.30
  -6   5  -2  502.65   13.40
   6   5   2  487.95   13.10
   6  -5   2  493.15   12.40
  -6  -5  -2  492.15   11.80
   6   5   3  406.96   11.30
  -6   5  -3  417.96   11.50
   6  -5   3  409.16   10.50
   6   5   4  231.98    7.20
  -6   5  -4  234.68    7.20
   6  -5   4  230.48    6.40
  -6   5  -5  333.67   10.00
   6   5   5  344.57   10.10
   6  -5   5  341.57    9.00
   6   5   6    6.30    1.20
  -6   5  -6   10.00    1.60
   6  -5   6    5.90    0.90
  -6   5  -7   98.79    4.30
   6   5   7   94.19    4.40
   6  -5   7  100.69    3.60
  -6   6   8    1.40    1.40
  -6   6   7   97.59    4.20
   6  -6  -7   98.69    4.00
  -6  -6   7   95.29    3.90
  -6   6   6   47.90    2.60
  -6  -6   6   47.30    2.50
   6  -6  -6   47.70    2.60
  -6   6   5  570.24   16.00
  -6  -6   5  637.24   15.60
   6  -6  -5  572.74   15.30
   6   6  -4   17.60    1.10
  -6   6   4   16.70    1.40
   6  -6  -4   16.80    1.50
  -6  -6   4   13.90    1.30
   6   6  -3 1669.73   41.40
  -6   6   3 1667.13   42.10
  -6  -6   3 1659.03   40.20
  -6  -6   3 1680.73   41.40
   6  -6  -3 1673.23   40.20
   6   6  -2   15.00    1.10
  -6   6   2   14.20    1.10
  -6  -6   2   13.00    1.10
  -6  -6   2   15.40    0.90
   6  -6  -2   11.30    1.10
  -6   6   1 1685.53   42.40
   6   6  -1 1680.13   42.00
   6  -6  -1 1658.43   40.30
  -6  -6   1 1702.23   41.90
  -6  -6   1 1711.53   40.20
  -6   6   0   55.39    2.30
   6   6   0   58.19    2.10
   6   6   0   55.09    2.00
   6  -6   0   55.69    2.10
  -6  -6   0   57.19    2.10
  -6  -6   0   56.89    2.00
  -6  -6   0   56.09    1.90
  -6   6  -1 1000.40   25.20
   6   6   1  976.70   24.80
   6   6   1  953.30   23.30
   6  -6   1  982.60   23.70
  -6  -6  -1  980.60   23.30
  -6  -6  -1  957.90   23.20
   6   6   2   15.40    0.80
   6   6   2   15.90    1.30
  -6   6  -2   17.70    1.40
  -6  -6  -2   16.80    0.90
   6  -6   2   15.40    1.10
  -6  -6  -2   15.50    0.80
  -6   6  -3  801.82   20.90
   6   6   3  778.42   20.60
   6  -6   3  768.92   19.30
  -6   6  -4   88.59    3.60
   6   6   4   85.99    3.50
   6  -6   4   84.19    3.00
  -6   6  -5   18.20    1.80
   6  -6   5   16.70    1.40
   6   6   6   23.10    2.20
  -6   6  -6   21.00    2.10
   6  -6   6   24.40    1.70
   6   6   7    7.50    1.40
  -6   6  -7    5.90    1.30
   6  -6   7    6.30    1.20
  -6   7   7   75.89    3.70
   6  -7  -7   68.49    3.60
  -6   7   6   55.79    2.90
  -6  -7   6   53.29    2.70
   6  -7  -6   53.09    2.90
  -6   7   5   60.59    2.90
   6  -7  -5   60.09    2.90
  -6  -7   5   59.29    2.80
  -6   7   4  102.09    3.90
   6   7  -4  108.49    3.30
  -6  -7   4  109.89    3.80
   6  -7  -4  107.19    3.90
  -6   7   3   41.10    2.10
   6   7  -3   41.50    1.80
   6  -7  -3   41.30    2.10
  -6  -7   3   41.00    2.00
  -6   7   2  450.55   12.30
   6   7  -2  435.16   11.90
  -6  -7   2  456.85   11.70
  -6  -7   2  456.55   11.70
   6  -7  -2  453.85   11.70
  -6   7   1    6.40    0.90
   6   7  -1    6.90    0.90
  -6  -7   1    6.30    0.90
   6  -7  -1    7.20    0.90
  -6  -7   1    7.80    1.00
  -6   7   0   12.30    1.20
   6   7   0   14.10    1.10
  -6  -7   0   12.30    0.90
   6  -7   0   13.80    1.10
   6   7   1   95.89    3.00
  -6   7  -1  104.89    3.70
   6   7   1   98.39    3.40
  -6  -7  -1  102.09    3.00
  -6  -7  -1   96.59    3.00
   6  -7   1  103.09    3.30
   6   7   2   77.39    3.10
   6   7   2   74.69    2.40
  -6   7  -2   80.69    3.30
  -6  -7  -2   77.79    2.30
   6  -7   2   77.09    2.80
  -6  -7  -2   79.09    2.40
   6   7   3  369.46   10.60
  -6   7  -3  374.96   10.80
   6  -7   3  366.46    9.80
   6   7   4   27.70    2.00
  -6   7  -4   27.80    2.10
   6  -7   4   24.00    1.60
   6   7   5  544.85   15.30
  -6   7  -5  540.75   15.40
   6  -7   5  533.85   13.90
  -6   7  -6   11.40    2.00
   6   7   6    8.90    1.40
   6  -7   6   12.20    1.60
  -6   7  -7  263.47    8.90
   6  -7   7  262.97    7.70
  -6   8   6    3.70    1.20
   6  -8  -6    6.10    1.40
  -6  -8   6    3.00    1.00
  -6   8   5  130.09    4.70
   6  -8  -5  126.69    4.60
  -6  -8   5  119.59    4.40
  -6   8   4   63.69    2.90
  -6  -8   4   63.39    2.80
   6  -8  -4   64.69    2.90
   6   8  -3  126.69    4.00
  -6   8   3  128.69    4.50
  -6  -8   3  126.19    4.20
   6  -8  -3  123.19    4.30
  -6   8   2   92.49    3.50
   6   8  -2   86.59    3.20
  -6  -8   2   88.89    3.20
   6  -8  -2   90.39    3.20
  -6   8   1  391.26   10.80
   6   8  -1  368.56   10.40
   6  -8  -1  378.96   10.10
  -6  -8   1  393.86   10.00
  -6   8   0    3.30    0.70
   6   8   0    2.00    0.60
   6  -8   0    3.50    0.60
  -6  -8   0    3.10    0.60
  -6   8  -1   20.20    1.60
   6   8   1   23.70    1.60
   6  -8   1   20.90    1.40
  -6  -8  -1   21.90    1.20
  -6   8  -2  316.17    9.40
   6   8   2  309.87    9.10
   6  -8   2  312.37    8.60
  -6  -8  -2  319.17    8.10
   6   8   3    1.00    0.80
  -6   8  -3    1.70    0.80
   6  -8   3    1.70    0.60
  -6   8  -4  383.86   11.60
   6   8   4  397.46   11.40
   6  -8   4  387.06   10.50
   6   8   5    5.80    1.20
  -6   8  -5    7.50    1.30
   6  -8   5    5.30    1.00
   6   8   6  362.06   11.10
  -6   8  -6  338.47   11.00
   6  -8   6  362.46    9.90
  -6   9   6  145.79    5.30
   6  -9  -6  135.29    5.40
  -6   9   5   -0.80    0.90
   6  -9  -5    0.40    1.10
  -6  -9   5    0.80    0.90
  -6   9   4  433.56   12.50
   6  -9  -4  442.86   12.00
  -6  -9   4  437.16   11.90
  -6   9   3    4.10    0.90
  -6  -9   3    4.00    0.80
   6  -9  -3    3.40    0.80
  -6   9   2  973.50   25.00
   6   9  -2  923.81   24.60
  -6  -9   2  967.70   23.70
   6  -9  -2  956.70   23.70
   6   9  -1   27.50    1.80
  -6   9   1   27.90    1.80
   6  -9  -1   30.00    1.70
  -6  -9   1   28.90    1.60
   6   9   0 1057.89   27.10
  -6   9   0 1035.10   27.40
  -6  -9   0 1053.09   25.60
   6  -9   0 1067.99   26.00
   6   9   1    4.20    0.80
   6  -9   1    2.50    0.60
  -6  -9  -1    3.60    0.70
   6   9   2  495.85   14.10
  -6   9  -2  518.55   14.50
   6  -9   2  513.75   13.40
  -6  -9  -2  520.55   12.90
   6   9   3    1.30    0.90
  -6   9  -3   -0.30    0.90
   6  -9   3    1.30    0.70
   6   9   4   40.20    2.70
  -6   9  -4   37.40    2.70
   6  -9   4   39.20    2.20
   6   9   5   27.40    2.40
  -6   9  -5   23.80    2.50
   6  -9   5   26.20    2.00
  -6   9  -6    3.70    1.60
  -6  10   5  232.08    7.70
   6 -10  -5  244.48    7.70
  -6  10   4   35.90    2.40
  -6 -10   4   31.90    2.20
   6 -10  -4   37.40    2.60
  -6  10   3  428.56   12.50
   6 -10  -3  450.25   12.00
  -6 -10   3  432.06   11.80
  -6  10   2   62.89    2.90
   6  10  -2   60.39    2.90
  -6 -10   2   62.79    2.70
   6 -10  -2   61.99    2.80
   6  10  -1  692.43   19.10
  -6  10   1  728.43   19.50
   6 -10  -1  721.53   18.40
  -6 -10   1  747.13   18.30
   6  10   0   40.80    2.20
  -6  10   0   37.80    2.30
  -6 -10   0   37.70    1.90
   6 -10   0   34.50    2.00
   6  10   1  254.67    7.80
  -6  10  -1  262.17    8.20
  -6 -10  -1  265.47    7.20
   6 -10   1  258.67    7.50
  -6  10  -2  258.17    8.40
   6  10   2  267.07    8.20
   6 -10   2  264.57    7.70
   6  10   3  103.29    4.30
  -6  10  -3  105.79    4.60
   6 -10   3  104.39    3.90
   6  10   4   51.29    3.10
  -6  10  -4   41.20    3.10
   6 -10   4   49.60    2.50
   6  10   5   -0.30    1.30
  -6  10  -5    1.60    1.40
   6 -11  -5   12.10    2.00
  -6  11   4    4.30    1.10
   6 -11  -4    4.40    1.50
  -6  11   3    4.10    1.00
  -6 -11   3    4.20    1.00
   6 -11  -3    3.90    1.10
  -6  11   2   97.09    4.10
   6 -11  -2  101.89    3.90
  -6 -11   2   99.79    3.80
   6  11  -1   21.80    2.00
  -6  11   1   16.50    1.80
  -6 -11   1   17.50    1.60
   6 -11  -1   18.50    1.60
  -6  11   0   34.00    2.30
   6  11   0   34.00    2.30
   6 -11   0   30.30    2.00
  -6 -11   0   37.20    2.10
   6  11   1  121.09    4.60
  -6  11  -1  122.39    4.80
   6 -11   1  120.39    4.30
  -6 -11  -1  119.19    4.10
   6  11   2    8.60    1.70
  -6  11  -2    3.60    1.10
   6 -11   2    5.50    1.00
   6  11   3  393.46   11.80
  -6  11  -3  395.26   12.20
   6 -11   3  392.66   11.00
  -6  11  -4   35.30    3.10
   6  11   4   37.10    3.00
   6 -12  -3  206.78    6.80
  -6  12   2   46.00    2.80
   6 -12  -2   51.09    2.80
  -6 -12   2   48.50    2.60
  -6  12   1  103.49    4.40
   6 -12  -1  103.49    4.10
  -6 -12   1  114.49    4.10
  -6  12   0   25.80    2.20
   6  12   0   26.40    2.40
   6 -12   0   28.10    2.10
  -6 -12   0   29.00    2.10
   6  12   1  111.89    4.50
  -6  12  -1  117.59    4.90
   6 -12   1  109.79    4.20
  -6  12  -2  207.78    7.40
   6  12   2  201.78    6.90
   6  12   3   13.70    2.30
  -6 -13   1    1.00    1.20
   6  13   1    5.10    1.40
   6  13   2  230.78    7.80
   7   0  -8   -0.10    1.20
  -7   0   8    1.50    1.10
  -7   0   7   -0.60    0.80
   7   0  -7   -0.80    0.80
  -7   0   7    0.10    0.80
   7   0  -6   34.90    2.00
  -7   0   6   32.50    2.00
  -7   0   6   32.50    1.70
  -7   0   5   -0.30    0.40
   7   0  -5   -0.20    0.50
  -7   0   5   -0.50    0.60
  -7   0   4 1403.86   34.60
  -7   0   4 1380.36   34.60
   7   0  -4 1394.86   33.60
  -7   0   3    1.00    0.30
   7   0  -3    0.60    0.30
  -7   0   3    0.50    0.30
   7   0  -3    0.60    0.40
  -7   0   2 2582.84   62.19
  -7   0   2 2543.25   65.09
   7   0  -2 2794.22   62.39
  -7   0   1    0.10    0.30
  -7   0   1    0.30    0.20
   7   0  -1   -0.30    0.30
   7   0  -1    0.80    0.30
  -7   0   0 3514.85   81.49
   7   0   0 3463.05   81.79
  -7   0   0 3284.17   85.99
   7   0   0 3594.84   85.29
  -7   0  -1   -1.30    0.20
   7   0   1   -0.40    0.30
  -7   0  -1   -0.90    0.30
   7   0   1   -0.10    0.40
  -7   0  -2 2755.12   62.09
  -7   0  -2 2624.74   65.69
   7   0   2 2571.44   62.09
   7   0   3    0.30    0.20
  -7   0  -3    0.40    0.30
  -7   0  -3    1.00    0.40
   7   0   4 1095.99   26.20
  -7   0  -4 1135.49   26.30
  -7   0  -4 1090.69   28.50
   7   0   4 1124.39   26.20
  -7   0  -5   -0.80    0.50
   7   0   5    1.20    0.40
  -7   0  -6  344.57   10.10
   7   0   6  337.67   10.20
   7   0   7    1.70    1.00
  -7   0  -7   -0.30    0.80
  -7   1   8  180.68    6.00
   7   1  -8  186.48    6.00
   7  -1  -8  184.18    6.00
  -7  -1   8  174.58    6.00
   7   1  -7   57.49    2.80
  -7   1   7   53.29    2.80
  -7   1   7   56.39    2.60
  -7  -1   7   57.09    2.70
   7  -1  -7   57.69    2.80
  -7   1   6  425.86   11.50
   7   1  -6  432.46   11.50
  -7  -1   6  424.56   11.40
  -7  -1   6  434.96   11.60
   7  -1  -6  432.86   11.50
   7   1  -5  187.78    5.50
  -7   1   5  183.88    5.40
  -7  -1   5  181.08    5.70
   7  -1  -5  189.18    5.60
  -7  -1   5  190.48    5.30
  -7  -1   5  184.88    5.20
   7   1  -4  229.78    6.40
  -7   1   4  216.88    6.20
  -7   1   4  226.98    6.20
  -7  -1   4  225.28    6.00
   7  -1  -4  225.48    6.30
  -7  -1   4  244.08    6.10
   7  -1  -4  228.78    6.40
  -7   1   3  279.67    7.50
   7   1  -3  289.67    7.60
   7  -1  -3  285.87    7.60
   7  -1  -3  290.47    7.60
  -7   1   2  608.64   15.10
   7   1  -2  595.34   14.70
   7  -1  -2  584.14   14.80
  -7  -1   2  585.04   14.70
   7  -1  -2  621.64   15.20
  -7   1   1  887.51   22.10
   7   1  -1  878.91   21.20
  -7   1   1  885.61   21.30
   7  -1  -1  905.11   22.20
   7  -1  -1  862.91   21.30
  -7  -1   1  888.81   21.20
   7   1   0   15.20    0.80
   7   1   0   14.30    0.80
  -7   1   0   15.00    0.80
  -7   1   0   15.80    0.90
  -7  -1   0   14.40    0.80
  -7  -1   0   12.90    0.70
   7  -1   0   13.30    0.80
   7  -1   0   13.40    0.80
  -7   1  -1 2101.79   51.49
   7   1   1 1963.70   48.70
   7   1   1 2055.69   51.39
  -7   1  -1 2122.49   48.90
  -7  -1  -1 2104.89   51.39
   7  -1   1 2091.79   48.80
  -7  -1  -1 2127.69   48.70
   7  -1   1 2035.90   51.49
  -7   1  -2   90.49    3.10
   7   1   2   93.69    2.40
  -7   1  -2   94.69    2.60
  -7  -1  -2   92.49    2.40
  -7  -1  -2   89.19    3.00
   7  -1   2   91.09    2.60
  -7   1  -3 1303.37   30.20
  -7   1  -3 1223.98   32.30
   7  -1   3 1285.57   30.20
  -7  -1  -3 1292.07   32.30
  -7   1  -4  228.48    5.60
  -7   1  -4  216.08    6.50
   7   1   4  214.48    6.60
  -7  -1  -4  218.78    6.50
   7  -1   4  207.68    5.50
   7  -1   4  201.88    5.40
  -7   1  -5   26.90    1.70
   7   1   5   27.60    1.80
   7  -1   5   26.20    1.10
  -7  -1  -5   30.20    1.80
  -7   1  -6  123.29    4.60
   7   1   6  118.99    4.60
  -7  -1  -6  120.29    4.50
   7   1   7   75.39    3.60
  -7   1  -7   74.49    3.50
   7  -1   7   76.79    3.60
  -7  -1  -7   75.09    3.50
  -7   2   8   12.60    2.10
   7   2  -8   15.40    2.10
  -7  -2   8   14.80    2.00
   7  -2  -8   13.50    2.20
   7   2  -7  498.55   13.20
  -7   2   7  486.35   13.40
  -7  -2   7  493.45   13.40
   7  -2  -7  496.95   13.10
  -7   2   6   30.30    1.80
   7   2  -6   29.40    1.90
   7  -2  -6   33.10    2.00
  -7  -2   6   29.40    1.50
  -7  -2   6   28.00    1.90
  -7   2   5  836.12   21.70
   7   2  -5  857.91   21.10
   7  -2  -5  856.91   21.10
  -7  -2   5  851.21   21.30
  -7  -2   5  846.02   21.30
  -7   2   4   86.69    2.80
   7   2  -4   85.09    3.00
  -7  -2   4   85.59    3.10
   7  -2  -4   83.89    3.00
  -7   2   3 1166.48   28.70
   7   2  -3 1162.88   27.70
   7  -2  -3 1118.79   28.80
  -7  -2   3 1158.98   27.80
   7  -2  -3 1122.99   27.70
   7   2  -2   17.20    1.00
  -7   2   2   20.10    1.00
   7  -2  -2   19.40    1.10
   7  -2  -2   19.00    1.10
  -7   2   1   28.10    1.20
  -7   2   1   28.90    1.20
   7   2  -1   28.30    1.20
   7  -2  -1   27.60    1.30
   7  -2  -1   29.50    1.30
  -7  -2   1   28.00    1.20
   7   2   0   91.69    2.50
  -7   2   0   84.99    2.60
   7   2   0   87.59    2.50
   7   2   0   83.89    2.50
  -7   2   0   80.89    2.70
  -7  -2   0   87.99    2.50
   7  -2   0   85.79    2.60
  -7  -2   0   84.59    2.50
   7  -2   0   82.59    2.80
   7   2   1  604.64   14.50
   7   2   1  616.14   15.60
   7   2   1  595.94   15.50
  -7   2  -1  616.24   14.80
  -7   2  -1  613.84   15.70
  -7  -2  -1  616.14   15.50
   7  -2   1  592.54   15.70
   7  -2   1  604.74   14.80
  -7  -2  -1  615.24   14.50
  -7   2  -2   36.10    1.70
  -7   2  -2   36.80    1.40
   7   2   2   35.90    1.70
   7  -2   2   36.80    1.40
  -7  -2  -2   36.20    1.60
  -7   2  -3  235.08    6.10
   7   2   3  231.78    6.80
  -7   2  -3  232.58    6.90
   7  -2   3  239.68    6.10
  -7  -2  -3  241.58    6.80
  -7   2  -4  192.38    5.30
  -7   2  -4  187.28    6.00
   7   2   4  199.08    6.10
   7  -2   4  198.98    5.10
  -7  -2  -4  194.58    6.00
   7   2   5  135.59    4.80
  -7   2  -5  134.39    4.80
   7  -2   5  137.19    3.80
  -7   2  -6    1.50    0.70
   7   2   6    1.70    0.80
   7  -2   6    1.10    0.60
   7   2   7  447.36   13.20
  -7   2  -7  454.55   13.10
  -7  -2  -7  444.56   12.90
   7  -2   7  443.66   13.20
  -7   3   8  181.18    6.10
   7  -3  -8  177.88    6.00
  -7   3   7    4.10    0.90
   7   3  -7    0.40    0.90
   7  -3  -7    2.30    1.00
  -7  -3   7    1.70    0.90
   7   3  -6  258.87    7.50
  -7   3   6  255.47    7.60
   7  -3  -6  260.97    7.50
  -7  -3   6  261.97    7.70
   7   3  -5   18.30    1.50
  -7   3   5   22.30    1.40
  -7  -3   5   20.30    1.50
   7  -3  -5   24.80    1.60
  -7   3   4  468.35   12.40
   7   3  -4  480.45   12.10
  -7  -3   4  462.95   12.20
   7  -3  -4  464.15   12.10
  -7   3   3  885.11   22.10
   7   3  -3  862.31   21.20
  -7  -3   3  859.31   21.40
   7  -3  -3  871.31   21.40
   7   3  -2  215.78    5.80
  -7   3   2  215.28    5.90
   7  -3  -2  209.78    5.90
  -7  -3   2  212.58    5.90
   7  -3  -2  216.28    6.10
  -7   3   1 2245.18   55.29
   7   3  -1 2280.67   52.59
   7  -3  -1 2270.57   52.79
   7  -3  -1 2099.19   55.39
  -7  -3   1 2252.37   52.69
  -7  -3   1 2232.38   52.59
  -7   3   0  135.09    3.80
   7   3   0  135.59    3.60
   7   3   0  129.19    3.70
   7   3   0  133.09    3.60
  -7  -3   0  135.19    3.60
   7  -3   0  134.29    3.80
  -7  -3   0  135.99    3.60
   7  -3   0  127.49    4.00
  -7   3  -1 2423.16   57.19
   7   3   1 2451.85   59.89
   7   3   1 2496.65   60.09
  -7   3  -1 2438.46   60.29
   7  -3   1 2469.65   57.19
  -7  -3  -1 2387.66   56.79
  -7  -3  -1 2305.07   56.89
  -7   3  -2   99.29    3.10
   7   3   2  102.49    3.40
  -7   3  -2  106.39    3.50
  -7  -3  -2  103.79    3.30
   7  -3   2  102.69    3.00
  -7   3  -3 1611.84   41.60
   7   3   3 1625.64   41.60
  -7   3  -3 1703.23   39.30
   7  -3   3 1675.73   39.10
  -7  -3  -3 1630.34   41.40
   7   3   4    3.80    0.70
   7  -3   4    4.60    0.70
  -7  -3  -4    3.20    0.60
   7   3   5  458.15   12.90
  -7   3  -5  439.06   12.80
  -7  -3  -5  462.25   12.80
   7  -3   5  476.55   11.50
   7   3   6   51.39    2.80
  -7   3  -6   50.89    2.70
   7  -3   6   54.49    2.10
  -7   3  -7  110.89    4.60
   7   3   7  115.79    4.80
  -7   4   8    0.20    1.20
   7  -4  -8   -1.00    1.30
  -7   4   7   32.90    2.20
   7  -4  -7   32.10    2.30
  -7  -4   7   27.80    2.10
  -7   4   6    5.00    0.90
   7  -4  -6    3.80    1.00
  -7  -4   6    3.90    0.80
   7   4  -5    0.10    0.60
  -7   4   5   -0.10    0.60
   7  -4  -5    1.40    0.70
  -7  -4   5   -0.20    0.60
   7   4  -4  351.46    9.40
  -7   4   4  356.46    9.70
   7  -4  -4  350.06    9.40
  -7  -4   4  345.17    9.50
   7   4  -3   82.39    2.80
  -7   4   3   82.09    2.80
  -7  -4   3   80.89    2.90
   7  -4  -3   82.39    2.90
   7   4  -2 1455.75   34.50
  -7   4   2 1451.95   36.20
  -7  -4   2 1410.96   34.60
   7  -4  -2 1452.85   34.70
  -7   4   1    9.10    0.80
   7   4  -1    8.80    0.80
  -7  -4   1    8.10    0.80
  -7  -4   1    9.60    0.80
   7  -4  -1    8.00    0.80
  -7   4   0 3180.68   76.39
   7   4   0 3144.49   75.89
   7   4   0 3044.90   75.99
  -7  -4   0 2995.10   72.39
   7  -4   0 3001.40   72.59
  -7  -4   0 3118.89   72.29
   7   4   1    7.70    0.80
   7   4   1    6.30    0.80
  -7   4  -1    8.00    0.90
  -7  -4  -1    6.70    0.60
   7  -4   1    6.60    0.70
  -7  -4  -1    8.40    0.60
   7   4   2 2645.84   66.49
  -7   4  -2 2697.43   66.69
   7  -4   2 2679.63   63.09
   7   4   3   29.60    1.80
  -7   4  -3   31.60    1.80
   7  -4   3   33.80    1.50
  -7   4  -4 1528.85   39.00
   7   4   4 1526.35   39.00
   7  -4   4 1530.45   36.50
   7   4   5   52.29    2.70
  -7   4  -5   54.19    2.70
   7  -4   5   52.29    2.10
  -7   4  -6  262.07    8.40
   7   4   6  276.47    8.60
   7  -4   6  265.87    7.30
  -7   4  -7   16.50    2.00
   7   4   7   13.20    2.20
  -7   5   8   63.69    3.60
   7  -5  -8   64.39    3.70
  -7   5   7   14.30    1.90
  -7  -5   7   15.50    1.90
   7  -5  -7   19.50    2.10
  -7   5   6  253.57    7.80
  -7  -5   6  259.37    7.70
   7  -5  -6  254.07    7.60
  -7   5   5    1.80    0.70
  -7  -5   5    3.00    0.70
   7  -5  -5    2.80    0.90
  -7   5   4   53.09    2.30
   7  -5  -4   54.59    2.40
  -7  -5   4   52.39    2.40
  -7   5   3  649.14   16.70
  -7  -5   3  629.24   16.10
   7  -5  -3  637.14   16.10
  -7   5   2  104.89    3.50
   7  -5  -2  104.49    3.40
  -7  -5   2  105.49    3.40
  -7   5   1  174.48    5.20
   7   5  -1  172.38    4.80
   7   5  -1  177.48    4.70
   7  -5  -1  171.98    5.00
  -7  -5   1  179.08    4.70
  -7  -5   1  175.08    4.90
   7   5   0   58.29    2.10
  -7   5   0   53.89    2.20
   7   5   0   55.09    1.90
   7  -5   0   56.09    2.10
  -7  -5   0   58.39    1.90
  -7  -5   0   56.49    1.90
  -7  -5   0   58.69    1.90
   7   5   1  955.70   24.00
  -7   5  -1  919.61   24.20
  -7  -5  -1  950.90   22.40
  -7  -5  -1  950.70   23.90
   7  -5   1  922.41   22.90
  -7  -5  -1  958.20   22.50
  -7   5  -2   68.19    2.80
   7   5   2   68.09    2.60
   7  -5   2   69.39    2.40
  -7   5  -3   96.39    3.70
   7   5   3   99.69    3.60
   7  -5   3   95.09    3.10
  -7   5  -4  705.83   19.00
   7   5   4  709.13   18.90
   7  -5   4  705.43   17.50
  -7   5  -5  283.27    8.80
   7   5   5  291.17    8.80
   7  -5   5  284.87    7.80
   7   5   6  224.48    7.40
  -7   5  -6  215.88    7.30
   7  -5   6  219.38    6.30
  -7   5  -7   54.59    3.20
   7   5   7   53.89    3.30
  -7   6   8   34.30    3.30
  -7   6   7  186.28    6.50
   7  -6  -7  192.98    6.30
  -7   6   6    4.30    1.00
   7  -6  -6    5.80    1.20
  -7  -6   6    7.70    1.40
  -7   6   5  415.56   11.90
  -7  -6   5  422.66   11.50
   7  -6  -5  427.56   11.50
  -7   6   4   11.40    1.20
   7  -6  -4   11.80    1.40
  -7  -6   4    9.20    1.20
  -7   6   3  462.95   12.60
   7  -6  -3  470.65   12.20
  -7  -6   3  463.25   12.10
  -7   6   2   72.79    2.80
  -7  -6   2   74.99    2.70
   7  -6  -2   74.09    2.80
  -7   6   1   33.40    1.70
   7   6  -1   34.00    1.50
  -7  -6   1   38.60    1.60
  -7  -6   1   36.40    1.40
   7  -6  -1   34.50    1.70
   7   6   0  329.57    8.70
  -7   6   0  324.77    9.20
   7   6   0  336.17    8.80
  -7  -6   0  326.27    8.40
   7  -6   0  317.37    8.60
  -7  -6   0  329.37    8.30
  -7  -6   0  324.87    8.70
   7   6   1  260.67    7.30
  -7   6  -1  252.27    7.50
   7  -6   1  262.27    7.00
  -7  -6  -1  259.07    6.60
  -7  -6  -1  254.47    6.50
  -7   6  -2   48.10    2.30
   7   6   2   46.60    2.20
   7  -6   2   47.60    2.00
  -7  -6  -2   47.40    1.60
  -7  -6  -2   48.00    1.50
   7   6   3   83.59    3.30
  -7   6  -3   84.99    3.40
   7  -6   3   84.59    3.00
  -7   6  -4  184.98    6.20
   7   6   4  180.18    6.00
   7  -6   4  178.98    5.30
  -7   6  -5  111.99    4.50
   7   6   5  116.49    4.60
   7  -6   5  110.79    3.80
  -7   6  -6   32.20    2.50
   7   6   6   38.10    2.70
   7  -6   6   34.20    2.00
  -7   6  -7  369.96   11.60
  -7   7   7   11.40    2.20
   7  -7  -7    7.00    1.60
  -7   7   6   52.49    2.90
  -7  -7   6   54.19    2.70
   7  -7  -6   50.79    2.90
  -7   7   5   51.19    2.60
  -7  -7   5   50.09    2.50
   7  -7  -5   50.59    2.70
  -7   7   4   87.99    3.50
  -7  -7   4   89.39    3.40
   7  -7  -4   89.39    3.50
  -7   7   3  627.14   16.60
   7  -7  -3  636.44   15.90
  -7  -7   3  595.14   15.80
   7   7  -2   12.50    1.20
  -7   7   2   11.70    1.20
   7  -7  -2    9.00    1.10
  -7  -7   2   10.80    1.10
  -7  -7   2   12.60    1.00
  -7   7   1  826.12   21.30
   7   7  -1  782.22   20.80
  -7  -7   1  832.22   20.10
  -7  -7   1  826.12   20.70
   7  -7  -1  824.22   20.30
  -7   7   0  308.07    8.90
   7   7   0  296.07    8.50
  -7  -7   0  314.47    8.10
   7  -7   0  320.77    8.40
   7   7   1 2144.49   53.19
  -7   7  -1 2165.88   53.59
   7   7   1 2099.29   50.19
  -7  -7  -1 2142.29   50.19
  -7  -7  -1 2057.69   50.09
   7  -7   1 2148.49   50.69
  -7   7  -2   16.70    1.50
   7   7   2   12.40    1.30
  -7  -7  -2   13.90    1.00
   7  -7   2   13.90    1.20
   7   7   3 1525.25   37.90
  -7   7  -3 1435.46   38.10
   7  -7   3 1487.25   35.80
   7   7   4    1.70    0.90
  -7   7  -4    1.90    0.80
   7  -7   4    1.40    0.70
  -7   7  -5  204.08    7.10
   7   7   5  205.78    7.00
   7  -7   5  202.88    6.10
   7   7   6   18.80    2.30
  -7   7  -6   23.30    2.30
   7  -7   6   17.50    1.90
   7  -7   7   73.19    3.40
  -7   8   6   11.30    1.90
   7  -8  -6    9.00    1.60
  -7   8   5   46.20    2.60
  -7  -8   5   41.90    2.40
   7  -8  -5   43.90    2.70
  -7   8   4  230.78    7.30
   7  -8  -4  237.58    7.10
  -7  -8   4  228.98    7.00
  -7   8   3   81.69    3.30
  -7  -8   3   82.49    3.20
   7  -8  -3   80.49    3.20
   7   8  -2  346.47    9.40
  -7   8   2  340.57    9.80
   7  -8  -2  343.27    9.40
  -7  -8   2  345.97    9.30
  -7   8   1    4.90    0.80
   7   8  -1    5.00    0.80
  -7  -8   1    6.40    1.00
   7  -8  -1    5.20    1.00
  -7   8   0 1570.14   39.60
   7   8   0 1608.94   39.20
  -7  -8   0 1581.04   37.20
   7  -8   0 1456.95   37.40
   7   8   1    8.20    1.20
  -7   8  -1    7.00    1.20
   7  -8   1    8.80    1.00
  -7  -8  -1    8.20    0.90
  -7   8  -2 1125.89   28.70
   7   8   2 1061.29   28.10
  -7  -8  -2 1090.49   26.20
   7  -8   2 1085.99   26.80
   7   8   3    2.70    0.90
  -7   8  -3    1.00    0.80
   7  -8   3    0.60    0.70
   7   8   4  599.54   16.70
  -7   8  -4  606.34   17.00
   7  -8   4  600.04   15.50
   7   8   5    6.90    1.30
   7  -8   5    6.90    1.10
  -7   8  -6  308.77   10.30
   7   8   6  328.87   10.30
   7  -8   6  325.57    9.10
  -7   9   6   99.49    4.40
   7  -9  -6  101.89    4.70
  -7   9   5    1.30    0.90
   7  -9  -5    2.60    1.30
  -7  -9   5   -0.50    0.90
  -7   9   4  159.48    5.50
  -7  -9   4  152.48    5.20
   7  -9  -4  157.88    5.40
  -7   9   3  180.78    6.00
   7  -9  -3  177.68    5.70
  -7  -9   3  179.18    5.70
   7   9  -2   49.40    2.30
  -7   9   2   47.90    2.50
   7  -9  -2   49.50    2.40
  -7  -9   2   49.20    2.30
  -7   9   1    5.80    0.90
   7   9  -1    7.80    1.30
  -7  -9   1    9.00    1.10
   7  -9  -1    8.60    1.10
  -7   9   0    0.10    0.60
   7   9   0    0.90    0.70
   7  -9   0    1.50    0.60
  -7  -9   0   -0.60    0.50
   7   9   1  190.78    6.10
  -7   9  -1  195.48    6.40
  -7  -9  -1  192.38    5.40
   7  -9   1  188.48    5.80
   7   9   2   39.60    2.40
  -7   9  -2   41.90    2.50
   7  -9   2   41.60    2.10
   7   9   3  183.88    6.30
  -7   9  -3  191.58    6.70
   7  -9   3  187.08    5.80
   7   9   4  163.68    5.90
  -7   9  -4  161.38    6.10
   7  -9   4  159.68    5.30
  -7   9  -5   36.70    2.90
   7   9   5   39.20    2.90
   7  -9   5   40.10    2.40
  -7  10   5  129.59    5.10
   7 -10  -5  134.39    5.30
  -7  10   4   50.59    2.80
   7 -10  -4   46.20    2.90
  -7 -10   4   47.00    2.60
  -7  10   3  143.69    5.20
  -7 -10   3  140.29    4.80
   7 -10  -3  141.39    5.00
  -7  10   2  103.39    4.10
  -7 -10   2  103.59    3.80
   7 -10  -2  100.69    3.80
  -7  10   1   28.40    2.00
   7  10  -1   26.50    2.00
   7 -10  -1   33.00    1.90
  -7 -10   1   30.60    1.80
   7  10   0  129.19    4.50
  -7  10   0  123.89    4.70
  -7 -10   0  129.29    4.10
   7 -10   0  131.89    4.40
  -7  10  -1   38.90    2.40
   7  10   1   36.40    2.30
   7 -10   1   39.30    2.10
  -7 -10  -1   40.60    2.00
  -7  10  -2   98.19    4.30
   7  10   2   98.19    4.00
   7 -10   2   97.09    3.70
  -7  10  -3    5.10    1.30
   7  10   3    4.60    1.10
   7 -10   3    6.00    1.00
   7  10   4   97.09    4.50
  -7  10  -4   98.09    4.60
   7 -10   4  104.69    3.90
   7  10   5   15.40    2.70
  -7  11   4    7.10    1.30
   7 -11  -4    7.70    1.60
  -7  11   3  351.06   10.60
  -7 -11   3  348.47   10.00
   7 -11  -3  352.26   10.10
  -7  11   2    2.50    0.90
  -7 -11   2    2.80    0.90
   7 -11  -2    2.20    1.00
  -7  11   1  376.66   11.20
   7 -11  -1  374.46   10.40
  -7 -11   1  376.06   10.30
   7  11   0    2.40    1.00
  -7  11   0    1.60    0.80
  -7 -11   0    1.50    0.80
   7 -11   0    1.50    0.80
  -7  11  -1  852.81   23.40
   7  11   1  856.81   22.90
   7 -11   1  882.71   22.00
  -7  11  -2    1.10    1.00
   7  11   2    2.40    1.10
   7 -11   2    2.80    0.90
   7  11   3  205.08    7.10
  -7  11  -3  201.58    7.40
   7 -11   3  199.58    6.40
   7  11   4    2.60    1.40
  -7  12   2  106.39    4.70
  -7 -12   2  106.39    4.10
   7 -12  -2  108.49    4.30
  -7  12   1   11.40    1.80
   7 -12  -1    7.90    1.30
  -7  12   0  268.77    8.70
   7 -12   0  262.27    8.10
  -7 -12   0  276.27    7.80
  -7  12  -1    7.20    1.30
   7  12   1    8.50    1.40
   7  12   2  295.97    9.30
  -7  12  -2  296.67    9.90
   7  12   3   29.30    3.00
  -7 -13   1    7.40    1.40
   7  13   2    5.00    1.60
   8   0  -8  106.89    4.30
  -8   0   8  103.89    4.20
   8   0  -7    0.20    0.90
  -8   0   7    0.10    0.90
  -8   0   6  571.34   15.00
   8   0  -6  585.94   15.00
   8   0  -5    0.20    0.60
  -8   0   5    0.00    0.40
   8   0  -4  410.06   10.80
  -8   0   4  414.86   10.60
  -8   0   4  409.76   10.60
  -8   0   3    0.80    0.20
   8   0  -3    0.80    0.40
  -8   0   3    0.40    0.30
   8   0  -3    0.50    0.30
   8   0  -2 3249.57   76.59
   8   0  -1    0.40    0.40
  -8   0   1   -0.60    0.20
  -8   0   1   -0.20    0.30
   8   0  -1    0.40    0.30
  -8   0   0 1199.08   28.90
   8   0   0 1251.67   30.30
  -8   0   0 1194.18   30.30
   8   0   0 1218.68   28.90
   8   0   2 1335.57   31.50
  -8   0  -2 1373.96   31.60
  -8   0  -2 1300.27   33.60
  -8   0  -3    0.20    0.40
  -8   0  -3    0.60    0.30
  -8   0  -4  339.87    9.80
  -8   0  -4  357.56    8.50
  -8   0  -5   -0.60    0.50
  -8   0  -6  110.79    4.30
   8   0   6  113.69    4.50
  -8   0  -7   -0.10    0.90
   8   0   7    0.60    1.00
   8   1  -8   32.60    2.50
  -8   1   8   22.80    2.40
   8  -1  -8   20.10    2.40
  -8  -1   8   32.60    2.50
   8   1  -7   83.19    3.40
  -8   1   7   78.69    3.50
   8  -1  -7   79.39    3.40
  -8  -1   7   82.29    3.50
   8   1  -6    3.70    0.90
  -8   1   6    2.50    0.60
  -8  -1   6    3.00    0.60
  -8  -1   6    4.40    0.80
   8  -1  -6    3.90    0.80
  -8   1   5  558.84   14.70
   8   1  -5  574.24   14.60
  -8  -1   5  567.44   14.40
  -8  -1   5  561.54   14.80
   8  -1  -5  571.94   14.60
  -8   1   4   15.90    1.10
   8   1  -4   15.90    1.20
  -8   1   4   17.90    1.00
   8  -1  -4   16.40    1.30
   8  -1  -4   16.10    1.20
   8   1  -3   16.60    1.10
  -8   1   3   17.20    0.90
   8  -1  -3   16.90    1.00
   8  -1  -3   17.10    1.20
  -8   1   2  237.08    6.30
   8   1  -2  240.18    6.40
   8  -1  -2  243.98    6.40
   8  -1  -2  235.88    6.40
  -8   1   1  509.75   13.00
   8   1  -1  521.55   12.60
  -8   1   1  497.95   12.60
  -8  -1   1  518.55   12.60
   8  -1  -1  516.85   12.70
   8  -1  -1  497.55   13.10
   8   1   0  767.12   18.90
   8   1   0  702.83   18.10
  -8   1   0  751.52   18.20
  -8   1   0  778.62   19.10
  -8  -1   0  762.42   18.90
   8  -1   0  734.33   19.10
   8  -1   0  777.32   18.20
  -8  -1   0  758.92   18.10
   8   1   1   40.90    1.60
  -8   1  -1   37.90    1.40
  -8   1  -1   38.40    1.60
   8   1   1   37.20    1.30
   8  -1   1   40.70    1.40
  -8  -1  -1   35.50    1.50
  -8  -1  -1   39.90    1.30
   8  -1   1   37.90    1.60
  -8   1  -2 2431.16   55.49
   8   1   2 2260.87   55.19
  -8   1  -2 2333.17   58.69
  -8  -1  -2 2407.86   55.29
   8  -1   2 2413.76   55.49
  -8  -1  -2 2312.27   58.59
  -8   1  -3   71.69    2.70
  -8   1  -3   73.19    2.20
  -8  -1  -3   71.39    2.70
   8  -1   3   73.19    2.20
  -8   1  -4  981.80   22.80
  -8   1  -4  933.81   24.70
   8   1   4  935.61   24.80
  -8  -1  -4  932.31   24.60
   8  -1   4  976.60   22.70
  -8   1  -5   13.40    1.40
   8   1   5   15.10    1.50
  -8  -1  -5   15.90    1.40
   8  -1   5   16.10    0.90
   8   1   6  515.05   14.70
  -8   1  -6  520.05   14.60
  -8  -1  -6  517.45   14.50
   8   1   7   15.20    2.00
  -8   1  -7   17.30    1.90
   8  -1   7   16.40    2.00
  -8  -1  -7   15.30    1.80
  -8   2   8   -0.10    1.30
   8  -2  -8    2.00    1.40
   8   2  -7  313.17    8.90
  -8   2   7  300.57    8.80
   8  -2  -7  309.57    8.90
  -8  -2   7  305.77    9.00
  -8   2   6   44.40    2.10
   8   2  -6   42.80    2.30
   8  -2  -6   44.50    2.30
  -8  -2   6   43.30    2.30
   8   2  -5  136.99    4.40
  -8   2   5  133.79    4.20
   8  -2  -5  139.49    4.50
  -8  -2   5  131.19    4.50
   8   2  -4  165.58    5.00
  -8   2   4  168.18    4.90
  -8  -2   4  168.08    5.20
   8  -2  -4  167.58    5.10
   8   2  -3   40.10    1.80
  -8   2   3   40.50    1.60
   8  -2  -3   37.90    1.70
   8  -2  -3   38.00    1.80
   8   2  -2   25.00    1.30
  -8   2   2   24.10    1.10
   8  -2  -2   24.30    1.30
   8  -2  -2   24.10    1.40
   8   2  -1  269.17    6.90
  -8   2   1  266.97    7.10
   8  -2  -1  263.57    7.00
   8  -2  -1  262.57    7.20
  -8  -2   1  266.17    6.80
   8   2   0   55.69    1.90
  -8   2   0   57.79    2.00
   8   2   0   55.99    1.90
  -8   2   0   60.99    2.10
   8   2   0   60.19    1.90
   8  -2   0   58.59    2.10
  -8  -2   0   57.99    1.90
   8  -2   0   61.79    2.00
  -8  -2   0   60.39    1.90
   8   2   1 1610.04   40.50
  -8   2  -1 1644.04   40.70
  -8   2  -1 1687.93   38.60
   8   2   1 1612.94   38.20
   8   2   1 1627.54   40.40
  -8  -2  -1 1670.93   38.20
  -8  -2  -1 1514.95   40.40
   8  -2   1 1624.84   38.50
   8   2   2   63.79    2.40
  -8   2  -2   60.89    2.10
  -8   2  -2   66.19    2.50
   8  -2   2   62.79    2.00
  -8  -2  -2   65.19    2.30
   8   2   3 1744.23   44.40
  -8   2  -3 1754.52   41.80
  -8   2  -3 1763.92   44.40
  -8  -2  -3 1779.42   44.30
   8  -2   3 1773.12   41.70
  -8   2  -4   11.90    1.20
   8   2   4    9.60    1.20
  -8   2  -4   12.40    1.20
  -8  -2  -4   11.00    1.20
   8  -2   4   12.80    0.90
  -8   2  -5 1925.31   48.40
   8   2   5 1801.92   48.30
   8  -2   5 2010.50   45.10
  -8  -2  -5 1875.31   48.20
  -8   2  -6    9.70    1.40
   8   2   6    6.80    1.20
  -8  -2  -6    9.40    1.40
   8   2   7  605.84   17.00
  -8   2  -7  603.74   16.90
   8  -2   7  593.64   17.10
  -8  -2  -7  593.94   16.80
   8  -3  -8    5.10    1.50
   8   3  -7  354.26   10.00
  -8   3   7  344.07   10.00
  -8  -3   7  351.36   10.10
   8  -3  -7  354.36    9.90
  -8   3   6    1.20    0.70
  -8  -3   6    0.70    0.80
   8  -3  -6    1.60    0.90
   8   3  -5  448.16   11.60
  -8   3   5  429.26   11.60
  -8  -3   5  450.25   11.70
   8  -3  -5  401.96   11.40
   8   3  -4   43.90    2.00
  -8   3   4   44.00    1.90
   8  -3  -4   44.20    2.10
  -8  -3   4   41.80    2.00
   8   3  -3 1019.30   24.80
  -8   3   3 1030.90   25.70
  -8  -3   3 1001.70   24.90
   8  -3  -3 1017.10   24.90
   8   3  -2  162.48    4.70
  -8   3   2  164.78    4.70
  -8  -3   2  162.28    4.80
   8  -3  -2  163.58    4.80
   8  -3  -2  172.18    5.00
  -8   3   1 1372.06   34.00
   8   3  -1 1404.56   32.40
  -8  -3   1 1360.16   32.50
  -8  -3   1 1332.17   32.30
   8  -3  -1 1323.07   34.10
   8  -3  -1 1354.76   32.50
   8   3   0  849.02   20.90
  -8   3   0  843.42   21.40
   8   3   0  863.81   20.10
   8   3   0  805.82   21.00
  -8  -3   0  834.32   20.10
   8  -3   0  829.52   20.30
  -8  -3   0  840.52   20.10
   8   3   1  680.23   17.50
   8   3   1  684.93   16.40
   8   3   1  687.93   17.60
  -8   3  -1  701.33   17.90
  -8  -3  -1  701.43   16.40
  -8  -3  -1  710.53   17.50
  -8  -3  -1  679.13   16.40
   8  -3   1  661.63   16.70
   8   3   2 1244.78   31.70
  -8   3  -2 1240.68   31.80
   8  -3   2 1257.47   29.90
  -8  -3  -2 1271.07   31.60
  -8   3  -3  156.08    5.00
   8   3   3  154.78    5.00
   8  -3   3  159.18    4.40
  -8  -3  -3  153.98    4.90
   8   3   4  529.05   14.40
  -8   3  -4  515.25   14.40
  -8  -3  -4  529.55   14.30
   8  -3   4  534.75   13.10
   8   3   5    4.40    0.90
  -8   3  -5    5.90    1.20
   8  -3   5    4.30    0.70
  -8  -3  -5    5.90    1.10
  -8   3  -6  395.66   11.90
   8   3   6  416.46   12.00
   8  -3   6  407.16   10.30
  -8  -3  -6  404.96   11.80
   8   3   7   10.30    2.00
  -8   3  -7   10.10    1.80
   8  -4  -8   17.80    2.60
  -8   4   7    0.10    1.00
  -8  -4   7    0.40    1.00
   8  -4  -7    2.10    1.20
   8   4  -6  673.73   17.60
  -8   4   6  680.33   18.20
  -8  -4   6  705.13   17.90
   8  -4  -6  680.03   17.70
   8   4  -5    2.70    0.70
  -8   4   5    4.50    0.80
  -8  -4   5    2.70    0.70
   8   4  -4 1271.27   31.30
  -8   4   4 1306.77   32.60
   8  -4  -4 1273.77   31.40
  -8  -4   4 1295.67   31.50
   8   4  -3    0.10    0.50
  -8   4   3    0.40    0.40
  -8  -4   3    0.50    0.50
   8  -4  -3    0.70    0.50
   8   4  -2 1724.93   40.60
  -8   4   2 1677.23   42.50
   8  -4  -2 1690.33   40.70
  -8  -4   2 1708.23   40.70
  -8   4   1  127.29    4.00
   8   4  -1  131.19    3.70
  -8  -4   1  130.09    3.80
   8  -4  -1  124.79    3.90
   8   4   0  948.01   23.50
  -8   4   0  925.61   23.90
   8   4   0  944.11   22.40
   8   4   0  935.91   23.40
  -8  -4   0  945.81   22.40
   8  -4   0  908.81   22.70
  -8  -4   0  948.31   22.50
   8   4   1   12.70    0.90
   8   4   1   11.20    0.90
  -8   4  -1   13.70    1.10
  -8  -4  -1   11.90    0.70
  -8  -4  -1   11.20    0.70
  -8   4  -2  817.52   21.00
   8   4   2  805.12   20.80
   8  -4   2  797.62   19.60
   8   4   3   97.09    3.60
  -8   4  -3   99.09    3.70
   8  -4   3   99.89    3.10
   8   4   4  463.75   12.90
  -8   4  -4  460.95   13.00
   8  -4   4  461.95   11.70
  -8   4  -5    6.20    1.20
   8  -4   5    5.50    1.00
  -8   4  -6    2.10    0.90
   8  -4   6   -0.50    0.70
   8   4   7   29.80    2.70
  -8   4  -7   35.40    2.60
  -8   5   7   41.10    2.60
  -8  -5   7   42.90    2.50
   8  -5  -7   38.90    2.80
  -8   5   6   15.20    1.70
   8  -5  -6   12.40    1.80
  -8   5   5  249.78    7.80
   8  -5  -5  271.47    7.80
  -8  -5   5  276.87    7.90
  -8   5   4   97.79    3.40
   8  -5  -4   95.59    3.60
  -8  -5   4   93.29    3.50
  -8   5   3   20.70    1.40
  -8  -5   3   23.60    1.50
   8  -5  -3   25.80    1.50
  -8   5   2   32.90    1.60
   8  -5  -2   28.90    1.60
  -8  -5   2   31.40    1.60
  -8   5   1  259.87    7.30
   8   5  -1  252.27    6.80
   8  -5  -1  257.27    7.00
  -8  -5   1  262.97    6.90
   8   5   0  379.66    9.90
   8   5   0  384.96   10.00
  -8   5   0  389.66   10.50
   8  -5   0  371.76    9.90
  -8  -5   0  387.56    9.60
  -8  -5   0  380.26    9.50
   8   5   1   63.19    2.40
  -8   5  -1   61.79    2.60
   8  -5   1   60.69    2.30
  -8  -5  -1   62.99    1.90
  -8  -5  -1   63.79    2.00
   8   5   2 1537.05   38.80
  -8   5  -2 1533.85   39.10
   8  -5   2 1540.35   36.80
   8   5   3   50.59    2.40
  -8   5  -3   49.99    2.40
   8  -5   3   49.50    2.00
   8   5   4  770.22   20.30
  -8   5  -4  730.33   20.40
   8  -5   4  783.42   18.80
  -8   5  -5    2.60    0.80
   8   5   5   -0.90    0.90
   8  -5   5    2.10    0.70
   8   5   6  389.66   11.70
  -8   5  -6  385.56   11.70
   8  -5   6  394.36   10.30
  -8   5  -7    2.20    1.20
   8   5   7   -1.20    1.30
  -8   6   7  122.29    4.80
   8  -6  -7  116.19    4.70
  -8   6   6   42.10    2.50
  -8  -6   6   44.50    2.50
   8  -6  -6   46.70    2.70
  -8   6   5   73.19    3.10
   8  -6  -5   78.29    3.30
  -8  -6   5   75.29    3.10
  -8   6   4   71.19    2.90
  -8  -6   4   71.89    2.90
   8  -6  -4   71.29    3.00
  -8   6   3    1.80    0.60
   8  -6  -3    0.60    0.60
  -8  -6   3    3.20    0.70
  -8   6   2   85.79    3.20
   8  -6  -2   85.99    3.10
  -8  -6   2   88.99    3.10
   8   6  -1   48.20    1.70
   8   6  -1   45.20    1.80
  -8   6   1   47.00    2.10
  -8  -6   1   48.30    1.90
  -8  -6   1   46.80    1.70
   8  -6  -1   47.00    2.00
  -8   6   0    1.50    0.60
  -8  -6   0    1.80    0.50
   8  -6   0    2.90    0.60
  -8  -6   0    2.70    0.50
  -8   6  -1 1920.61   48.00
   8   6   1 1895.01   47.60
  -8  -6  -1 1902.61   45.00
   8  -6   1 1929.11   45.50
  -8  -6  -1 1871.51   44.90
   8   6   2   86.59    3.20
  -8   6  -2   80.79    3.40
  -8  -6  -2   87.09    2.40
   8  -6   2   85.99    3.00
  -8   6  -3  513.95   14.10
   8   6   3  501.05   13.80
   8  -6   3  498.75   12.90
  -8   6  -4  111.09    4.20
   8   6   4   96.59    4.00
   8  -6   4   99.39    3.40
  -8   6  -5  888.61   24.10
   8   6   5  894.61   23.90
   8  -6   5  895.31   22.10
  -8   6  -6    4.60    1.20
   8   6   6    3.00    1.20
   8  -6   6    5.00    1.00
  -8   7   7  199.08    6.60
   8  -7  -7  179.38    6.50
  -8   7   6    3.80    1.00
   8  -7  -6    3.20    1.30
  -8  -7   6    5.50    1.10
  -8   7   5  692.03   18.60
  -8  -7   5  685.93   18.00
   8  -7  -5  704.13   18.10
  -8   7   4   27.90    1.90
  -8  -7   4   26.60    1.80
   8  -7  -4   29.40    2.00
  -8   7   3  645.04   17.30
  -8  -7   3  640.74   16.50
   8  -7  -3  659.93   16.70
  -8   7   2    2.10    0.60
   8  -7  -2    1.60    0.70
  -8  -7   2    3.00    0.60
   8   7  -1 1588.24   41.50
   8   7  -1 1672.43   41.40
  -8   7   1 1670.13   42.10
  -8  -7   1 1719.13   39.90
  -8  -7   1 1682.23   41.40
   8  -7  -1 1661.43   40.10
  -8   7   0  224.98    6.90
   8   7   0  231.08    6.50
  -8  -7   0  229.58    6.10
   8  -7   0  218.38    6.40
  -8   7  -1  222.18    6.70
   8   7   1  216.08    6.40
  -8  -7  -1  200.68    5.60
  -8  -7  -1  216.38    5.70
   8  -7   1  217.18    6.20
  -8   7  -2  162.98    5.60
   8   7   2  161.18    5.30
  -8  -7  -2  169.28    4.40
   8  -7   2  162.68    5.00
   8   7   3  245.58    7.60
  -8   7  -3  245.88    7.80
   8  -7   3  248.38    7.00
   8   7   4   72.49    3.40
  -8   7  -4   71.59    3.40
   8  -7   4   70.89    2.80
   8   7   5   31.00    2.40
  -8   7  -5   31.60    2.40
   8  -7   5   33.90    2.00
  -8   7  -6   97.09    4.50
   8   7   6   92.59    4.40
   8  -7   6  101.39    3.70
  -8   8   6  357.16   10.60
   8  -8  -6  354.06   10.40
  -8   8   5   29.70    2.10
  -8  -8   5   28.30    2.10
   8  -8  -5   27.90    2.40
  -8   8   4  591.24   16.20
   8  -8  -4  597.24   15.60
  -8  -8   4  592.44   15.60
  -8   8   3   26.40    1.80
  -8  -8   3   25.50    1.80
   8  -8  -3   26.30    1.80
   8   8  -2  455.95   11.90
  -8   8   2  452.25   12.60
   8  -8  -2  445.06   12.00
  -8  -8   2  450.75   11.90
  -8   8   1   46.00    2.30
   8   8  -1   42.50    2.00
   8  -8  -1   45.00    2.20
  -8  -8   1   48.70    2.10
  -8   8   0  822.42   22.40
   8   8   0  867.01   21.90
  -8  -8   0  853.21   20.80
   8  -8   0  859.51   21.20
   8   8   1    3.20    0.70
  -8   8  -1    2.00    0.70
   8  -8   1    3.20    0.60
  -8   8  -2  286.37    8.80
   8   8   2  283.67    8.50
   8  -8   2  294.17    8.10
  -8   8  -3  172.98    6.00
   8   8   3  165.48    5.70
   8  -8   3  171.38    5.30
  -8   8  -4   40.00    2.60
   8   8   4   42.60    2.60
   8  -8   4   38.00    2.10
   8   8   5   65.89    3.60
  -8   8  -5   69.59    3.70
   8  -8   5   71.19    3.00
   8  -8   6    5.30    1.30
   8  -9  -6   54.49    3.60
  -8   9   5  170.88    6.00
   8  -9  -5  178.18    6.00
  -8  -9   5  166.98    5.80
  -8   9   4   23.50    2.00
   8  -9  -4   26.20    2.10
  -8  -9   4   20.60    1.80
  -8   9   3   39.30    2.30
  -8  -9   3   35.50    2.20
   8  -9  -3   38.90    2.30
  -8   9   2    6.50    1.30
   8  -9  -2    5.70    1.00
  -8  -9   2    6.60    1.20
   8   9  -1  258.07    7.60
  -8   9   1  263.67    8.10
   8  -9  -1  269.47    7.70
  -8  -9   1  274.97    7.50
   8   9   0  204.08    6.30
  -8   9   0  213.08    6.80
  -8  -9   0  204.88    5.90
   8  -9   0  209.18    6.20
   8   9   1    4.50    0.90
   8  -9   1    4.10    0.80
  -8  -9  -1    5.50    1.00
   8   9   2  575.54   16.10
  -8   9  -2  607.24   16.70
   8  -9   2  598.64   15.40
  -8   9  -3   91.39    4.10
   8   9   3   90.59    3.90
   8  -9   3   93.09    3.60
  -8   9  -4  589.64   16.70
   8   9   4  579.74   16.30
   8  -9   4  570.24   15.20
   8   9   5   92.69    4.40
  -8   9  -5  101.19    4.60
   8  -9   5   84.29    3.60
   8 -10  -5   29.10    2.80
  -8  10   4   46.70    2.70
  -8 -10   4   44.20    2.60
   8 -10  -4   42.90    2.80
  -8  10   3   28.00    2.10
  -8 -10   3   26.90    2.00
   8 -10  -3   24.40    2.10
  -8  10   2   65.89    3.20
   8 -10  -2   66.99    3.00
  -8 -10   2   67.89    3.00
  -8  10   1   17.30    1.70
  -8 -10   1   17.30    1.50
   8 -10  -1   18.10    1.60
  -8  10   0    4.80    0.90
   8  10   0    6.80    1.00
  -8 -10   0    8.80    1.20
   8 -10   0    7.20    1.30
   8  10   1  345.77   10.00
  -8  10  -1  347.47   10.50
   8 -10   1  343.17    9.70
   8  10   2    1.70    1.00
  -8  10  -2    2.10    0.90
   8 -10   2    3.20    0.90
  -8  10  -3  214.48    7.50
   8  10   3  212.08    7.20
   8 -10   3  221.08    6.70
  -8  10  -4   30.90    2.80
   8  10   4   38.00    2.90
   8 -10   4   33.90    2.30
  -8  11   3  129.39    5.10
  -8 -11   3  131.79    4.80
   8 -11  -3  134.89    4.90
  -8  11   2    0.10    0.90
  -8 -11   2   -0.20    0.90
   8 -11  -2    1.90    1.00
  -8  11   1  399.66   11.70
  -8 -11   1  399.96   10.80
   8 -11  -1  390.46   11.00
  -8  11   0    5.40    1.10
  -8 -11   0    5.30    1.00
   8 -11   0    5.50    1.00
   8  11   1  258.17    8.10
  -8  11  -1  262.57    8.50
   8 -11   1  263.27    7.80
   8  11   2    4.70    1.30
  -8  11  -2    5.60    1.20
   8 -11   2    3.90    1.00
  -8  11  -3   73.99    4.00
   8  11   3   83.59    4.00
   8  11   4   10.10    1.70
  -8 -12   2  122.39    4.60
  -8  12   1    0.80    1.10
  -8 -12   1    2.40    1.10
  -8  12   0  101.49    4.50
   8  12   2   47.50    3.10
   8  12   3   48.00    3.50
   9   0  -7   -1.30    1.00
  -9   0   7    0.20    1.00
   9   0  -6  480.55   12.80
   9   0  -5    0.70    0.70
  -9   0   5    0.20    0.40
  -9   0   4 1428.46   35.40
   9   0  -4 1408.16   34.50
  -9   0   4 1441.56   35.40
   9   0  -3    0.00    0.50
  -9   0   2  493.25   12.00
   9   0  -2  462.05   12.00
   9   0  -2  471.75   12.00
   9   0  -1    0.60    0.30
  -9   0   1    0.30    0.30
   9   0   0  116.99    3.40
   9   0   0  119.89    3.50
  -9   0   0  116.19    3.40
  -9   0   0  112.79    3.40
   9   0   1   -0.50    0.30
  -9   0  -1   -0.60    0.40
   9   0   2   65.89    2.00
  -9   0  -2   65.79    2.00
  -9   0  -2   65.49    2.40
  -9   0  -3    1.40    0.40
  -9   0  -3    0.60    0.40
   9   0   3   -0.10    0.30
  -9   0  -4  815.12   22.10
  -9   0  -4  881.01   20.20
   9   0   6  766.62   21.10
  -9   0  -6  780.62   20.90
  -9   0  -7    0.00    0.90
   9   0   7    0.60    1.10
   9   1  -7   57.19    2.90
   9  -1  -7   59.39    3.00
  -9  -1   7   56.09    3.00
   9   1  -6   76.09    3.10
  -9   1   6   69.99    2.70
  -9  -1   6   73.29    3.20
   9  -1  -6   75.69    3.10
  -9   1   5  184.28    5.40
   9   1  -5  191.38    5.80
   9  -1  -5  192.98    5.80
   9   1  -4  361.26    9.70
  -9   1   4  346.57    9.50
  -9   1   4  382.16    9.50
   9  -1  -4  358.26    9.70
   9  -1  -4  360.76    9.60
   9   1  -3 1717.73   41.20
  -9   1   3 1757.42   42.70
   9  -1  -3 1713.13   41.30
   9  -1  -3 1698.73   42.70
  -9   1   2 1007.30   25.00
   9   1  -2 1000.70   24.30
   9  -1  -2 1005.30   25.10
   9  -1  -2  994.00   24.30
   9   1  -1  207.48    5.50
  -9   1   1  201.78    5.50
  -9  -1   1  201.48    5.50
   9  -1  -1  191.58    5.60
   9  -1  -1  207.88    5.50
  -9   1   0 1346.47   32.90
   9   1   0 1394.96   34.40
  -9   1   0 1432.86   34.50
   9   1   0 1394.86   32.80
  -9  -1   0 1372.86   34.30
   9  -1   0 1377.46   32.90
  -9  -1   0 1379.86   32.80
   9  -1   0 1355.36   34.50
  -9   1  -1  220.18    6.20
   9   1   1  215.58    6.10
   9   1   1  220.38    5.60
  -9   1  -1  217.58    5.80
  -9  -1  -1  218.58    6.10
  -9  -1  -1  218.38    5.60
   9  -1   1  222.78    5.70
  -9   1  -2 1115.79   28.60
  -9   1  -2 1125.19   26.90
   9   1   2 1129.99   26.60
   9  -1   2 1144.59   26.90
  -9  -1  -2 1135.89   26.70
  -9  -1  -2 1119.19   28.60
  -9   1  -3   45.80    2.10
  -9   1  -3   45.70    1.70
  -9  -1  -3   46.20    2.10
   9  -1   3   48.30    1.60
  -9   1  -4  507.95   12.30
   9   1   4  494.05   13.70
  -9   1  -4  495.25   13.70
   9  -1   4  495.85   12.10
  -9  -1  -4  499.75   13.60
   9   1   5  132.19    4.80
  -9   1  -5  132.19    4.70
   9  -1   5  126.89    3.60
  -9  -1  -5  131.69    4.70
  -9   1  -6  164.28    5.80
   9   1   6  159.48    5.80
  -9  -1  -6  160.88    5.70
  -9   1  -7  165.38    6.00
   9   1   7  159.58    6.10
  -9  -1  -7  163.38    5.90
   9  -1   7  162.18    6.10
   9   2  -7   69.79    3.30
   9  -2  -7   69.49    3.30
  -9  -2   7   70.69    3.30
   9   2  -6    6.30    1.00
  -9   2   6    7.30    1.20
  -9  -2   6    4.50    0.90
   9  -2  -6    6.50    1.10
  -9   2   5  348.47    9.60
   9   2  -5  358.56    9.70
  -9  -2   5  356.46    9.80
   9  -2  -5  349.87    9.70
  -9   2   4   11.60    0.90
   9   2  -4    8.70    1.10
  -9  -2   4   10.40    1.10
   9  -2  -4    9.00    1.10
  -9   2   3 2946.01   71.09
   9   2  -3 2879.11   68.09
   9  -2  -3 2825.72   71.19
   9  -2  -3 2855.11   68.19
  -9   2   2   41.50    1.60
   9   2  -2   41.60    1.70
   9  -2  -2   39.40    1.80
   9  -2  -2   40.90    1.80
  -9   2   1 2078.29   50.09
   9   2  -1 2015.70   47.80
   9  -2  -1 1997.20   47.90
   9  -2  -1 1932.61   50.19
  -9  -2   1 2064.19   47.80
  -9   2   0   43.20    1.80
   9   2   0   42.20    1.50
   9   2   0   43.40    1.60
   9   2   0   44.90    1.60
  -9  -2   0   42.30    1.50
   9  -2   0   44.70    1.70
   9  -2   0   42.10    1.80
  -9  -2   0   40.40    1.60
  -9   2  -1 1864.01   45.00
   9   2   1 1900.91   47.30
   9   2   1 1883.91   44.70
  -9   2  -1 1927.81   47.50
   9   2   1 1874.01   47.20
  -9  -2  -1 1929.71   44.70
   9  -2   1 1907.81   45.00
  -9  -2  -1 1904.61   47.20
   9   2   2   37.40    1.80
  -9   2  -2   35.50    1.60
  -9   2  -2   35.90    1.70
   9  -2   2   36.40    1.40
  -9  -2  -2   37.60    1.70
   9   2   3 1856.91   46.70
  -9   2  -3 1837.12   46.70
  -9   2  -3 1870.31   44.00
   9  -2   3 1878.61   43.90
  -9  -2  -3 1837.82   46.60
  -9   2  -4    2.10    0.70
   9   2   4    1.80    0.70
  -9   2  -4    3.00    0.60
   9  -2   4    2.40    0.50
  -9  -2  -4    2.70    0.60
  -9   2  -5  441.06   12.50
   9   2   5  434.26   12.50
  -9  -2  -5  440.76   12.40
   9  -2   5  438.36   10.90
   9   2   6    3.30    1.00
  -9   2  -6    3.10    0.90
  -9  -2  -6    3.70    0.90
  -9   2  -7  114.99    4.90
   9   2   7  129.29    5.10
   9  -2   7  115.39    5.10
  -9  -2  -7  118.39    4.80
   9   3  -7  199.18    6.30
   9  -3  -7  195.78    6.40
  -9  -3   7  197.08    6.50
   9   3  -6   60.79    2.80
  -9   3   6   61.79    2.70
  -9  -3   6   61.19    2.90
   9  -3  -6   58.59    2.90
  -9   3   5   80.29    2.90
   9   3  -5   78.89    3.10
   9  -3  -5   80.99    3.20
  -9  -3   5   79.49    3.20
   9   3  -4  132.09    4.30
  -9   3   4  134.09    4.10
   9  -3  -4  130.19    4.40
  -9  -3   4  132.09    4.40
   9   3  -3  386.16   10.20
  -9   3   3  390.76   10.30
  -9  -3   3  391.06   10.30
   9  -3  -3  391.26   10.30
   9   3  -2  452.15   11.60
  -9   3   2  461.85   11.90
   9  -3  -2  452.05   11.70
  -9  -3   2  455.95   11.70
  -9   3   1    0.10    0.40
   9   3  -1    1.50    0.50
  -9  -3   1    0.90    0.40
   9  -3  -1    0.70    0.40
   9   3   0  865.61   21.40
  -9   3   0  878.91   21.90
   9   3   0  862.81   20.50
   9   3   0  839.42   21.30
  -9  -3   0  844.72   20.60
   9  -3   0  839.82   20.80
  -9  -3   0  843.92   20.50
   9   3   1   37.50    1.60
   9   3   1   36.90    1.30
   9   3   1   34.10    1.50
  -9   3  -1   37.00    1.70
  -9  -3  -1   36.40    1.30
   9  -3   1   37.50    1.50
  -9  -3  -1   35.30    1.50
  -9  -3  -1   36.10    1.30
   9   3   2  510.55   13.60
  -9   3  -2  519.65   13.80
  -9  -3  -2  524.15   13.50
   9  -3   2  497.55   12.70
   9   3   3  783.42   20.80
  -9   3  -3  795.82   20.90
  -9  -3  -3  797.82   20.70
   9  -3   3  808.02   19.30
   9   3   4  530.45   14.60
  -9   3  -4  527.75   14.60
  -9  -3  -4  538.85   14.50
   9  -3   4  531.45   13.20
  -9   3  -5  337.07   10.10
   9   3   5  340.67   10.10
  -9  -3  -5  339.07    9.90
   9  -3   5  339.97    8.70
   9   3   6   98.09    4.20
  -9   3  -6   96.39    4.10
  -9  -3  -6   96.09    4.00
   9   3   7  284.97    9.20
  -9   3  -7  272.17    9.00
  -9   4   7    3.30    1.10
   9  -4  -7    1.10    1.20
  -9  -4   7    3.40    1.10
  -9   4   6  222.58    6.90
   9   4  -6  226.98    6.90
   9  -4  -6  223.58    7.00
  -9  -4   6  230.08    7.10
   9   4  -5   26.30    1.70
  -9   4   5   25.10    1.60
   9  -4  -5   26.10    1.80
  -9  -4   5   24.50    1.70
   9   4  -4  577.34   15.20
  -9   4   4  628.44   15.70
   9  -4  -4  615.24   15.40
  -9  -4   4  565.34   15.30
  -9   4   3    2.60    0.60
   9   4  -3    2.30    0.60
   9  -4  -3    2.60    0.60
  -9  -4   3    3.00    0.60
   9   4  -2  276.07    7.40
  -9   4   2  273.67    7.60
  -9  -4   2  275.57    7.50
   9  -4  -2  275.17    7.60
   9   4  -1    7.10    0.80
  -9   4   1    5.60    0.80
  -9  -4   1    7.30    0.80
   9  -4  -1    6.90    0.80
   9   4   0   88.59    2.70
   9   4   0   92.39    2.70
   9   4   0   94.39    2.90
  -9   4   0   90.19    3.20
  -9  -4   0   92.19    2.80
  -9  -4   0   92.59    2.80
   9  -4   0   91.39    3.00
  -9   4  -1   25.60    1.50
   9   4   1   23.30    1.30
   9   4   1   25.10    1.30
  -9  -4  -1   25.00    1.10
   9  -4   1   22.50    1.20
  -9  -4  -1   24.00    1.10
  -9   4  -2  156.98    5.00
   9   4   2  155.18    4.80
   9  -4   2  150.08    4.40
  -9   4  -3    0.70    0.50
   9   4   3   -1.10    0.60
   9  -4   3    0.00    0.40
  -9   4  -4  506.25   14.60
   9   4   4  544.75   14.70
   9  -4   4  540.85   13.30
  -9   4  -5   73.19    3.40
   9   4   5   71.99    3.40
   9  -4   5   75.59    2.70
  -9   4  -6  396.56   11.90
   9   4   6  395.26   11.90
  -9   4  -7    4.10    1.20
   9   4   7    3.80    1.40
  -9   5   7  119.29    4.60
   9  -5  -7  114.29    4.70
  -9   5   6   61.49    2.80
   9  -5  -6   60.39    3.10
  -9  -5   6   61.19    3.00
   9  -5  -5   46.30    2.60
  -9  -5   5   53.19    2.60
   9   5  -4  607.34   15.60
  -9   5   4  604.14   16.10
   9  -5  -4  611.04   15.80
  -9  -5   4  617.14   15.80
  -9   5   3  299.17    8.30
   9   5  -3  292.37    8.10
   9  -5  -3  293.97    8.20
  -9  -5   3  295.17    8.20
   9   5  -2 1031.10   24.90
  -9   5   2 1020.60   26.20
   9  -5  -2 1030.60   25.10
  -9  -5   2 1012.60   25.00
  -9   5   1   24.10    1.40
  -9  -5   1   24.90    1.40
   9  -5  -1   24.40    1.40
  -9   5   0 1138.79   28.90
   9   5   0 1133.59   28.20
   9   5   0 1149.89   28.40
   9  -5   0 1125.39   27.40
  -9  -5   0 1095.69   27.00
  -9  -5   0 1137.09   27.10
   9   5   1  124.09    3.90
  -9   5  -1  126.89    4.20
  -9  -5  -1  112.19    3.40
   9  -5   1  122.29    3.80
  -9  -5  -1  125.79    3.40
  -9   5  -2  704.63   18.70
   9   5   2  699.83   18.40
   9  -5   2  706.83   17.40
  -9   5  -3    7.90    1.10
   9   5   3    6.00    0.90
   9  -5   3    7.70    1.00
  -9   5  -4  474.05   13.50
   9   5   4  475.95   13.30
   9  -5   4  476.65   12.20
   9   5   5  103.59    4.30
  -9   5  -5  100.59    4.20
   9  -5   5  102.59    3.50
   9   5   6  103.59    4.60
  -9   5  -6  104.59    4.40
   9  -5   6  100.79    3.50
  -9   6   7   72.59    3.50
   9  -6  -7   68.69    3.70
  -9   6   6   18.90    1.90
   9  -6  -6   19.80    2.20
  -9  -6   6   13.20    1.80
  -9   6   5  143.19    4.80
   9  -6  -5  139.69    4.90
  -9  -6   5  138.19    4.90
  -9   6   4   55.09    2.50
   9  -6  -4   56.19    2.70
  -9  -6   4   53.89    2.50
  -9   6   3  522.55   14.00
  -9  -6   3  517.35   13.50
   9  -6  -3  520.45   13.60
  -9   6   2    2.80    0.70
   9  -6  -2    1.20    0.60
  -9  -6   2    2.40    0.60
  -9   6   1 1178.28   30.50
  -9  -6   1 1214.28   28.90
   9  -6  -1 1193.58   29.10
  -9   6   0    1.10    0.50
   9   6   0    1.20    0.50
   9   6   0    0.70    0.50
   9  -6   0    0.90    0.50
  -9  -6   0    0.30    0.40
  -9   6  -1  458.75   12.50
   9   6   1  450.45   12.10
  -9  -6  -1  456.25   11.10
  -9  -6  -1  445.96   11.20
   9  -6   1  451.85   11.70
  -9   6  -2   22.90    1.70
   9   6   2   25.10    1.70
   9  -6   2   25.60    1.50
  -9   6  -3  900.41   23.90
   9   6   3  909.01   23.70
   9  -6   3  902.01   22.30
  -9   6  -4    1.90    0.80
   9   6   4   -0.90    0.80
   9  -6   4    0.40    0.60
  -9   6  -5  387.16   11.60
   9   6   5  387.26   11.50
   9  -6   5  377.46   10.20
   9   6   6  114.69    5.00
  -9   6  -6  121.29    5.10
   9  -6   6  123.89    4.20
  -9   7   7   50.29    3.10
  -9   7   6   13.90    2.00
  -9  -7   6   18.40    2.00
   9  -7  -6   12.40    2.20
  -9   7   5   62.99    3.00
   9  -7  -5   61.49    3.20
  -9  -7   5   61.89    2.90
  -9   7   4   47.60    2.50
  -9  -7   4   51.29    2.50
   9  -7  -4   53.29    2.70
  -9   7   3  183.58    5.90
  -9  -7   3  181.88    5.70
   9  -7  -3  190.98    5.90
  -9   7   2  153.58    5.10
   9  -7  -2  150.28    4.90
  -9  -7   2  159.68    4.80
  -9   7   1    6.70    1.10
   9   7  -1    3.50    0.70
   9  -7  -1    4.10    0.70
  -9  -7   1    4.50    0.70
   9   7   0   73.59    2.70
  -9   7   0   69.89    3.00
   9  -7   0   67.59    2.70
  -9  -7   0   70.29    2.50
  -9   7  -1  101.19    3.80
   9   7   1  102.69    3.60
  -9  -7  -1  100.49    3.00
   9  -7   1   97.99    3.40
   9   7   2   25.90    1.80
  -9   7  -2   22.80    1.80
   9  -7   2   27.60    1.60
   9   7   3  863.01   23.10
  -9   7  -3  879.41   23.40
   9  -7   3  884.91   21.80
  -9   7  -4  341.27   10.30
   9   7   4  337.67   10.10
   9  -7   4  336.17    9.20
  -9   7  -5  369.36   11.30
   9   7   5  373.66   11.20
   9  -7   5  366.96   10.00
  -9   7  -6   40.20    3.00
   9   7   6   43.90    3.10
   9  -7   6   40.20    2.40
  -9   8   6  129.79    4.90
   9  -8  -6  122.49    5.10
  -9   8   5   10.30    1.70
  -9  -8   5   11.30    1.80
   9  -8  -5   12.00    2.10
  -9   8   4  107.79    4.10
  -9  -8   4  109.19    4.10
   9  -8  -4  107.59    4.20
  -9   8   3   33.10    2.10
  -9  -8   3   33.20    2.00
   9  -8  -3   31.10    2.10
  -9   8   2  216.48    6.80
   9  -8  -2  213.98    6.50
  -9  -8   2  220.98    6.40
  -9   8   1   56.89    2.60
   9   8  -1   53.49    2.20
  -9  -8   1   54.89    2.30
   9  -8  -1   54.39    2.40
  -9   8   0   26.00    1.80
   9   8   0   23.50    1.60
   9  -8   0   25.20    1.60
  -9  -8   0   25.10    1.50
   9   8   1  141.49    4.70
  -9   8  -1  132.89    4.90
   9  -8   1  142.59    4.50
  -9  -8  -1  137.39    4.00
  -9   8  -2   27.90    2.00
   9   8   2   29.60    2.00
   9  -8   2   31.40    1.80
  -9   8  -3  105.49    4.40
   9   8   3  107.09    4.20
   9  -8   3  109.89    3.90
  -9   8  -4  178.58    6.40
   9   8   4  180.28    6.30
   9  -8   4  175.28    5.60
   9   8   5   49.50    3.20
  -9   8  -5   49.90    3.20
   9  -8   5   48.00    2.50
   9  -8   6  304.47    8.80
  -9   9   5    0.50    1.00
   9  -9  -5    1.70    1.40
  -9   9   4  550.04   15.40
  -9  -9   4  549.15   14.80
   9  -9  -4  557.74   14.90
  -9   9   3    5.10    1.00
  -9  -9   3    3.70    0.90
  -9   9   2  398.66   11.60
  -9  -9   2  404.36   10.90
   9  -9  -2  404.96   11.10
  -9   9   1    1.90    0.70
  -9  -9   1    0.40    0.60
   9  -9  -1    1.40    0.70
   9   9   0 1062.49   27.70
  -9   9   0 1105.99   28.40
  -9  -9   0 1092.69   26.40
   9  -9   0 1062.69   26.80
  -9   9  -1    0.30    0.70
   9   9   1    0.60    0.90
   9  -9   1    0.70    0.70
  -9  -9  -1    0.90    0.60
   9   9   2  503.85   14.20
  -9   9  -2  513.95   14.70
   9  -9   2  528.85   13.70
  -9   9  -3   31.40    2.40
   9   9   3   34.80    2.50
   9  -9   3   33.30    2.10
  -9   9  -4  301.27    9.80
   9   9   4  307.97    9.60
   9  -9   4  307.87    8.80
   9   9   5   -0.60    1.40
   9  -9   5    4.30    1.20
  -9  10   4   59.49    3.20
   9 -10  -4   65.29    3.30
  -9 -10   4   64.29    3.20
  -9  10   3   68.99    3.30
  -9 -10   3   64.99    3.00
   9 -10  -3   61.39    3.10
  -9  10   2  102.49    4.20
  -9 -10   2  101.39    3.80
   9 -10  -2  102.99    4.00
  -9  10   1  420.86   12.30
   9 -10  -1  427.66   11.60
  -9 -10   1  427.66   11.30
  -9  10   0   57.19    3.00
   9 -10   0   57.29    2.70
  -9 -10   0   55.29    2.50
   9  10   1  208.38    6.50
  -9  10  -1  201.68    6.90
   9 -10   1  206.38    6.40
  -9  10  -2   23.30    2.20
   9  10   2   26.50    2.30
   9 -10   2   24.20    1.80
  -9  10  -3  520.95   15.10
   9  10   3  512.95   14.70
   9 -10   3  513.25   13.80
   9  10   4   30.10    2.80
  -9  10  -4   20.20    2.80
  -9  11   3  153.28    5.80
  -9 -11   3  159.58    5.50
  -9  11   2   10.40    1.80
  -9 -11   2   14.00    1.80
   9 -11  -2   13.20    1.80
   9 -11  -1    3.00    1.00
  -9 -11   1    1.50    1.00
  -9  11   0    3.40    1.00
   9 -11   0   -0.30    0.90
  -9  11  -1   22.50    2.10
   9 -11   1   18.60    1.80
   9  11   2   57.59    3.40
  -9  11  -2   63.79    3.40
   9  11   3  104.19    4.70
  -9 -12   2  156.18    5.40
  -9 -12   1   93.09    3.80
   9  12   3   51.19    3.70
 -10   0   7   -1.10    1.00
  10   0  -7    0.10    1.10
  10   0  -6  164.48    5.40
 -10   0   5   -0.40    0.50
  10   0  -5    0.30    0.70
  10   0  -4   75.89    2.90
  10   0  -3    0.40    0.50
  10   0  -2  624.54   15.60
  10   0  -1    0.00    0.40
 -10   0   1    0.80    0.30
  10   0  -1    1.00    0.40
  10   0   0  697.23   17.40
 -10   0   0  675.13   16.60
  10   0   0  701.23   16.70
 -10   0   0  655.43   17.30
 -10   0  -1    0.80    0.40
 -10   0  -1   -0.30    0.30
  10   0   1    0.80    0.40
 -10   0  -2 1600.74   37.10
 -10   0  -2 1591.94   39.40
  10   0   2 1506.55   37.00
 -10   0  -3    0.50    0.50
 -10   0  -3   -0.10    0.40
  10   0   3   -0.20    0.40
 -10   0  -4  795.52   21.00
  10   0   6  645.84   18.20
 -10   0  -6  664.43   18.10
 -10   0  -7    2.30    1.10
  10   0   7    0.40    1.20
  10   1  -7   -0.30    1.10
 -10  -1   7    0.40    1.00
  10  -1  -7    2.30    1.10
  10   1  -6  155.28    5.20
  10  -1  -6  153.38    5.10
 -10  -1   6  150.88    5.30
  10   1  -5    7.00    1.20
 -10   1   5    6.20    0.90
  10  -1  -5    7.40    1.30
 -10   1   4  478.45   12.40
  10   1  -4  481.25   12.50
 -10   1   4  474.35   12.30
  10  -1  -4  479.05   12.50
 -10   1   3  789.62   19.50
  10   1  -3  775.52   19.20
  10  -1  -3  764.72   19.60
  10  -1  -3  766.52   19.30
  10   1  -2  428.66   11.10
 -10   1   2  458.45   11.20
  10  -1  -2  428.56   11.10
  10  -1  -2  417.16   11.30
 -10   1   1  367.76    9.20
  10   1  -1  351.56    9.00
  10  -1  -1  347.37    9.00
  10  -1  -1  325.37    9.20
 -10   1   0 1133.09   28.40
  10   1   0 1168.98   28.30
  10   1   0 1143.49   27.00
 -10  -1   0 1123.99   27.00
  10  -1   0 1125.69   27.10
 -10  -1   0 1122.19   28.20
  10  -1   0 1090.89   28.40
 -10   1  -1 1374.56   33.60
  10   1   1 1409.16   35.30
  10   1   1 1423.36   33.40
 -10   1  -1 1409.96   35.40
  10  -1   1 1415.96   33.50
 -10  -1  -1 1402.96   33.40
 -10  -1  -1 1431.26   35.30
  10   1   2  106.69    2.90
 -10   1  -2  101.59    3.50
 -10   1  -2  103.49    3.20
  10  -1   2  108.49    3.10
 -10  -1  -2  106.39    3.50
 -10  -1  -2  105.99    3.00
 -10   1  -3  826.62   21.90
 -10   1  -3  857.01   20.30
 -10  -1  -3  838.12   21.90
  10  -1   3  852.21   20.20
 -10   1  -4    6.80    1.10
  10   1   4    5.20    0.90
  10  -1   4    6.50    0.70
 -10  -1  -4    5.70    1.10
  10   1   5  536.25   14.90
 -10   1  -5  527.65   14.80
 -10  -1  -5  530.45   14.70
 -10   1  -6   27.10    2.10
  10   1   6   21.90    2.10
 -10  -1  -6   24.60    2.00
 -10   1  -7  278.47    9.10
  10   1   7  289.17    9.30
  10  -1   7  275.27    9.20
 -10  -1  -7  286.17    9.10
  10   2  -7   77.19    3.60
  10  -2  -7   83.09    3.70
 -10  -2   7   79.69    3.60
  10   2  -6   -1.10    0.90
 -10  -2   6    0.00    0.80
  10   2  -5  677.83   17.50
 -10   2   5  691.73   17.60
  10  -2  -5  683.13   17.50
 -10  -2   5  676.33   17.60
  10   2  -4   -0.10    0.60
 -10   2   4    1.80    0.50
 -10  -2   4   -0.10    0.60
  10  -2  -4    1.00    0.60
  10   2  -3  579.84   14.70
 -10   2   3  605.74   14.90
  10  -2  -3  556.24   15.00
  10  -2  -3  578.94   14.80
  10   2  -2    6.10    0.90
 -10   2   2    4.00    0.70
  10  -2  -2    4.20    0.80
  10  -2  -2    5.80    0.90
 -10   2   1 1408.96   33.60
  10   2  -1 1358.66   32.10
  10  -2  -1 1228.68   33.60
  10  -2  -1 1366.66   32.20
  10   2   0    0.80    0.40
  10   2   0    0.10    0.40
  10   2   0    0.60    0.40
 -10   2   0    0.20    0.40
 -10  -2   0    0.40    0.40
 -10  -2   0   -0.10    0.30
  10  -2   0    0.50    0.40
  10   2   1  789.02   20.40
 -10   2  -1  813.12   20.70
  10   2   1  814.82   19.30
  10   2   1  805.02   20.50
 -10  -2  -1  802.12   20.40
  10  -2   1  807.92   19.50
 -10  -2  -1  800.32   19.30
 -10   2  -2   65.59    2.20
 -10   2  -2   60.39    2.40
  10   2   2   57.09    2.40
  10   2   2   56.39    1.70
 -10  -2  -2   57.79    1.80
  10  -2   2   59.49    2.00
 -10  -2  -2   58.79    2.30
  10   2   3   88.69    3.40
 -10   2  -3   86.89    2.90
 -10   2  -3   88.89    3.30
 -10  -2  -3   88.29    3.20
  10  -2   3   87.79    2.70
 -10   2  -4    8.20    1.10
  10   2   4   10.00    1.30
 -10  -2  -4    9.60    1.10
 -10   2  -5    7.90    1.40
  10   2   5   11.30    1.60
 -10  -2  -5    9.10    1.40
  10  -2   5    7.00    0.70
 -10   2  -6   44.40    2.70
  10   2   6   48.60    2.90
 -10  -2  -6   46.70    2.60
  10   2   7  128.49    5.10
 -10   2  -7  119.89    5.00
 -10  -2  -7  122.39    4.90
  10  -2   7  116.39    5.20
 -10  -3   7    0.80    1.10
  10  -3  -7    2.80    1.30
  10   3  -6  149.79    5.10
 -10   3   6  151.88    4.80
 -10  -3   6  150.58    5.20
  10  -3  -6  141.49    5.20
 -10   3   5   24.20    1.50
  10   3  -5   24.80    1.70
  10  -3  -5   24.00    1.90
 -10  -3   5   23.70    1.70
 -10   3   4  154.78    4.50
  10   3  -4  143.49    4.70
  10  -3  -4  147.59    4.80
 -10  -3   4  143.69    4.80
  10   3  -3  243.78    6.90
 -10   3   3  249.08    6.80
  10  -3  -3  242.38    7.00
 -10  -3   3  241.58    7.00
 -10   3   2  169.78    5.00
  10   3  -2  172.98    5.00
  10  -3  -2  172.08    5.10
 -10  -3   2  172.58    5.10
  10   3  -1  118.19    3.50
 -10   3   1  117.89    3.70
  10  -3  -1  117.69    3.70
 -10  -3   1  114.29    3.60
  10   3   0  291.07    7.70
 -10   3   0  294.37    8.10
  10   3   0  295.97    7.50
  10   3   0  289.47    7.60
 -10  -3   0  287.67    7.50
  10  -3   0  291.27    7.70
 -10  -3   0  286.27    7.40
  10   3   1 2621.14   61.39
  10   3   1 2618.64   64.69
  10   3   1 2614.04   64.79
 -10   3  -1 2623.34   65.09
 -10  -3  -1 2644.24   64.69
  10  -3   1 2601.64   61.79
 -10  -3  -1 2596.84   61.39
 -10  -3  -1 2584.34   61.39
  10   3   2   89.09    3.20
 -10   3  -2   89.79    3.30
  10  -3   2   90.89    2.90
 -10  -3  -2   89.39    3.10
  10   3   3  382.16   10.80
 -10   3  -3  386.36   10.90
  10  -3   3  379.66    9.80
 -10  -3  -3  398.26   10.70
  10   3   4   59.39    2.90
 -10   3  -4   61.29    2.80
  10  -3   4   62.69    2.20
 -10  -3  -4   60.69    2.70
 -10   3  -5  652.63   17.90
  10   3   5  652.83   17.90
 -10  -3  -5  651.13   17.70
  10  -3   5  648.54   16.00
  10   3   6    3.70    1.10
 -10   3  -6    3.40    0.90
 -10  -3  -6    3.90    0.90
  10  -4  -7   -1.00    1.30
 -10   4   6   25.00    1.90
  10   4  -6   29.10    2.00
 -10  -4   6   24.20    2.00
  10  -4  -6   25.60    2.20
  10   4  -5  110.29    4.10
 -10   4   5  117.39    3.90
  10  -4  -5  117.19    4.20
 -10  -4   5  112.59    4.20
 -10   4   4   17.80    1.30
  10   4  -4   17.00    1.50
  10  -4  -4   19.40    1.60
 -10  -4   4   16.90    1.40
 -10   4   3   71.49    2.60
  10   4  -3   67.19    2.70
  10  -4  -3   72.39    2.80
 -10  -4   3   71.29    2.80
 -10   4   2  366.86   10.00
  10   4  -2  372.66    9.60
 -10  -4   2  369.46    9.70
  10  -4  -2  359.96    9.80
  10   4  -1   56.19    2.10
 -10   4   1   57.29    2.30
  10  -4  -1   58.99    2.30
 -10  -4   1   57.09    2.20
 -10   4   0  389.36   10.40
  10   4   0  378.36    9.50
  10   4   0  378.26    9.80
  10   4   0  382.76    9.90
  10  -4   0  379.36    9.90
 -10  -4   0  374.66    9.60
 -10  -4   0  369.26    9.50
  10   4   1  313.37    8.40
 -10   4  -1  309.57    8.80
 -10  -4  -1  315.77    7.70
 -10  -4  -1  290.57    7.70
  10  -4   1  311.57    8.10
  10   4   2 1270.97   32.40
 -10   4  -2 1301.47   32.70
  10  -4   2 1256.17   30.70
 -10   4  -3   28.70    1.80
  10   4   3   28.70    1.90
  10  -4   3   28.80    1.50
  10   4   4  758.52   20.50
 -10   4  -4  773.92   20.60
  10  -4   4  768.02   18.80
  10   4   5   -0.40    0.90
 -10   4  -5    1.50    0.80
  10  -4   5    1.90    0.70
  10   4   6  677.43   19.00
 -10   4  -6  685.63   19.00
  10  -5  -7    7.00    1.60
 -10   5   6  146.29    5.00
 -10  -5   6  152.08    5.30
  10  -5  -6  145.99    5.30
 -10   5   5    1.00    0.70
  10   5  -5   -0.80    0.80
  10  -5  -5   -0.50    0.90
 -10  -5   5    0.10    0.80
  10   5  -4  537.15   14.20
 -10   5   4  548.95   14.60
  10  -5  -4  545.85   14.40
 -10  -5   4  555.14   14.40
 -10   5   3   81.39    3.00
  10   5  -3   83.19    3.10
  10  -5  -3   80.29    3.10
 -10  -5   3   76.99    3.10
  10   5  -2 1281.37   30.60
 -10   5   2 1265.87   32.10
  10  -5  -2 1258.57   30.80
 -10  -5   2 1244.58   30.70
 -10   5   1  148.49    4.80
 -10  -5   1  150.58    4.50
  10  -5  -1  150.08    4.60
 -10   5   0  996.80   26.10
  10   5   0 1036.90   25.60
  10   5   0  998.20   25.40
  10  -5   0 1020.50   24.80
 -10  -5   0 1024.50   24.50
 -10   5  -1  701.63   18.40
  10   5   1  696.63   17.90
 -10  -5  -1  690.03   16.70
  10  -5   1  690.23   17.30
 -10  -5  -1  686.83   16.70
 -10   5  -2  400.46   11.30
  10   5   2  403.66   11.10
  10  -5   2  403.06   10.40
 -10   5  -3  210.38    6.90
  10   5   3  227.98    6.90
  10  -5   3  222.88    6.20
 -10   5  -4   40.20    2.30
  10   5   4   33.30    2.30
  10  -5   4   38.00    1.80
  10   5   5  212.78    7.20
 -10   5  -5  219.98    7.20
  10  -5   5  213.18    6.10
 -10   5  -6   27.60    2.40
 -10   6   6   30.10    2.20
 -10  -6   6   33.00    2.20
  10  -6  -6   29.70    2.50
 -10   6   5  558.94   15.20
 -10  -6   5  564.24   15.00
  10  -6  -5  563.84   15.00
 -10   6   4    2.80    0.70
  10  -6  -4    4.30    0.90
 -10  -6   4    0.90    0.80
 -10   6   3  596.34   15.90
  10  -6  -3  602.54   15.50
 -10  -6   3  590.74   15.40
 -10   6   2   43.10    2.10
  10  -6  -2   43.10    2.20
 -10  -6   2   43.40    2.00
 -10   6   1  920.01   24.10
  10  -6  -1  920.71   23.00
 -10  -6   1  950.90   22.80
  10   6   0   84.79    2.80
 -10   6   0   83.39    3.30
 -10  -6   0   80.39    2.70
  10  -6   0   82.89    3.00
 -10   6  -1 1233.28   31.30
  10   6   1 1226.38   30.80
  10  -6   1 1178.98   29.50
 -10  -6  -1 1214.08   28.90
 -10   6  -2  121.79    4.40
  10   6   2  123.99    4.20
  10  -6   2  121.89    4.00
  10   6   3  212.98    6.70
 -10   6  -3  219.78    7.00
  10  -6   3  208.28    6.10
  10   6   4   42.60    2.60
 -10   6  -4   45.30    2.60
  10  -6   4   47.50    2.20
 -10   6  -5    0.30    0.90
  10   6   5   -0.70    1.10
  10  -6   5    0.90    0.80
  10   6   6   57.49    3.50
 -10   6  -6   59.49    3.40
 -10   7   7   21.60    2.60
 -10   7   6   43.00    2.70
  10  -7  -6   43.60    3.00
 -10   7   5   -0.80    0.80
  10  -7  -5   -2.00    1.10
 -10  -7   5    0.30    0.90
 -10   7   4   80.79    3.40
  10  -7  -4   84.89    3.50
 -10  -7   4   81.79    3.40
 -10   7   3  102.29    3.80
  10  -7  -3  100.69    3.80
 -10  -7   3   98.99    3.70
 -10   7   2  204.08    6.40
 -10  -7   2  204.08    6.00
  10  -7  -2  205.98    6.20
  10   7  -1  237.98    6.60
 -10   7   1  238.98    7.20
 -10  -7   1  237.18    6.70
  10  -7  -1  240.08    7.00
 -10   7   0  108.49    4.00
  10   7   0  109.69    3.60
  10  -7   0  109.79    3.80
 -10  -7   0  108.39    3.40
 -10   7  -1  462.55   12.90
  10   7   1  454.05   12.30
 -10  -7  -1  450.65   11.40
  10  -7   1  461.25   12.00
 -10   7  -2  223.48    7.20
  10   7   2  222.08    6.80
  10  -7   2  222.38    6.50
  10   7   3  654.93   18.00
 -10   7  -3  678.83   18.40
  10  -7   3  672.53   17.00
 -10   7  -4   22.20    2.00
  10   7   4   21.30    2.10
  10  -7   4   21.60    1.70
  10   7   5  393.56   11.80
 -10   7  -5  384.06   11.90
  10  -7   5  392.46   10.60
 -10   8   6   30.10    2.60
 -10   8   5   49.99    2.80
  10  -8  -5   50.29    3.00
 -10  -8   5   46.60    2.80
 -10   8   4    0.40    0.80
  10  -8  -4    2.70    1.10
 -10  -8   4    0.70    0.90
 -10   8   3   38.30    2.30
  10  -8  -3   35.30    2.30
 -10  -8   3   38.90    2.20
 -10   8   2  143.59    5.00
 -10  -8   2  146.59    4.70
  10  -8  -2  139.29    4.80
 -10   8   1   98.99    3.80
 -10  -8   1   95.69    3.40
  10  -8  -1   97.89    3.60
 -10   8   0  325.77    9.60
  10   8   0  312.27    8.90
  10  -8   0  325.27    9.00
 -10  -8   0  324.37    8.50
 -10   8  -1    6.30    1.00
  10   8   1    9.60    1.40
 -10  -8  -1    7.00    1.00
  10  -8   1    9.00    1.20
 -10   8  -2  544.35   15.40
  10   8   2  556.64   15.10
  10  -8   2  552.24   14.30
  10   8   3    9.20    1.80
  10  -8   3    9.10    1.40
 -10   8  -4  307.67    9.80
  10   8   4  311.87    9.60
  10  -8   4  310.57    8.70
  10   8   5    3.00    1.40
 -10   8  -5    6.70    1.30
  10  -8   5    5.20    1.10
  10  -8   6  327.27    9.40
 -10   9   5    2.80    1.20
 -10   9   4  128.59    4.90
 -10  -9   4  134.59    4.90
  10  -9  -4  130.89    4.90
 -10   9   3   10.10    1.70
 -10  -9   3   14.60    1.70
  10  -9  -3   12.30    1.80
 -10   9   2  807.82   21.70
 -10  -9   2  831.52   20.50
  10  -9  -2  794.22   20.70
 -10   9   1    0.20    0.70
 -10  -9   1   -0.50    0.70
 -10   9   0  210.38    6.90
 -10  -9   0  207.38    6.00
  10  -9   0  211.38    6.50
  10   9   1    0.80    0.90
  10  -9   1    1.20    0.80
 -10   9  -2  198.38    6.80
  10   9   2  186.68    6.30
  10  -9   2  198.58    6.10
 -10   9  -3   83.39    3.90
  10   9   3   77.39    3.80
  10  -9   3   84.09    3.40
  10   9   4   16.90    2.40
 -10   9  -4   13.30    2.20
  10  -9   4   19.70    1.90
  10   9   5   75.09    4.10
 -10  10   4    0.90    1.10
 -10  10   3  139.59    5.20
 -10 -10   3  135.39    4.90
  10 -10  -3  133.79    5.00
 -10  10   2   68.49    3.30
 -10 -10   2   71.49    3.10
  10 -10  -2   70.09    3.20
 -10  10   1  442.56   13.00
  10 -10  -1  448.16   12.30
 -10 -10   1  458.15   12.00
 -10  10   0   33.80    2.30
  10 -10   0   33.80    2.10
 -10  10  -1  275.47    8.90
  10 -10   1  288.67    8.30
  10  10   2   60.89    3.20
 -10  10  -2   56.99    3.20
  10 -10   2   56.89    2.80
 -10  10  -3   25.70    2.40
  10  10   3   28.30    2.60
  10 -10   3   23.80    2.00
  10  10   4  179.48    6.70
 -10 -11   3   45.60    3.00
 -10  11   2   49.70    2.90
 -10 -11   2   49.10    2.80
 -10  11   1  257.27    8.40
 -10 -11   1  257.97    7.60
 -10  11   0   33.20    2.50
  10 -11   0   29.80    2.30
 -10  11  -1  345.87   10.70
  10  11   3  195.18    7.00
 -10 -12   2   81.09    4.00
 -11   0   7    1.50    1.10
  11   0  -7    3.30    1.30
  11   0  -6  221.78    6.90
  11   0  -5    0.00    0.70
  11   0  -4 1257.07   30.80
  11   0  -3    0.20    0.50
  11   0  -2  448.96   11.60
 -11   0   2  447.66   11.40
  11   0  -1    0.60    0.50
  11   0  -1    1.40    0.50
 -11   0   1    0.70    0.30
 -11   0   0 2869.31   70.29
  11   0   0 2824.32   70.29
  11   0   0 2835.22   66.99
  11   0   1    0.90    0.40
 -11   0  -1    1.90    0.50
 -11   0  -1    1.50    0.50
 -11   0  -2 1745.73   42.10
  11   0   2 1807.42   42.10
 -11   0  -2 1787.22   44.70
  11   0   3    1.10    0.50
 -11   0  -3    2.10    0.60
 -11   0  -3    2.10    0.60
 -11   0  -4 1305.67   33.60
 -11   0  -5    0.40    0.70
  11   0   6  115.19    4.70
 -11   0  -6  106.19    4.40
  11   1  -7   18.90    2.20
 -11  -1   7   20.50    2.10
  11  -1  -7   19.90    2.20
  11   1  -6  201.38    6.40
 -11  -1   6  206.28    6.60
  11  -1  -6  196.38    6.40
  11   1  -5  144.89    4.80
  11  -1  -5  139.79    4.80
  11   1  -4  172.58    5.30
 -11   1   4  163.68    4.70
  11  -1  -4  171.38    5.30
  11   1  -3   63.19    2.50
 -11   1   3   63.39    2.10
  11  -1  -3   60.49    2.60
  11  -1  -3   60.69    2.30
  11   1  -2  194.98    5.60
 -11   1   2  199.18    5.40
  11  -1  -2  188.88    5.50
  11  -1  -2  200.88    5.70
  11   1  -1 1821.72   43.10
  11   1  -1 1822.62   44.80
 -11   1   1 1877.51   45.00
  11  -1  -1 1737.53   45.00
  11  -1  -1 1850.21   43.20
 -11  -1   1 1744.83   44.70
  11   1   0   60.29    2.20
 -11   1   0   62.29    2.20
  11   1   0   58.99    2.10
 -11  -1   0   57.79    2.10
  11  -1   0   60.29    2.20
 -11   1  -1  741.63   19.30
  11   1   1  767.32   18.10
 -11  -1  -1  760.12   19.20
  11  -1   1  736.13   18.20
 -11  -1  -1  738.33   18.10
 -11   1  -2  111.49    3.70
 -11   1  -2  101.49    3.30
  11   1   2  111.39    3.00
 -11  -1  -2  110.29    3.60
 -11  -1  -2  107.99    3.10
  11  -1   2  109.89    3.20
 -11   1  -3  913.81   23.70
 -11   1  -3  901.11   22.00
 -11  -1  -3  915.01   23.70
  11  -1   3  919.31   21.90
  11   1   4  151.88    5.20
 -11   1  -4  141.69    5.10
  11  -1   4  151.18    4.10
 -11  -1  -4  152.98    5.10
 -11   1  -5  285.77    8.70
  11   1   5  281.37    8.80
 -11  -1  -5  279.47    8.60
 -11   1  -6  339.57   10.30
  11   1   6  328.87   10.30
 -11  -1  -6  329.17   10.10
  11   2  -7  336.07   10.20
 -11  -2   7  340.57   10.50
  11  -2  -7  327.97    9.80
  11   2  -6   10.40    1.70
  11  -2  -6    9.00    1.30
 -11  -2   6    9.60    1.60
 -11   2   5  165.08    4.80
  11   2  -5  165.38    5.40
  11  -2  -5  163.08    5.40
 -11  -2   5  163.28    5.50
  11   2  -4    9.70    1.20
 -11   2   4    8.30    1.00
  11  -2  -4    9.00    1.30
 -11   2   3  180.68    5.00
  11   2  -3  181.08    5.30
  11  -2  -3  173.68    5.40
  11  -2  -3  168.38    5.20
 -11   2   2    5.40    0.80
  11   2  -2    7.10    0.90
  11  -2  -2    5.20    0.90
  11  -2  -2    6.90    1.00
  11   2  -1    0.80    0.50
  11  -2  -1    0.80    0.50
  11   2   0   53.79    1.90
  11   2   0   50.79    1.90
  11   2   0   54.69    1.90
 -11   2   0   55.79    2.10
 -11  -2   0   52.19    1.90
 -11  -2   0   51.69    2.00
  11  -2   0   52.59    2.10
  11   2   1  244.88    6.90
  11   2   1  244.08    6.30
 -11   2  -1  246.28    7.00
  11  -2   1  238.48    6.50
 -11  -2  -1  251.17    6.80
 -11  -2  -1  242.38    6.30
  11   2   2   68.99    2.00
 -11   2  -2   70.19    2.80
  11   2   2   69.29    2.70
 -11  -2  -2   71.79    2.60
 -11  -2  -2   66.39    2.10
  11  -2   2   70.39    2.40
  11   2   3  246.18    7.40
 -11   2  -3  249.88    7.40
 -11  -2  -3  247.98    7.30
  11  -2   3  248.08    6.50
 -11   2  -4   33.50    2.00
  11   2   4   39.20    2.20
  11  -2   4   34.80    1.50
 -11  -2  -4   36.30    2.00
  11   2   5  470.75   13.50
 -11   2  -5  476.05   13.50
 -11  -2  -5  464.85   13.30
  11   2   6    6.60    1.30
 -11   2  -6    5.10    1.10
 -11  -2  -6    9.40    1.60
  11  -3  -7   43.20    2.90
  11   3  -6   77.99    3.40
 -11  -3   6   77.99    3.50
  11  -3  -6   79.39    3.50
 -11   3   5  190.58    5.70
  11   3  -5  193.78    6.10
 -11  -3   5  196.08    6.20
  11  -3  -5  192.08    6.10
 -11   3   4  227.68    6.40
  11   3  -4  223.58    6.60
 -11  -3   4  225.08    6.80
  11  -3  -4  222.08    6.70
  11   3  -3  329.47    8.90
 -11   3   3  329.17    8.90
 -11  -3   3  323.97    9.00
  11  -3  -3  322.47    9.00
 -11   3   2  180.98    5.30
  11   3  -2  183.68    5.30
 -11  -3   2  186.58    5.50
  11  -3  -2  182.88    5.50
 -11   3   1 1369.66   34.70
  11   3  -1 1384.56   33.10
 -11  -3   1 1402.46   33.30
  11  -3  -1 1366.56   33.30
  11   3   0    0.20    0.40
  11   3   0    0.30    0.50
 -11   3   0    0.10    0.40
  11   3   0    0.90    0.40
  11  -3   0    1.10    0.50
 -11  -3   0   -0.40    0.40
  11   3   1  992.80   25.30
 -11   3  -1  989.20   25.60
  11   3   1 1007.60   23.80
  11  -3   1 1002.90   24.20
 -11  -3  -1 1011.40   23.80
 -11  -3  -1  984.70   23.90
 -11  -3  -1 1001.00   25.30
  11   3   2   23.60    1.60
 -11   3  -2   28.10    1.60
  11  -3   2   28.40    1.40
 -11  -3  -2   27.20    1.50
 -11   3  -3  786.62   20.80
  11   3   3  784.32   20.70
 -11  -3  -3  784.72   20.50
  11  -3   3  785.62   19.20
 -11   3  -4   23.90    1.80
  11   3   4   18.20    1.80
  11  -3   4   18.60    1.30
 -11  -3  -4   19.30    1.60
 -11   3  -5  196.28    6.60
  11   3   5  195.78    6.70
 -11  -3  -5  196.58    6.50
  11   3   6  162.88    6.00
 -11   3  -6  159.38    5.90
 -11  -3  -6  158.78    5.80
  11   4  -6  107.29    4.10
 -11  -4   6  102.59    4.20
  11  -4  -6  106.69    4.30
 -11   4   5   65.29    2.70
  11   4  -5   62.19    2.90
  11  -4  -5   65.89    3.00
 -11  -4   5   60.29    2.90
  11   4  -4  384.66   10.40
 -11   4   4  383.46   10.40
 -11  -4   4  382.76   10.60
  11  -4  -4  377.36   10.50
 -11   4   3   -0.10    0.50
  11   4  -3   -0.30    0.60
 -11  -4   3   -0.20    0.60
  11  -4  -3    0.80    0.60
  11   4  -2  860.81   21.30
 -11   4   2  882.91   22.30
  11  -4  -2  861.41   21.60
 -11  -4   2  867.01   21.50
  11   4  -1    3.30    0.60
 -11   4   1    2.20    0.60
  11  -4  -1    3.10    0.70
 -11  -4   1    3.60    0.60
  11   4   0 1897.51   48.10
 -11   4   0 1936.11   48.80
  11   4   0 1970.50   48.20
  11   4   0 2002.90   46.10
  11  -4   0 1914.11   46.40
 -11  -4   0 1940.91   46.10
  11   4   1   24.90    1.50
 -11   4  -1   26.50    1.60
  11  -4   1   21.70    1.40
 -11  -4  -1   25.10    1.20
 -11  -4  -1   24.00    1.30
  11   4   2  568.94   15.30
 -11   4  -2  578.14   15.50
  11  -4   2  576.74   14.40
 -11   4  -3    6.80    1.10
  11   4   3    5.10    0.90
  11  -4   3    4.20    0.70
 -11   4  -4  993.30   26.40
  11   4   4 1003.10   26.30
  11  -4   4 1008.80   24.40
  11   4   5  138.59    5.30
 -11   4  -5  143.39    5.30
  11  -4   5  137.89    4.30
  11   4   6   67.79    3.60
 -11   4  -6   65.09    3.50
 -11   5   6  198.78    6.20
 -11  -5   6  185.48    6.40
  11  -5  -6  198.98    6.60
 -11   5   5   15.90    1.60
  11   5  -5   12.00    1.70
  11  -5  -5   14.60    1.80
 -11  -5   5   15.30    1.70
 -11   5   4   88.69    3.30
  11   5  -4   85.79    3.40
  11  -5  -4   90.69    3.60
 -11  -5   4   89.09    3.50
 -11   5   3  108.69    3.80
  11   5  -3  105.99    3.70
 -11  -5   3  108.29    3.90
  11  -5  -3  109.39    3.90
  11   5  -2    4.10    0.80
 -11  -5   2    4.10    0.70
  11  -5  -2    2.90    0.70
  11   5  -1  386.36   10.00
 -11   5   1  390.56   10.80
  11  -5  -1  389.26   10.40
 -11  -5   1  391.46   10.20
  11   5   0  115.19    3.60
 -11   5   0  116.19    4.00
  11  -5   0  116.79    3.80
 -11  -5   0  114.69    3.50
  11   5   1  354.86    9.60
 -11   5  -1  356.86   10.10
 -11  -5  -1  350.96    8.80
  11  -5   1  347.27    9.30
 -11   5  -2 1069.09   27.50
  11   5   2 1054.59   27.10
  11  -5   2 1043.60   25.70
 -11   5  -3  542.35   14.90
  11   5   3  538.45   14.70
  11  -5   3  527.35   13.60
  11   5   4  426.46   12.30
 -11   5  -4  437.46   12.50
  11  -5   4  427.26   11.20
 -11   5  -5  124.49    4.90
  11   5   5  123.59    5.00
  11  -5   5  122.39    4.00
  11   5   6  324.87   10.30
 -11   5  -6  317.87   10.10
 -11   6   6    3.80    1.10
  11  -6  -6    3.50    1.40
 -11   6   5  102.89    4.00
 -11  -6   5  106.09    4.10
  11  -6  -5  106.19    4.20
 -11   6   4   10.10    1.40
  11  -6  -4   11.50    1.60
 -11  -6   4    8.90    1.20
 -11   6   3  185.98    5.80
  11  -6  -3  181.18    5.80
 -11  -6   3  185.78    5.80
 -11   6   2   11.10    1.30
  11  -6  -2    8.20    1.20
 -11  -6   2    9.70    1.20
 -11   6   1   52.59    2.40
 -11  -6   1   50.69    2.20
  11  -6  -1   49.40    2.30
  11   6   0   72.79    2.60
 -11   6   0   71.29    3.00
 -11  -6   0   75.69    2.60
  11  -6   0   68.59    2.80
  11   6   1   61.49    2.50
 -11   6  -1   60.99    2.80
 -11  -6  -1   60.69    2.10
  11  -6   1   62.29    2.60
 -11   6  -2   90.79    3.70
  11   6   2   93.19    3.50
  11  -6   2   87.79    3.20
  11   6   3  246.78    7.70
 -11   6  -3  247.68    7.80
  11  -6   3  250.77    7.00
  11   6   4   53.49    3.00
 -11   6  -4   55.19    2.90
  11  -6   4   53.69    2.50
 -11   6  -5  395.16   11.90
  11   6   5  401.46   11.90
  11  -6   5  389.66   10.50
 -11   7   6   36.50    2.70
 -11   7   5  204.28    6.50
 -11  -7   5  198.88    6.60
  11  -7  -5  195.08    6.60
 -11   7   4   39.60    2.30
  11  -7  -4   39.30    2.40
 -11  -7   4   38.60    2.40
 -11   7   3  383.06   10.90
  11  -7  -3  369.36   10.50
 -11  -7   3  391.06   10.60
 -11   7   2    3.90    0.80
  11  -7  -2    1.80    0.80
 -11  -7   2    3.10    0.70
 -11   7   1  861.81   23.40
  11  -7  -1  902.91   22.40
 -11  -7   1  908.61   22.00
  11   7   0    3.70    0.70
 -11   7   0    3.10    0.80
 -11  -7   0    3.50    0.70
  11  -7   0    3.90    0.80
 -11   7  -1  638.84   17.60
  11   7   1  639.04   17.00
  11  -7   1  657.63   16.60
 -11  -7  -1  657.03   15.90
 -11   7  -2   43.80    2.50
  11   7   2   41.90    2.40
  11  -7   2   43.30    2.20
 -11   7  -3  386.36   11.40
  11   7   3  374.56   11.10
  11  -7   3  389.86   10.40
  11   7   4   25.80    2.40
 -11   7  -4   28.30    2.20
  11  -7   4   27.30    1.90
 -11   7  -5   92.99    4.30
  11   7   5   99.79    4.40
  11  -7   5   94.09    3.60
 -11   8   6   51.39    3.20
 -11   8   5   49.50    2.90
  11  -8  -5   47.00    3.00
 -11   8   4   50.89    2.80
  11  -8  -4   50.99    2.90
 -11  -8   4   51.79    2.80
 -11   8   3   43.90    2.50
 -11  -8   3   43.80    2.40
  11  -8  -3   42.20    2.50
 -11   8   2  264.77    8.10
 -11  -8   2  268.27    7.60
  11  -8  -2  256.07    7.70
 -11   8   1    3.10    0.80
  11  -8  -1    3.40    0.90
 -11  -8   1    2.90    0.80
 -11   8   0  553.34   15.40
  11  -8   0  553.34   14.50
 -11  -8   0  563.24   14.10
  11   8   1    1.90    0.80
 -11   8  -1    0.40    0.70
  11  -8   1    1.00    0.70
  11   8   2  624.14   17.00
 -11   8  -2  625.94   17.50
  11  -8   2  636.94   16.20
  11   8   3   26.10    2.30
 -11   8  -3   24.30    2.10
  11  -8   3   24.60    1.90
  11   8   4  266.27    8.50
 -11   8  -4  254.47    8.50
  11  -8   4  256.57    7.60
  11   8   5   30.90    3.00
  11  -8   5   33.70    2.40
 -11   9   5   26.60    2.50
 -11   9   4   84.69    3.70
  11  -9  -4   79.79    3.80
 -11  -9   4   79.29    3.70
 -11   9   3   41.10    2.60
  11  -9  -3   43.30    2.60
 -11  -9   3   47.00    2.60
 -11   9   2    2.00    0.90
 -11  -9   2   -0.20    0.80
  11  -9  -2   -0.90    0.90
 -11   9   1   97.09    4.00
  11  -9  -1   92.29    3.70
 -11  -9   1   94.29    3.50
 -11   9   0   80.29    3.70
 -11  -9   0   84.09    3.10
  11  -9   0   85.89    3.40
 -11   9  -1   22.10    2.00
  11  -9   1   26.90    1.90
  11   9   2  262.27    8.10
 -11   9  -2  266.67    8.60
  11  -9   2  266.07    7.80
 -11   9  -3   85.89    4.00
  11   9   3   85.69    4.10
  11  -9   3   87.39    3.50
  11   9   4  209.98    7.30
  11  -9   4  206.88    6.50
 -11  10   4   40.00    3.10
 -11  10   3  201.28    6.90
 -11 -10   3  204.58    6.60
 -11  10   2   40.80    2.70
 -11 -10   2   43.10    2.50
  11 -10  -2   41.50    2.50
 -11  10   1   16.70    2.00
  11 -10  -1   18.10    1.90
 -11 -10   1   18.90    1.80
 -11  10   0   52.79    3.00
  11 -10   0   60.19    2.80
 -11  10  -1    2.80    1.00
  11 -10   1    3.90    1.00
 -11  10  -2  101.29    4.60
  11 -10   2  113.99    4.20
  11  10   3   38.20    3.00
  11  10   4   98.99    4.80
 -11 -11   2   -0.50    1.20
 -11  11   1  270.87    9.10
 -11  11   0   10.10    2.00
  12   0  -6  290.07    8.60
  12   0  -5   -0.40    0.80
  12   0  -4  355.46    9.80
  12   0  -3    0.30    0.60
  12   0  -2 1569.94   37.80
  12   0  -1    0.90    0.50
 -12   0   1    1.10    0.40
 -12   0  -1    0.40    0.40
  12   0   1    0.00    0.40
 -12   0  -2  217.98    6.10
  12   0   2  234.48    6.00
 -12   0  -2  236.78    6.80
  12   0   3    2.00    0.50
 -12   0  -3    2.10    0.60
 -12   0  -4   25.80    1.80
  12   0   5   -1.20    1.00
 -12   0  -5   -0.30    0.70
  12   0   6   36.10    2.70
 -12   0  -6   35.40    2.40
  12   1  -6    2.00    1.10
  12  -1  -6    1.70    1.10
 -12  -1   6    2.20    1.00
  12   1  -5  417.56   11.30
  12  -1  -5  406.76   11.30
  12   1  -4   22.60    1.60
 -12   1   4   21.70    1.20
  12  -1  -4   23.40    1.70
  12   1  -3  343.17    9.50
 -12   1   3  363.66    9.20
  12  -1  -3  345.77    9.50
  12   1  -2  287.37    7.60
 -12   1   2  269.17    7.30
  12  -1  -2  252.77    7.50
  12  -1  -2  283.47    7.60
  12   1  -1  477.35   12.10
  12   1  -1  485.75   12.20
 -12   1   1  481.35   12.40
 -12  -1   1  475.25   12.10
  12  -1  -1  453.15   12.50
  12  -1  -1  484.65   12.20
  12   1   0  878.81   21.10
  12   1   0  846.42   21.90
 -12   1   0  866.61   22.10
  12  -1   0  855.11   21.20
 -12  -1   0  889.81   21.90
 -12   1  -1  177.58    5.30
  12   1   1  179.98    4.80
  12  -1   1  178.88    5.00
 -12  -1  -1  174.88    4.90
 -12  -1  -1  178.08    5.20
 -12   1  -2  946.41   24.10
  12   1   2  976.00   22.30
 -12  -1  -2  941.41   24.00
  12  -1   2  928.51   22.50
 -12  -1  -2  872.21   22.30
 -12   1  -3  141.89    4.80
 -12  -1  -3  140.79    4.70
  12  -1   3  142.29    4.00
 -12   1  -4 1009.60   26.50
  12   1   4 1018.20   26.60
 -12  -1  -4 1008.50   26.40
 -12   1  -5   80.59    3.60
  12   1   5   86.29    3.90
 -12  -1  -5   85.29    3.60
  12   1   6  322.47   10.20
 -12   1  -6  326.67   10.10
 -12  -1  -6  319.27    9.90
  12   2  -6   51.69    2.80
  12  -2  -6   49.60    2.80
 -12  -2   6   54.19    2.90
  12  -2  -5    5.60    1.10
 -12  -2   5    6.00    1.10
 -12   2   4   10.60    1.10
  12   2  -4    8.80    1.30
  12  -2  -4    6.80    1.00
  12   2  -3   74.69    2.90
 -12   2   3   77.89    2.60
  12  -2  -3   69.69    2.90
  12   2  -1  118.59    3.70
 -12   2   1  122.09    3.80
  12  -2  -1  119.39    3.80
  12   2   0   74.29    2.50
  12   2   0   73.09    2.50
  12   2   0   75.59    2.50
 -12   2   0   74.59    2.70
  12  -2   0   72.59    2.60
 -12  -2   0   67.49    2.40
  12   2   1  476.15   11.70
  12   2   1  475.55   12.60
 -12   2  -1  474.05   12.80
 -12  -2  -1  472.75   11.80
 -12  -2  -1  483.65   12.50
  12  -2   1  473.65   12.00
 -12   2  -2   27.20    1.60
  12   2   2   28.20    1.70
  12   2   2   27.20    1.20
 -12  -2  -2   26.90    1.50
  12  -2   2   28.60    1.40
  12   2   3 1390.46   35.50
 -12   2  -3 1382.26   35.50
 -12  -2  -3 1383.26   35.30
  12  -2   3 1393.96   33.10
 -12   2  -4    8.90    1.30
  12   2   4   12.50    1.60
 -12  -2  -4   11.50    1.30
  12  -2   4    9.50    1.10
 -12   2  -5  792.42   21.40
  12   2   5  792.52   21.40
 -12  -2  -5  781.62   21.20
  12   2   6    6.50    1.30
 -12   2  -6    6.80    1.10
 -12  -2  -6   10.20    1.80
  12   3  -6   10.30    1.90
 -12  -3   6   11.10    1.80
  12  -3  -6   13.40    2.00
  12   3  -5  395.66   11.10
 -12  -3   5  405.16   11.30
  12  -3  -5  403.36   11.20
 -12   3   4    7.30    1.10
  12   3  -4   11.30    1.40
 -12  -3   4    7.60    1.10
 -12   3   3 1050.49   26.30
  12   3  -3 1003.90   25.50
 -12  -3   3 1016.70   25.70
  12  -3  -3 1068.59   25.70
  12   3  -2  339.47    9.10
 -12   3   2  351.26    9.30
  12  -3  -2  339.77    9.20
 -12  -3   2  326.97    9.20
  12   3  -1  345.07    9.30
 -12   3   1  375.16    9.80
  12  -3  -1  355.56    9.50
 -12  -3   1  348.37    9.40
  12   3   0  372.76    9.60
  12   3   0  380.46    9.90
  12   3   0  379.46    9.90
 -12   3   0  379.56   10.30
  12  -3   0  375.26    9.90
 -12  -3   0  373.46    9.70
  12   3   1   29.00    1.60
 -12   3  -1   24.80    1.60
  12   3   1   28.60    1.30
 -12  -3  -1   29.20    1.40
  12  -3   1   29.30    1.50
 -12  -3  -1   25.60    1.40
 -12  -3  -1   28.80    1.30
 -12   3  -2 1059.99   27.60
  12   3   2 1069.69   27.40
  12  -3   2 1069.29   25.90
 -12  -3  -2 1078.59   27.30
 -12   3  -3   46.80    2.40
  12   3   3   46.60    2.50
  12  -3   3   49.10    2.00
 -12  -3  -3   49.50    2.40
 -12   3  -4  583.24   16.00
  12   3   4  576.64   16.00
  12  -3   4  582.74   14.40
 -12  -3  -4  577.44   15.80
  12   3   5   60.09    3.20
 -12   3  -5   58.89    3.00
 -12  -3  -5   61.69    3.00
  12   3   6  363.46   11.10
 -12   3  -6  353.76   11.00
 -12  -3  -6  357.86   10.90
  12   4  -6  247.78    7.70
 -12  -4   6  252.57    7.90
  12  -4  -6  256.87    7.90
 -12   4   5   40.90    2.10
  12   4  -5   39.70    2.40
  12  -4  -5   44.40    2.50
 -12  -4   5   44.00    2.40
 -12   4   4  519.85   13.70
  12   4  -4  505.75   13.60
  12  -4  -4  508.15   13.70
 -12  -4   4  520.55   13.80
 -12   4   3   21.90    1.50
  12   4  -3   23.30    1.70
 -12  -4   3   21.90    1.60
  12  -4  -3   24.20    1.70
  12   4  -2  527.95   13.40
 -12   4   2  548.85   14.00
 -12  -4   2  525.05   13.60
  12  -4  -2  497.35   13.60
  12   4  -1   97.69    3.30
 -12   4   1  101.49    3.50
  12  -4  -1  100.39    3.50
 -12  -4   1   97.99    3.30
  12   4   0  256.27    6.80
 -12   4   0  257.57    7.50
  12   4   0  253.77    7.00
  12  -4   0  260.97    7.20
 -12  -4   0  255.57    6.90
 -12   4  -1  121.39    4.20
  12   4   1  118.29    3.40
  12   4   1  119.29    3.90
  12  -4   1  120.79    3.90
 -12  -4  -1  119.59    3.50
  12   4   2  261.57    7.70
 -12   4  -2  268.47    7.90
  12  -4   2  265.47    7.20
 -12   4  -3   32.20    2.00
  12   4   3   31.50    2.10
  12  -4   3   31.50    1.70
  12   4   4   27.80    2.20
 -12   4  -4   25.40    1.90
  12  -4   4   24.00    1.50
 -12   4  -5   59.29    3.10
  12   4   5   56.99    3.20
 -12   4  -6   19.00    2.20
  12   4   6   21.50    2.50
  12  -5  -6   44.70    3.00
 -12   5   5  200.48    6.30
  12   5  -5  198.18    6.40
  12  -5  -5  206.98    6.60
 -12  -5   5  201.38    6.60
  12   5  -4   28.70    1.90
 -12   5   4   23.90    1.70
  12  -5  -4   23.80    2.00
 -12  -5   4   25.90    1.90
 -12   5   3  420.26   11.50
  12   5  -3  412.36   11.20
 -12  -5   3  426.16   11.40
  12  -5  -3  413.26   11.30
 -12   5   2  151.88    5.00
  12   5  -2  154.48    4.80
 -12  -5   2  155.48    4.90
  12  -5  -2  153.98    5.00
 -12   5   1    5.70    0.90
  12   5  -1    8.40    1.10
  12  -5  -1    6.00    1.10
 -12  -5   1    7.90    1.00
 -12   5   0  512.25   13.80
  12   5   0  475.45   13.00
 -12  -5   0  512.55   12.70
  12  -5   0  516.25   13.10
  12   5   1  128.29    4.10
 -12   5  -1  129.19    4.50
 -12  -5  -1  126.39    3.60
  12  -5   1  122.89    4.10
 -12   5  -2  510.85   14.20
  12   5   2  512.85   13.80
  12  -5   2  511.55   13.10
  12   5   3    4.20    0.90
 -12   5  -3    4.40    0.80
  12  -5   3    4.60    0.80
 -12   5  -4  692.43   18.50
  12   5   4  687.03   18.30
  12  -5   4  623.04   16.70
 -12   5  -5    4.80    1.00
  12   5   5    5.80    1.40
  12   5   6  180.18    6.80
 -12   6   5    2.40    0.90
 -12  -6   5    0.80    1.00
  12  -6  -5    2.40    1.20
 -12   6   4   38.10    2.20
 -12  -6   4   36.60    2.30
  12  -6  -4   37.60    2.30
 -12   6   3  239.68    7.20
  12  -6  -3  238.58    7.20
 -12  -6   3  237.38    7.10
 -12   6   2  182.38    5.70
 -12  -6   2  172.38    5.50
  12  -6  -2  180.38    5.70
 -12   6   1   91.79    3.50
  12  -6  -1   87.89    3.40
 -12  -6   1   89.49    3.20
  12   6   0   15.10    1.20
 -12   6   0   14.20    1.50
  12  -6   0   14.80    1.40
 -12  -6   0   15.30    1.20
 -12   6  -1  755.72   20.20
  12   6   1  757.02   19.60
 -12  -6  -1  754.92   18.40
  12  -6   1  752.42   19.00
 -12   6  -2   12.70    1.50
  12   6   2   15.50    1.70
  12  -6   2   13.80    1.50
 -12   6  -3  522.95   14.60
  12   6   3  510.55   14.30
  12  -6   3  509.95   13.30
 -12   6  -4   14.20    1.80
  12   6   4   11.60    2.00
  12   6   5  545.55   15.40
 -12   6  -5  531.45   15.40
  12  -6   5  527.55   13.80
 -12   7   5  193.08    6.30
 -12  -7   5  185.08    6.40
  12  -7  -5  184.98    6.40
 -12   7   4    8.40    1.60
  12  -7  -4    8.10    1.20
 -12  -7   4   12.50    1.70
 -12   7   3  501.85   13.90
  12  -7  -3  491.75   13.50
 -12  -7   3  509.15   13.40
 -12   7   2   77.49    3.30
 -12  -7   2   77.79    3.20
  12  -7  -2   77.39    3.30
 -12   7   1  419.16   11.70
 -12  -7   1  414.96   10.90
  12  -7  -1  402.06   11.20
 -12   7   0   27.60    1.90
 -12  -7   0   28.10    1.60
  12  -7   0   27.20    1.90
 -12   7  -1  106.99    4.20
  12   7   1  103.19    3.70
  12  -7   1  100.79    3.70
  12   7   2  277.07    8.20
 -12   7  -2  271.87    8.50
  12  -7   2  274.57    7.80
 -12   7  -3    2.40    0.80
  12   7   3    0.40    1.10
  12  -7   3    2.90    0.90
  12   7   4  135.69    5.20
 -12   7  -4  136.19    5.30
  12  -7   4  134.09    4.60
  12   7   5    0.90    1.40
 -12   8   5   -0.30    1.10
 -12   8   4  420.36   12.10
 -12  -8   4  420.16   11.80
  12  -8  -4  417.16   11.80
 -12   8   3   22.70    2.00
 -12  -8   3   23.10    2.00
  12  -8  -3   21.50    2.00
 -12   8   2  313.17    9.30
  12  -8  -2  300.67    8.90
 -12  -8   2  313.17    8.80
 -12   8   1   59.39    2.90
  12  -8  -1   54.09    2.70
 -12  -8   1   53.49    2.50
 -12   8   0  172.08    5.90
 -12  -8   0  174.28    5.20
  12  -8   0  171.58    5.60
 -12   8  -1   92.29    4.00
  12  -8   1   96.09    3.70
 -12   8  -2  115.39    4.60
  12   8   2  118.69    4.50
  12  -8   2  118.59    4.20
  12   8   3  210.08    7.00
 -12   8  -3  205.38    7.10
  12  -8   3  208.28    6.40
  12   8   4    2.20    1.40
 -12   8  -4    1.90    1.10
  12  -8   4    3.00    1.10
  12   8   5  115.79    5.20
  12  -8   5  108.39    4.30
 -12   9   4    5.30    1.30
 -12   9   3   56.49    3.00
  12  -9  -3   51.69    2.90
 -12  -9   3   54.29    2.90
 -12   9   2  142.49    5.20
  12  -9  -2  138.69    5.00
 -12  -9   2  139.39    4.80
 -12   9   1    8.40    1.60
  12  -9  -1    8.70    1.20
 -12  -9   1   10.50    1.50
 -12   9   0  159.28    5.80
  12  -9   0  167.68    5.50
 -12   9  -1   64.69    3.30
  12  -9   1   66.09    3.00
 -12   9  -2  361.36   11.20
  12  -9   2  378.66   10.40
  12   9   3    8.90    1.60
 -12   9  -3    9.90    1.90
  12  -9   3   13.60    1.90
  12   9   4  360.76   11.10
 -12  10   3  137.59    5.30
 -12 -10   3  135.69    5.00
 -12  10   2   87.79    3.90
 -12 -10   2   82.39    3.60
 -12  10   1   79.99    3.80
  12 -10  -1   83.99    3.90
 -12  10   0   32.60    2.40
  12 -10   0   35.60    2.30
 -12  10  -1  295.47    9.70
  12 -10   1  319.77    9.40
 -12 -11   2    9.60    1.60
  13   0  -6   41.40    2.70
  13   0  -5   -0.10    0.90
  13   0  -4    5.80    1.00
  13   0  -3    0.00    0.70
  13   0  -2   26.20    1.70
 -13   0   1    0.20    0.40
  13   0  -1    0.60    0.60
  13   0  -1    1.50    0.60
 -13   0   0   11.50    1.00
  13   0   0   12.30    1.10
 -13   0  -1   -0.20    0.40
  13   0   1    0.80    0.50
 -13   0  -2  578.04   15.30
  13   0   2  572.14   14.10
 -13   0  -3    0.10    0.60
  13   0   3    0.00    0.50
 -13   0  -4  334.37    9.80
 -13   0  -5   -0.70    0.80
  13   0   5   -1.00    1.10
  13   0   6  559.14   16.20
 -13   0  -6  559.34   15.90
  13   1  -6  103.89    4.10
 -13  -1   6  103.89    4.30
  13  -1  -6  103.99    4.20
  13   1  -5   46.00    2.50
  13  -1  -5   41.60    2.50
  13   1  -4  344.27    9.70
  13  -1  -4  352.06    9.70
  13   1  -3   39.70    2.10
 -13   1   3   39.80    1.70
  13  -1  -3   42.10    2.20
  13   1  -2 1046.10   25.90
 -13   1   2 1084.49   26.50
  13  -1  -2 1039.20   25.90
 -13   1   1  118.49    3.50
  13   1  -1  111.29    3.70
 -13  -1   1  114.59    3.30
  13  -1  -1  110.29    3.70
  13   1   0  988.40   25.80
 -13   1   0 1016.30   26.00
  13   1   0 1039.20   24.80
  13  -1   0 1029.00   24.90
 -13  -1   0 1046.60   25.80
 -13   1  -1   10.30    1.00
  13   1   1   10.30    1.00
  13  -1   1   11.40    1.00
 -13  -1  -1   13.30    1.00
  13   1   2  517.85   12.50
 -13   1  -2  507.75   13.80
 -13  -1  -2  504.95   13.60
  13  -1   2  506.45   12.70
 -13   1  -3   78.89    3.20
 -13  -1  -3   78.99    3.20
  13  -1   3   80.69    2.60
 -13   1  -4  113.09    4.30
  13   1   4  112.49    4.40
 -13  -1  -4  111.99    4.20
  13   1   5  246.18    8.10
 -13   1  -5  244.78    7.90
 -13  -1  -5  247.38    7.90
 -13   1  -6   40.70    2.80
  13   1   6   46.80    3.10
  13  -1   6   40.70    3.10
 -13  -1  -6   42.20    2.70
  13   2  -6    4.00    1.20
 -13  -2   6    6.40    1.20
  13  -2  -6    3.90    1.30
  13   2  -5  723.73   19.00
 -13  -2   5  736.73   19.30
  13  -2  -5  752.42   19.20
  13   2  -4   15.00    1.60
  13  -2  -4   19.30    1.70
  13   2  -3  689.03   17.80
 -13   2   3  714.63   18.00
  13  -2  -3  702.53   17.90
 -13   2   2   19.50    1.20
  13   2  -2   19.30    1.40
  13  -2  -2   17.20    1.50
 -13   2   1 1779.52   44.00
  13   2  -1 1729.23   42.00
  13  -2  -1 1766.62   42.20
  13   2   0    9.40    1.00
  13   2   0    9.90    1.00
 -13   2   0    9.30    1.00
  13  -2   0    9.80    1.10
 -13  -2   0    8.80    0.80
 -13   2  -1 1286.57   32.70
  13   2   1 1298.97   30.70
  13   2   1 1293.87   32.50
 -13  -2  -1 1258.27   30.80
 -13  -2  -1 1296.77   32.40
  13  -2   1 1272.57   30.90
 -13   2  -2   13.30    1.20
  13   2   2   10.80    0.90
  13   2   2   11.90    1.40
  13  -2   2   11.40    1.10
 -13  -2  -2   12.70    1.20
 -13   2  -3  704.73   19.80
  13   2   3  762.22   19.80
  13  -2   3  763.22   18.30
 -13  -2  -3  753.02   19.70
  13   2   4   55.19    2.90
 -13   2  -4   52.29    2.70
 -13  -2  -4   53.39    2.60
  13   2   5  158.58    5.80
 -13   2  -5  153.78    5.60
 -13  -2  -5  148.99    5.50
 -13   2  -6    3.10    1.10
  13   2   6    0.80    1.30
 -13  -2  -6    2.70    1.10
  13   3  -6   75.59    3.50
 -13  -3   6   76.59    3.60
  13  -3  -6   76.79    3.60
  13   3  -5   15.20    1.70
 -13  -3   5   14.20    1.70
  13  -3  -5   14.00    1.90
  13   3  -4  316.37    9.10
 -13   3   4  319.37    8.80
  13  -3  -4  323.67    9.20
 -13  -3   4  329.97    9.30
  13   3  -3   77.59    3.10
 -13   3   3   80.39    2.90
 -13  -3   3   78.59    3.20
  13  -3  -3   79.79    3.20
 -13   3   2  459.05   12.00
  13   3  -2  441.46   11.70
  13  -3  -2  445.86   11.80
 -13  -3   2  447.06   11.90
 -13   3   1    3.40    0.70
  13   3  -1    3.40    0.70
  13  -3  -1    3.40    0.70
 -13  -3   1    3.60    0.70
 -13   3   0  936.61   23.60
  13   3   0  914.31   22.20
  13   3   0  892.11   23.10
 -13  -3   0  919.31   22.40
  13  -3   0  917.91   22.50
  13   3   1  153.78    4.80
 -13   3  -1  162.98    5.10
  13   3   1  155.78    4.40
 -13  -3  -1  162.48    4.80
 -13  -3  -1  153.98    4.40
  13  -3   1  159.58    4.80
  13   3   2  200.98    6.20
 -13   3  -2  203.98    6.40
  13  -3   2  205.58    5.80
 -13  -3  -2  206.28    6.10
  13   3   3  463.05   13.20
 -13   3  -3  477.65   13.30
 -13  -3  -3  481.75   13.10
  13  -3   3  491.45   12.20
  13   3   4   96.79    4.00
 -13   3  -4  101.49    4.00
  13  -3   4   94.19    3.20
 -13  -3  -4   96.09    3.80
 -13   3  -5  278.57    8.90
  13   3   5  281.37    8.90
 -13  -3  -5  277.17    8.70
  13   3   6   29.30    2.80
 -13  -3  -6   30.90    2.50
  13   4  -5   42.50    2.60
 -13  -4   5   46.90    2.60
  13  -4  -5   41.50    2.70
 -13   4   4   34.30    1.90
  13   4  -4   32.50    2.20
 -13  -4   4   36.20    2.20
  13  -4  -4   33.90    2.20
 -13   4   3   -0.80    0.60
  13   4  -3   -0.20    0.80
  13  -4  -3    0.20    0.70
 -13  -4   3    0.00    0.70
  13   4  -2    9.50    1.30
  13  -4  -2   10.00    1.40
 -13  -4   2    9.60    1.20
  13   4  -1   24.60    1.50
 -13   4   1   24.40    1.60
  13  -4  -1   25.40    1.60
 -13  -4   1   24.10    1.50
  13   4   0   23.50    1.40
 -13   4   0   23.40    1.60
  13   4   0   23.00    1.40
 -13  -4   0   22.20    1.40
  13  -4   0   23.00    1.60
 -13   4  -1    0.40    0.60
  13   4   1    1.30    0.70
  13   4   1    0.90    0.50
  13  -4   1    1.10    0.70
 -13  -4  -1    0.60    0.50
  13   4   2  258.47    7.50
 -13   4  -2  241.28    7.60
  13  -4   2  254.47    7.00
 -13   4  -3   26.80    1.90
  13   4   3   20.70    2.00
  13  -4   3   26.60    1.70
  13   4   4  322.07    9.60
 -13   4  -4  316.17    9.60
  13  -4   4  311.97    8.40
  13   4   5   21.00    2.40
 -13   4  -5   22.80    2.10
  13   5  -5   14.70    1.90
 -13  -5   5   11.10    1.90
  13  -5  -5   17.60    2.00
 -13   5   4  363.76   10.10
  13   5  -4  353.26   10.10
  13  -5  -4  360.76   10.20
 -13  -5   4  362.66   10.30
  13   5  -3    2.80    0.90
  13  -5  -3    1.40    0.80
 -13  -5   3    0.20    0.80
 -13   5   2  676.93   17.30
  13   5  -2  625.54   16.50
 -13  -5   2  644.44   16.70
  13  -5  -2  659.23   16.80
  13   5  -1  103.89    3.50
 -13   5   1  101.79    3.70
  13  -5  -1  105.09    3.80
 -13  -5   1  103.69    3.50
 -13   5   0  884.71   22.90
  13  -5   0  875.01   21.70
 -13  -5   0  857.41   21.30
  13   5   1   79.99    3.00
 -13   5  -1   78.59    3.30
 -13  -5  -1   78.09    2.70
  13  -5   1   79.69    3.10
  13   5   2  426.56   11.70
 -13   5  -2  433.26   12.00
  13  -5   2  402.76   11.00
 -13   5  -3   25.90    1.90
  13   5   3   24.70    2.10
  13  -5   3   23.40    1.70
 -13   5  -4  170.68    6.20
  13   5   4  184.08    6.20
  13  -5   4  176.08    5.40
  13   5   5  102.99    4.70
 -13   5  -5  108.49    4.60
 -13   6   5   87.59    3.60
  13  -6  -5   82.69    3.90
 -13  -6   5   87.29    3.90
 -13   6   4   16.60    1.80
 -13  -6   4   17.10    1.90
  13  -6  -4   16.30    2.00
 -13   6   3  209.38    6.70
  13  -6  -3  217.88    6.80
 -13  -6   3  224.38    6.80
 -13   6   2    4.80    1.00
  13  -6  -2    5.00    0.90
 -13  -6   2    5.10    0.90
 -13   6   1  848.02   23.30
  13  -6  -1  919.51   22.40
 -13  -6   1  905.21   22.10
  13  -6   0    8.00    1.40
 -13  -6   0    9.20    1.20
  13   6   1  513.25   13.70
 -13   6  -1  515.65   14.30
  13  -6   1  515.25   13.50
  13   6   2    2.80    0.90
  13  -6   2    3.40    0.90
 -13   6  -3  297.07    9.10
  13   6   3  294.77    8.90
  13  -6   3  288.37    8.20
 -13   6  -4   96.19    4.20
  13   6   4   93.59    4.20
  13  -6   4   93.79    3.50
  13   6   5  113.49    5.00
 -13   7   5   53.69    3.00
 -13   7   4  126.09    4.80
 -13  -7   4  132.49    4.80
  13  -7  -4  127.49    4.80
 -13   7   3   18.30    1.80
  13  -7  -3   21.20    2.00
 -13  -7   3   20.40    1.90
 -13   7   2   21.50    1.90
  13  -7  -2   19.50    1.80
 -13  -7   2   21.50    1.80
 -13   7   1    9.50    1.40
 -13  -7   1   10.20    1.40
  13  -7  -1    8.60    1.40
 -13   7   0  271.27    8.50
  13  -7   0  278.67    8.00
 -13  -7   0  275.87    7.50
 -13   7  -1  109.99    4.40
  13  -7   1  112.29    4.00
  13   7   2   28.90    2.20
 -13   7  -2   28.70    2.20
  13  -7   2   28.20    2.00
 -13   7  -3  306.17    9.50
  13   7   3  303.27    9.30
  13  -7   3  306.57    8.60
  13   7   4  131.49    5.20
 -13   7  -4  132.09    5.20
  13  -7   4  127.89    4.50
  13   7   5  283.47    9.30
 -13   8   5   51.49    3.20
 -13   8   4   34.00    2.60
 -13  -8   4   40.20    2.70
 -13   8   3   33.20    2.40
  13  -8  -3   28.30    2.30
 -13  -8   3   30.70    2.30
 -13   8   2   14.70    1.80
  13  -8  -2   10.40    1.80
 -13  -8   2   12.40    1.80
 -13   8   1   38.20    2.50
 -13  -8   1   40.60    2.30
  13  -8  -1   41.30    2.40
 -13   8   0    0.90    0.90
  13  -8   0   -1.00    0.90
 -13   8  -1   49.80    2.90
  13  -8   1   48.40    2.60
 -13   8  -2  118.59    4.70
  13  -8   2  117.39    4.30
  13   8   3   33.90    2.80
 -13   8  -3   34.60    2.50
  13  -8   3   39.50    2.30
  13   8   4  127.89    5.30
  13  -8   4  117.39    4.50
 -13   9   4  325.67   10.00
 -13   9   3    1.00    1.10
 -13  -9   3    1.50    1.20
 -13   9   2  296.27    8.90
 -13  -9   2  275.27    8.20
  13  -9  -2  263.67    8.50
 -13   9   1   29.10    2.40
  13  -9  -1   33.70    2.30
 -13   9   0  640.64   17.70
  13  -9   0  632.84   16.80
 -13   9  -1    2.20    1.10
  13  -9   1    2.90    1.10
 -13   9  -2  280.87    9.00
  13  -9   2  281.27    8.40
 -13  10   2   18.20    2.30
 -13 -10   2   15.60    2.20
 -13  10   1  270.47    8.80
 -13  10   0   -0.50    1.10
  14   0  -5    0.50    1.00
  14   0  -4    0.60    0.90
  14   0  -3   -1.40    0.80
  14   0  -2  187.68    5.70
  14   0  -1    0.00    0.60
 -14   0   1   -0.70    0.40
 -14   0   0  156.18    4.70
  14   0   0  158.08    4.70
 -14   0  -1    2.10    0.60
  14   0   1    0.60    0.60
 -14   0  -2  895.61   23.30
  14   0   2  902.11   21.70
 -14   0  -3    0.80    0.70
 -14   0  -4  956.80   25.30
 -14   0  -5    0.20    0.90
  14   0   5    1.30    1.20
  14   1  -5    3.20    1.10
  14  -1  -5    3.10    1.10
  14   1  -4  195.98    6.20
  14  -1  -4  199.98    6.30
  14   1  -3  112.89    4.10
  14  -1  -3  119.09    4.20
 -14   1   2  293.37    7.90
  14   1  -2  301.87    8.20
  14  -1  -2  283.87    8.10
  14   1  -1  643.14   16.10
 -14   1   1  639.24   16.50
 -14  -1   1  643.54   16.20
  14  -1  -1  640.04   16.20
  14   1   0   33.30    1.60
 -14   1   0   31.80    1.60
 -14  -1   0   33.40    1.50
  14  -1   0   33.40    1.80
  14   1   1  550.04   13.60
 -14   1  -1  548.15   14.60
  14  -1   1  540.95   13.70
 -14  -1  -1  553.14   14.40
 -14   1  -2   20.40    1.50
  14   1   2   21.60    1.20
 -14  -1  -2   19.30    1.50
  14  -1   2   20.20    1.30
 -14   1  -3  511.15   14.10
  14   1   3  517.75   14.20
  14  -1   3  509.45   12.90
 -14  -1  -3  503.15   14.00
  14   1   4   41.30    2.60
 -14   1  -4   46.20    2.50
 -14  -1  -4   40.80    2.40
  14   1   5  267.27    8.60
 -14   1  -5  262.87    8.50
 -14  -1  -5  270.07    8.50
  14   2  -5   38.20    2.40
  14  -2  -5   39.10    2.40
 -14  -2   5   38.00    2.50
  14   2  -4    1.20    0.90
  14  -2  -4    1.90    0.90
  14   2  -3  437.26   12.00
 -14   2   3  477.25   11.90
  14  -2  -3  437.36   12.00
 -14   2   2   52.19    2.20
  14   2  -2   52.89    2.40
  14  -2  -2   57.39    2.50
  14   2  -1   69.59    2.60
 -14   2   1   66.29    2.50
  14  -2  -1   68.99    2.80
  14   2   0  164.08    4.90
 -14   2   0  169.88    5.20
  14   2   0  165.68    4.80
  14  -2   0  166.38    5.00
 -14  -2   0  169.78    4.80
  14   2   1  217.58    5.80
 -14   2  -1  212.98    6.50
  14   2   1  216.08    6.30
 -14  -2  -1  215.38    6.20
  14  -2   1  216.48    6.10
 -14   2  -2   74.09    3.00
  14   2   2   73.09    3.00
 -14  -2  -2   75.79    2.90
  14  -2   2   79.09    2.70
 -14   2  -3   11.40    1.40
  14   2   3   16.90    1.70
 -14  -2  -3   14.00    1.40
  14  -2   3   13.80    1.30
  14   2   4    0.60    1.00
 -14  -2  -4    0.50    0.80
 -14   2  -5   38.90    2.60
  14   2   5   40.00    2.90
 -14  -2  -5   37.60    2.50
  14   3  -5    1.20    1.10
  14  -3  -5   -1.50    1.10
 -14  -3   5    1.60    1.00
  14   3  -4   30.30    2.10
 -14  -3   4   29.50    2.10
  14  -3  -4   28.80    2.10
  14   3  -3  331.07    9.20
 -14   3   3  339.47    9.10
  14  -3  -3  331.17    9.40
 -14  -3   3  324.27    9.40
 -14   3   2  167.78    5.00
  14   3  -2  155.38    5.00
  14  -3  -2  160.78    5.20
 -14  -3   2  160.68    5.20
 -14   3   1  564.34   14.70
  14   3  -1  547.15   14.00
  14  -3  -1  544.85   14.20
 -14  -3   1  554.84   14.20
  14   3   0   28.60    1.60
 -14   3   0   32.40    1.80
  14   3   0   30.40    1.50
 -14  -3   0   26.20    1.60
  14  -3   0   32.20    1.80
 -14   3  -1 1083.99   27.90
  14   3   1 1076.79   26.00
  14   3   1 1069.19   27.60
 -14  -3  -1 1073.39   26.10
 -14  -3  -1 1112.99   27.50
  14  -3   1 1091.59   26.50
  14   3   2    5.50    0.90
 -14   3  -2    5.40    0.90
  14  -3   2    8.30    1.20
 -14  -3  -2    5.80    0.90
  14   3   3  665.93   17.90
 -14   3  -3  652.03   17.90
 -14  -3  -3  665.83   17.70
  14  -3   3  668.43   16.50
 -14   3  -4   28.20    2.00
  14   3   4   28.40    2.30
 -14  -3  -4   23.40    2.00
 -14   3  -5  389.56   11.60
  14   3   5  384.56   11.60
 -14  -3  -5  379.66   11.40
  14   4  -5   56.09    3.10
  14  -4  -5   61.59    3.10
 -14  -4   5   58.69    3.10
  14   4  -4   -1.20    1.00
  14  -4  -4    0.90    1.00
 -14  -4   4    1.10    0.90
 -14   4   3   15.70    1.50
  14   4  -3   15.10    1.60
  14  -4  -3   16.80    1.70
 -14  -4   3   14.90    1.60
 -14   4   2  206.38    6.10
  14   4  -2  191.28    5.90
 -14  -4   2  193.08    6.00
  14  -4  -2  203.48    6.10
  14   4  -1    3.80    0.80
 -14   4   1    3.70    0.80
  14  -4  -1    5.00    0.90
 -14  -4   1    3.50    0.70
  14   4   0 1072.79   26.10
 -14   4   0 1088.29   27.80
 -14  -4   0 1069.19   26.20
  14  -4   0 1086.39   26.60
 -14   4  -1   50.09    2.50
  14   4   1   49.99    2.30
  14   4   1   52.79    1.90
  14  -4   1   51.59    2.40
 -14   4  -2  638.24   17.30
  14   4   2  633.24   17.00
  14  -4   2  648.04   16.20
 -14   4  -3   67.49    3.10
  14   4   3   61.49    3.00
  14  -4   3   60.59    2.60
 -14   4  -4  717.43   19.90
  14   4   4  740.23   19.80
 -14   4  -5   11.60    1.90
  14   4   5    6.90    1.50
  14   5  -5   18.30    2.10
 -14  -5   5   14.70    2.10
  14  -5  -5   20.10    2.30
  14   5  -4  385.66   11.00
 -14   5   4  402.96   11.10
  14  -5  -4  395.96   11.20
 -14  -5   4  400.96   11.20
  14   5  -3  101.09    3.80
 -14   5   3  103.19    3.80
  14  -5  -3  101.59    3.90
 -14  -5   3  102.69    4.00
  14   5  -2  403.86   10.80
 -14   5   2  406.26   11.30
  14  -5  -2  403.46   11.10
 -14  -5   2  407.46   11.00
 -14   5   1  213.98    6.50
  14   5  -1  199.08    5.90
  14  -5  -1  204.58    6.20
 -14  -5   1  198.38    6.00
 -14   5   0   17.20    1.60
  14  -5   0   17.30    1.60
 -14  -5   0   16.20    1.40
 -14   5  -1  349.17   10.00
  14  -5   1  340.07    9.40
 -14   5  -2   54.09    2.70
  14   5   2   55.59    2.70
  14  -5   2   55.89    2.50
  14   5   3  214.58    6.80
 -14   5  -3  202.38    6.90
  14  -5   3  211.98    6.20
 -14   5  -4    8.30    1.20
  14   5   4    8.50    1.50
  14  -5   4   12.30    1.70
  14   5   5  188.88    6.90
 -14   6   4   87.59    3.70
 -14  -6   4   87.79    3.80
  14  -6  -4   90.89    3.80
 -14   6   3  197.78    6.40
 -14  -6   3  199.68    6.40
  14  -6  -3  198.48    6.30
 -14   6   2  115.79    4.30
  14  -6  -2  116.09    4.30
 -14  -6   2  114.99    4.10
 -14   6   1  167.78    5.70
  14  -6  -1  169.38    5.50
 -14  -6   1  170.68    5.20
 -14   6   0   46.40    2.60
 -14  -6   0   45.20    2.20
  14  -6   0   49.40    2.40
 -14   6  -1  116.29    4.50
  14  -6   1  122.89    4.20
 -14   6  -2  255.17    8.10
  14   6   2  259.87    7.80
  14  -6   2  253.07    7.40
  14   6   3   11.00    2.10
 -14   6  -3    9.80    1.70
  14  -6   3   13.10    1.70
 -14   6  -4   43.20    2.80
  14   6   4   44.40    3.10
  14  -6   4   44.60    2.50
  14   6   5   63.59    3.90
 -14   7   4   58.09    3.10
 -14  -7   4   58.09    3.20
 -14   7   3   82.79    3.60
  14  -7  -3   79.99    3.60
 -14  -7   3   86.49    3.60
 -14   7   2   89.69    3.80
  14  -7  -2   90.19    3.70
 -14  -7   2   85.49    3.60
 -14   7   1  535.15   14.90
  14  -7  -1  542.05   14.30
 -14  -7   1  531.85   13.90
 -14   7   0    2.10    0.90
  14  -7   0    1.00    0.90
 -14   7  -1  619.74   17.20
  14  -7   1  626.84   16.20
 -14   7  -2   31.60    2.20
  14  -7   2   25.00    2.10
 -14   7  -3  501.25   14.70
  14   7   3  521.15   14.70
  14  -7   3  516.85   13.60
  14   7   4    2.10    1.50
  14  -7   4    0.60    1.20
 -14   8   4  129.89    5.00
 -14   8   3    8.50    1.30
 -14  -8   3    7.60    1.30
 -14   8   2  226.18    7.30
 -14  -8   2  225.98    6.80
  14  -8  -2  209.38    6.90
 -14   8   1   12.00    1.90
  14  -8  -1   18.10    1.90
 -14   8   0  650.73   17.80
  14  -8   0  633.24   16.80
 -14   8  -1    2.90    1.00
  14  -8   1   -1.20    1.10
 -14   8  -2  351.26   10.90
  14  -8   2  369.46   10.20
  14  -8   3   16.30    2.20
  14  -8   4  503.55   13.80
 -14   9   3    3.80    1.30
 -14  -9   3    3.30    1.30
 -14   9   2  287.17    9.10
 -14  -9   2  286.57    8.50
 -14   9   1  113.79    4.70
 -14   9   0   46.70    2.90
 -14   9  -1   38.60    2.80
  15   0  -5    0.60    1.10
  15   0  -4  939.71   23.80
  15   0  -3   -1.40    0.80
  15   0  -2  626.24   16.00
 -15   0   1    0.90    0.50
  15   0  -1    0.30    0.70
  15   0   0 1380.56   33.10
 -15   0   0 1360.96   34.50
 -15   0  -1    0.70    0.60
  15   0   1    0.20    0.60
 -15   0  -2 1258.27   32.30
  15   0   2 1268.87   30.30
 -15   0  -3    1.10    0.70
 -15   0  -4  159.18    5.60
 -15   0  -5    0.40    1.00
  15   0   5   -0.80    1.30
  15   1  -5  239.28    7.40
  15  -1  -5  231.88    7.40
  15   1  -4  116.79    4.30
  15  -1  -4  115.09    4.30
  15   1  -3  236.38    7.00
  15  -1  -3  235.58    7.10
  15   1  -2   60.69    2.70
  15  -1  -2   57.39    2.70
 -15   1   1  345.37    9.30
  15   1  -1  346.07    9.20
  15  -1  -1  341.57    9.30
  15   1   0   18.80    1.50
 -15   1   0   21.50    1.30
  15  -1   0   20.40    1.50
 -15  -1   0   22.80    1.40
  15   1   1  487.35   12.20
 -15   1  -1  481.35   13.10
  15  -1   1  474.75   12.30
 -15  -1  -1  488.25   12.90
 -15   1  -2  444.36   12.40
 -15  -1  -2  456.25   12.30
  15  -1   2  445.06   11.40
  15   1   3  170.88    5.80
 -15   1  -3  168.38    5.70
 -15  -1  -3  166.38    5.60
 -15   1  -4  224.18    7.30
  15   1   4  230.08    7.50
 -15  -1  -4  224.58    7.20
 -15   1  -5   45.30    2.90
  15   1   5   51.39    3.10
 -15  -1  -5   45.50    2.80
  15   2  -5  119.19    4.50
 -15  -2   5  119.49    4.70
  15  -2  -5  118.39    4.60
  15   2  -4    3.70    1.00
  15  -2  -4    3.20    1.00
  15   2  -3    7.00    1.10
  15  -2  -3    6.40    1.00
  15   2  -2   23.70    1.70
 -15   2   2   21.00    1.40
  15  -2  -2   23.90    1.80
  15   2  -1    2.70    0.80
 -15   2   1    0.90    0.60
  15  -2  -1    1.60    0.80
 -15   2   0    4.00    0.70
  15   2   0    3.50    0.80
 -15  -2   0    3.00    0.60
  15   2   1  490.85   12.20
  15   2   1  478.45   13.00
 -15   2  -1  489.35   13.30
 -15  -2  -1  498.25   13.00
  15  -2   1  485.05   12.50
 -15   2  -2   31.00    1.90
  15   2   2   33.60    2.10
 -15  -2  -2   34.20    1.90
  15  -2   2   31.60    1.80
  15   2   3  843.52   22.30
 -15   2  -3  840.32   22.30
 -15  -2  -3  840.42   22.10
 -15   2  -4    1.80    0.90
  15   2   4    1.20    1.20
 -15   2  -5  566.94   16.20
  15   2   5  575.34   16.30
 -15  -2  -5  573.64   16.10
  15   3  -5  135.49    5.10
  15  -3  -5  139.19    5.10
 -15  -3   5  144.49    5.30
  15   3  -4   46.30    2.60
 -15  -3   4   49.10    2.70
  15  -3  -4   38.80    2.60
  15   3  -3  540.45   14.50
  15  -3  -3  558.84   14.70
 -15  -3   3  561.64   14.80
  15   3  -2   39.90    2.10
 -15   3   2   37.60    2.00
 -15  -3   2   37.30    2.20
  15  -3  -2   33.10    2.10
 -15   3   1  383.96   10.50
  15   3  -1  372.06   10.10
 -15  -3   1  385.36   10.30
  15  -3  -1  386.06   10.40
  15   3   0   24.10    1.60
 -15   3   0   22.90    1.60
  15  -3   0   26.70    1.70
 -15  -3   0   23.10    1.60
  15   3   1  239.08    6.50
  15   3   1  246.38    7.00
 -15   3  -1  236.78    7.30
  15  -3   1  244.28    6.90
 -15  -3  -1  246.58    6.90
  15   3   2  126.29    4.40
 -15   3  -2  118.89    4.40
  15  -3   2  123.69    4.00
 -15  -3  -2  121.49    4.20
  15   3   3  135.69    4.90
 -15   3  -3  129.39    4.80
 -15  -3  -3  131.29    4.60
  15  -3   3  128.49    4.20
  15   3   4  181.48    6.30
 -15   3  -4  179.18    6.20
 -15  -3  -4  178.28    6.10
 -15   3  -5   75.39    3.80
  15   3   5   83.59    4.10
 -15  -3  -5   78.69    3.70
  15   4  -4  402.66   11.30
  15  -4  -4  412.86   11.50
 -15  -4   4  413.16   11.60
 -15   4   3   14.00    1.50
  15   4  -3   15.30    1.80
  15  -4  -3   15.20    1.70
 -15  -4   3   13.80    1.70
  15   4  -2  292.07    8.20
 -15   4   2  294.77    8.50
  15  -4  -2  295.77    8.50
 -15  -4   2  292.87    8.40
  15   4  -1    2.30    0.80
 -15   4   1    1.60    0.70
  15  -4  -1    1.50    0.80
 -15  -4   1    2.00    0.80
 -15   4   0  601.54   16.10
  15   4   0  606.34   15.00
  15  -4   0  590.04   15.40
 -15  -4   0  602.44   15.20
 -15   4  -1    1.90    0.70
  15  -4   1    2.40    0.90
 -15   4  -2  500.65   14.30
  15   4   2  522.45   14.10
  15  -4   2  525.15   13.40
 -15   4  -3    4.70    0.90
  15   4   3    5.60    1.20
  15  -4   3    5.50    1.00
  15   4   4  201.88    6.80
 -15   4  -4  191.28    6.80
  15   4   5    6.70    1.70
  15   5  -4   83.29    3.50
 -15  -5   4   78.59    3.60
  15  -5  -4   72.19    3.50
  15   5  -3  114.09    4.30
 -15   5   3  115.99    4.20
  15  -5  -3  118.39    4.40
 -15  -5   3  119.59    4.50
 -15   5   2    4.30    0.90
 -15  -5   2    3.90    1.00
  15  -5  -2    5.30    1.10
 -15   5   1  162.38    5.60
  15   5  -1  171.18    5.20
  15  -5  -1  174.18    5.50
 -15  -5   1  169.68    5.30
 -15   5   0   23.20    1.90
 -15  -5   0   24.70    1.70
  15  -5   0   24.50    1.90
 -15   5  -1   38.50    2.30
  15  -5   1   42.30    2.30
 -15   5  -2  557.34   15.50
  15  -5   2  558.24   14.50
 -15   5  -3  116.89    4.60
  15   5   3  116.19    4.60
  15  -5   3  119.09    4.10
  15   5   4  215.88    7.20
 -15   5  -4  206.68    7.10
  15   5   5   15.30    3.00
 -15  -6   4    2.70    1.20
 -15   6   3    0.20    0.90
 -15  -6   3    2.00    1.10
  15  -6  -3    0.00    1.10
 -15   6   2    5.60    1.00
 -15  -6   2    4.50    1.10
  15  -6  -2    6.10    1.10
 -15   6   1   12.50    1.60
  15  -6  -1   11.90    1.70
 -15   6   0    1.50    0.90
  15  -6   0    0.60    0.90
 -15   6  -1   85.89    3.70
  15  -6   1   84.79    3.50
 -15   6  -2    2.20    0.90
  15  -6   2    3.60    1.10
 -15   6  -3  331.87   10.30
  15  -6   3  345.37    9.50
  15   6   4   15.30    1.90
 -15   7   3  193.28    6.50
 -15  -7   3  191.08    6.30
 -15   7   2    0.20    0.90
  15  -7  -2   -1.80    1.10
 -15  -7   2    0.40    1.00
 -15   7   1  322.67    9.90
  15  -7  -1  331.67    9.50
 -15   7   0   -0.10    0.90
  15  -7   0    2.90    1.10
 -15   7  -1  306.57    9.40
  15  -7   1  305.57    8.90
 -15   7  -2   32.10    2.40
  15  -7   2   34.60    2.40
 -15   7  -3  186.18    6.70
  15  -7   3  197.08    6.20
 -15   8   3   12.20    1.70
 -15  -8   3   13.40    2.30
 -15   8   2  238.08    7.70
 -15  -8   2  233.48    7.20
 -15   8   1    7.50    1.30
  15  -8  -1    7.70    1.40
 -15   8   0   55.29    3.20
  15  -8   0   59.99    3.10
 -15   8  -1   20.10    2.10
  15  -8   1   16.60    2.10
 -15   8  -2  138.19    5.40
  15  -8   2  141.29    5.10
 -15   9   1   -1.90    1.10
 -15   9   0   88.69    4.10
  16   0  -4   49.80    2.80
  16   0  -3   -1.40    0.90
  16   0  -2  435.56   11.70
 -16   0   0   56.79    2.30
  16   0   0   57.49    2.50
 -16   0  -1    0.00    0.60
  16   0   1    0.10    0.70
 -16   0  -2   26.60    1.90
 -16   0  -3    2.50    0.80
 -16   0  -4   82.99    3.70
 -16   0  -5   -1.80    1.10
  16   0   5   -2.10    1.40
  16   1  -4  216.68    6.80
  16  -1  -4  210.28    6.70
  16   1  -3  138.09    4.70
  16  -1  -3  132.99    4.70
  16   1  -2  153.18    4.90
  16  -1  -2  148.39    5.00
 -16   1   1  148.59    4.50
  16   1  -1  138.99    4.60
  16  -1  -1  144.99    4.70
  16   1   0  654.73   16.50
 -16   1   0  651.33   17.20
  16  -1   0  667.73   16.60
  16   1   1    1.00    0.70
 -16   1  -1    1.40    0.70
 -16  -1  -1    0.10    0.60
  16  -1   1    2.10    0.80
  16   1   2  201.98    6.40
 -16   1  -2  197.68    6.30
  16  -1   2  197.18    5.80
 -16  -1  -2  200.08    6.20
 -16   1  -3   52.49    2.80
  16   1   3   54.19    3.00
 -16  -1  -3   54.69    2.70
  16   1   4  393.26   11.60
 -16   1  -4  382.56   11.40
 -16  -1  -4  383.36   11.30
 -16   1  -5    3.40    1.30
  16   1   5    6.60    1.60
 -16  -1  -5    6.60    1.30
  16   2  -4   16.90    2.00
  16  -2  -4   16.90    2.00
 -16  -2   4   13.20    2.00
  16   2  -3  144.69    5.00
  16  -2  -3  145.69    5.00
  16   2  -2    1.70    0.90
  16  -2  -2    3.10    0.90
 -16   2   1  296.87    8.30
  16   2  -1  291.37    8.20
  16  -2  -1  307.07    8.40
  16   2   0   32.50    1.80
 -16   2   0   33.50    1.90
  16  -2   0   35.70    2.00
 -16   2  -1  572.24   15.50
 -16  -2  -1  580.44   15.20
  16  -2   1  579.54   14.70
 -16   2  -2    0.70    0.80
 -16  -2  -2    0.00    0.70
  16  -2   2    1.70    0.90
  16   2   3  402.26   11.60
 -16   2  -3  399.96   11.60
 -16  -2  -3  402.86   11.40
  16   2   4    1.90    1.30
 -16   2  -4    0.90    1.00
 -16  -2  -4   -0.10    1.00
  16   2   5  283.27    9.20
 -16  -2  -5  273.97    8.90
  16   3  -4  100.69    4.00
 -16  -3   4   98.19    4.10
  16  -3  -4   86.89    3.90
  16   3  -3  194.28    6.20
  16  -3  -3  194.58    6.30
 -16  -3   3  199.38    6.40
  16   3  -2  104.09    3.90
  16  -3  -2  108.99    4.00
 -16  -3   2  107.59    4.00
  16   3  -1  172.78    5.40
 -16   3   1  182.48    5.50
 -16  -3   1  173.88    5.50
  16  -3  -1  175.78    5.60
  16   3   0  255.47    7.00
 -16   3   0  251.57    7.50
  16  -3   0  249.38    7.30
 -16  -3   0  254.07    7.10
 -16   3  -1   11.30    1.50
  16  -3   1   13.10    1.60
 -16   3  -2  107.79    4.00
  16   3   2  104.29    3.90
 -16  -3  -2  102.99    3.80
  16  -3   2   99.79    3.60
 -16   3  -3    1.40    0.90
  16   3   3    1.00    1.10
 -16  -3  -3    0.00    0.80
  16   3   4  190.18    6.50
 -16   3  -4  181.88    6.40
 -16  -3  -4  180.48    6.30
  16   3   5  198.48    7.10
 -16  -3  -5  191.88    6.80
  16   4  -4  171.98    5.90
 -16  -4   4  183.18    6.10
  16  -4  -4  175.98    6.00
  16   4  -3   26.10    2.10
 -16  -4   3   24.10    2.10
  16  -4  -3   28.10    2.20
 -16   4   2  231.28    7.10
  16   4  -2  235.58    6.90
 -16  -4   2  243.78    7.10
  16  -4  -2  230.08    7.10
  16   4  -1   27.40    1.80
 -16   4   1   24.70    1.80
 -16  -4   1   23.80    1.80
  16  -4  -1   26.30    1.90
 -16   4   0   71.09    3.10
  16   4   0   77.69    2.90
  16  -4   0   79.19    3.20
 -16   4  -1  170.48    5.60
  16  -4   1  165.78    5.30
 -16   4  -2    1.70    0.80
  16  -4   2    1.60    1.00
 -16   4  -3   15.20    1.80
  16   4   3   15.20    2.20
  16   4   4   58.49    3.50
 -16   4  -4   57.39    3.10
  16   4   5   70.79    4.10
  16   5  -4  128.79    4.80
 -16  -5   4  123.69    4.90
  16   5  -3   68.69    3.20
  16  -5  -3   58.09    3.10
 -16  -5   3   61.09    3.10
 -16   5   2  187.58    5.90
  16   5  -2  184.98    5.80
 -16  -5   2  176.28    5.80
  16  -5  -2  177.28    6.00
  16   5  -1   72.59    2.90
 -16   5   1   67.59    3.10
 -16  -5   1   68.69    3.00
  16  -5  -1   70.79    3.20
 -16   5   0  761.92   20.20
  16  -5   0  752.82   19.30
 -16   5  -1   26.70    2.00
  16  -5   1   27.40    2.10
 -16   5  -2  372.86   11.00
  16  -5   2  376.66   10.30
 -16   5  -3    0.60    1.00
  16  -5   3    3.30    1.20
  16   5   4  487.25   14.20
 -16  -6   3  117.69    4.60
 -16   6   2   17.70    2.00
  16  -6  -2   21.90    2.10
 -16   6   1  341.67   10.10
  16  -6  -1  343.27    9.80
 -16   6   0   59.39    3.10
  16  -6   0   65.49    3.10
 -16   6  -1  525.45   14.90
  16  -6   1  537.85   14.20
 -16   6  -2    9.60    1.80
  16  -6   2    7.60    1.30
 -16   6  -3  370.46   11.20
  16  -6   3  368.86   10.20
 -16   7   3  383.06   11.30
 -16  -7   3  372.46   10.80
 -16   7   2    8.20    1.30
 -16  -7   2   10.60    1.40
 -16   7   1   39.20    2.70
  16  -7  -1   43.20    2.60
 -16   7   0  125.09    4.90
  16  -7   0  126.79    4.70
 -16   7  -1   16.70    2.00
  16  -7   1   20.30    2.10
 -16   7  -2   72.89    3.60
  16  -7   2   79.59    3.50
  16  -7   3   14.20    2.40
 -16   8   3   36.60    3.00
 -16   8   2  199.08    6.90
 -16   8   1   36.50    2.70
 -16   8   0  106.39    4.60
 -16   8  -1   56.79    3.30
  17   0  -4    1.30    1.20
  17   0  -3    0.30    1.10
  17   0  -2  101.09    3.90
  17   0  -1    1.10    0.90
  17   0   0  392.16   10.40
  17   0   1    0.20    0.90
 -17   0  -1    2.00    0.80
 -17   0  -2  460.35   12.80
 -17   0  -3    0.30    0.90
  17   0   4  453.65   13.20
 -17   0  -4  442.56   13.00
  17   1  -4   89.99    3.90
  17  -1  -4   94.09    3.90
  17   1  -3    0.60    1.00
  17  -1  -3   -1.00    1.00
  17   1  -2  387.36   10.60
  17  -1  -2  382.86   10.60
  17   1  -1  121.19    4.20
  17  -1  -1  121.99    4.30
  17   1   0  201.78    5.90
 -17   1   0  193.58    6.00
  17  -1   0  203.18    6.00
 -17   1  -1   23.10    1.70
  17  -1   1   19.60    1.70
 -17   1  -2  265.57    7.80
  17   1   2  263.07    7.90
 -17  -1  -2  239.58    7.60
 -17   1  -3  177.68    6.10
  17   1   3  188.78    6.30
 -17  -1  -3  179.78    6.00
 -17   1  -4   61.89    3.20
  17   1   4   60.99    3.50
 -17  -1  -4   57.79    3.10
  17   2  -4   -1.90    1.20
  17  -2  -4    2.10    1.30
  17   2  -3  249.58    7.60
  17  -2  -3  256.07    7.70
  17   2  -2    7.40    1.20
  17  -2  -2   12.00    1.70
  17   2  -1  792.82   19.70
  17  -2  -1  778.22   19.90
  17   2   0    0.20    0.90
 -17   2   0    1.30    0.70
  17  -2   0    2.10    0.90
 -17   2  -1  508.15   14.40
  17  -2   1  552.94   13.70
 -17   2  -2    1.20    0.80
 -17  -2  -2    0.00    0.80
 -17   2  -3  312.67    9.50
  17   2   3  315.97    9.50
 -17  -2  -3  306.47    9.30
 -17   2  -4   31.80    2.50
  17   2   4   35.60    3.00
 -17  -2  -4   34.70    2.60
  17   3  -4   20.20    2.30
 -17  -3   4   20.60    2.30
  17   3  -3   22.30    2.20
 -17  -3   3   20.80    2.10
  17  -3  -3   20.80    2.10
  17   3  -2  190.48    6.10
  17  -3  -2  195.18    6.20
 -17  -3   2  199.18    6.30
  17   3  -1   66.49    2.90
  17  -3  -1   61.39    3.00
 -17  -3   1   64.59    2.90
 -17   3   0   76.69    3.20
  17   3   0   76.59    3.20
  17  -3   0   76.39    3.20
 -17   3  -1  268.67    8.00
  17  -3   1  259.87    7.50
 -17   3  -2  238.28    7.50
  17  -3   2  240.98    6.90
 -17   3  -3  163.88    5.80
 -17  -3  -3  163.58    5.60
 -17   3  -4   37.80    2.70
  17   3   4   31.10    3.00
 -17  -3  -4   31.40    2.50
  17   4  -3    2.10    1.20
 -17  -4   3    2.10    1.10
  17  -4  -3    3.30    1.20
  17   4  -2   67.59    3.10
  17  -4  -2   61.09    3.10
 -17  -4   2   65.29    3.10
  17   4  -1   32.60    2.10
 -17   4   1   26.90    2.00
 -17  -4   1   33.30    2.10
  17  -4  -1   31.10    2.20
 -17   4   0  138.39    4.90
  17  -4   0  140.29    4.80
 -17   4  -1   35.60    2.30
  17  -4   1   32.70    2.30
 -17   4  -2  448.66   12.80
  17  -4   2  447.36   11.90
 -17   4  -3    1.50    1.10
 -17  -5   3   22.30    2.30
  17   5  -2  427.26   11.50
  17  -5  -2  405.46   11.70
 -17  -5   2  435.16   11.70
 -17   5   1   12.80    1.80
  17   5  -1   15.60    1.90
  17  -5  -1   13.90    2.00
 -17   5   0  307.27    9.20
  17  -5   0  310.17    8.90
 -17   5  -1    9.30    1.70
  17  -5   1   14.10    1.90
 -17   5  -2  180.78    6.40
  17  -5   2  193.58    6.00
 -17   5  -3   39.60    2.70
 -17  -6   3  296.97    9.00
 -17  -6   2    0.10    1.20
 -17   6   1  366.86   10.70
  17  -6  -1  356.16   10.30
 -17   6   0    9.80    1.90
  17  -6   0   11.50    2.10
 -17   6  -1  153.78    5.70
  17  -6   1  164.28    5.50
  17  -6   2    4.40    1.30
 -17   7   2   69.19    3.60
 -17   7   1   66.59    3.60
 -17   7   0   39.60    2.80
 -17   7  -1  260.07    8.60
  17  -7   1  281.47    8.80
 -17   8   2  150.28    5.90
 -17   8   1    5.40    1.40
  18   0  -3   -1.90    1.20
  18   0  -2  150.18    5.10
  18   0  -1    0.10    1.00
  18   0   0  435.76   11.50
 -18   0  -2  659.83   17.70
 -18   0  -3    0.10    1.00
  18   0   4  167.48    6.30
 -18   0  -4  164.38    6.00
  18   1  -3   91.29    3.80
  18  -1  -3   87.59    3.80
  18   1  -2  103.59    4.10
  18  -1  -2  105.79    4.10
  18   1  -1  157.08    5.10
  18  -1  -1  152.08    5.10
  18   1   0   15.50    1.80
  18  -1   0   20.90    1.90
 -18   1  -1  253.87    7.90
 -18   1  -2    6.70    1.10
 -18   1  -3  346.17   10.30
 -18  -1  -3  347.17   10.20
 -18   1  -4   45.80    3.00
  18   1   4   51.49    3.40
 -18  -1  -4   43.90    2.90
  18   2  -3  149.19    5.20
  18  -2  -3  146.49    5.30
  18   2  -2    1.10    1.20
  18  -2  -2    0.50    1.20
  18   2  -1    1.70    1.10
  18  -2  -1    4.30    1.10
  18  -2   0   28.60    2.20
 -18   2  -1    4.50    1.00
 -18   2  -2    0.20    0.90
 -18   2  -3  140.89    5.30
 -18  -2  -4   28.70    2.60
  18   3  -3   70.99    3.50
 -18  -3   3   75.29    3.60
  18   3  -2  113.29    4.30
  18  -3  -2  113.59    4.40
 -18  -3   2  118.59    4.40
  18   3  -1  324.67    9.20
 -18  -3   1  339.37    9.40
  18  -3  -1  329.07    9.40
 -18   3   0  118.89    4.60
  18  -3   0  116.89    4.30
 -18   3  -1  386.46   11.10
  18  -3   1  387.76   10.50
 -18   3  -2   21.90    2.10
 -18   3  -3  363.86   10.90
  18   4  -3    1.10    1.40
 -18  -4   3    0.30    1.30
  18   4  -2   64.99    3.20
 -18  -4   2   68.09    3.20
  18  -4  -2   57.19    3.10
  18  -4  -1    4.60    1.20
 -18   4   0  514.15   14.30
  18  -4   0  519.15   13.80
 -18   4  -1    1.30    1.00
  18  -4   1    2.90    1.20
 -18   4  -2  286.27    8.80
 -18   4  -3    9.90    1.60
  18   5  -3   26.50    2.60
 -18  -5   3   17.40    2.40
  18   5  -2    6.00    1.40
 -18  -5   2    1.70    1.30
  18  -5  -1   56.99    3.10
 -18   5   0   19.70    2.10
  18  -5   0   16.00    2.20
 -18   5  -1  306.27    9.40
  18  -5   1  313.07    9.00
 -18   5  -2    2.20    1.10
 -18   6   0   44.80    2.90
 -18   6  -1    3.10    1.20
  18  -6   1    5.60    1.50
  18  -6   2   99.09    4.20
 -18   7   1  167.68    6.20
 -18   7   0   18.30    2.40
  19   0  -2  363.66   10.30
  19   0  -1    0.60    1.20
  19   1  -3  203.28    6.70
  19   1  -2   65.69    3.10
  19  -1  -2   64.29    3.30
  19   1  -1  130.69    4.60
  19  -1  -1  126.59    4.60
  19  -1   0   61.49    3.00
 -19   1  -3    2.70    1.20
  19   2  -3    9.60    1.70
 -19  -2   3    9.60    1.70
  19   2  -2   32.10    2.50
  19  -2  -2   29.90    2.50
  19   2  -1  157.78    5.20
  19  -2  -1  157.88    5.40
  19  -2   0    1.30    1.20
 -19   2  -2    2.90    1.10
 -19   2  -3  330.07   10.10
  19   3  -2   42.70    2.90
  19  -3  -2   46.60    3.20
 -19  -3   2   42.90    2.80
  19  -3  -1  197.38    6.40
  19  -3   0   68.89    3.30
 -19   3  -2   93.29    4.00
 -19   3  -3  123.29    5.20
  19   4  -2  464.15   12.70
  19  -4  -1    7.00    1.50
  19  -4   0  142.49    5.10
 -19   4  -1    1.80    1.10
  19  -4   1    4.30    1.40
 -19   4  -2   48.70    3.00
 -19   5  -1    7.00    1.40
  20   0  -2    1.60    1.50
  20   0  -1    0.00    1.40
  20   1  -2  157.48    5.50
  20  -1  -1   66.89    3.30
  20   2  -2    2.60    1.60
 -20  -2   2    0.50    1.40
  20  -2  -1  180.38    6.00
  20  -3   0  120.49    4.70
;
_shelx_hkl_checksum              89305
#END Tags that were not found in dictionaries
loop_
_space_group_symop_operation_xyz
'x, y, z'
'-x, y+1/2, -z+1/2'
'-x, -y, -z'
'x, -y-1/2, z-1/2'
loop_
_atom_site_label
_atom_site_type_symbol
_atom_site_fract_x
_atom_site_fract_y
_atom_site_fract_z
_atom_site_U_iso_or_equiv
_atom_site_adp_type
_atom_site_occupancy
_atom_site_site_symmetry_order
_atom_site_calc_flag
_atom_site_refinement_flags_adp
I1 I 0.63744(2) 0.86705(2) 0.52636(2) 0.02035(6) Uani 1 1 d U
F1 F 0.82248(7) 0.81706(10) 0.72826(16) 0.0155(2) Uani 1 1 d U
F2 F 0.89438(7) 0.91881(11) 0.97701(15) 0.0170(2) Uani 1 1 d U
F3 F 0.91864(8) 1.13172(10) 0.76103(19) 0.0195(3) Uani 1 1 d U
F4 F 0.82945(7) 1.06431(12) 0.51132(16) 0.0202(2) Uani 1 1 d U
F5 F 0.93147(8) 0.86752(10) 0.42125(19) 0.0212(3) Uani 1 1 d U
F6 F 1.01707(8) 0.88651(11) 0.69811(18) 0.0194(2) Uani 1 1 d U
C1 C 0.75178(12) 1.00272(17) 0.8792(3) 0.0123(3) Uani 1 1 d U
C2 C 0.66650(12) 0.98719(17) 0.7835(3) 0.0138(3) Uani 1 1 d U
C3 C 0.59313(13) 1.05430(19) 0.8581(3) 0.0175(4) Uani 1 1 d U
C4 C 0.60391(15) 1.13656(19) 1.0264(3) 0.0200(4) Uani 1 1 d U
C5 C 0.68819(14) 1.1541(2) 1.1201(3) 0.0184(4) Uani 1 1 d U
C7 C 0.83735(12) 0.93722(17) 0.8128(3) 0.0122(3) Uani 1 1 d U
C6 C 0.76126(13) 1.08731(19) 1.0468(3) 0.0158(4) Uani 1 1 d U
C8 C 0.88867(11) 1.02378(17) 0.6599(3) 0.0119(3) Uani 1 1 d U
C9 C 0.96760(11) 0.95332(17) 0.5562(3) 0.0118(3) Uani 1 1 d U
H5 H 0.6982(16) 1.210(3) 1.234(4) 0.023(6) Uiso 1 1 d .
H3 H 0.5350(16) 1.044(2) 0.795(3) 0.020(6) Uiso 1 1 d .
H4 H 0.5531(17) 1.183(2) 1.082(4) 0.022(6) Uiso 1 1 d .
H7 H 0.8183(19) 1.098(3) 1.119(4) 0.027(6) Uiso 1 1 d .
loop_
_atom_site_aniso_label
_atom_site_aniso_U_11
_atom_site_aniso_U_22
_atom_site_aniso_U_33
_atom_site_aniso_U_23
_atom_site_aniso_U_13
_atom_site_aniso_U_12
I1 0.01710(9) 0.02096(9) 0.02238(9) -0.00424(4) -0.00614(6) -0.00215(4)
F1 0.0158(5) 0.0092(5) 0.0218(5) -0.0009(4) 0.0022(4) 0.0006(4)
F2 0.0143(5) 0.0237(6) 0.0126(5) 0.0031(4) -0.0028(4) 0.0048(5)
F3 0.0208(6) 0.0112(5) 0.0272(6) -0.0079(4) 0.0090(5) -0.0035(4)
F4 0.0128(5) 0.0291(6) 0.0187(5) 0.0111(5) 0.0005(4) 0.0050(5)
F5 0.0194(6) 0.0208(6) 0.0241(6) -0.0129(4) 0.0070(5) -0.0107(4)
F6 0.0152(6) 0.0208(6) 0.0225(6) 0.0093(4) 0.0031(5) 0.0075(4)
C1 0.0122(8) 0.0120(8) 0.0127(8) 0.0029(6) 0.0022(6) 0.0011(6)
C2 0.0156(9) 0.0122(8) 0.0137(8) 0.0022(6) 0.0012(7) -0.0019(7)
C3 0.0124(9) 0.0182(9) 0.0221(9) 0.0061(7) 0.0031(7) -0.0002(7)
C4 0.0187(10) 0.0189(10) 0.0229(10) 0.0038(7) 0.0089(8) 0.0003(7)
C5 0.0219(10) 0.0186(9) 0.0152(9) -0.0006(7) 0.0046(8) 0.0013(8)
C7 0.0119(8) 0.0119(8) 0.0128(8) 0.0007(6) -0.0016(6) 0.0007(6)
C6 0.0162(9) 0.0180(9) 0.0133(8) 0.0015(7) 0.0000(7) -0.0005(7)
C8 0.0103(8) 0.0110(8) 0.0142(8) -0.0001(6) -0.0014(6) 0.0003(6)
C9 0.0113(8) 0.0097(8) 0.0144(8) -0.0014(7) -0.0006(6) -0.0002(6)
loop_
_atom_type_symbol
_atom_type_description
_atom_type_scat_dispersion_real
_atom_type_scat_dispersion_imag
_atom_type_scat_source
C C 0.0033 0.0016 'International Tables Vol C Tables 4.2.6.8 and 6.1.1.4'
H H 0.0000 0.0000 'International Tables Vol C Tables 4.2.6.8 and 6.1.1.4'
F F 0.0171 0.0103 'International Tables Vol C Tables 4.2.6.8 and 6.1.1.4'
I I -0.4742 1.8119 'International Tables Vol C Tables 4.2.6.8 and 6.1.1.4'
loop_
_geom_angle_atom_site_label_1
_geom_angle_atom_site_label_2
_geom_angle_atom_site_label_3
_geom_angle
_geom_angle_site_symmetry_3
C6 C1 C2 118.78(16) .
C6 C1 C7 115.96(16) .
C2 C1 C7 125.23(16) .
C3 C2 C1 119.70(17) .
C3 C2 I1 115.24(14) .
C1 C2 I1 125.05(13) .
C4 C3 C2 120.53(19) .
C5 C4 C3 120.19(19) .
C4 C5 C6 119.45(18) .
F1 C7 F2 106.80(13) .
F1 C7 C1 112.81(14) .
F2 C7 C1 109.53(14) .
F1 C7 C8 108.50(14) .
F2 C7 C8 106.49(14) .
C1 C7 C8 112.37(14) .
C5 C6 C1 121.33(18) .
F3 C8 F4 107.60(14) .
F3 C8 C9 110.43(14) .
F4 C8 C9 107.62(14) .
F3 C8 C7 107.42(14) .
F4 C8 C7 108.37(14) .
C9 C8 C7 115.14(14) .
F5 C9 F6 108.99(14) .
F5 C9 C8 107.43(14) .
F6 C9 C8 109.06(14) .
F5 C9 C9 108.57(17) 3_776
F6 C9 C9 107.62(17) 3_776
C8 C9 C9 115.05(18) 3_776
loop_
_geom_bond_atom_site_label_1
_geom_bond_atom_site_label_2
_geom_bond_distance
_geom_bond_site_symmetry_2
I1 C2 2.1111(18) .
F1 C7 1.351(2) .
F2 C7 1.356(2) .
F3 C8 1.344(2) .
F4 C8 1.350(2) .
F5 C9 1.337(2) .
F6 C9 1.345(2) .
C1 C6 1.397(3) .
C1 C2 1.399(3) .
C1 C7 1.515(2) .
C2 C3 1.392(3) .
C3 C4 1.388(3) .
C4 C5 1.383(3) .
C5 C6 1.383(3) .
C7 C8 1.557(2) .
C8 C9 1.555(2) .
C9 C9 1.558(3) 3_776
