#------------------------------------------------------------------------------
#$Date: 2016-03-21 14:39:25 +0200 (Mon, 21 Mar 2016) $
#$Revision: 178718 $
#$URL: svn://www.crystallography.net/cod/cif/4/08/29/4082908.cif $
#------------------------------------------------------------------------------
#
# This file is available in the Crystallography Open Database (COD),
# http://www.crystallography.net/
#
# All data on this site have been placed in the public domain by the
# contributors.
#
data_4082908
loop_
_publ_author_name
'Durka, Krzysztof'
'Luli\'nski, Sergiusz'
'Serwatowski, Janusz'
'Wo\'zniak, Krzysztof'
_publ_section_title
;
 Influence of Fluorination and Boronic Group Synergy on the Acidity and
 Structural Behavior ofo-Phenylenediboronic Acids
;
_journal_issue                   7
_journal_name_full               Organometallics
_journal_page_first              1608
_journal_paper_doi               10.1021/om401146p
_journal_volume                  33
_journal_year                    2014
_chemical_formula_moiety         'C6 H10 B2 F4 O7'
_chemical_formula_sum            'C6 H10 B2 F4 O7'
_chemical_formula_weight         291.76
_chemical_name_systematic
;
 tetrafluorophenylene-1,2-diboronic acid
;
_space_group_crystal_system      triclinic
_space_group_IT_number           2
_space_group_name_Hall           '-P 1'
_space_group_name_H-M_alt        'P -1'
_symmetry_space_group_name_Hall  '-P 1'
_symmetry_space_group_name_H-M   'P -1'
_atom_sites_solution_hydrogens   difmap
_audit_creation_method           SHELXL-2013
_cell_angle_alpha                108.890(4)
_cell_angle_beta                 93.462(4)
_cell_angle_gamma                99.729(4)
_cell_formula_units_Z            2
_cell_length_a                   4.4056(2)
_cell_length_b                   10.5551(4)
_cell_length_c                   14.0461(7)
_cell_measurement_reflns_used    8537
_cell_measurement_temperature    100(1)
_cell_measurement_theta_max      32.0891
_cell_measurement_theta_min      2.0770
_cell_volume                     604.44(5)
_computing_cell_refinement
;
CrysAlisPro, Agilent Technologies,
Version 1.171.35.19 (release 27-10-2011 CrysAlis171 .NET)
(compiled Oct 27 2011,15:02:11)
;
_computing_data_collection
;
CrysAlisPro, Agilent Technologies,
Version 1.171.35.19 (release 27-10-2011 CrysAlis171 .NET)
(compiled Oct 27 2011,15:02:11)
;
_computing_data_reduction
;
CrysAlisPro, Agilent Technologies,
Version 1.171.35.19 (release 27-10-2011 CrysAlis171 .NET)
(compiled Oct 27 2011,15:02:11)
;
_diffrn_ambient_temperature      100(1)
_diffrn_measured_fraction_theta_full 1.000
_diffrn_measured_fraction_theta_max 0.950
_diffrn_radiation_type           MoK\a
_diffrn_radiation_wavelength     0.71073
_diffrn_reflns_av_R_equivalents  0.0256
_diffrn_reflns_av_unetI/netI     0.0235
_diffrn_reflns_Laue_measured_fraction_full 1.000
_diffrn_reflns_Laue_measured_fraction_max 0.950
_diffrn_reflns_limit_h_max       6
_diffrn_reflns_limit_h_min       -6
_diffrn_reflns_limit_k_max       15
_diffrn_reflns_limit_k_min       -15
_diffrn_reflns_limit_l_max       20
_diffrn_reflns_limit_l_min       -20
_diffrn_reflns_number            19168
_diffrn_reflns_point_group_measured_fraction_full 1.000
_diffrn_reflns_point_group_measured_fraction_max 0.950
_diffrn_reflns_theta_full        25.242
_diffrn_reflns_theta_max         32.162
_diffrn_reflns_theta_min         2.081
_exptl_absorpt_coefficient_mu    0.173
_exptl_absorpt_correction_T_max  1.00000
_exptl_absorpt_correction_T_min  0.98493
_exptl_absorpt_correction_type   multi-scan
_exptl_absorpt_process_details
;
CrysAlisPro, Agilent Technologies,
Version 1.171.35.19 (release 27-10-2011 CrysAlis171 .NET)
(compiled Oct 27 2011,15:02:11)
Empirical absorption correction using spherical harmonics,
 implemented in SCALE3 ABSPACK scaling algorithm.
;
_exptl_crystal_colour            colourless
_exptl_crystal_density_diffrn    1.603
_exptl_crystal_description       unspecified
_exptl_crystal_F_000             296
_exptl_crystal_size_max          0.13
_exptl_crystal_size_mid          0.11
_exptl_crystal_size_min          0.09
_refine_diff_density_max         0.457
_refine_diff_density_min         -0.231
_refine_diff_density_rms         0.053
_refine_ls_extinction_method     none
_refine_ls_goodness_of_fit_ref   1.036
_refine_ls_hydrogen_treatment    refxyz
_refine_ls_matrix_type           full
_refine_ls_number_parameters     205
_refine_ls_number_reflns         4043
_refine_ls_number_restraints     3
_refine_ls_restrained_S_all      1.036
_refine_ls_R_factor_all          0.0499
_refine_ls_R_factor_gt           0.0350
_refine_ls_shift/su_max          0.000
_refine_ls_shift/su_mean         0.000
_refine_ls_structure_factor_coef Fsqd
_refine_ls_weighting_details
'w=1/[\s^2^(Fo^2^)+(0.0465P)^2^+0.1385P] where P=(Fo^2^+2Fc^2^)/3'
_refine_ls_weighting_scheme      calc
_refine_ls_wR_factor_gt          0.0856
_refine_ls_wR_factor_ref         0.0933
_reflns_Friedel_coverage         0.000
_reflns_number_gt                3216
_reflns_number_total             4043
_reflns_threshold_expression     'I > 2\s(I)'
_cod_data_source_file            om401146p_si_002.cif
_cod_data_source_block           5a
_cod_depositor_comments          'Adding full bibliography for 4082908.cif.'
_cod_database_code               4082908
#BEGIN Tags that were not found in dictionaries:
_shelx_space_group_comment
;
The symmetry employed for this shelxl refinement is uniquely defined
by the following loop, which should always be used as a source of
symmetry information in preference to the above space-group names.
They are only intended as comments.
;
_shelxl_version_number           2013-4
_shelx_res_file
;
TITL 188 in P-1
CELL  0.71073   4.4056  10.5551  14.0461  108.890   93.462   99.729
ZERR     2.00   0.0002   0.0004   0.0007    0.004    0.004    0.004
LATT   1
SFAC  C    H    B    O    F
UNIT  12   20   4    14   8
MERG   2
DFIX 0.84 O7 H7A
DFIX 0.84 O7 H7B
DFIX 0.84 O7 H7C
FMAP   2
PLAN    4
ACTA
BOND   $H
CONF
LIST   8
L.S.   4
TEMP  -173.00
WGHT    0.046500    0.138500
FVAR       0.87839
O6    4    0.670110    0.414671    0.238916    11.00000    0.01888    0.01228 =
         0.01656    0.00442    0.00353    0.00093
O7    4    0.754350    0.532226    0.452050    11.00000    0.04518    0.03612 =
         0.02386   -0.00411    0.00757   -0.01035
H4    2    0.279610   -0.363640    0.112572    11.00000   -1.20000
H6A   2    0.624967    0.332474    0.217218    11.00000   -1.20000
H6B   2    0.685550    0.439614    0.301984    11.00000   -1.20000
H7A   2    0.794899    0.617390    0.465973    11.00000   -1.20000
H7B   2    0.592600    0.511753    0.480163    10.50000   -1.20000
H7C   2    0.922711    0.523839    0.482595    10.50000   -1.20000
H3A   2   -0.154280   -0.346707   -0.028683    11.00000   -1.50000
H3B   2   -0.370037   -0.287852    0.056793    11.00000   -1.50000
H5A   2    0.020457    0.460569    0.178654    11.00000   -1.50000
H5B   2    0.331454    0.468685    0.183648    11.00000   -1.50000
H1    2    0.561999    0.133741    0.065168    11.00000   -1.50000
MOLE    1
C1    1    0.155655    0.019510    0.224250    11.00000    0.01494    0.01179 =
         0.01188    0.00267    0.00449    0.00067
C2    1    0.046415   -0.120917    0.206708    11.00000    0.01106    0.01192 =
         0.01115    0.00404    0.00241    0.00065
C3    1   -0.114117   -0.157757    0.278121    11.00000    0.01490    0.01207 =
         0.01433    0.00526    0.00329   -0.00028
C4    1   -0.180415   -0.060431    0.363300    11.00000    0.02048    0.02051 =
         0.01290    0.00581    0.00779    0.00008
C5    1   -0.076996    0.077169    0.379297    11.00000    0.02680    0.01643 =
         0.01284   -0.00047    0.01004    0.00173
C6    1    0.094024    0.115761    0.310106    11.00000    0.02342    0.01189 =
         0.01636    0.00230    0.00758   -0.00016
B1    3    0.324857    0.028587    0.130635    11.00000    0.01480    0.01154 =
         0.01164    0.00426    0.00408    0.00172
B2    3    0.128382   -0.207750    0.095900    11.00000    0.01087    0.01070 =
         0.01147    0.00387    0.00344    0.00137
O1    4    0.485425    0.143832    0.120663    11.00000    0.02583    0.01090 =
         0.01362    0.00328    0.00846   -0.00010
O2    4    0.292250   -0.099459    0.059902    11.00000    0.01555    0.00973 =
         0.01167    0.00377    0.00586    0.00118
O3    4   -0.166189   -0.281381    0.028094    11.00000    0.00944    0.01676 =
         0.01350    0.00028    0.00295    0.00162
O4    4    0.333945   -0.303456    0.090641    11.00000    0.01115    0.01387 =
         0.02154    0.00947    0.00669    0.00393
O5    4    0.178909    0.476216    0.148165    11.00000    0.01390    0.01497 =
         0.01501    0.00526    0.00349    0.00235
F1    5   -0.217646   -0.290824    0.267105    11.00000    0.02456    0.01323 =
         0.01965    0.00717    0.00743   -0.00133
F2    5   -0.346219   -0.097973    0.430395    11.00000    0.03728    0.02664 =
         0.01934    0.00696    0.01907   -0.00121
F3    5   -0.143704    0.172047    0.461826    11.00000    0.04799    0.02004 =
         0.02147   -0.00286    0.02294    0.00209
F4    5    0.193951    0.251748    0.329822    11.00000    0.04615    0.01048 =
         0.02548    0.00025    0.01870   -0.00090
HKLF    4

REM  188 in P-1
REM R1 =  0.0350 for    3216 Fo > 4sig(Fo)  and  0.0499 for all    4043 data
REM    205 parameters refined using      3 restraints

END

WGHT      0.0465      0.1385

REM Highest difference peak  0.457,  deepest hole -0.231,  1-sigma level  0.053
Q1    1  -0.0043  0.0955  0.3446  11.00000  0.05    0.46
Q2    1  -0.0347 -0.1395  0.2408  11.00000  0.05    0.44
Q3    1   0.2446  0.0392  0.1858  11.00000  0.05    0.41
Q4    1  -0.1204 -0.1159  0.3279  11.00000  0.05    0.40
;
_shelx_res_checksum              59525
_shelx_hkl_file
;
   0   0   2   57.69    1.56
   0   0   2   58.29    1.53
   0   0   2   57.38    1.54
   0   0  -2   57.83    1.56
   0   0  -2   56.10    1.52
   0   0   3   43.67    1.79
   0   0   3   38.02    1.77
   0   0  -3   42.98    1.74
   0   0  -3   44.23    1.73
   0   0   3   40.48    1.71
   0   0   4    0.66    0.98
   0   0  -4    2.82    1.09
   0   0   4    4.22    1.11
   0   0  -4    3.09    1.17
   0   0   5  462.10    6.67
   0   0   5  464.79    6.67
   0   0  -5  468.92    6.72
   0   0   5  469.22    6.87
   0   0  -5  467.20    6.65
   0   0  -6  473.04    7.50
   0   0   6  469.71    7.42
   0   0   6  476.16    7.65
   0   0  -6  474.34    7.38
   0   0   6  482.48    7.50
   0   0   7   38.66    2.62
   0   0  -7   31.55    2.39
   0   0   7   33.15    2.33
   0   0  -7   34.74    2.40
   0   0   7   35.87    2.44
   0   0   8    0.25    1.16
   0   0   8    2.46    1.61
   0   0  -8    0.28    1.59
   0   0  -8    0.67    1.27
   0   0  -8    0.38    1.28
   0   0   8    2.58    1.39
   0   0  -9  297.21    7.31
   0   0   9  307.57    7.69
   0   0  -9  313.86    8.05
   0   0   9  304.32    7.40
   0   0   9  307.04    7.53
   0   0  -9  299.10    7.46
   0   0 -10  258.23    7.39
   0   0  10  250.31    7.20
   0   0  10  252.37    7.48
   0   0  10  262.87    7.37
   0   0 -10  256.35    7.16
   0   0 -10  260.66    7.85
   0   0 -11    4.89    1.83
   0   0 -11    7.31    2.12
   0   0 -11    4.81    2.10
   0   0  11    4.60    2.27
   0   0  11    9.17    2.13
   0   0  11    4.54    1.76
   0   0  12  105.36    5.31
   0   0 -12  101.58    5.33
   0   0 -12  109.75    5.39
   0   0  12  106.22    5.63
   0   0  12   98.98    5.21
   0   0 -12  104.66    5.77
   0   0  13    8.31    2.55
   0   0 -13    8.27    2.22
   0   0 -13    5.56    2.21
   0   0  13    7.84    2.18
   0   0 -13    9.00    2.18
   0   0  13    9.58    2.30
   0   0 -14    2.88    2.21
   0   0  14    0.90    1.68
   0   0  14    1.61    2.39
   0   0 -14    1.73    1.84
   0   0  14   -1.15    1.83
   0   0 -14    0.94    2.03
   0   0 -15   -0.79    2.16
   0   0  15    4.74    2.91
   0   0  15    0.91    1.68
   0   0 -15    3.08    2.21
   0   0 -15   -2.29    2.63
   0   0  15    1.66    2.06
   0   0 -16    2.84    2.16
   0   0  16    2.51    1.85
   0   0  16    0.72    1.96
   0   0 -16   -0.45    2.22
   0   0  16    4.82    3.11
   0   0 -16   -2.78    2.77
   0   0 -17   40.51    4.42
   0   0  17   40.32    4.35
   0   0 -17   38.56    4.86
   0   0 -17   36.24    4.34
   0   0  17   43.43    4.91
   0   0 -18   -1.50    2.37
   0   0  18    0.01    1.99
   0   0  18   -1.82    2.62
   0   0 -19    0.89    2.55
   0  -1  19   40.15    5.34
   0   1 -19   39.83    4.91
   0  -1  19   39.80    4.54
   0   1 -18  102.69    6.95
   0  -1  18  110.44    7.05
   0  -1  18   99.30    7.31
   0   1 -18  105.07    7.35
   0   1 -17   33.80    3.97
   0  -1  17   29.50    3.79
   0   1 -17   24.36    3.86
   0   1 -17   32.77    4.20
   0  -1  17   38.38    4.86
   0   1 -16   29.68    4.17
   0   1 -16   29.68    3.59
   0   1 -16   32.05    4.01
   0  -1  16   28.79    3.58
   0  -1  16   29.82    3.59
   0  -1  16   34.26    4.60
   0   1 -15   89.81    5.45
   0   1 -15   98.07    6.29
   0   1 -15   92.02    5.82
   0  -1  15   87.96    5.49
   0  -1  15   95.88    6.26
   0  -1  15   97.80    5.91
   0  -1  14   43.74    4.02
   0   1 -14   51.60    4.14
   0   1 -14   48.39    4.25
   0  -1  14   44.67    3.82
   0   1 -14   47.18    4.55
   0  -1  14   51.44    4.66
   0  -1  13   10.16    2.22
   0   1 -13   10.00    2.74
   0   1 -13   17.37    2.62
   0  -1  13   10.43    2.38
   0  -1  13   18.11    3.42
   0   1 -13   11.80    2.55
   0   1 -12 1012.15   16.54
   0   1 -12 1029.94   15.38
   0  -1  12 1000.81   16.42
   0   1 -12 1014.55   15.95
   0  -1  12 1016.08   15.98
   0  -1  12 1020.74   15.36
   0   1 -11    5.17    1.96
   0  -1  11    2.46    1.54
   0  -1  11    0.89    2.16
   0  -1  11    3.65    1.65
   0   1 -11    2.60    1.86
   0   1 -10  442.92    9.53
   0  -1  10  448.22    9.09
   0   1 -10  448.37    9.05
   0  -1  10  440.42    9.48
   0  -1  10  434.05    9.82
   0   1  -9  152.59    5.09
   0  -1   9  155.87    5.61
   0   1  -9  155.11    5.50
   0  -1   9  154.85    5.09
   0  -1   9  155.88    5.39
   0  -1   8  552.98    9.71
   0  -1   8  552.73    9.30
   0   1  -8  569.08    9.50
   0   1  -8  562.83    8.89
   0  -1   8  569.57    8.95
   0  -1   7    3.43    0.39
   0  -1   7    3.22    1.35
   0  -1   7    4.77    1.24
   0   1  -7    4.15    1.46
   0   1  -7    5.44    1.41
   0  -1   7    5.31    1.76
   0   1  -6  504.63    7.66
   0  -1   6  516.65    3.84
   0  -1   6  490.43    7.68
   0  -1   6  509.62    7.16
   0   1  -6  524.03    7.47
   0  -1   5 1464.49   12.24
   0   1  -5 1442.67   11.75
   0  -1   5 1460.31   11.84
   0  -1   5 1453.37   10.85
   0   1  -5 1439.78   10.73
   0   1  -4 1441.85   10.50
   0   1  -4 1406.17   10.56
   0   1  -4 1399.68    9.36
   0  -1   4 1420.35    9.64
   0  -1   4 1413.76   10.77
   0  -1   4 1419.50   10.47
   0   1  -4 1451.34    5.69
   0  -1   4 1391.81    9.41
   0  -1   3   68.18    1.44
   0  -1   3   59.73    2.16
   0  -1   3   57.32    1.75
   0  -1   3   58.30    1.89
   0   1  -3   57.91    1.75
   0   1  -3   61.17    2.13
   0   1  -3   58.14    1.98
   0   1  -2  610.73    4.95
   0  -1   2  612.74    5.17
   0  -1   2  612.92    4.82
   0   1  -2  613.42    4.33
   0   1  -2  622.74    5.10
   0   1  -1  274.97    2.77
   0  -1   1  273.41    2.81
   0   1   0 1504.72    6.48
   0  -1   0 1544.31    6.04
   0  -1  -1    0.93    0.45
   0   1   1    0.80    0.45
   0  -1  -1    2.38    0.70
   0   1   1    1.37    0.70
   0   1   1    1.55    0.38
   0   1   1    1.31    0.54
   0  -1  -1    1.29    0.69
   0   1   2  708.75    5.75
   0   1   2  701.94    4.09
   0  -1  -2  705.47    6.11
   0  -1  -2  701.34    6.47
   0  -1  -2  687.98    6.38
   0   1   2  685.02    6.33
   0   1   2  697.85    6.22
   0   1   2  699.56    5.27
   0   1   3  789.63    7.71
   0  -1  -3  780.14    7.30
   0  -1  -3  768.28    7.85
   0   1   3  779.32    7.43
   0  -1  -3  772.47    7.76
   0   1   3  793.84    6.79
   0   1   3  780.41    7.10
   0   1   4    5.89    1.07
   0   1   4   15.38    1.44
   0   1   4    6.72    1.27
   0  -1  -4    8.18    1.56
   0  -1  -4    6.00    1.20
   0   1   4    6.65    1.10
   0  -1  -4   12.72    1.37
   0  -1  -5 1531.21   13.59
   0   1   5 1547.93   12.49
   0  -1  -5 1556.76   12.62
   0   1   5 1560.30   13.33
   0   1   5 1548.35   12.36
   0  -1  -5 1555.85   13.15
   0  -1  -5 1540.53   12.42
   0  -1  -6   26.66    2.38
   0  -1  -6   32.98    2.46
   0  -1  -6   27.02    2.11
   0   1   6   29.62    2.27
   0   1   6   27.12    2.09
   0   1   6   28.34    2.07
   0   1   7  463.37    8.19
   0  -1  -7  461.87    8.25
   0  -1  -7  462.39    8.40
   0   1   7  467.79    8.19
   0  -1  -7  461.03    8.80
   0   1   7  472.35    8.63
   0  -1  -8  144.35    5.08
   0   1   8  147.12    5.07
   0  -1  -8  144.21    5.47
   0   1   8  145.00    5.18
   0  -1  -8  148.44    5.21
   0   1   8  145.39    4.99
   0  -1  -9   27.65    2.66
   0   1   9   32.42    2.82
   0  -1  -9   30.10    3.06
   0   1   9   27.57    2.69
   0  -1  -9   35.91    2.98
   0   1   9   28.27    2.59
   0  -1 -10   11.54    2.20
   0  -1 -10   13.94    2.27
   0  -1 -10   16.50    2.54
   0   1  10   16.62    2.32
   0   1  10   15.47    2.66
   0   1  10   13.73    2.29
   0  -1 -11   23.04    2.83
   0   1  11   21.17    2.71
   0  -1 -11   18.39    2.55
   0   1  11   22.49    2.89
   0  -1 -11   20.25    2.80
   0   1  11   17.13    2.43
   0  -1 -12   27.32    3.27
   0   1  12   32.99    3.22
   0  -1 -12   35.30    3.56
   0   1  12   24.07    3.06
   0  -1 -12   28.70    3.08
   0   1  12   27.81    3.20
   0   1  13   43.68    3.93
   0   1  13   40.30    3.65
   0  -1 -13   43.54    3.95
   0   1  13   36.24    3.77
   0  -1 -13   42.23    4.25
   0  -1 -13   42.64    4.05
   0   1  14   48.74    4.33
   0   1  14   54.05    4.67
   0   1  14   47.84    4.14
   0  -1 -14   45.01    4.26
   0  -1 -14   41.87    4.07
   0  -1 -14   44.49    4.57
   0   1  15  133.38    6.92
   0   1  15  128.04    7.07
   0  -1 -15  132.77    7.16
   0  -1 -15  121.57    7.26
   0  -1 -15  129.70    6.91
   0   1  15  133.62    7.10
   0  -1 -16   60.39    5.22
   0   1  16   59.54    5.14
   0  -1 -16   63.00    5.88
   0  -1 -16   61.64    5.26
   0   1  16   63.54    5.10
   0   1  16   65.37    5.64
   0  -1 -17    3.13    2.70
   0   1  17    0.93    1.86
   0  -1 -17    2.74    2.33
   0  -1 -18   23.43    4.30
   0  -2  20   11.23    3.04
   0  -2  20    6.00    3.27
   0   2 -19    3.97    3.02
   0  -2  19    1.83    2.78
   0   2 -19    1.88    2.56
   0  -2  19    1.55    2.07
   0  -2  18   16.38    3.69
   0  -2  18   10.90    2.69
   0   2 -18   10.80    3.53
   0   2 -18    5.26    2.42
   0  -2  17   31.32    4.72
   0   2 -17   28.83    4.19
   0   2 -17   24.17    3.77
   0  -2  17   24.09    3.59
   0   2 -16  214.56    9.34
   0  -2  16  195.64    9.06
   0  -2  16  214.73    9.01
   0   2 -16  212.37    8.23
   0   2 -16  223.91    9.13
   0   2 -15  156.58    6.85
   0  -2  15  152.28    6.75
   0  -2  15  148.97    7.23
   0  -2  15  147.90    7.72
   0   2 -15  154.08    7.35
   0   2 -15  147.46    7.46
   0  -2  14  221.95    8.85
   0  -2  14  227.27    7.86
   0   2 -14  227.11    7.81
   0   2 -14  219.00    8.29
   0  -2  14  213.71    8.32
   0  -2  13  389.80   10.48
   0  -2  13  405.85   11.29
   0  -2  13  403.48    9.90
   0   2 -13  399.46   10.68
   0   2 -13  415.52    9.94
   0   2 -12   76.81    4.30
   0  -2  12   77.36    4.30
   0   2 -12   73.75    4.62
   0  -2  12   73.91    4.99
   0  -2  12   74.03    4.60
   0  -2  11   40.04    3.31
   0   2 -11   40.45    3.08
   0   2 -11   39.16    3.46
   0  -2  11   45.22    3.20
   0  -2  11   49.12    4.15
   0  -2  10  210.57    6.08
   0   2 -10  204.90    6.57
   0  -2  10  208.16    6.60
   0  -2  10  221.76    7.15
   0   2 -10  214.91    6.11
   0   2  -9  107.39    4.61
   0  -2   9  113.14    4.76
   0   2  -9   98.12    1.64
   0   2  -9  106.97    4.09
   0  -2   9  106.66    2.18
   0  -2   9  109.48    4.14
   0  -2   9  107.91    4.85
   0   2  -8    9.08    0.67
   0  -2   8    7.88    1.84
   0   2  -8    7.00    1.63
   0  -2   8    7.49    1.65
   0   2  -8    9.00    1.40
   0  -2   8    7.98    1.38
   0  -2   8    8.52    0.77
   0  -2   7    6.02    1.17
   0  -2   7    7.17    0.56
   0  -2   7    5.46    0.71
   0  -2   7    5.69    1.64
   0  -2   7   10.04    1.84
   0   2  -7    5.76    1.21
   0   2  -7   10.94    1.97
   0   2  -7    6.11    0.66
   0  -2   6  835.17    9.40
   0   2  -6  832.84   10.08
   0   2  -6  862.30   10.26
   0  -2   6  852.43    6.72
   0   2  -6  827.58    8.84
   0  -2   6  858.22    8.95
   0  -2   6  858.40   10.51
   0   2  -6  855.59    6.30
   0  -2   5  361.44    6.29
   0   2  -5  350.62    6.04
   0  -2   5  363.05    5.80
   0   2  -5  356.91    5.26
   0  -2   5  353.48    5.31
   0   2  -5  350.61    5.99
   0   2  -4   32.56    1.60
   0  -2   4   32.58    1.36
   0  -2   4   33.17    1.97
   0  -2   4   31.67    1.76
   0   2  -4   33.52    1.93
   0   2  -4   33.23    1.95
   0   2  -3  324.54    4.73
   0   2  -3  327.79    4.15
   0   2  -3  326.69    3.82
   0  -2   3  338.11    4.90
   0  -2   3  337.40    4.93
   0  -2   3  323.78    3.79
   0   2  -3  323.68    4.85
   0   2  -2   51.83    1.58
   0  -2   2   50.60    1.83
   0   2  -2   53.33    1.94
   0   2  -2   50.13    1.65
   0  -2   2   51.25    1.83
   0  -2   2   50.25    1.95
   0  -2   2   51.22    1.59
   0   2  -2   50.52    1.89
   0   2  -1  685.04    6.03
   0   2  -1  685.10    5.60
   0  -2   1  707.46    6.02
   0   2  -1  697.66    5.88
   0   2  -1  687.51    5.72
   0  -2   1  696.50    5.86
   0  -2   1  688.93    5.94
   0   2   0   -0.04    0.67
   0   2   0    0.47    1.02
   0  -2   0   -2.05    0.92
   0  -2   0    0.01    0.76
   0  -2   0   -0.65    1.04
   0   2   0   -0.13    0.93
   0   2   1  127.53    2.73
   0   2   1  128.19    3.09
   0  -2  -1  128.04    3.07
   0   2   1  129.47    3.11
   0  -2  -1  121.80    3.15
   0   2   1  127.43    2.70
   0  -2  -1  134.53    2.64
   0   2   2   44.89    1.61
   0   2   2   44.01    1.84
   0  -2  -2   52.98    2.57
   0   2   2   42.72    1.27
   0  -2  -2   44.37    2.27
   0   2   2   40.97    2.09
   0   2   2   39.94    2.02
   0  -2  -2   40.48    1.66
   0   2   3 2588.20   15.91
   0   2   3 2676.78   10.11
   0   2   3 2678.18   16.29
   0  -2  -3 2619.44   16.29
   0  -2  -3 2598.23   15.73
   0   2   3 2642.24   12.79
   0   2   3 2601.87   14.37
   0  -2  -4  450.26    7.12
   0   2   4  419.19    6.38
   0   2   4  428.73    7.16
   0  -2  -4  421.55    7.24
   0   2   4  437.80    5.89
   0   2   4  428.31    6.98
   0  -2  -5 1326.99   12.95
   0   2   5 1308.47   12.20
   0   2   5 1301.63   13.37
   0   2   5 1297.00   12.97
   0   2   5 1324.12   11.56
   0  -2  -5 1327.56   13.58
   0  -2  -6  588.56    9.78
   0   2   6  579.80    9.63
   0  -2  -6  577.13    8.85
   0  -2  -6  593.55    9.22
   0   2   6  589.29    8.46
   0   2   6  591.91    8.88
   0  -2  -7    1.50    1.32
   0  -2  -7    2.64    1.56
   0   2   7    2.63    1.39
   0   2   7    2.77    1.23
   0  -2  -7    3.90    1.36
   0   2   7    2.06    1.20
   0  -2  -7    1.51    1.47
   0   2   8   78.16    3.82
   0  -2  -8   77.57    4.26
   0  -2  -8   81.17    4.25
   0   2   8   80.55    4.25
   0   2   8   81.01    3.82
   0  -2  -8   76.24    3.82
   0   2   8   81.58    2.10
   0   2   9  107.69    4.70
   0  -2  -9  102.55    4.98
   0  -2  -9  100.79    4.67
   0   2   9  107.01    5.11
   0  -2  -9  106.74    5.23
   0   2   9  106.64    4.69
   0  -2 -10   59.79    4.43
   0  -2 -10   61.62    4.23
   0  -2 -10   64.49    4.08
   0   2  10   65.89    4.32
   0   2  10   66.03    3.96
   0   2  10   67.28    4.03
   0  -2 -11  538.85   12.59
   0   2  11  532.03   11.30
   0  -2 -11  551.69   11.78
   0   2  11  546.49   11.55
   0  -2 -11  537.25   12.12
   0   2  11  545.31   12.29
   0  -2 -12   54.28    4.18
   0   2  12   59.52    4.56
   0   2  12   52.90    3.96
   0  -2 -12   56.31    4.51
   0   2  12   57.22    4.21
   0  -2 -12   52.59    4.69
   0  -2 -13   19.00    3.04
   0   2  13   20.34    3.06
   0  -2 -13   21.61    3.45
   0   2  13   19.25    3.23
   0   2  13   18.10    2.73
   0  -2 -13   16.55    2.84
   0   2  14   63.37    4.85
   0  -2 -14   60.59    5.25
   0  -2 -14   52.21    4.75
   0  -2 -14   60.12    4.82
   0   2  14   60.24    4.64
   0   2  14   57.77    4.92
   0  -2 -15   13.18    3.15
   0  -2 -15   17.07    3.74
   0   2  15   14.40    2.59
   0  -2 -15    8.14    2.53
   0   2  15   17.30    3.18
   0   2  16    7.45    2.82
   0   2  16    7.55    2.34
   0  -2 -16   13.16    3.21
   0  -2 -17   32.13    4.44
   0   2  17   26.04    4.13
   0  -2 -18    2.30    2.54
   0  -3  20   85.07    7.34
   0   3 -20   76.47    6.60
   0  -3  20   90.25    6.83
   0   3 -20   71.64    6.59
   0  -3  19   42.23    4.88
   0   3 -19   35.97    4.92
   0  -3  19   36.41    5.06
   0   3 -19   37.10    4.74
   0   3 -18    7.91    3.16
   0  -3  18    3.26    2.46
   0  -3  18    9.14    3.78
   0   3 -18    4.72    2.58
   0  -3  17    4.28    3.07
   0  -3  17    0.29    1.84
   0   3 -17   -0.08    2.66
   0   3 -17    5.26    2.94
   0   3 -16    1.58    1.90
   0   3 -16    1.12    2.46
   0  -3  16    5.22    2.96
   0  -3  16   -1.24    1.75
   0  -3  15   34.14    4.24
   0  -3  15   32.82    3.78
   0   3 -15   33.55    3.39
   0   3 -15   38.19    4.22
   0  -3  15   38.99    3.71
   0   3 -14  103.88    5.95
   0  -3  14   97.27    6.19
   0  -3  14  106.27    5.30
   0  -3  14   94.99    5.64
   0   3 -14  102.67    5.22
   0  -3  13   51.23    4.13
   0   3 -13   59.76    4.49
   0   3 -13   58.41    3.86
   0  -3  13   57.27    4.88
   0  -3  13   51.70    3.64
   0  -3  12   46.23    3.74
   0  -3  12   46.75    4.28
   0   3 -12   51.40    3.99
   0   3 -12   54.69    3.57
   0  -3  12   50.96    3.46
   0   3 -11  148.27    6.06
   0   3 -11  140.74    5.21
   0  -3  11  143.26    5.96
   0  -3  11  155.72    6.60
   0  -3  11  145.37    5.28
   0  -3  10   20.37    2.04
   0   3 -10   19.90    2.51
   0  -3  10   24.26    3.13
   0  -3  10   20.33    2.46
   0   3 -10   22.76    2.22
   0  -3   9  124.75    5.23
   0  -3   9  120.81    4.24
   0   3  -9  118.26    4.90
   0  -3   9  111.71    2.39
   0  -3   9  112.18    4.81
   0   3  -9  115.66    2.80
   0  -3   9  118.74    3.06
   0   3  -9  115.32    4.89
   0   3  -9  115.67    4.19
   0   3  -8  782.20   11.37
   0   3  -8  775.89    7.44
   0  -3   8  793.04   10.02
   0  -3   8  760.79   11.70
   0   3  -8  778.44    9.89
   0  -3   8  768.26   10.71
   0  -3   8  765.59    7.79
   0   3  -8  771.99   11.36
   0  -3   7 2354.68   13.85
   0   3  -7 2401.89   16.11
   0   3  -7 2378.71   18.70
   0  -3   7 2423.86   16.40
   0  -3   7 2390.41   17.88
   0   3  -7 2395.13   18.90
   0  -3   7 2376.50   19.34
   0   3  -6  205.04    5.29
   0  -3   6  209.29    5.48
   0   3  -6  202.13    3.96
   0   3  -6  205.13    4.48
   0  -3   6  214.94    5.33
   0   3  -6  217.74    5.31
   0  -3   6  197.42    3.84
   0  -3   5  191.66    4.71
   0   3  -5  185.80    4.00
   0  -3   5  185.69    3.56
   0   3  -5  186.61    4.65
   0   3  -5  182.34    3.59
   0   3  -5  191.15    4.77
   0  -3   5  194.62    4.86
   0  -3   4  481.21    5.52
   0  -3   4  468.80    6.43
   0   3  -4  468.39    5.91
   0  -3   4  468.97    6.78
   0   3  -4  465.26    5.51
   0  -3   4  482.32    6.95
   0   3  -4  467.68    6.79
   0   3  -4  461.74    6.90
   0  -3   3   77.54    2.36
   0  -3   3   82.38    3.01
   0   3  -3   74.35    2.71
   0   3  -3   81.12    2.46
   0  -3   3   71.27    2.60
   0  -3   3   71.01    2.59
   0   3  -3   73.31    2.69
   0   3  -2  470.87    5.69
   0  -3   2  459.06    6.04
   0   3  -2  467.72    6.15
   0   3  -2  482.31    6.20
   0  -3   2  481.70    6.33
   0   3  -2  472.96    5.70
   0  -3   2  480.09    5.70
   0  -3   2  477.48    5.87
   0   3  -2  475.69    6.23
   0  -3   1 1573.28   11.13
   0   3  -1 1572.88   10.57
   0   3  -1 1571.90   10.86
   0   3  -1 1584.87   10.75
   0  -3   1 1584.85   10.94
   0  -3   1 1564.29   11.14
   0   3   0  785.67    8.27
   0  -3   0  784.57    7.63
   0   3   0  770.88    7.57
   0  -3   0  781.07    8.32
   0   3   0  778.47    8.21
   0  -3   0  756.22    8.19
   0   3   1   16.57    1.37
   0  -3  -1   19.14    1.76
   0   3   1   17.05    1.64
   0   3   1   18.89    1.64
   0  -3  -1   18.64    1.74
   0  -3  -1   16.34    1.30
   0  -3  -2 1958.34   14.80
   0   3   2 2024.41   10.09
   0  -3  -2 1974.97   12.44
   0   3   2 1965.85   13.17
   0   3   2 2021.57   10.48
   0   3   2 2015.32   15.00
   0  -3  -2 1954.90   14.75
   0   3   2 1958.56   14.73
   0   3   3 2074.37   14.49
   0  -3  -3 2142.97   13.33
   0  -3  -3 2054.78   16.09
   0  -3  -3 2090.58   16.45
   0   3   3 2100.21   16.27
   0   3   3 2085.80   16.36
   0   3   3 2142.03   10.37
   0   3   3 2109.20   12.01
   0   3   4   19.77    1.74
   0  -3  -4   19.26    1.56
   0   3   4   18.99    1.43
   0  -3  -4   20.27    2.15
   0   3   4   20.41    1.14
   0  -3  -4   22.80    2.26
   0   3   4   21.11    2.24
   0   3   4   19.94    1.95
   0  -3  -5  117.61    3.55
   0   3   5  111.31    3.44
   0  -3  -5  108.31    4.51
   0   3   5  110.42    4.31
   0   3   5  107.74    4.40
   0  -3  -5  109.09    4.31
   0   3   5  113.16    3.93
   0   3   6   21.68    2.32
   0  -3  -6   28.02    2.16
   0   3   6   23.04    2.08
   0  -3  -6   22.82    2.92
   0   3   6   24.03    2.48
   0   3   6   24.77    2.10
   0  -3  -7   70.00    3.86
   0   3   7   80.15    4.23
   0  -3  -7   76.69    3.79
   0   3   7   82.15    3.80
   0   3   7   70.38    3.31
   0   3   8    6.18    2.04
   0   3   8    1.86    1.56
   0   3   8    5.73    2.14
   0  -3  -8   12.25    2.45
   0  -3  -8    9.25    2.25
   0  -3  -8    0.13    1.51
   0  -3  -9  252.48    8.05
   0  -3  -9  244.52    7.31
   0   3   9  244.50    6.89
   0   3   9  243.38    7.20
   0   3   9  235.69    7.79
   0   3  10   18.07    2.57
   0  -3 -10   18.40    2.96
   0   3  10   17.42    2.48
   0   3  10   20.40    2.93
   0  -3 -10   16.78    2.54
   0   3  11  178.28    6.89
   0  -3 -11  187.77    7.63
   0   3  11  180.62    7.57
   0   3  11  182.65    6.71
   0  -3 -11  178.54    6.99
   0   3  12   73.57    4.74
   0   3  12   69.54    5.06
   0  -3 -12   69.34    4.79
   0  -3 -12   71.19    5.17
   0   3  13  156.17    7.69
   0  -3 -13  152.32    7.60
   0   3  13  155.94    7.05
   0  -3 -13  154.54    7.19
   0  -3 -14   49.46    4.82
   0  -3 -14   45.50    4.43
   0   3  14   52.38    4.88
   0   3  14   48.08    4.24
   0   3  15   18.17    3.67
   0  -3 -15   11.48    3.15
   0  -3 -16   -1.23    2.45
   0   3  16    2.22    2.61
   0  -3 -17    5.74    3.07
   0   3  17    1.48    2.60
   0  -3 -18    7.19    3.16
   0   4 -20   13.30    3.84
   0  -4  20   21.59    4.54
   0  -4  20   12.99    3.40
   0   4 -20   14.61    3.92
   0  -4  19    0.90    3.11
   0   4 -19    2.41    2.65
   0  -4  19    3.63    2.64
   0   4 -19   -4.17    2.91
   0  -4  18   -0.54    2.91
   0   4 -18    0.71    2.66
   0  -4  18    1.70    2.37
   0   4 -17  152.53    8.16
   0  -4  17  158.90    8.18
   0  -4  17  136.17    8.10
   0  -4  16   71.25    6.02
   0   4 -16   83.61    5.98
   0  -4  16   80.67    5.74
   0   4 -15    7.24    2.16
   0  -4  15   -0.42    2.10
   0   4 -15    2.54    2.17
   0  -4  15    2.70    2.80
   0   4 -14   11.77    2.93
   0   4 -14    7.80    1.83
   0  -4  14    7.67    2.35
   0  -4  14   10.60    3.30
   0  -4  14    7.92    1.90
   0  -4  13    2.42    2.47
   0  -4  13   -0.86    1.28
   0  -4  13    0.41    1.81
   0   4 -13    3.58    2.24
   0   4 -13   -0.50    1.43
   0   4 -12   17.25    2.28
   0  -4  12   15.52    2.04
   0  -4  12   22.99    3.25
   0   4 -12   18.65    2.89
   0  -4  12   16.85    2.62
   0  -4  11  115.85    4.71
   0   4 -11  120.32    4.73
   0  -4  11  114.40    5.54
   0   4 -11  119.46    5.59
   0  -4  11  120.55    6.09
   0  -4  10   42.92    3.41
   0   4 -10   44.73    2.89
   0   4 -10   42.85    2.41
   0   4 -10   47.93    2.28
   0  -4  10   47.73    3.92
   0  -4  10   43.49    2.27
   0  -4  10   45.55    3.23
   0   4 -10   47.93    3.59
   0   4 -10   45.52    3.52
   0  -4  10   51.27    2.43
   0  -4  10   45.99    2.85
   0   4  -9   89.73    3.69
   0  -4   9   86.55    4.61
   0  -4   9   78.06    2.90
   0  -4   9   77.75    4.04
   0  -4   9   81.08    3.10
   0  -4   9   83.59    3.67
   0   4  -9   82.22    4.28
   0   4  -9   84.22    3.04
   0   4  -9   90.48    4.58
   0   4  -9   78.53    3.11
   0  -4   8   78.44    2.78
   0  -4   8   79.78    3.84
   0   4  -8   78.53    3.28
   0   4  -8   74.94    3.79
   0   4  -8   83.52    4.06
   0  -4   8   83.86    3.22
   0   4  -8   74.61    2.84
   0  -4   8   80.97    4.20
   0   4  -7    7.06    1.33
   0  -4   7    5.13    1.02
   0   4  -7    6.69    1.57
   0   4  -7    6.47    1.06
   0  -4   7    5.84    1.89
   0  -4   7    7.33    1.80
   0   4  -7    6.74    1.67
   0  -4   6  512.93    8.21
   0  -4   6  531.75    8.87
   0  -4   6  530.44    8.65
   0   4  -6  527.36    7.45
   0  -4   6  513.69    6.74
   0   4  -6  531.05    6.84
   0   4  -6  524.62    8.62
   0   4  -6  537.75    8.88
   0   4  -5  635.57    7.39
   0  -4   5  622.66    7.37
   0  -4   5  637.51    9.12
   0  -4   5  628.86    9.09
   0   4  -5  629.33    8.97
   0   4  -5  628.48    9.17
   0  -4   5  623.40    8.52
   0   4  -5  624.28    7.79
   0  -4   4   75.52    3.18
   0  -4   4   73.58    2.70
   0   4  -4   75.01    3.18
   0  -4   4   73.88    2.97
   0   4  -4   72.50    3.12
   0  -4   4   71.55    3.03
   0   4  -4   77.43    2.75
   0   4  -3  106.14    3.23
   0   4  -3  102.83    3.25
   0  -4   3  126.12    4.08
   0  -4   3  114.08    3.56
   0  -4   3  106.83    3.78
   0  -4   3  132.18    4.24
   0   4  -3  107.09    3.66
   0   4  -3  111.16    3.72
   0  -4   2  352.85    6.15
   0  -4   2  327.08    5.91
   0  -4   2  335.71    5.83
   0   4  -2  334.41    5.87
   0   4  -2  339.79    5.77
   0   4  -2  334.90    6.07
   0   4  -2  334.35    5.62
   0   4  -1  435.50    6.66
   0   4  -1  427.10    6.53
   0   4  -1  435.78    6.76
   0  -4   1  431.38    6.95
   0  -4   1  431.10    6.64
   0  -4   1  442.82    6.99
   0  -4   0   10.00    2.03
   0   4   0    5.61    1.12
   0   4   0    4.39    1.54
   0  -4   0    6.99    1.70
   0   4   0    8.37    1.76
   0  -4   0    6.36    1.38
   0   4   1  825.73    9.25
   0  -4  -1  811.55   10.43
   0  -4  -1  825.14    9.11
   0  -4  -1  811.37   10.30
   0   4   1  818.27   10.34
   0   4   1  828.30   10.28
   0  -4  -2   52.69    2.49
   0  -4  -2   56.77    3.13
   0   4   2   51.16    2.92
   0  -4  -2   56.86    3.40
   0   4   2   61.49    3.64
   0   4   2   57.55    2.84
   0   4   2   51.90    1.93
   0   4   3  254.97    6.40
   0   4   3  247.66    5.61
   0  -4  -3  251.80    5.24
   0   4   3  257.66    4.43
   0  -4  -3  259.20    6.50
   0  -4  -3  237.04    6.34
   0   4   3  257.46    4.17
   0   4   3  245.20    6.34
   0   4   4    1.81    1.60
   0  -4  -4    1.53    0.99
   0  -4  -4   -0.94    1.46
   0   4   4    1.23    1.12
   0  -4  -4    3.58    1.83
   0   4   4    0.51    1.42
   0   4   4    0.48    0.78
   0   4   4    0.48    0.49
   0   4   5  240.34    5.11
   0   4   5  246.05    7.08
   0   4   5  237.53    6.07
   0  -4  -5  242.30    7.07
   0  -4  -5  240.89    5.46
   0   4   5  252.32    4.08
   0   4   5  234.95    6.75
   0  -4  -5  235.87    6.83
   0  -4  -6  178.26    4.89
   0   4   6  172.59    5.49
   0  -4  -6  174.54    6.38
   0   4   6  182.76    6.35
   0   4   6  173.08    6.13
   0  -4  -6  168.10    6.09
   0   4   6  178.27    4.82
   0   4   7   13.40    2.19
   0   4   7   12.09    1.72
   0  -4  -7   15.81    1.87
   0   4   7   17.05    2.15
   0   4   7   14.15    2.57
   0   4   8   32.81    3.43
   0  -4  -8   27.75    2.68
   0   4   8   30.13    2.54
   0   4   8   30.12    2.74
   0  -4  -8   28.09    2.32
   0  -4  -8   26.31    2.97
   0   4   9  107.97    5.05
   0   4   9  100.15    5.60
   0  -4  -9  102.53    5.06
   0   4   9  101.15    4.53
   0  -4  -9  107.47    5.75
   0  -4  -9   96.97    5.37
   0   4  10   31.81    3.09
   0   4  10   36.89    3.89
   0  -4 -10   32.85    3.76
   0  -4 -10   36.83    3.44
   0   4  11   34.82    3.96
   0  -4 -11   28.70    3.26
   0  -4 -11   30.22    3.76
   0   4  11   29.80    3.11
   0   4  12   56.17    4.98
   0   4  12   60.28    4.44
   0  -4 -12   58.75    5.10
   0  -4 -12   63.34    4.72
   0   4  13    9.53    2.18
   0  -4 -13    8.03    2.98
   0   4  13    9.91    2.86
   0  -4 -14   10.42    3.18
   0   4  14   10.92    2.89
   0  -4 -15   -1.25    2.55
   0   4  15    3.37    3.10
   0   4  16   95.28    7.27
   0  -4 -16  108.07    7.50
   0  -4 -17    1.00    2.54
   0   4  17    8.33    3.12
   0  -5  20   38.63    5.33
   0  -5  20   42.13    5.01
   0   5 -20   40.61    5.18
   0   5 -20   45.12    5.62
   0   5 -19    9.15    3.38
   0  -5  19    8.96    3.49
   0  -5  19    4.77    2.28
   0  -5  18    2.95    2.24
   0  -5  18    1.29    3.10
   0   5 -18    2.64    2.89
   0  -5  17   53.34    5.41
   0  -5  17   58.27    5.24
   0   5 -17   60.60    5.39
   0  -5  16   -1.79    2.66
   0   5 -16    0.03    2.49
   0  -5  16    1.69    1.99
   0   5 -15   20.12    2.71
   0   5 -15   22.08    3.59
   0  -5  15   24.79    3.56
   0  -5  15   21.94    3.80
   0   5 -14   75.80    5.28
   0  -5  14   75.70    5.27
   0  -5  14   77.13    5.68
   0  -5  14   77.21    4.44
   0   5 -14   73.19    4.30
   0  -5  13   56.86    3.68
   0  -5  13   50.02    4.65
   0   5 -13   62.54    3.86
   0   5 -13   55.61    4.59
   0  -5  13   52.20    4.37
   0   5 -12   90.38    5.37
   0   5 -12   99.31    4.59
   0  -5  12   91.41    5.57
   0  -5  12   98.17    5.54
   0  -5  12   95.42    4.49
   0   5 -12   90.87    5.30
   0   5 -11  127.70    5.88
   0  -5  11  128.14    5.62
   0   5 -11  132.56    4.36
   0  -5  11  128.82    4.25
   0   5 -11  141.65    5.14
   0  -5  11  136.24    5.09
   0  -5  11  132.95    6.39
   0   5 -11  134.61    6.03
   0  -5  10   44.55    3.36
   0   5 -10   47.96    2.58
   0   5 -10   51.13    3.81
   0  -5  10   45.71    3.81
   0  -5  10   46.35    2.96
   0   5 -10   45.63    3.50
   0  -5  10   49.39    2.51
   0   5 -10   49.86    3.03
   0  -5  10   50.60    2.83
   0   5 -10   50.59    2.72
   0   5  -9   21.40    2.57
   0  -5   9   22.12    2.53
   0  -5   9   18.99    2.21
   0  -5   9   21.61    1.75
   0   5  -9   16.26    1.85
   0   5  -9   22.00    2.61
   0   5  -9   20.05    1.68
   0  -5   9   24.56    2.86
   0   5  -8  376.07    8.54
   0   5  -8  381.95    8.65
   0   5  -8  371.35    7.26
   0  -5   8  377.10    8.43
   0   5  -8  362.08    6.45
   0  -5   8  384.77    8.15
   0  -5   8  388.13    6.55
   0  -5   8  383.85    8.84
   0  -5   7  205.28    5.78
   0   5  -7  203.06    4.78
   0  -5   7  202.88    4.71
   0   5  -7  205.06    5.28
   0  -5   7  208.21    6.07
   0  -5   7  193.54    6.05
   0   5  -7  200.14    6.10
   0   5  -7  205.98    6.04
   0   5  -6  283.59    6.82
   0  -5   6  270.92    6.64
   0  -5   6  286.36    5.63
   0   5  -6  287.12    6.95
   0  -5   6  293.80    6.96
   0  -5   6  288.72    6.52
   0   5  -6  282.60    5.60
   0   5  -5  246.22    5.25
   0  -5   5  234.34    5.89
   0  -5   5  244.77    5.35
   0   5  -5  241.95    6.10
   0   5  -5  244.93    6.17
   0  -5   5  240.49    6.24
   0  -5   5  245.96    5.88
   0   5  -4  193.53    5.36
   0  -5   4  202.79    4.93
   0   5  -4  195.19    4.72
   0  -5   4  187.33    4.89
   0  -5   4  196.04    5.52
   0  -5   4  191.19    5.14
   0   5  -4  197.14    5.35
   0   5  -4  196.82    5.41
   0   5  -3 1697.01   15.21
   0  -5   3 1680.63   15.14
   0   5  -3 1676.04   14.90
   0   5  -3 1677.36   14.07
   0   5  -3 1684.24   14.13
   0  -5   3 1686.86   15.00
   0  -5   3 1652.78   14.33
   0   5  -2  109.27    3.86
   0  -5   2  107.93    4.05
   0  -5   2  111.60    4.03
   0  -5   2  107.12    3.91
   0   5  -2  112.92    3.78
   0   5  -2  114.36    4.13
   0   5  -2  122.66    4.09
   0   5  -1   34.53    2.28
   0  -5   1   34.88    3.08
   0   5  -1   31.25    2.50
   0  -5   1   39.35    2.74
   0  -5   1   28.89    2.47
   0   5  -1   28.59    2.21
   0  -5   0 1828.35   15.11
   0   5   0 1810.48   15.78
   0  -5   0 1807.21   16.41
   0   5   0 1798.66   16.26
   0   5   0 1791.63   15.07
   0  -5   0 1801.46   16.60
   0  -5  -1  486.11    9.06
   0   5   1  480.65    8.84
   0  -5  -1  480.97    7.77
   0   5   1  461.84    8.77
   0   5   1  482.65    7.97
   0  -5  -1  470.60    8.80
   0   5   2  148.77    5.23
   0  -5  -2  141.02    5.14
   0   5   2  147.17    3.45
   0  -5  -2  146.82    4.37
   0   5   2  139.88    5.09
   0  -5  -2  147.14    5.37
   0   5   3   50.52    2.19
   0  -5  -3   51.30    3.57
   0   5   3   51.05    3.34
   0   5   3   56.42    3.48
   0   5   3   49.52    2.14
   0  -5  -3   50.35    3.39
   0   5   3   51.65    2.92
   0  -5  -3   46.53    2.61
   0   5   4    4.17    1.80
   0   5   4    4.66    0.79
   0   5   4    4.11    0.85
   0  -5  -4    4.63    2.10
   0   5   4    3.06    1.67
   0   5   4    4.08    1.30
   0  -5  -4    4.73    1.98
   0  -5  -4    4.85    1.40
   0  -5  -5  175.16    6.57
   0   5   5  176.79    4.55
   0   5   5  168.54    5.52
   0  -5  -5  172.98    5.10
   0  -5  -5  172.51    6.51
   0   5   5  178.40    6.39
   0   5   5  181.00    3.73
   0   5   5  170.28    6.41
   0   5   6   32.72    2.32
   0   5   6   27.02    2.82
   0  -5  -6   26.45    3.21
   0  -5  -6   30.79    3.52
   0   5   6   32.25    3.37
   0   5   6   28.27    2.61
   0  -5  -6   28.53    2.30
   0  -5  -7    0.06    2.46
   0  -5  -7    1.30    1.12
   0   5   7    3.42    1.48
   0  -5  -7    1.38    1.95
   0   5   7    3.21    2.12
   0   5   7    4.14    1.99
   0   5   8   43.88    3.99
   0  -5  -8   37.59    3.79
   0   5   8   40.27    3.63
   0   5   8   46.46    3.42
   0   5   9  176.33    7.65
   0  -5  -9  167.86    6.64
   0   5   9  164.67    6.49
   0  -5  -9  163.56    7.28
   0  -5 -10    6.56    2.15
   0   5  10    2.88    2.34
   0   5  10    0.66    1.56
   0  -5 -10    1.19    2.47
   0   5  11   13.43    2.80
   0   5  11   12.56    2.24
   0  -5 -11   15.02    3.24
   0  -5 -11   16.09    2.88
   0   5  12   71.50    4.91
   0  -5 -12   75.49    5.94
   0   5  12   76.50    5.98
   0   5  13   17.81    3.63
   0  -5 -13   23.33    4.01
   0   5  14    0.76    2.61
   0  -5 -14    1.76    2.81
   0   5  15   27.15    4.38
   0  -5 -15   34.65    4.94
   0  -5 -16   34.95    4.97
   0   5  16   47.45    5.47
   0  -6  20    0.86    3.19
   0   6 -20   -3.68    3.05
   0  -6  20    2.32    2.62
   0   6 -19    6.64    2.86
   0  -6  19    7.05    3.36
   0  -6  19    0.46    3.18
   0   6 -18    2.75    3.06
   0  -6  18   -0.57    3.04
   0  -6  18    0.44    2.21
   0  -6  17    2.90    2.86
   0  -6  17    4.75    2.71
   0   6 -17    6.85    2.89
   0   6 -16    7.50    2.70
   0  -6  16    4.99    2.50
   0  -6  16    3.05    3.00
   0  -6  15   76.12    5.85
   0   6 -15   88.04    5.99
   0  -6  15   78.10    5.70
   0   6 -14    9.36    2.67
   0   6 -14    5.36    1.77
   0  -6  14   11.02    3.39
   0  -6  14    8.26    2.51
   0   6 -13    1.14    2.09
   0   6 -13   -0.12    1.40
   0   6 -13    2.68    1.79
   0  -6  13   -1.63    2.40
   0  -6  13    0.17    2.46
   0  -6  13   -0.48    1.96
   0  -6  13    0.21    1.22
   0   6 -12    1.49    1.29
   0  -6  12    3.03    1.68
   0   6 -12    5.25    2.52
   0   6 -12    5.73    2.26
   0  -6  12    5.16    2.67
   0  -6  12    4.05    1.29
   0  -6  12    2.76    1.96
   0   6 -11   49.76    3.99
   0   6 -11   46.86    3.17
   0  -6  11   49.89    3.84
   0   6 -11   48.18    3.92
   0  -6  11   46.84    3.61
   0  -6  11   46.11    3.12
   0   6 -11   55.94    3.26
   0  -6  11   45.42    4.15
   0   6 -10    8.13    2.00
   0  -6  10    4.97    1.24
   0   6 -10    4.55    1.14
   0  -6  10    4.97    1.53
   0   6 -10    6.05    2.35
   0   6 -10    8.20    1.64
   0  -6  10    5.40    2.05
   0  -6  10    4.25    2.06
   0   6  -9    2.93    1.86
   0  -6   9    2.90    1.12
   0  -6   9    3.30    1.50
   0   6  -9    2.35    1.03
   0  -6   9    4.95    2.08
   0   6  -9    4.52    1.31
   0  -6   9    2.08    1.86
   0   6  -9    0.31    1.70
   0  -6   8  106.39    3.85
   0  -6   8  111.64    5.02
   0  -6   8  110.91    4.67
   0   6  -8  113.30    5.08
   0   6  -8  111.02    4.25
   0   6  -8  110.78    3.89
   0   6  -8   97.72    4.71
   0  -6   8  107.61    5.02
   0   6  -7  241.59    5.68
   0  -6   7  234.75    5.71
   0  -6   7  232.48    6.58
   0  -6   7  224.93    6.78
   0  -6   7  228.50    6.88
   0   6  -7  241.12    7.02
   0   6  -7  227.92    6.76
   0  -6   6   80.20    3.49
   0   6  -6   75.79    3.30
   0  -6   6   81.51    4.10
   0   6  -6   79.96    4.09
   0  -6   6   75.18    3.80
   0  -6   6   80.42    3.82
   0   6  -6   85.08    4.17
   0   6  -6   79.69    3.98
   0  -6   5  643.01   10.34
   0  -6   5  658.37   10.82
   0   6  -5  658.50   10.73
   0  -6   5  665.39    9.74
   0   6  -5  648.16   10.71
   0  -6   5  659.18   10.15
   0   6  -5  672.68    9.61
   0   6  -5  679.18   11.01
   0   6  -4    4.79    1.36
   0  -6   4    7.24    2.02
   0  -6   4    3.95    1.37
   0   6  -4    5.84    1.58
   0   6  -4    5.41    1.65
   0  -6   4    4.60    1.50
   0   6  -4    4.01    1.26
   0  -6   3  978.77   12.76
   0   6  -3  995.45   11.98
   0  -6   3  992.56   12.86
   0   6  -3 1007.17   12.20
   0  -6   3  998.24   12.45
   0   6  -3  980.92   12.86
   0   6  -3  986.10   12.56
   0   6  -2   10.81    1.65
   0   6  -2   12.99    1.90
   0   6  -2   12.26    1.99
   0  -6   2   15.26    2.07
   0  -6   2   13.83    2.17
   0   6  -2   12.11    1.69
   0  -6   2   10.60    1.79
   0   6  -1  356.99    7.83
   0   6  -1  372.20    7.72
   0  -6   1  366.64    8.12
   0  -6   1  375.27    7.63
   0  -6   1  361.56    8.08
   0   6  -1  374.97    7.59
   0  -6   0   61.66    3.69
   0   6   0   58.48    3.36
   0   6   0   65.22    3.30
   0  -6   0   65.55    3.81
   0   6   0   62.73    3.63
   0  -6   0   64.59    3.36
   0   6   1   27.87    2.82
   0   6   1   22.75    2.40
   0   6   1   20.50    2.38
   0   6   1   27.12    2.33
   0  -6  -1   23.78    2.23
   0  -6  -1   30.73    3.35
   0  -6  -1   23.28    2.61
   0   6   2   38.67    2.04
   0  -6  -2   34.76    3.25
   0   6   2   34.00    2.98
   0  -6  -2   37.18    3.52
   0   6   2   42.08    3.50
   0  -6  -2   33.26    2.50
   0   6   3  642.07    7.80
   0  -6  -3  618.24   11.89
   0   6   3  599.60   11.84
   0   6   3  611.90   11.78
   0  -6  -3  631.41   12.13
   0  -6  -3  615.18    9.83
   0   6   3  615.84    7.95
   0   6   4   22.97    1.58
   0   6   4   26.74    3.17
   0  -6  -4   23.89    3.31
   0  -6  -4   23.11    2.98
   0   6   4   24.69    2.97
   0  -6  -4   19.94    2.01
   0   6   5 1225.83   18.14
   0   6   5 1267.12   16.01
   0  -6  -5 1222.58   17.94
   0  -6  -5 1258.25   18.30
   0  -6  -5 1223.15   14.36
   0   6   5 1249.66   18.02
   0  -6  -6   14.84    2.02
   0   6   6   15.66    2.23
   0   6   6   15.64    2.61
   0  -6  -6   14.27    2.88
   0  -6  -6   15.00    2.98
   0   6   6   15.47    2.79
   0   6   7   48.88    4.12
   0  -6  -7   45.90    4.36
   0  -6  -7   45.67    4.25
   0   6   7   56.07    4.52
   0   6   7   50.55    3.63
   0   6   8   14.93    2.55
   0   6   8   13.17    2.15
   0   6   8   15.47    3.01
   0  -6  -8   10.06    2.78
   0  -6  -9   -2.73    3.11
   0   6   9    2.02    2.11
   0  -6  -9   -0.24    1.63
   0   6   9    2.13    1.71
   0  -6 -10    2.23    1.71
   0   6  10    6.78    1.84
   0   6  10    4.71    2.22
   0  -6 -10   -0.05    2.89
   0   6  11   23.56    3.65
   0  -6 -11   25.69    4.12
   0  -6 -12  108.20    7.39
   0   6  12  106.57    7.16
   0   6  13   16.90    3.77
   0  -6 -13   27.48    4.37
   0  -6 -14   13.18    3.91
   0   6  14   11.65    3.17
   0   6  15    6.09    2.80
   0  -7  20    4.86    2.60
   0   7 -20    3.51    2.59
   0  -7  19    0.83    3.41
   0  -7  19    5.05    2.59
   0   7 -19    6.98    3.41
   0  -7  18    1.83    2.27
   0   7 -18    7.07    3.27
   0  -7  18    2.33    2.15
   0  -7  18    3.00    3.16
   0   7 -17    0.47    2.38
   0  -7  17    4.83    2.57
   0  -7  17    4.24    2.22
   0  -7  17    1.73    3.29
   0  -7  16   10.63    3.21
   0  -7  16   15.95    2.96
   0   7 -16   12.33    2.98
   0  -7  16   14.35    3.30
   0  -7  15   57.09    5.12
   0   7 -15   62.32    5.29
   0   7 -15   65.14    5.42
   0  -7  15   58.86    5.27
   0  -7  15   66.72    4.92
   0   7 -14  102.82    6.23
   0   7 -14  110.95    6.51
   0  -7  14  119.77    6.21
   0   7 -14  114.74    5.35
   0  -7  14  120.93    7.18
   0  -7  14  107.98    6.16
   0  -7  14  111.81    6.69
   0  -7  13  392.30   10.59
   0  -7  13  373.29   11.57
   0   7 -13  393.25   11.37
   0  -7  13  395.98    9.67
   0   7 -13  379.51   11.27
   0  -7  13  370.42   10.76
   0   7 -13  397.39    9.46
   0  -7  12   82.67    4.89
   0   7 -12   89.10    4.54
   0  -7  12   85.49    5.66
   0  -7  12   83.19    5.22
   0   7 -12   91.28    5.54
   0   7 -12   86.44    5.41
   0  -7  11    4.71    2.22
   0  -7  11   16.76    2.57
   0  -7  11   10.23    2.18
   0   7 -11    8.33    2.34
   0   7 -11   14.87    2.55
   0   7 -11   11.23    1.91
   0  -7  11   10.57    2.55
   0   7 -11    8.08    2.63
   0  -7  10   49.85    4.13
   0  -7  10   46.56    2.87
   0   7 -10   46.86    3.97
   0  -7  10   50.46    3.85
   0   7 -10   47.94    2.86
   0  -7  10   36.90    3.57
   0   7 -10   45.24    3.82
   0  -7   9  120.74    4.53
   0  -7   9  121.48    5.81
   0   7  -9  114.97    5.46
   0   7  -9  110.07    5.53
   0  -7   9  115.14    5.17
   0   7  -9  119.20    4.44
   0  -7   9  103.96    5.30
   0  -7   8  242.67    7.58
   0   7  -8  246.09    7.68
   0  -7   8  257.88    6.44
   0  -7   8  248.45    7.31
   0   7  -8  270.04    8.13
   0  -7   8  262.17    8.01
   0   7  -8  264.34    6.42
   0   7  -7  155.91    5.99
   0   7  -7  157.71    6.06
   0  -7   7  160.16    5.26
   0   7  -7  154.01    5.01
   0  -7   7  143.55    5.62
   0  -7   7  154.34    5.69
   0  -7   7  152.26    6.03
   0   7  -7  156.01    6.15
   0  -7   6   34.28    2.82
   0   7  -6   36.60    3.04
   0  -7   6   33.93    2.60
   0   7  -6   33.29    2.94
   0   7  -6   38.59    2.79
   0  -7   6   38.38    3.32
   0   7  -5    4.60    1.67
   0   7  -5    3.59    1.69
   0  -7   5    3.63    1.82
   0  -7   5    3.43    1.98
   0  -7   5    2.57    1.56
   0   7  -5    3.90    1.51
   0  -7   4    3.62    1.71
   0   7  -4    1.65    1.50
   0  -7   4    1.85    1.80
   0   7  -4    2.44    1.40
   0   7  -4    1.52    1.16
   0  -7   4    1.58    1.51
   0   7  -4    3.47    1.59
   0   7  -3  142.90    5.46
   0  -7   3  142.28    5.43
   0  -7   3  131.96    5.23
   0   7  -3  136.52    5.17
   0  -7   3  155.08    5.69
   0   7  -3  146.85    5.35
   0   7  -3  136.95    5.01
   0   7  -2    9.18    2.04
   0  -7   2    4.05    1.92
   0  -7   2    6.15    1.97
   0   7  -2    6.74    2.17
   0   7  -2    7.36    1.82
   0   7  -2    5.91    1.65
   0  -7   2    6.06    2.09
   0  -7   1   72.13    4.15
   0  -7   1   80.87    4.16
   0   7  -1   80.69    4.22
   0  -7   1   74.11    4.43
   0   7  -1   78.91    4.06
   0   7  -1   71.76    3.75
   0   7   0  402.90    9.36
   0  -7   0  393.51    8.57
   0   7   0  394.30    8.91
   0   7   0  401.33    8.52
   0  -7   0  393.81    9.54
   0  -7   0  394.13    9.35
   0   7   1  186.37    6.73
   0  -7  -1  204.04    6.17
   0   7   1  200.53    6.16
   0  -7  -1  189.67    6.83
   0   7   1  195.89    6.62
   0  -7  -1  197.67    7.18
   0  -7  -2  670.66   12.82
   0  -7  -2  648.64   10.94
   0   7   2  681.16   12.96
   0  -7  -2  681.94   13.15
   0   7   2  655.01   12.71
   0   7   2  648.19   12.26
   0  -7  -3  111.70    6.02
   0  -7  -3   95.53    5.36
   0  -7  -3  101.33    4.48
   0   7   3  111.49    3.73
   0   7   3  105.53    5.56
   0   7   3   97.33    5.33
   0  -7  -4 1081.39   17.57
   0  -7  -4 1050.59   14.13
   0   7   4 1068.69   17.25
   0  -7  -4 1055.53   17.33
   0   7   4 1058.85   17.36
   0  -7  -5  139.80    6.99
   0   7   5  137.90    6.74
   0  -7  -5  136.02    5.27
   0   7   5  137.30    6.69
   0  -7  -5  137.59    6.84
   0  -7  -6   56.76    4.92
   0   7   6   59.86    4.73
   0  -7  -6   56.06    4.81
   0   7   6   54.75    4.44
   0   7   7   -0.60    1.99
   0  -7  -7    1.92    2.37
   0   7   7    2.57    1.57
   0  -7  -7    0.18    2.79
   0   7   7    2.64    2.16
   0  -7  -8   -1.28    2.55
   0   7   8    1.68    2.22
   0   7   8    0.45    1.46
   0   7   8   -2.67    2.42
   0  -7  -8   -3.19    3.00
   0   7   9   -0.85    2.08
   0   7   9    0.08    1.52
   0  -7  -9   -3.82    3.30
   0   7  10    4.99    2.49
   0  -7 -10    5.70    2.85
   0  -7 -10    0.38    2.99
   0  -7 -11   17.81    3.92
   0   7  11   18.28    3.82
   0  -7 -12    0.25    2.58
   0   7  12    3.85    2.88
   0   7  13   10.26    3.19
   0  -7 -13   11.21    3.63
   0   8 -19   15.56    4.09
   0  -8  19    8.78    3.55
   0  -8  19   11.86    3.33
   0  -8  18  131.87    8.29
   0  -8  18  136.81    7.67
   0   8 -18  145.24    8.65
   0  -8  18  118.94    8.25
   0  -8  17    2.10    3.59
   0  -8  17    9.65    2.61
   0   8 -17   10.98    3.25
   0  -8  17    9.70    3.25
   0  -8  16   21.80    3.99
   0  -8  16   21.83    3.84
   0   8 -16   21.32    4.00
   0   8 -16   20.57    3.79
   0  -8  16   26.07    3.57
   0   8 -15    7.81    2.76
   0  -8  15    0.22    2.76
   0   8 -15    5.69    2.49
   0  -8  15    3.16    2.76
   0  -8  15    6.12    2.76
   0  -8  15    6.18    2.35
   0  -8  14    0.31    2.90
   0  -8  14    0.30    2.02
   0   8 -14    1.06    2.51
   0   8 -14   -0.38    2.32
   0  -8  14   -0.89    2.29
   0   8 -13   85.08    5.81
   0   8 -13   90.54    4.83
   0  -8  13   87.84    5.34
   0  -8  13   81.40    5.53
   0   8 -13   81.17    5.54
   0  -8  13   76.11    5.60
   0  -8  12   84.51    4.85
   0  -8  12   72.65    4.73
   0   8 -12   83.62    4.57
   0   8 -12   72.61    5.25
   0  -8  12   69.64    5.07
   0  -8  12   69.72    5.24
   0   8 -12   63.26    4.84
   0  -8  11  537.52   12.04
   0  -8  11  521.87   12.56
   0  -8  11  494.54   12.51
   0   8 -11  543.57   12.82
   0   8 -11  517.37   12.81
   0  -8  10  229.14    8.27
   0   8 -10  226.21    8.05
   0   8 -10  232.36    8.39
   0  -8  10  227.02    8.27
   0  -8  10  244.16    6.68
   0  -8  10  231.59    7.84
   0   8  -9   26.87    3.33
   0   8  -9   19.62    2.12
   0  -8   9   29.84    2.94
   0  -8   9   25.55    3.36
   0  -8   9   19.38    2.77
   0   8  -9   22.92    3.04
   0  -8   9   25.13    2.94
   0   8  -9   21.98    2.88
   0  -8   8  964.40   15.95
   0  -8   8  996.24   13.69
   0   8  -8  994.38   15.94
   0   8  -8  962.59   15.95
   0   8  -8 1004.04   16.23
   0   8  -8  988.53   13.41
   0  -8   8 1000.79   15.39
   0   8  -7    5.56    1.69
   0  -8   7    5.58    1.92
   0  -8   7   12.06    3.22
   0   8  -7    5.28    1.81
   0   8  -7    5.23    2.06
   0  -8   7    9.57    2.32
   0  -8   6   82.94    4.49
   0   8  -6   86.27    4.25
   0   8  -6   78.26    4.63
   0   8  -6   82.22    4.66
   0  -8   6   84.73    5.11
   0  -8   6   93.61    4.72
   0  -8   5  141.30    5.98
   0   8  -5  136.81    5.42
   0  -8   5  137.21    5.58
   0  -8   5  136.58    5.72
   0   8  -5  132.16    5.71
   0   8  -5  140.48    5.87
   0  -8   4  288.59    8.27
   0  -8   4  297.21    8.23
   0   8  -4  298.38    8.44
   0   8  -4  286.26    8.10
   0   8  -4  295.74    7.96
   0   8  -4  297.23    7.88
   0  -8   4  311.35    8.52
   0  -8   3  272.41    7.93
   0  -8   3  260.13    7.94
   0   8  -3  263.12    7.66
   0   8  -3  268.92    7.68
   0  -8   3  265.38    7.91
   0   8  -3  260.15    7.50
   0   8  -3  275.71    8.15
   0  -8   2   18.37    2.64
   0  -8   2   23.92    3.46
   0   8  -2   19.27    2.39
   0  -8   2   21.63    2.86
   0   8  -2   20.36    2.52
   0   8  -2   22.48    2.79
   0   8  -2   22.02    2.80
   0  -8   1   24.89    2.91
   0   8  -1   22.93    2.59
   0   8  -1   25.70    2.79
   0  -8   1   19.29    2.58
   0  -8   0    8.20    2.57
   0   8   0    2.57    1.93
   0  -8   0    2.98    1.82
   0   8   0    2.19    1.52
   0  -8   0    5.82    2.97
   0   8   0    9.43    2.74
   0   8   1    4.24    2.34
   0  -8  -1    3.65    1.99
   0  -8  -1   -0.96    1.96
   0   8   1    0.51    1.77
   0  -8  -1    7.70    3.11
   0   8   1    1.25    1.40
   0  -8  -2  110.56    5.07
   0   8   2  109.77    4.11
   0   8   2  108.65    5.60
   0   8   2  101.49    5.63
   0  -8  -2  103.64    5.78
   0  -8  -2  112.26    6.25
   0  -8  -3   96.22    5.77
   0  -8  -3  113.68    6.50
   0   8   3  110.92    5.83
   0   8   3  104.94    5.91
   0  -8  -3  106.12    5.03
   0  -8  -4   95.31    6.19
   0  -8  -4   91.03    4.63
   0   8   4   84.35    5.49
   0  -8  -4   85.25    5.71
   0   8   4   91.86    5.76
   0  -8  -5   66.10    5.22
   0   8   5   76.12    5.43
   0  -8  -5   69.85    5.56
   0   8   5   73.05    5.29
   0  -8  -6  154.69    7.81
   0   8   6  159.24    7.70
   0  -8  -6  150.15    7.90
   0   8   6  142.18    7.51
   0   8   7    6.23    2.44
   0   8   7    3.04    2.25
   0  -8  -7    8.18    3.22
   0  -8  -7    0.89    2.66
   0   8   8   50.73    4.86
   0  -8  -8   43.00    4.83
   0   8   8   48.77    4.91
   0  -8  -8   47.69    5.18
   0  -8  -9   34.71    4.47
   0   8   9   48.67    5.00
   0   8  10   30.54    4.30
   0  -8 -10   21.34    3.79
   0  -8 -10   36.27    4.96
   0  -8 -11   88.09    7.15
   0   8  11   76.20    6.53
   0  -8 -12   21.61    4.67
   0   8  12   19.34    3.98
   0  -9  19   18.59    4.25
   0  -9  19   22.02    4.33
   0   9 -19   22.03    3.95
   0  -9  18    5.86    2.98
   0  -9  18   -1.23    3.61
   0   9 -18    0.55    2.61
   0   9 -17    3.68    2.81
   0   9 -17    1.74    2.83
   0  -9  17    0.71    2.19
   0  -9  17    2.52    2.73
   0   9 -16   42.86    4.73
   0  -9  16   42.04    5.05
   0  -9  16   49.21    4.58
   0   9 -16   48.68    5.37
   0  -9  16   38.87    4.98
   0   9 -15    5.14    3.07
   0   9 -15    4.92    2.60
   0  -9  15    4.19    2.37
   0  -9  15    2.54    1.93
   0  -9  15    1.41    2.84
   0   9 -14    2.92    2.05
   0   9 -14    5.21    3.09
   0  -9  14   -2.08    2.78
   0  -9  14   -1.65    2.79
   0  -9  14   -0.42    1.99
   0  -9  13   15.21    2.74
   0  -9  13   14.13    3.17
   0   9 -13   20.20    3.52
   0   9 -13   14.24    3.24
   0  -9  13   13.31    3.10
   0   9 -12   29.74    3.73
   0  -9  12   24.04    3.61
   0   9 -12   26.25    3.72
   0  -9  12   26.29    3.65
   0  -9  12   27.23    3.39
   0   9 -12   39.21    3.73
   0  -9  12   15.79    2.97
   0  -9  11  213.33    8.63
   0   9 -11  223.03    8.96
   0  -9  11  233.19    8.43
   0   9 -11  224.21    8.86
   0   9 -11  222.18    8.56
   0  -9  11  214.67    8.61
   0  -9  10  225.28    8.65
   0   9 -10  217.03    8.55
   0  -9  10  228.36    8.18
   0   9 -10  229.72    8.59
   0   9 -10  219.38    8.62
   0  -9   9   14.89    2.63
   0   9  -9   14.14    2.93
   0   9  -9   12.30    2.58
   0   9  -9   13.24    2.19
   0  -9   9   13.84    2.41
   0  -9   8  214.99    8.19
   0  -9   8  230.39    7.94
   0  -9   8  221.18    7.19
   0   9  -8  235.23    7.14
   0   9  -8  211.40    8.01
   0   9  -8  221.28    8.18
   0   9  -7   73.98    4.23
   0  -9   7   65.08    4.68
   0  -9   7   75.53    4.78
   0   9  -7   68.48    4.71
   0   9  -7   80.11    4.95
   0  -9   7   74.20    4.52
   0  -9   6  178.51    7.04
   0   9  -6  174.30    7.05
   0   9  -6  178.31    7.08
   0  -9   6  177.31    6.77
   0  -9   6  174.25    7.15
   0   9  -6  182.76    6.56
   0  -9   5   30.54    3.41
   0   9  -5   31.32    3.20
   0  -9   5   27.90    3.11
   0   9  -5   28.13    3.22
   0   9  -5   29.45    3.16
   0  -9   5   29.45    3.54
   0   9  -4   69.43    4.49
   0  -9   4   66.83    4.61
   0  -9   4   66.13    4.57
   0   9  -4   61.94    4.00
   0   9  -4   65.07    4.28
   0  -9   4   69.20    4.65
   0   9  -4   66.55    4.56
   0   9  -3   93.15    4.97
   0   9  -3   96.80    5.08
   0  -9   3  101.28    5.67
   0  -9   3  102.42    5.52
   0   9  -3   99.83    5.23
   0  -9   3   97.31    5.39
   0   9  -3   92.96    5.21
   0  -9   2  164.26    6.96
   0   9  -2  174.11    7.00
   0   9  -2  168.46    6.57
   0   9  -2  167.77    6.87
   0  -9   2  170.56    6.77
   0   9  -2  159.52    6.46
   0  -9   2  158.94    7.02
   0   9  -1  266.87    8.82
   0  -9   1  278.70    8.41
   0  -9   1  253.88    8.71
   0  -9   1  267.50    9.08
   0   9  -1  263.40    8.75
   0   9  -1  269.04    8.60
   0   9  -1  274.59    8.26
   0  -9   0   25.07    3.28
   0  -9   0   27.29    4.20
   0   9   0   20.12    3.10
   0   9   0   24.93    3.12
   0  -9   0   18.42    2.61
   0   9   0   22.65    2.78
   0  -9  -1  118.55    6.77
   0  -9  -1  107.11    5.38
   0   9   1  106.01    5.23
   0   9   1  104.58    5.99
   0   9   1  101.09    5.57
   0  -9  -1   97.13    5.87
   0   9   2  144.50    6.85
   0  -9  -2  161.92    6.40
   0  -9  -2  157.82    7.69
   0  -9  -2  153.63    7.41
   0   9   2  144.84    7.06
   0  -9  -3  149.48    7.72
   0  -9  -3  153.92    7.59
   0   9   3  153.59    7.48
   0  -9  -3  152.05    6.20
   0   9   3  153.66    7.23
   0  -9  -4  160.82    8.24
   0   9   4  161.44    7.85
   0  -9  -4  160.68    8.01
   0   9   4  161.38    7.61
   0  -9  -5   63.87    5.70
   0   9   5   75.08    5.61
   0  -9  -5   68.45    5.65
   0   9   5   68.59    5.43
   0   9   6    8.50    2.66
   0   9   6    8.06    2.49
   0  -9  -6    9.24    3.36
   0   9   6   12.17    3.02
   0  -9  -6   10.67    2.98
   0  -9  -7    4.20    2.98
   0  -9  -7    9.18    3.25
   0   9   7    6.72    2.79
   0   9   7   10.75    3.09
   0  -9  -8   71.63    6.28
   0  -9  -8   87.34    7.03
   0   9   8   87.85    6.57
   0   9   8   92.62    6.83
   0   9   9   35.53    4.88
   0  -9  -9   25.28    4.55
   0   9  10    0.24    3.01
   0  -9 -10    7.48    3.58
   0  -9 -10   -2.53    3.82
   0   9  11    5.62    2.95
   0  -9 -11   13.81    4.19
   0  10 -18   16.45    3.84
   0  10 -18   16.04    3.63
   0 -10  18   13.39    3.56
   0 -10  18    8.20    3.23
   0  10 -17   -1.11    2.56
   0  10 -17    1.66    2.81
   0 -10  17   -0.97    2.17
   0 -10  17   -1.94    3.36
   0 -10  17    2.98    2.47
   0  10 -16   31.91    4.43
   0 -10  16   25.58    4.28
   0 -10  16   27.05    3.90
   0 -10  16   35.29    4.29
   0  10 -16   24.27    4.17
   0  10 -15   57.57    5.39
   0 -10  15   59.03    5.05
   0  10 -15   50.90    5.52
   0 -10  15   45.27    4.99
   0  10 -15   62.59    5.65
   0 -10  15   53.83    5.27
   0 -10  14   -0.74    2.07
   0  10 -14   -1.10    2.54
   0  10 -14    0.19    2.26
   0  10 -14    1.35    2.25
   0 -10  14   -1.52    2.40
   0 -10  14   -2.18    3.11
   0  10 -13    2.97    2.37
   0 -10  13    5.56    2.39
   0 -10  13    3.21    2.81
   0 -10  13    8.07    2.80
   0  10 -13    1.23    2.73
   0  10 -13    5.91    2.80
   0 -10  12   97.77    6.02
   0  10 -12  108.08    6.09
   0  10 -12   92.94    6.33
   0 -10  12   89.38    6.17
   0  10 -12   89.62    6.07
   0  10 -12   92.39    6.21
   0  10 -11    4.94    2.46
   0 -10  11    2.45    2.01
   0 -10  11    2.43    2.73
   0  10 -11   -0.09    2.01
   0  10 -10   83.78    5.81
   0 -10  10   88.91    5.63
   0 -10  10   84.27    5.86
   0  10 -10   81.41    5.54
   0  10  -9    0.90    2.18
   0  10  -9    4.16    2.23
   0  10  -9    3.10    1.81
   0 -10   9    2.47    2.30
   0 -10   9    4.20    2.33
   0 -10   9    9.49    3.14
   0  10  -8    3.31    1.73
   0  10  -8    2.10    1.97
   0 -10   8    3.42    2.30
   0 -10   8    0.75    1.88
   0 -10   8    2.12    2.43
   0  10  -8    2.39    2.16
   0 -10   7   52.80    4.67
   0  10  -7   62.37    4.29
   0  10  -7   57.52    4.64
   0 -10   7   60.17    4.51
   0  10  -7   51.07    4.31
   0 -10   7   55.21    4.38
   0  10  -6  291.10    9.59
   0 -10   6  279.93    9.42
   0 -10   6  302.10    9.55
   0 -10   6  300.04    9.31
   0  10  -6  277.24    9.20
   0  10  -6  306.25    9.02
   0  10  -5   90.17    5.54
   0 -10   5   89.80    5.53
   0 -10   5   91.33    5.48
   0  10  -5   84.94    4.99
   0 -10   5   91.97    5.60
   0  10  -5   86.44    5.24
   0  10  -4  184.65    7.44
   0  10  -4  183.38    7.72
   0  10  -4  184.09    7.29
   0 -10   4  192.28    7.86
   0  10  -4  187.23    7.42
   0 -10   4  192.11    7.74
   0 -10   4  188.45    7.82
   0  10  -3   59.08    4.66
   0  10  -3   62.15    4.41
   0 -10   3   70.58    4.92
   0 -10   3   59.38    4.74
   0  10  -3   59.16    4.25
   0  10  -3   66.46    4.87
   0 -10   3   59.09    4.89
   0 -10   2    8.36    2.72
   0  10  -2    4.42    2.06
   0  10  -2    5.60    2.66
   0 -10   2    5.84    3.00
   0 -10   2    3.86    2.18
   0  10  -2    5.08    2.34
   0  10  -2    2.35    1.78
   0  10  -1  171.90    6.98
   0  10  -1  166.26    7.51
   0 -10   1  173.52    7.74
   0 -10   1  169.87    7.11
   0  10  -1  173.74    7.46
   0 -10   1  179.76    8.10
   0  10  -1  167.99    7.50
   0  10   0   53.44    4.48
   0 -10   0   58.48    5.05
   0  10   0   56.32    4.22
   0  10   0   57.32    4.79
   0 -10   0   54.83    4.29
   0 -10   0   66.94    5.66
   0 -10  -1    4.96    2.71
   0  10   1    1.34    2.48
   0 -10  -1   -1.39    2.07
   0  10   1    1.54    1.97
   0 -10  -1    8.58    3.58
   0 -10  -2   10.91    3.02
   0  10   2   14.58    3.27
   0 -10  -2   19.82    4.16
   0 -10  -2   14.80    2.84
   0  10   2   10.73    2.62
   0  10   3   19.78    3.51
   0  10   3   19.26    3.17
   0 -10  -3   18.50    3.51
   0 -10  -3   21.33    3.89
   0 -10  -4    1.81    2.79
   0  10   4   -1.39    2.47
   0  10   4   -1.85    2.35
   0 -10  -4    4.91    3.40
   0 -10  -5   16.07    3.73
   0 -10  -5   12.71    3.74
   0  10   5    5.38    2.79
   0  10   5   11.01    2.77
   0  10   6   82.76    6.43
   0  10   6   89.30    6.61
   0 -10  -6   82.56    6.79
   0 -10  -6   87.24    6.81
   0  10   7   -2.62    2.85
   0  10   7    1.20    2.37
   0 -10  -7   -3.43    3.86
   0 -10  -7   -2.90    2.99
   0  10   8   35.24    4.58
   0 -10  -8   24.97    4.25
   0 -10  -8   43.06    5.86
   0  10   9   41.87    5.25
   0 -10  -9   21.75    4.28
   0  11 -18   38.52    5.11
   0 -11  17   -7.22    3.70
   0  11 -17   -4.51    3.54
   0  11 -17   -2.60    2.73
   0 -11  17   -0.02    2.27
   0  11 -17    3.73    3.15
   0  11 -16   25.15    4.51
   0  11 -16   20.78    3.80
   0  11 -16   22.42    4.17
   0 -11  16    9.22    3.14
   0 -11  16   24.21    3.83
   0 -11  15   38.23    4.39
   0  11 -15   32.42    4.70
   0  11 -15   32.86    4.53
   0 -11  15   30.62    4.35
   0  11 -15   32.25    4.41
   0 -11  14    9.47    3.41
   0  11 -14    9.36    3.01
   0 -11  14    6.83    2.59
   0  11 -14    7.56    3.11
   0 -11  13   82.82    6.06
   0  11 -13   80.53    5.62
   0 -11  13   64.01    5.11
   0 -11  13   74.99    6.14
   0  11 -13   60.46    5.47
   0  11 -13   64.62    5.94
   0  11 -12   96.79    6.28
   0  11 -12   82.60    6.11
   0 -11  12   91.16    6.04
   0 -11  12   75.22    5.98
   0  11 -12   85.98    6.48
   0 -11  11    2.55    2.54
   0  11 -11    4.02    2.49
   0 -11  11   -0.66    2.31
   0  11 -11    2.15    2.42
   0 -11  10   19.11    3.30
   0  11 -10   11.55    3.06
   0 -11  10   20.11    3.68
   0  11 -10   18.55    3.30
   0 -11   9    9.97    3.27
   0 -11   9    2.85    2.29
   0  11  -9    0.69    2.26
   0  11  -9    3.60    2.79
   0 -11   9    4.36    2.36
   0 -11   8    2.67    2.34
   0 -11   8   -5.28    2.87
   0  11  -8    0.93    2.19
   0 -11   8   -2.31    2.34
   0  11  -8    0.08    1.95
   0  11  -8    0.13    1.90
   0 -11   7   12.62    3.07
   0  11  -7   13.29    3.04
   0 -11   7   17.13    3.13
   0  11  -7   11.07    2.50
   0 -11   7   19.98    3.26
   0  11  -7   18.06    3.14
   0 -11   6   -0.30    2.09
   0  11  -6    0.91    2.24
   0 -11   6    0.74    2.52
   0  11  -6   -0.04    2.01
   0  11  -6    2.46    2.31
   0 -11   6   -0.12    2.50
   0 -11   5   52.88    4.79
   0  11  -5   55.21    4.48
   0 -11   5   51.49    4.56
   0  11  -5   47.83    4.44
   0 -11   5   51.85    4.72
   0  11  -5   48.24    4.24
   0 -11   4    2.72    2.59
   0  11  -4    1.67    2.42
   0  11  -4   -0.73    2.18
   0  11  -4   -0.09    1.86
   0 -11   4    0.46    2.30
   0  11  -4    3.44    2.44
   0 -11   4   -0.64    2.51
   0  11  -3   12.48    2.54
   0 -11   3   13.75    3.04
   0  11  -3   11.46    2.45
   0  11  -3   18.25    3.27
   0 -11   3   12.15    2.97
   0 -11   3   16.33    3.44
   0  11  -3   15.14    3.08
   0  11  -2   97.48    5.93
   0 -11   2  103.85    6.68
   0 -11   2  102.85    5.98
   0 -11   2   94.92    6.20
   0  11  -2   94.67    5.57
   0  11  -2  102.60    6.24
   0  11  -2   97.12    6.19
   0  11  -1   99.78    6.15
   0  11  -1   95.11    6.14
   0 -11   1  106.62    6.12
   0 -11   1  101.42    6.47
   0  11  -1   98.13    6.25
   0  11  -1  104.00    5.85
   0 -11   1  105.59    6.93
   0  11   0    9.10    2.98
   0 -11   0    9.02    2.65
   0  11   0    9.32    2.38
   0 -11   0   10.95    3.32
   0  11   0   12.59    3.42
   0  11   0    4.75    1.98
   0 -11   0   11.13    3.74
   0 -11  -1    5.98    3.53
   0 -11  -1   -0.59    2.66
   0  11   1    3.77    2.53
   0 -11  -1    4.17    2.53
   0  11   1    2.58    2.38
   0  11   2   62.31    5.33
   0 -11  -2   63.39    6.07
   0  11   2   66.44    5.85
   0 -11  -2   59.42    5.64
   0  11   3  102.34    6.93
   0 -11  -3   93.71    7.40
   0  11   3   98.40    6.72
   0 -11  -3  108.02    7.56
   0  11   4   39.51    4.69
   0 -11  -4   43.25    5.10
   0  11   4   42.70    5.12
   0 -11  -4   46.64    5.61
   0  11   5  117.23    7.73
   0 -11  -5  108.40    7.95
   0 -11  -5  100.06    7.68
   0  11   5  119.34    7.86
   0 -11  -6   -2.66    3.87
   0  11   6    0.60    3.13
   0 -11  -6    5.28    3.61
   0  11   6    9.55    2.90
   0  11   7    7.58    3.10
   0  11   7    3.20    2.68
   0 -11  -7    4.53    3.18
   0 -11  -7    1.89    3.63
   0  12 -17   24.60    4.45
   0 -12  16    7.54    3.08
   0  12 -16    3.28    2.89
   0  12 -16   12.91    3.57
   0  12 -15    6.45    2.98
   0  12 -15    8.22    2.90
   0 -12  15   14.55    3.87
   0 -12  15    5.47    2.87
   0 -12  14   11.34    3.04
   0  12 -14   11.98    3.38
   0 -12  14   13.20    3.50
   0  12 -14   14.43    3.99
   0  12 -13   26.51    4.35
   0 -12  13   41.36    5.05
   0 -12  13   34.21    4.76
   0  12 -13   26.70    4.00
   0  12 -13   36.40    4.36
   0 -12  13   32.08    4.11
   0 -12  12   11.87    3.73
   0 -12  12    5.99    2.77
   0  12 -12    4.85    2.85
   0  12 -12    7.65    2.76
   0  12 -12   13.46    3.83
   0  12 -11    2.22    2.58
   0  12 -11    2.03    2.34
   0 -12  11    2.09    3.09
   0 -12  11    1.28    2.10
   0  12 -10   97.42    6.72
   0  12 -10   99.99    6.63
   0 -12  10  109.61    7.15
   0 -12  10  106.09    6.68
   0 -12   9    5.28    2.74
   0  12  -9    2.29    2.57
   0 -12   9    6.08    3.02
   0  12  -9    2.60    2.16
   0 -12   9   10.72    3.43
   0  12  -8   77.02    5.15
   0  12  -8   73.56    5.74
   0  12  -8   79.83    6.08
   0 -12   8   82.13    5.93
   0 -12   8   77.89    5.64
   0 -12   8   69.61    5.73
   0  12  -7   16.87    3.44
   0 -12   7   14.15    3.22
   0 -12   7   18.40    3.44
   0  12  -7   18.03    3.54
   0 -12   7   14.10    3.22
   0  12  -7   13.74    2.80
   0 -12   6    2.40    2.92
   0 -12   6    1.32    2.37
   0 -12   6    0.72    2.39
   0  12  -6   -2.14    2.43
   0  12  -6    3.09    2.59
   0  12  -6   -0.47    2.00
   0 -12   5    6.17    2.74
   0  12  -5    7.85    2.47
   0  12  -5    7.61    2.77
   0 -12   5    9.26    3.28
   0 -12   5    8.54    2.87
   0  12  -5    7.62    2.76
   0 -12   4    5.87    2.77
   0  12  -4    6.87    2.47
   0 -12   4    9.61    3.45
   0  12  -4   11.46    3.05
   0  12  -4    6.97    2.55
   0 -12   4    5.56    2.46
   0  12  -4   11.37    2.94
   0  12  -3    9.25    2.93
   0 -12   3    7.27    2.92
   0  12  -3   10.40    2.97
   0  12  -3    8.37    2.48
   0  12  -3    2.76    2.12
   0 -12   3    3.50    2.61
   0  12  -2   32.88    3.72
   0 -12   2   35.62    5.12
   0 -12   2   27.58    4.12
   0 -12   2   36.51    4.28
   0  12  -2   29.94    4.05
   0  12  -2   34.13    3.99
   0  12  -2   32.43    4.25
   0  12  -1   52.86    4.89
   0  12  -1   50.31    4.47
   0  12  -1   51.91    5.07
   0  12  -1   57.05    5.39
   0 -12   1   46.49    5.21
   0 -12   1   60.38    5.03
   0 -12   1   60.68    6.04
   0 -12   0    5.14    2.91
   0  12   0    1.96    2.35
   0 -12   0    4.73    3.65
   0  12   0    3.94    2.57
   0 -12   0    0.11    2.36
   0  12   0    0.42    2.46
   0 -12  -1   98.51    7.66
   0  12   1  102.77    7.00
   0 -12  -1   95.81    7.27
   0  12   1   96.28    6.89
   0  12   1  103.11    6.91
   0 -12  -2   19.94    4.13
   0  12   2   20.48    3.86
   0 -12  -2   29.92    4.88
   0  12   2   20.50    4.10
   0 -12  -3   69.09    6.83
   0  12   3   56.58    5.76
   0 -12  -3   55.08    5.90
   0  12   3   59.01    5.63
   0  12   4    2.38    2.62
   0 -12  -4   -2.37    2.87
   0  12   4    1.50    2.90
   0 -12  -4   -0.67    3.44
   0 -12  -5    7.22    3.75
   0  12   5    2.69    3.21
   0  12   5    6.88    3.10
   0 -12  -5    9.73    3.67
   0  13 -15   32.53    4.63
   0 -13  15   30.70    4.61
   0 -13  15   30.10    4.47
   0  13 -15   24.62    4.61
   0  13 -14   25.03    4.31
   0 -13  14   30.95    4.37
   0 -13  14   28.27    4.33
   0  13 -14   24.20    4.39
   0 -13  13   21.39    4.62
   0 -13  13   18.20    3.99
   0 -13  13   13.19    3.36
   0  13 -13   25.71    4.51
   0  13 -13   13.14    3.65
   0  13 -13   13.31    3.50
   0 -13  12    1.21    2.92
   0 -13  12    4.37    2.90
   0  13 -12    2.92    2.57
   0  13 -12    0.92    2.18
   0 -13  11   96.48    7.10
   0  13 -11   91.51    7.00
   0 -13  11  102.91    6.93
   0  13 -11   97.35    7.10
   0  13 -11  102.39    7.35
   0  13 -10    1.82    2.68
   0 -13  10    8.04    3.29
   0 -13  10    3.28    2.94
   0  13 -10   -0.16    2.41
   0 -13   9    8.94    2.98
   0  13  -9   10.77    2.95
   0  13  -9   10.26    3.20
   0  13  -8    0.03    2.28
   0 -13   8   -0.21    2.43
   0 -13   8    1.47    3.01
   0 -13   8    0.95    2.85
   0  13  -8    0.16    2.04
   0  13  -7   -0.48    2.12
   0 -13   7   -1.25    2.29
   0 -13   7    4.98    3.16
   0  13  -7    3.44    2.64
   0  13  -7    2.40    2.47
   0 -13   7    0.95    3.01
   0 -13   6    9.26    3.50
   0  13  -6    6.90    2.58
   0 -13   6    6.50    2.75
   0 -13   6    6.79    3.24
   0  13  -6    5.88    2.62
   0  13  -6   14.98    3.54
   0 -13   5   25.03    4.17
   0  13  -5   31.53    4.32
   0  13  -5   25.87    3.74
   0 -13   5   32.50    4.50
   0 -13   5   36.95    5.23
   0  13  -5   24.67    3.92
   0 -13   4   22.98    4.09
   0  13  -4   22.36    3.89
   0  13  -4   20.65    3.76
   0 -13   4   23.31    4.20
   0  13  -4   19.62    3.41
   0 -13   4   34.04    5.21
   0  13  -4   18.03    3.16
   0  13  -3   26.11    4.00
   0 -13   3   29.04    4.58
   0  13  -3   20.48    3.24
   0 -13   3   35.64    5.59
   0  13  -3   30.47    3.93
   0  13  -3   33.10    4.32
   0 -13   3   24.93    4.17
   0 -13   2   15.50    4.06
   0  13  -2    7.38    3.10
   0  13  -2    7.70    2.59
   0 -13   2    5.69    2.93
   0 -13   2    6.94    2.87
   0  13  -2    8.18    3.15
   0  13  -2    9.11    2.48
   0  13  -1   71.73    6.29
   0 -13   1   71.21    6.75
   0  13  -1   81.32    6.54
   0  13  -1   83.81    6.42
   0 -13   1   78.06    6.62
   0  13   0   -2.83    2.25
   0  13   0    3.19    2.99
   0 -13   0   -0.56    2.78
   0 -13   0    5.07    3.60
   0  13   0   -0.66    2.32
   0  13   1  151.17    8.60
   0  13   1  149.02    8.97
   0 -13  -1  135.95    8.99
   0 -13  -1  140.80    9.10
   0  13   1  147.14    8.72
   0  13   2    2.91    2.41
   0 -13  -2    6.51    3.74
   0  13   2    4.82    3.38
   0 -13  -2    0.31    2.99
   0  13   2    2.95    2.37
   0  13   3    2.21    2.82
   0 -13  -3    0.43    3.80
   0  13   3    4.48    2.59
   0 -13  -3    6.21    3.37
   0  13   3    6.74    2.86
   0 -14  14   14.56    3.47
   0  14 -13   57.11    6.06
   0  14 -13   73.82    6.71
   0 -14  13   71.15    6.95
   0  14 -13   52.27    5.77
   0 -14  13   57.28    5.84
   0 -14  12   -3.24    2.87
   0 -14  12   -0.54    3.07
   0  14 -12    8.06    3.78
   0  14 -12   -0.20    2.41
   0  14 -12    1.43    2.85
   0  14 -11  209.98   10.61
   0 -14  11  219.75   10.39
   0 -14  11  208.54   10.52
   0  14 -11  208.15   10.56
   0  14 -11  208.51   10.61
   0  14 -10   41.84    5.17
   0 -14  10   47.08    5.77
   0 -14  10   39.79    4.92
   0  14 -10   35.79    4.86
   0 -14   9    0.94    2.76
   0  14  -9    3.96    2.91
   0  14  -9   -3.28    2.75
   0 -14   9    7.76    3.68
   0 -14   8   29.79    4.68
   0  14  -8   28.61    4.32
   0 -14   8   23.68    3.93
   0 -14   8   31.19    4.79
   0  14  -8   25.40    4.23
   0 -14   7    5.16    3.11
   0  14  -7    4.31    2.43
   0  14  -7    4.16    2.43
   0 -14   7    0.39    3.08
   0  14  -6    2.83    2.67
   0  14  -6   -1.02    2.46
   0  14  -6   -0.09    2.56
   0 -14   6   -0.59    2.83
   0 -14   6   -1.19    2.58
   0  14  -5    8.80    3.21
   0 -14   5    6.86    3.03
   0 -14   5   11.08    4.05
   0  14  -5    7.71    3.12
   0 -14   5    8.28    3.54
   0  14  -5    7.17    2.84
   0 -14   4   39.65    5.65
   0 -14   4   25.83    4.17
   0  14  -4   26.80    3.89
   0  14  -4   27.84    4.44
   0 -14   4   26.55    4.59
   0  14  -4   31.38    4.59
   0  14  -3    8.72    3.21
   0 -14   3    6.70    3.53
   0  14  -3    5.43    2.47
   0  14  -3    7.20    2.95
   0 -14   3    7.00    3.35
   0 -14   3    8.71    4.14
   0  14  -2    6.98    2.80
   0  14  -2    3.63    2.73
   0 -14   2    9.21    3.94
   0 -14   2    4.84    3.18
   0  14  -2    3.11    2.72
   0 -14   1    2.39    3.09
   0  14  -1    3.79    2.47
   0  14  -1   -1.45    3.06
   0  14  -1    2.95    2.34
   0 -14   1    2.48    3.68
   0  14   0   -0.92    3.21
   0 -14   0    3.78    3.28
   0  14   0    1.86    2.88
   0 -14   0    7.96    4.19
   0  14   0    0.12    2.48
   0  14   1   47.55    6.17
   0  14   1   27.49    4.25
   0 -15  11   -2.74    2.82
   0 -15  10   20.62    3.96
   0  15 -10   19.67    3.97
   0 -15   9   52.29    6.00
   0  15  -9   43.03    5.20
   0 -15   8    2.53    3.32
   0 -15   8    1.09    2.62
   0  15  -8   -2.01    2.83
   0  15  -7   74.02    6.36
   0 -15   7   83.06    7.28
   0 -15   7   74.45    6.87
   0 -15   7   80.92    7.02
   0 -15   6   90.26    7.18
   0 -15   6  102.13    7.87
   0  15  -6   93.10    6.98
   0 -15   6  117.09    8.44
   0  15  -6  100.78    7.30
   0 -15   5    2.10    3.11
   0  15  -5   -0.19    3.08
   0 -15   5    8.42    4.13
   0 -15   5   -3.33    2.75
   0 -15   4  149.44    9.57
   0  15  -4  135.95    8.55
   0 -15   4  141.33    8.62
   0  15  -3    2.59    2.15
   1 -15   2    9.47    3.54
   1 -15   2   12.69    3.45
  -1  15  -3    3.70    3.62
   1 -15   3    1.25    2.91
   1 -15   3    0.99    3.12
  -1  15  -4    5.29    2.56
  -1  15  -4   10.94    3.96
   1 -15   4    3.28    2.93
   1 -15   4    2.50    3.11
  -1  15  -5    8.13    3.87
   1 -15   5    0.55    2.98
  -1  15  -5   -0.05    2.34
   1 -15   5    2.54    2.80
  -1  15  -6   89.89    7.21
  -1  15  -6   68.85    6.24
   1 -15   6   76.87    6.41
   1 -15   6   77.12    6.63
   1 -15   6   79.87    7.55
   1 -15   7    0.74    2.53
  -1  15  -7    5.07    3.27
   1 -15   7    5.38    3.14
  -1  15  -7    4.11    2.58
   1 -15   8   11.46    3.71
  -1  15  -8   13.38    3.83
   1 -15   8   23.04    5.26
  -1  15  -8   20.15    4.40
   1 -15   9   17.68    4.93
  -1  15  -9    7.42    2.88
   1 -15   9   10.10    3.23
  -1  15 -10    2.14    2.72
   1 -15  10   -0.87    3.20
  -1  15 -11   -0.37    2.29
  -1  15 -11    0.97    2.34
  -1  15 -12   37.84    5.16
   1 -14  -3   16.92    4.48
  -1  14   2   23.60    3.94
   1 -14  -2   50.95    6.26
   1 -14  -1  106.48    7.95
  -1  14   1   99.06    7.77
  -1  14   1   88.48    6.68
  -1  14   1   89.13    7.12
   1 -14  -1   85.59    7.40
   1 -14  -1   88.74    7.35
  -1  14   0    2.10    2.25
   1 -14   0    1.63    3.49
   1 -14   0    3.82    3.03
  -1  14   0   -0.33    2.65
  -1  14   0    4.76    3.61
   1 -14   1   65.44    6.50
   1 -14   1   81.58    7.27
   1 -14   1   66.87    6.41
  -1  14  -1   68.76    5.73
  -1  14  -1   67.13    6.06
  -1  14  -1   71.94    6.71
   1 -14   2    7.82    3.33
   1 -14   2    1.72    3.32
  -1  14  -2    5.41    3.30
  -1  14  -2    6.84    2.46
  -1  14  -2    9.85    3.25
  -1  14  -3    5.82    3.08
   1 -14   3   -2.41    3.50
  -1  14  -3    0.10    2.67
   1 -14   3    2.21    2.72
   1 -14   4  106.99    8.41
  -1  14  -4   91.59    6.83
   1 -14   4   87.74    6.76
  -1  14  -4  103.65    7.51
   1 -14   4   81.86    6.63
   1 -14   4   92.51    6.41
   1 -14   5   49.72    6.12
   1 -14   5   44.31    5.15
  -1  14  -5   48.95    5.28
  -1  14  -5   51.64    5.45
   1 -14   5   51.14    5.24
   1 -14   5   43.83    5.26
   1 -14   6    1.94    2.83
   1 -14   6    5.13    3.08
  -1  14  -6    2.13    2.18
   1 -14   6    7.40    3.06
  -1  14  -6    2.99    2.53
   1 -14   7    0.33    2.38
  -1  14  -7    5.56    2.91
   1 -14   7    4.27    2.92
  -1  14  -7   -0.91    2.49
  -1  14  -8    1.59    2.30
  -1  14  -8    4.74    2.42
   1 -14   8    3.57    2.35
   1 -14   8    3.11    3.16
  -1  14  -8    4.85    3.31
  -1  14  -9    0.76    2.12
   1 -14   9    6.52    3.48
   1 -14   9    7.21    3.17
  -1  14  -9    3.34    2.56
  -1  14  -9    6.15    2.67
  -1  14 -10    2.75    2.41
   1 -14  10    4.26    3.25
  -1  14 -10    2.92    2.61
   1 -14  10    8.15    3.99
  -1  14 -11   -0.80    2.34
  -1  14 -11    3.22    2.60
   1 -14  11    4.80    3.11
   1 -14  11   -2.26    2.76
   1 -14  12    1.86    2.56
  -1  14 -12    0.24    2.13
  -1  14 -12    2.37    2.65
   1 -14  12    4.01    3.07
  -1  14 -13   21.58    4.29
  -1  14 -13   24.46    4.01
   1 -14  13   22.04    4.13
   1 -14  13   15.06    3.47
   1 -14  14   -4.69    3.22
  -1  14 -14   -1.63    3.07
   1 -13  -4   25.50    4.99
  -1  13   4   33.61    4.68
  -1  13   3   33.86    4.48
   1 -13  -3   28.90    4.57
   1 -13  -3   33.13    5.15
  -1  13   3   32.69    4.68
  -1  13   2    6.50    3.77
  -1  13   2    0.30    2.26
   1 -13  -2    5.01    3.24
   1 -13  -1  110.90    7.76
  -1  13   1  108.81    7.42
  -1  13   1  102.11    6.88
   1 -13  -1  101.27    7.61
  -1  13   1  104.32    7.49
   1 -13   0   -5.39    3.77
  -1  13   0    1.40    1.86
  -1  13   0    3.53    3.40
   1 -13   0    2.36    2.81
  -1  13   0    0.56    2.55
  -1  13  -1   14.79    3.11
  -1  13  -1   19.15    4.06
   1 -13   1   15.38    3.80
   1 -13   1   17.22    4.02
  -1  13  -1   16.43    3.49
  -1  13  -2   27.15    3.55
  -1  13  -2   24.46    3.85
  -1  13  -2   36.12    5.01
   1 -13   2   23.77    3.98
   1 -13   2   26.06    4.31
   1 -13   3    9.06    3.20
   1 -13   3   -0.04    2.75
   1 -13   3    1.79    2.31
  -1  13  -3    1.07    2.24
  -1  13  -3   -1.15    1.96
  -1  13  -3    4.25    3.62
  -1  13  -4   38.54    4.90
   1 -13   4   40.03    4.86
   1 -13   4   50.56    4.99
   1 -13   4   38.25    4.62
  -1  13  -4   35.62    4.28
  -1  13  -5   -1.39    2.34
   1 -13   5    2.38    2.50
  -1  13  -5    0.76    2.67
   1 -13   5    0.82    2.40
   1 -13   5    0.50    2.71
  -1  13  -6    6.76    3.03
   1 -13   6    3.15    2.64
   1 -13   6    2.82    3.07
  -1  13  -6   -0.16    1.76
  -1  13  -6   -2.32    2.53
   1 -13   6    7.30    3.16
  -1  13  -7   46.72    4.49
  -1  13  -7   50.43    4.98
  -1  13  -7   52.73    5.00
   1 -13   7   53.30    5.12
   1 -13   7   52.83    4.95
   1 -13   8   -1.69    2.55
  -1  13  -8    0.21    2.05
  -1  13  -8    5.88    2.91
   1 -13   8    3.93    2.42
  -1  13  -8   -0.17    2.13
   1 -13   8    6.17    3.69
   1 -13   9    6.72    2.84
  -1  13  -9    6.53    2.64
   1 -13   9   12.32    4.13
  -1  13  -9    8.18    3.12
   1 -13   9    7.45    2.35
  -1  13  -9    9.13    2.88
  -1  13 -10    4.08    2.73
  -1  13 -10    1.19    2.03
   1 -13  10   -0.31    2.48
   1 -13  10    3.74    2.77
  -1  13 -10   -1.46    2.40
  -1  13 -11    0.52    1.97
   1 -13  11    3.89    3.12
  -1  13 -11    2.27    2.15
   1 -13  11    0.29    2.52
   1 -13  12   13.15    3.40
   1 -13  12   10.40    3.23
  -1  13 -12    8.07    3.35
  -1  13 -12   16.78    3.33
   1 -13  13    6.35    3.26
   1 -13  13   -2.11    3.43
  -1  13 -13    9.92    3.04
  -1  13 -13    1.73    2.89
   1 -13  14   -3.15    3.45
  -1  13 -14    0.09    2.04
  -1  13 -14    0.86    2.54
   1 -13  14    0.33    2.69
   1 -13  15    5.90    3.00
  -1  13 -15    6.72    2.85
  -1  13 -15    6.99    2.94
  -1  13 -16   -0.78    2.24
  -1  12   6   18.14    3.75
  -1  12   6   22.18    4.14
   1 -12  -6   23.10    4.51
   1 -12  -6    8.15    3.51
   1 -12  -5    1.78    3.57
  -1  12   5    5.48    3.00
   1 -12  -5   10.69    3.80
  -1  12   5    7.07    2.90
  -1  12   4    4.04    2.76
  -1  12   4    5.50    3.28
   1 -12  -4    6.12    2.92
  -1  12   3    0.01    2.96
   1 -12  -3   -7.06    3.92
   1 -12  -3    1.89    2.57
  -1  12   3    0.33    2.13
  -1  12   2    0.73    1.82
   1 -12  -2   -6.23    4.27
   1 -12  -2   -0.69    2.51
  -1  12   2    3.68    2.91
  -1  12   1   55.82    5.62
   1 -12  -1   54.66    5.53
  -1  12   1   62.96    5.15
   1 -12  -1   53.12    5.65
  -1  12   0    3.33    2.78
   1 -12   0    1.76    2.99
   1 -12   0   -1.55    2.72
  -1  12   0    0.18    1.80
  -1  12   0    3.60    3.42
  -1  12  -1    9.83    3.27
  -1  12  -1    6.13    2.66
   1 -12   1    8.30    2.77
  -1  12  -1    5.18    2.15
   1 -12   1    2.23    2.99
  -1  12  -2   13.57    2.69
  -1  12  -2   11.02    3.02
  -1  12  -2   16.40    3.63
   1 -12   2   10.90    3.08
   1 -12   2    5.90    2.22
   1 -12   2   14.77    3.60
  -1  12  -3   14.07    2.63
  -1  12  -3   11.69    2.82
   1 -12   3   13.83    2.95
   1 -12   3   15.31    3.19
   1 -12   3   12.80    3.38
  -1  12  -3   20.19    3.65
  -1  12  -4   30.44    3.84
  -1  12  -4   34.55    4.28
   1 -12   4   32.65    4.42
   1 -12   4   36.14    4.01
  -1  12  -4   29.63    3.35
   1 -12   4   42.46    4.30
  -1  12  -4   32.61    3.41
   1 -12   5    1.59    2.51
   1 -12   5    0.74    2.08
  -1  12  -5    1.76    2.39
  -1  12  -5    2.17    1.65
  -1  12  -5    2.30    1.89
   1 -12   5   -1.17    2.46
  -1  12  -5   -0.70    1.92
   1 -12   6   51.03    4.70
  -1  12  -6   53.29    4.51
   1 -12   6   53.42    4.80
   1 -12   6   51.57    4.68
  -1  12  -6   49.96    4.80
  -1  12  -6   52.86    4.70
   1 -12   7   22.26    4.51
   1 -12   7   16.80    3.05
  -1  12  -7   17.72    3.24
  -1  12  -7   15.41    2.85
   1 -12   7   13.32    3.07
  -1  12  -7   17.23    3.39
  -1  12  -8   12.03    3.06
   1 -12   8    9.89    2.91
   1 -12   8    8.02    2.31
  -1  12  -8   11.52    2.86
  -1  12  -8    8.89    2.66
  -1  12  -9    3.41    2.36
   1 -12   9    6.80    2.98
  -1  12  -9    8.16    2.49
   1 -12   9    4.05    2.17
   1 -12   9    8.67    3.34
  -1  12  -9    6.29    2.47
  -1  12 -10   38.02    4.35
  -1  12 -10   37.04    4.02
   1 -12  10   39.37    4.40
  -1  12 -10   37.21    4.25
   1 -12  10   38.20    4.71
   1 -12  10   46.35    4.30
  -1  12 -11    6.68    2.71
  -1  12 -11    9.15    3.07
   1 -12  11    4.30    2.88
   1 -12  11   12.41    3.26
  -1  12 -12    2.77    2.59
  -1  12 -12    2.47    2.18
   1 -12  12    2.50    2.82
   1 -12  12   -4.13    2.93
   1 -12  13    7.44    2.88
  -1  12 -13   10.42    2.92
  -1  12 -13   12.40    3.15
  -1  12 -13   10.11    3.51
   1 -12  13    7.01    2.81
  -1  12 -14   -0.73    2.07
  -1  12 -14   -0.86    2.71
  -1  12 -14   -0.45    3.03
  -1  12 -15    9.05    2.90
  -1  12 -15    4.53    3.11
  -1  12 -15    4.43    2.89
   1 -12  15    7.53    2.94
  -1  12 -16   61.26    6.15
  -1  12 -16   48.67    5.70
  -1  12 -16   54.09    5.52
   1 -12  16   53.13    5.71
  -1  12 -17   -3.93    2.52
   1 -11  -8   28.97    4.69
  -1  11   8   25.94    4.30
  -1  11   8   16.91    3.62
  -1  11   7   49.36    5.51
   1 -11  -7   45.70    5.44
  -1  11   7   56.75    5.78
  -1  11   6   60.78    5.91
   1 -11  -6   65.12    6.37
  -1  11   6   61.86    5.75
   1 -11  -6   51.56    5.64
  -1  11   6   57.95    5.69
  -1  11   5   -0.57    2.42
   1 -11  -5   -1.28    3.05
  -1  11   5   -0.63    2.21
   1 -11  -5   -6.41    4.24
  -1  11   5   -4.84    3.10
   1 -11  -4   17.09    3.78
   1 -11  -4   24.70    3.98
  -1  11   4   22.37    3.80
  -1  11   4   24.85    3.71
  -1  11   3  134.06    7.86
   1 -11  -3  131.51    7.75
   1 -11  -3  119.13    7.73
  -1  11   3  135.58    7.43
  -1  11   2    0.51    2.01
   1 -11  -2    3.33    2.78
  -1  11   2    2.87    2.97
   1 -11  -2   -1.53    3.43
  -1  11   1   11.54    2.75
   1 -11  -1    7.01    2.71
   1 -11  -1    2.83    2.88
  -1  11   1   14.03    3.70
  -1  11   0   89.34    5.54
   1 -11   0   89.75    6.08
  -1  11   0   94.88    6.42
   1 -11   0   93.41    6.55
  -1  11  -1    9.41    3.20
   1 -11   1    4.13    2.34
  -1  11  -1    5.60    2.31
   1 -11   1    2.33    1.94
  -1  11  -1    6.47    2.25
   1 -11   1    4.48    2.67
   1 -11   2    5.75    2.89
   1 -11   2    2.39    2.26
  -1  11  -2    5.73    2.78
  -1  11  -2    3.86    1.71
  -1  11  -2    6.24    2.01
   1 -11   2    2.29    2.13
  -1  11  -2    5.00    2.22
   1 -11   3   23.74    3.19
   1 -11   3   24.64    3.81
  -1  11  -3   26.02    3.69
  -1  11  -3   25.11    2.94
  -1  11  -3   22.48    2.87
  -1  11  -3   22.12    3.19
   1 -11   3   24.66    3.47
   1 -11   4   23.40    3.54
   1 -11   4   24.23    3.35
  -1  11  -4   23.46    3.46
  -1  11  -4   20.96    2.63
  -1  11  -4   21.65    2.96
  -1  11  -4   18.94    2.70
   1 -11   4   25.88    3.39
   1 -11   5   22.13    3.38
  -1  11  -5   17.21    3.08
  -1  11  -5   14.46    2.24
   1 -11   5   17.51    2.85
   1 -11   5   21.44    3.34
  -1  11  -5   15.02    3.20
  -1  11  -5   11.51    2.27
   1 -11   6  112.34    5.94
  -1  11  -6  108.28    6.25
  -1  11  -6  110.87    6.22
  -1  11  -6  107.57    5.81
   1 -11   6  113.11    6.05
   1 -11   6  110.26    6.23
   1 -11   7  139.26    6.41
  -1  11  -7  131.71    6.52
   1 -11   7  137.16    7.00
  -1  11  -7  146.45    7.08
  -1  11  -7  146.49    7.06
   1 -11   7  142.26    7.78
   1 -11   7  143.05    6.67
   1 -11   8  250.05    8.61
  -1  11  -8  240.27    9.02
  -1  11  -8  231.11    8.83
   1 -11   8  246.02    9.35
  -1  11  -8  238.74    8.78
   1 -11   8  235.99    9.74
  -1  11  -9   -4.28    2.43
   1 -11   9    0.07    2.63
  -1  11  -9   -0.70    1.97
   1 -11   9    0.11    1.79
  -1  11  -9   -0.46    1.97
  -1  11 -10   28.74    3.71
  -1  11 -10   27.32    3.30
   1 -11  10   36.53    4.55
   1 -11  10   30.21    3.47
  -1  11 -10   27.28    3.55
   1 -11  10   29.27    3.96
  -1  11 -11   20.24    3.28
  -1  11 -11   26.61    3.41
   1 -11  11   21.11    3.66
  -1  11 -11   18.94    3.38
   1 -11  11   17.73    3.49
  -1  11 -11   23.01    3.61
  -1  11 -12    1.21    2.10
  -1  11 -12    1.08    2.31
   1 -11  12   -2.56    2.80
  -1  11 -12   -1.08    2.50
   1 -11  12   -1.86    2.45
   1 -11  13   10.73    2.75
  -1  11 -13   15.55    3.05
  -1  11 -13    9.89    2.93
   1 -11  13    9.01    2.80
   1 -11  14   -4.05    3.45
  -1  11 -14    2.85    2.64
  -1  11 -14    0.20    2.65
   1 -11  14   -0.45    2.43
  -1  11 -15   13.17    3.49
   1 -11  15    8.67    2.91
  -1  11 -15    9.23    2.68
   1 -11  16    4.95    2.64
  -1  11 -16    3.09    2.75
  -1  11 -16    2.68    2.48
   1 -11  17    3.02    2.99
  -1  11 -17   -4.50    3.53
  -1  11 -17    0.22    2.40
  -1  11 -18    8.05    3.15
  -1  10  10   -0.78    3.12
  -1  10   9   12.61    3.63
  -1  10   9   13.56    3.77
   1 -10  -9   16.85    4.38
  -1  10   8   12.33    3.44
  -1  10   8   13.90    3.29
  -1  10   7   13.33    3.50
   1 -10  -7    8.51    3.35
  -1  10   7   15.49    3.40
   1 -10  -6   13.07    3.47
  -1  10   6    8.90    2.98
  -1  10   6    7.01    2.63
   1 -10  -6   10.99    3.30
  -1  10   5    5.99    2.44
  -1  10   5    6.62    2.81
   1 -10  -5    6.71    3.10
   1 -10  -5    2.14    2.54
   1 -10  -4   53.25    5.16
  -1  10   4   65.33    5.49
   1 -10  -4   51.01    5.22
  -1  10   4   56.39    5.03
  -1  10   3   34.87    4.29
   1 -10  -3   36.10    4.37
  -1  10   3   36.40    3.87
  -1  10   3   25.08    3.57
   1 -10  -3   24.99    3.98
   1 -10  -2  123.80    7.20
   1 -10  -2  119.60    6.89
  -1  10   2  128.33    7.19
  -1  10   2  122.43    6.40
  -1  10   1    5.90    2.70
   1 -10  -1    1.34    2.10
  -1  10   1    5.43    2.21
   1 -10  -1   -0.13    2.63
  -1  10   0   59.19    3.78
   1 -10   0   61.03    5.13
  -1  10   0   60.28    5.00
   1 -10   0   65.17    4.15
  -1  10   0   60.87    4.38
   1 -10   0   61.25    4.90
  -1  10  -1    2.96    2.15
   1 -10   1    0.66    2.71
  -1  10  -1    1.67    1.67
  -1  10  -1    2.64    1.44
  -1  10  -1    3.83    2.65
   1 -10   1    0.58    1.88
   1 -10   1    4.32    2.11
  -1  10  -2   99.82    5.93
   1 -10   2  106.25    5.98
   1 -10   2   96.57    5.60
   1 -10   2   93.83    5.01
  -1  10  -2   99.37    5.68
  -1  10  -2   94.97    5.05
  -1  10  -2   96.58    4.78
   1 -10   3  304.18    8.89
  -1  10  -3  303.48    8.52
  -1  10  -3  318.17    9.99
   1 -10   3  309.55    9.36
  -1  10  -3  316.11    8.62
   1 -10   3  307.25    9.60
  -1  10  -3  308.93    9.57
  -1  10  -4    7.28    2.44
  -1  10  -4   11.27    1.89
   1 -10   4   14.71    2.98
   1 -10   4   16.37    2.99
   1 -10   4   11.69    2.59
  -1  10  -4   10.69    2.53
  -1  10  -4   11.27    2.22
   1 -10   5    5.73    2.49
   1 -10   5    3.93    2.01
  -1  10  -5    3.59    1.45
  -1  10  -5    1.50    1.55
  -1  10  -5    0.71    1.92
  -1  10  -5    0.28    2.18
   1 -10   5    4.99    2.37
   1 -10   6   11.13    3.03
  -1  10  -6    9.90    2.47
  -1  10  -6    4.18    2.03
   1 -10   6    6.10    1.98
  -1  10  -6    6.72    2.22
  -1  10  -7   11.39    2.36
  -1  10  -7    5.86    2.07
   1 -10   7    9.67    2.43
   1 -10   7   11.74    2.82
   1 -10   7    6.11    1.92
  -1  10  -7    1.57    2.25
   1 -10   8  132.01    6.73
  -1  10  -8  126.27    6.21
   1 -10   8  132.70    5.99
  -1  10  -8  119.45    6.16
   1 -10   8  116.20    6.56
  -1  10  -8  118.89    6.20
  -1  10  -9   69.65    5.05
   1 -10   9   80.72    4.83
  -1  10  -9   78.65    5.02
   1 -10   9   91.46    5.91
   1 -10   9   74.66    5.37
  -1  10  -9   75.67    5.14
  -1  10  -9   78.13    5.22
   1 -10  10  251.00    9.33
  -1  10 -10  280.62    9.90
   1 -10  10  286.10    8.77
  -1  10 -10  276.16    8.88
   1 -10  10  266.07    9.81
  -1  10 -10  261.71    9.49
  -1  10 -10  266.26    9.33
  -1  10 -11  112.86    6.41
  -1  10 -11  126.26    7.03
  -1  10 -11  117.45    5.93
   1 -10  11  108.49    6.35
   1 -10  11  106.66    6.53
   1 -10  11  121.09    5.88
   1 -10  12   11.57    2.58
  -1  10 -12   15.41    2.79
  -1  10 -12   20.15    3.82
   1 -10  12   11.66    2.82
  -1  10 -13   62.15    5.42
  -1  10 -13   58.75    4.95
   1 -10  13   60.26    5.30
   1 -10  13   50.12    4.48
   1 -10  14   32.13    4.47
  -1  10 -14   33.88    4.33
  -1  10 -14   30.64    4.07
  -1  10 -15    2.04    2.43
  -1  10 -15    5.07    2.48
   1 -10  15    4.92    2.67
   1 -10  16   25.13    4.14
  -1  10 -16   24.52    4.31
  -1  10 -16   20.44    3.49
   1 -10  17   37.12    4.98
  -1  10 -17   34.98    4.91
  -1  10 -17   32.94    4.43
   1 -10  18    3.66    2.95
  -1  10 -18    5.41    2.82
   1  -9 -11   -0.73    3.24
  -1   9  11    1.26    2.38
  -1   9  10    9.46    3.27
   1  -9 -10   12.94    3.68
  -1   9  10    6.18    3.12
   1  -9  -9  188.94    9.82
  -1   9   9  193.17    9.90
  -1   9   9  185.71    9.40
  -1   9   8    0.59    2.70
   1  -9  -8    3.96    3.53
  -1   9   8    0.19    2.47
  -1   9   7   56.22    5.28
  -1   9   7   57.48    5.21
   1  -9  -7   55.30    5.49
  -1   9   6    3.14    2.30
  -1   9   6    0.99    2.49
   1  -9  -6   -3.01    3.38
   1  -9  -6    3.56    2.44
  -1   9   5   -1.88    2.40
  -1   9   5    1.91    2.19
   1  -9  -5   -6.72    3.80
   1  -9  -5    1.64    2.49
  -1   9   4    1.12    2.04
  -1   9   4    2.30    2.40
   1  -9  -4    2.45    2.07
   1  -9  -4   -0.34    2.92
   1  -9  -3    4.26    2.49
  -1   9   3    9.09    2.75
  -1   9   3    2.62    2.11
   1  -9  -3    1.56    2.67
   1  -9  -2   37.35    4.12
  -1   9   2   39.00    4.33
   1  -9  -2   24.77    3.71
  -1   9   2   24.51    3.16
  -1   9   1  384.66   10.50
   1  -9  -1  403.34    9.07
  -1   9   1  405.66    8.73
  -1   9   1  393.70   10.11
   1  -9  -1  387.27   10.65
  -1   9   1  384.50   11.08
   1  -9  -1  384.13   11.11
  -1   9   0  281.89    8.26
   1  -9   0  285.21    9.00
   1  -9   0  274.90    7.65
   1  -9   0  272.48    9.17
  -1   9   0  278.48    9.20
  -1   9   0  288.49    7.38
  -1   9  -1    2.05    2.39
  -1   9  -1    1.66    1.49
   1  -9   1    5.54    2.76
   1  -9   1   -0.72    1.72
   1  -9   1    5.38    2.03
  -1   9  -1    1.12    1.15
  -1   9  -2  126.68    5.25
   1  -9   2  124.10    5.44
   1  -9   2  118.73    5.84
   1  -9   2  115.77    5.48
  -1   9  -2  125.36    5.03
  -1   9  -2  132.78    5.99
  -1   9  -2  122.89    5.99
   1  -9   3  236.58    7.75
  -1   9  -3  238.62    7.78
  -1   9  -3  230.04    6.80
   1  -9   3  231.52    7.33
  -1   9  -3  244.67    8.20
  -1   9  -3  234.40    7.04
   1  -9   3  239.36    7.67
  -1   9  -4  308.13    7.65
   1  -9   4  307.30    8.51
   1  -9   4  302.39    8.36
   1  -9   4  304.49    8.62
  -1   9  -4  304.65    8.73
  -1   9  -4  299.38    8.95
  -1   9  -4  301.78    8.07
  -1   9  -5  318.52    8.54
  -1   9  -5  338.83    7.78
   1  -9   5  333.59    9.17
   1  -9   5  328.50    8.65
  -1   9  -5  334.31    9.18
   1  -9   5  336.10    8.67
  -1   9  -5  331.30    9.35
   1  -9   6    1.70    2.08
   1  -9   6    1.57    1.50
  -1   9  -6    0.01    1.62
  -1   9  -6    0.55    1.57
  -1   9  -6    4.24    2.37
   1  -9   6    3.52    2.16
   1  -9   7   69.03    5.11
   1  -9   7   70.27    4.72
  -1   9  -7   71.57    4.49
  -1   9  -7   69.30    4.56
   1  -9   7   71.19    4.22
  -1   9  -7   65.53    4.38
  -1   9  -7   70.76    4.65
   1  -9   7   77.14    4.22
  -1   9  -8    6.89    2.11
  -1   9  -8    4.88    2.06
  -1   9  -8   -0.14    1.96
  -1   9  -8    2.48    1.67
   1  -9   8    3.95    1.75
   1  -9   8    6.64    2.66
   1  -9   8    3.25    2.33
   1  -9   9   74.72    5.25
   1  -9   9   71.33    4.27
  -1   9  -9   67.82    4.57
  -1   9  -9   69.16    4.82
  -1   9  -9   68.42    4.49
   1  -9   9   72.51    5.01
  -1   9 -10  121.01    6.40
  -1   9 -10  118.90    5.71
   1  -9  10  121.52    6.31
   1  -9  10  122.32    6.49
   1  -9  10  117.81    5.43
  -1   9 -10  115.62    5.94
   1  -9  11  365.68   11.25
  -1   9 -11  377.99   11.29
   1  -9  11  400.13    9.98
  -1   9 -11  379.14   10.04
  -1   9 -11  391.14   10.98
   1  -9  12   10.73    2.21
   1  -9  12    7.74    2.05
  -1   9 -12   13.50    2.38
   1  -9  12   11.11    2.85
  -1   9 -12   13.61    3.14
  -1   9 -12   12.30    2.70
   1  -9  13  307.75   11.00
   1  -9  13  317.22    9.76
  -1   9 -13  307.43   10.99
  -1   9 -13  306.61   10.45
  -1   9 -14   11.39    3.15
  -1   9 -14   10.28    2.72
   1  -9  14    9.72    2.98
   1  -9  15    4.54    2.75
  -1   9 -15    4.95    2.62
  -1   9 -15    0.66    2.71
   1  -9  16   11.12    3.31
  -1   9 -16    8.18    3.19
  -1   9 -16    6.07    2.58
   1  -9  17    2.03    2.64
  -1   9 -17    2.40    2.93
   1  -9  18   -0.89    2.29
  -1   9 -18    2.26    3.06
   1  -8 -12    5.32    3.06
  -1   8  12   11.20    3.59
   1  -8 -11   42.41    5.36
  -1   8  11   40.84    4.97
  -1   8  10   94.20    6.52
   1  -8 -10  105.59    7.43
  -1   8  10   98.43    7.22
  -1   8   9   35.15    4.40
  -1   8   9   32.10    4.19
   1  -8  -9   36.06    4.85
  -1   8   8   23.44    3.93
  -1   8   8   18.81    3.21
  -1   8   7   13.36    3.16
  -1   8   7   17.29    3.29
   1  -8  -7    6.29    2.61
   1  -8  -6    0.70    2.23
   1  -8  -6   -1.03    2.96
  -1   8   6    1.67    2.08
  -1   8   6    4.67    2.32
  -1   8   5   18.95    3.07
   1  -8  -5   13.86    2.93
  -1   8   5   26.41    3.55
   1  -8  -5   16.95    3.27
  -1   8   4  108.60    6.06
  -1   8   4  116.58    6.30
   1  -8  -4  109.24    6.17
   1  -8  -4   96.92    5.90
  -1   8   3  105.86    5.90
   1  -8  -3  103.01    5.69
  -1   8   3   98.02    4.51
   1  -8  -3  104.72    6.07
  -1   8   3   98.46    5.57
   1  -8  -2  381.47   10.67
  -1   8   2  394.59   10.28
  -1   8   2  397.52   10.64
   1  -8  -2  409.56   10.45
   1  -8  -2  411.68    8.31
   1  -8  -1 1574.06   16.38
  -1   8   1 1550.60   20.36
  -1   8   1 1588.46   15.72
   1  -8  -1 1563.53   20.39
  -1   8   1 1549.39   19.58
   1  -8  -1 1573.47   19.74
  -1   8   0   17.37    2.79
   1  -8   0   17.86    2.99
   1  -8   0   19.56    2.68
  -1   8   0   17.16    2.29
  -1   8   0   16.98    2.32
  -1   8   0   19.89    2.06
   1  -8   0   16.82    2.25
   1  -8   1   62.91    4.07
  -1   8  -1   60.39    3.57
   1  -8   1   65.57    4.42
  -1   8  -1   64.54    3.38
  -1   8  -1   57.90    4.16
   1  -8   1   64.76    3.78
  -1   8  -2   14.89    1.94
   1  -8   2   17.61    2.46
  -1   8  -2   15.47    2.43
   1  -8   2   14.24    2.24
  -1   8  -2   14.90    2.53
   1  -8   2   17.18    2.85
  -1   8  -2   15.48    1.96
  -1   8  -3  377.91    7.93
   1  -8   3  372.04    8.83
   1  -8   3  370.92    8.67
  -1   8  -3  379.38    9.44
  -1   8  -3  375.71    9.07
   1  -8   3  398.39    9.25
  -1   8  -3  379.85    8.21
  -1   8  -4   34.79    2.53
   1  -8   4   41.04    3.35
  -1   8  -4   36.15    2.85
   1  -8   4   36.45    3.27
  -1   8  -4   36.23    3.23
  -1   8  -4   37.38    3.15
   1  -8   4   36.53    2.98
   1  -8   5    4.17    1.58
  -1   8  -5    2.08    1.47
   1  -8   5    0.52    1.89
  -1   8  -5    0.00    1.49
  -1   8  -5    3.26    1.90
  -1   8  -5   -0.16    1.59
   1  -8   5    3.10    1.85
  -1   8  -6    5.93    1.85
   1  -8   6    6.08    1.65
  -1   8  -6    4.43    1.56
   1  -8   6   11.47    2.38
  -1   8  -6    4.83    1.60
   1  -8   6    5.15    2.25
  -1   8  -6    6.77    1.93
  -1   8  -7  132.73    5.81
   1  -8   7  146.49    6.49
  -1   8  -7  137.50    5.75
   1  -8   7  140.29    4.82
   1  -8   7  142.30    6.12
  -1   8  -7  132.90    5.66
   1  -8   7  142.81    5.33
   1  -8   8  151.57    5.46
  -1   8  -8  147.87    6.01
   1  -8   8  160.78    6.69
   1  -8   8  157.93    6.65
  -1   8  -8  159.21    6.56
  -1   8  -8  151.20    5.97
  -1   8  -9  469.92   10.41
  -1   8  -9  475.51   10.82
   1  -8   9  442.50   11.22
  -1   8  -9  445.56   11.09
   1  -8   9  441.30   10.83
   1  -8   9  485.48    9.87
   1  -8  10    0.76    1.45
  -1   8 -10   -1.29    1.80
   1  -8  10   -0.28    2.53
   1  -8  10   -0.06    1.83
  -1   8 -10   -0.11    1.59
  -1   8 -10    0.50    2.21
   1  -8  11    9.39    1.99
  -1   8 -11    8.06    2.30
  -1   8 -11    8.93    2.58
   1  -8  11    3.93    2.39
  -1   8 -11    4.88    1.73
   1  -8  11    4.75    1.77
  -1   8 -12    0.73    1.83
  -1   8 -12    0.85    2.32
  -1   8 -12   -0.93    1.77
   1  -8  12    3.23    2.22
   1  -8  12    0.99    1.70
   1  -8  12   -2.14    2.02
  -1   8 -13    2.19    1.95
   1  -8  13    8.20    2.86
  -1   8 -13    7.81    3.08
   1  -8  14   49.13    4.77
  -1   8 -14   52.88    4.55
  -1   8 -14   52.84    4.95
   1  -8  15   95.60    6.57
  -1   8 -15  102.56    6.88
  -1   8 -15   98.81    6.21
  -1   8 -16   20.96    4.23
   1  -8  16    9.46    3.18
   1  -8  16   12.46    3.37
   1  -8  17   60.18    5.71
   1  -8  17   47.80    5.51
  -1   8 -17   63.75    6.01
   1  -8  18    0.21    2.19
  -1   8 -18   -2.72    2.99
   1  -8  19   15.63    3.86
  -1   8 -19   13.42    3.50
  -1   7  14   79.64    6.94
  -1   7  13   14.66    3.67
   1  -7 -13   15.34    3.89
  -1   7  12   40.47    5.02
   1  -7 -12   39.74    4.96
   1  -7 -11   20.76    4.05
  -1   7  11   20.55    3.90
  -1   7  10   16.66    3.18
   1  -7 -10   19.68    3.76
  -1   7  10   14.39    3.11
   1  -7  -9  309.70   11.18
  -1   7   9  288.61   10.18
  -1   7   9  296.35   10.88
  -1   7   8   11.07    2.93
  -1   7   8   10.71    2.48
   1  -7  -8   12.23    3.32
   1  -7  -7   -2.87    2.87
  -1   7   7    1.67    2.17
  -1   7   7   -0.12    2.10
  -1   7   6    3.04    2.31
  -1   7   6   -0.53    1.59
  -1   7   6    5.89    2.54
   1  -7  -6    5.02    2.41
   1  -7  -6   -0.86    2.73
  -1   7   5   28.56    3.49
  -1   7   5   28.35    2.61
   1  -7  -5   25.02    3.29
   1  -7  -5   19.49    2.94
  -1   7   5   28.83    3.50
   1  -7  -4  371.91   10.43
   1  -7  -4  386.15   10.38
  -1   7   4  382.82    8.51
  -1   7   4  374.15   10.14
  -1   7   4  381.14   10.17
   1  -7  -3   35.46    3.60
  -1   7   3   38.07    3.55
  -1   7   3   37.01    2.82
   1  -7  -3   39.06    2.62
  -1   7   3   42.59    3.99
   1  -7  -3   29.91    3.45
   1  -7  -2  473.92   11.02
   1  -7  -2  494.34    8.27
   1  -7  -2  491.63   10.63
  -1   7   2  473.47   10.73
  -1   7   2  472.68   10.41
   1  -7  -1    5.63    2.48
  -1   7   1    1.81    1.98
   1  -7  -1    3.81    1.46
   1  -7  -1    3.60    1.72
  -1   7   1    3.53    1.74
  -1   7   1    6.24    1.39
   1  -7   0    0.29    1.27
  -1   7   0    1.12    1.80
   1  -7   0   -0.43    1.83
  -1   7   0    2.05    1.46
  -1   7   0   -0.56    1.02
   1  -7   0    1.16    1.52
  -1   7  -1  182.09    5.75
  -1   7  -1  178.88    5.36
  -1   7  -1  185.96    5.12
   1  -7   1  180.80    5.91
   1  -7   1  185.71    6.24
   1  -7   1  186.98    5.53
  -1   7  -1  193.52    6.56
   1  -7   2   41.89    2.95
  -1   7  -2   37.54    2.49
   1  -7   2   45.99    3.14
   1  -7   2   48.68    3.46
  -1   7  -2   41.85    2.62
  -1   7  -2   38.63    3.14
  -1   7  -2   41.51    3.03
   1  -7   3  316.16    7.51
  -1   7  -3  325.32    6.57
  -1   7  -3  320.77    8.15
  -1   7  -3  316.61    7.63
   1  -7   3  320.27    7.47
  -1   7  -3  320.48    6.98
   1  -7   3  315.61    7.25
  -1   7  -4  347.29    7.57
   1  -7   4  354.85    7.53
  -1   7  -4  356.43    8.49
  -1   7  -4  373.20    6.75
   1  -7   4  355.37    7.61
  -1   7  -4  353.91    8.00
  -1   7  -4  352.83    7.86
   1  -7   4  355.59    8.17
  -1   7  -5 1008.68   13.52
   1  -7   5  989.96   14.01
  -1   7  -5 1012.99   13.67
  -1   7  -5 1002.96   14.04
   1  -7   5  993.10   11.94
   1  -7   5  976.72   14.71
   1  -7   5 1014.07   12.54
  -1   7  -6   -0.66    1.34
  -1   7  -6    1.16    1.76
   1  -7   6    2.26    1.40
  -1   7  -6   -0.09    1.43
   1  -7   6    1.31    1.82
   1  -7   6    4.14    2.22
   1  -7   6   -1.13    1.18
   1  -7   7    5.26    1.40
   1  -7   7    7.42    2.19
   1  -7   7    7.84    2.26
  -1   7  -7    7.87    1.76
   1  -7   7    9.13    1.49
  -1   7  -7    4.08    1.46
  -1   7  -7    6.34    2.04
   1  -7   8   27.89    2.43
   1  -7   8   22.40    2.85
  -1   7  -8   26.13    2.74
  -1   7  -8   23.88    2.55
  -1   7  -8   27.85    3.04
   1  -7   8   27.09    3.05
  -1   7  -9    0.67    1.55
  -1   7  -9    0.82    2.17
   1  -7   9    1.94    1.47
   1  -7   9    2.95    1.88
   1  -7   9    1.06    2.11
  -1   7  -9    1.79    1.49
  -1   7 -10  201.67    6.76
  -1   7 -10  208.04    7.73
   1  -7  10  190.41    6.65
  -1   7 -10  199.90    7.02
   1  -7  10  201.01    7.63
   1  -7  10  215.80    6.44
   1  -7  11   30.53    2.95
  -1   7 -11   31.31    2.94
  -1   7 -11   31.48    3.51
   1  -7  11   31.85    3.63
  -1   7 -11   28.45    3.11
   1  -7  11   36.17    2.91
   1  -7  11   29.07    2.69
   1  -7  12   55.77    3.79
  -1   7 -12   54.81    4.55
   1  -7  12   59.53    4.81
  -1   7 -12   59.90    4.37
   1  -7  12   51.85    4.59
  -1   7 -12   54.17    3.81
   1  -7  12   61.40    3.84
  -1   7 -13   43.16    3.58
   1  -7  13   45.93    3.54
   1  -7  13   39.19    4.25
  -1   7 -13   44.04    4.46
  -1   7 -13   41.19    3.99
   1  -7  13   34.91    4.10
  -1   7 -14   81.38    5.89
   1  -7  14   70.11    5.79
  -1   7 -14   87.18    5.65
   1  -7  14   80.42    5.92
  -1   7 -15  103.05    6.77
   1  -7  15   97.35    6.77
   1  -7  15  100.04    6.64
   1  -7  16   10.04    2.79
  -1   7 -16   10.66    2.90
   1  -7  16    8.53    2.85
   1  -7  17   13.39    3.62
   1  -7  17   15.89    3.51
  -1   7 -17   14.82    3.82
  -1   7 -18    8.54    3.16
   1  -7  18    8.29    3.25
   1  -7  18    4.03    3.23
   1  -7  19    9.39    2.99
   1  -7  19   11.26    3.88
  -1   7 -19   14.56    4.36
   1  -6 -15   15.04    4.14
  -1   6  15   24.05    4.67
   1  -6 -14  326.00   13.00
  -1   6  14  329.27   13.22
  -1   6  13   22.52    4.22
   1  -6 -13   15.31    3.86
   1  -6 -12    3.56    2.90
  -1   6  12    1.21    2.63
  -1   6  11   64.46    5.57
   1  -6 -11   61.89    5.63
   1  -6 -10    2.56    2.66
  -1   6  10    0.11    2.21
  -1   6  10    2.77    2.41
  -1   6   9   -2.80    2.37
   1  -6  -9    2.97    2.68
  -1   6   9    4.58    2.55
  -1   6   8   -0.49    2.12
  -1   6   8    4.08    2.43
   1  -6  -8    1.44    2.53
  -1   6   8   -1.28    1.67
  -1   6   7  648.30   10.34
  -1   6   7  605.34   13.69
   1  -6  -7  620.95   10.77
  -1   6   7  626.52   13.14
   1  -6  -7  620.71   13.65
  -1   6   7  620.77   11.55
  -1   6   6   25.51    3.24
  -1   6   6   23.03    3.17
  -1   6   6   19.38    2.29
  -1   6   5    8.86    2.46
   1  -6  -5    5.28    2.35
   1  -6  -5    5.46    2.29
  -1   6   5   11.70    2.63
  -1   6   5    6.86    1.65
  -1   6   4    6.54    2.08
  -1   6   4    3.51    1.33
   1  -6  -4    4.00    1.15
   1  -6  -4    2.63    1.80
  -1   6   4    5.20    2.18
  -1   6   3    9.78    2.20
  -1   6   3    7.60    1.46
  -1   6   3   10.91    2.00
   1  -6  -3   10.80    1.40
   1  -6  -3    8.25    2.02
   1  -6  -3    6.81    2.35
   1  -6  -2   59.22    4.00
   1  -6  -2   57.96    3.67
  -1   6   2   57.88    3.53
  -1   6   2   66.32    4.00
   1  -6  -2   60.12    2.73
  -1   6   1   34.50    1.98
  -1   6   1   35.64    2.75
   1  -6  -1   34.44    2.82
   1  -6  -1   33.51    2.94
   1  -6  -1   33.78    2.18
  -1   6   1   35.73    2.96
   1  -6   0  159.92    5.61
   1  -6   0  183.09    4.83
  -1   6   0  181.21    4.39
   1  -6   0  178.55    5.48
  -1   6   0  173.34    5.81
  -1   6   0  177.86    5.42
   1  -6   1    3.84    1.26
  -1   6  -1    3.64    0.98
   1  -6   1    2.65    1.31
  -1   6  -1    3.29    1.19
  -1   6  -1    4.73    1.65
   1  -6   1    5.86    1.77
   1  -6   2   36.40    2.66
  -1   6  -2   33.29    2.10
  -1   6  -2   33.19    2.50
   1  -6   2   35.12    2.54
   1  -6   2   35.49    2.48
  -1   6  -2   34.62    2.79
  -1   6  -2   31.08    2.09
  -1   6  -3  300.83    6.55
  -1   6  -3  296.34    6.71
   1  -6   3  297.46    6.31
   1  -6   3  303.85    6.88
   1  -6   3  307.13    6.50
  -1   6  -3  300.91    6.25
  -1   6  -3  302.96    7.33
  -1   6  -3  297.95    5.57
  -1   6  -4  137.12    3.66
   1  -6   4  144.36    4.99
  -1   6  -4  141.01    4.71
  -1   6  -4  138.73    4.65
   1  -6   4  144.81    5.39
   1  -6   4  142.59    4.34
   1  -6   4  144.17    4.34
  -1   6  -4  132.33    4.97
   1  -6   5  132.96    3.92
   1  -6   5  128.99    4.95
  -1   6  -5  130.85    4.62
   1  -6   5  135.50    5.27
  -1   6  -5  122.77    4.73
   1  -6   5  123.64    4.02
  -1   6  -5  129.28    4.73
  -1   6  -6   97.59    4.28
   1  -6   6   92.32    4.37
   1  -6   6   96.42    3.65
  -1   6  -6   97.68    4.39
  -1   6  -6   99.89    4.12
   1  -6   6  100.41    3.26
   1  -6   6  101.14    4.57
   1  -6   7   -0.54    1.40
  -1   6  -7    0.13    1.52
   1  -6   7    0.33    1.74
  -1   6  -7    0.98    1.27
  -1   6  -7   -0.70    1.33
   1  -6   7    0.07    0.99
  -1   6  -8   93.99    4.37
   1  -6   8   86.31    4.32
  -1   6  -8   94.76    4.74
   1  -6   8   97.25    3.89
  -1   6  -8   89.35    4.31
   1  -6   8   90.92    4.68
   1  -6   9    0.97    2.08
  -1   6  -9    1.36    1.86
   1  -6   9    0.10    1.15
  -1   6  -9   -0.54    1.25
  -1   6  -9    0.52    1.37
   1  -6   9   -0.34    1.47
   1  -6  10   28.32    3.29
  -1   6 -10   28.93    3.27
  -1   6 -10   26.80    2.68
   1  -6  10   32.12    2.62
  -1   6 -10   28.29    2.80
   1  -6  10   30.92    3.45
  -1   6 -10   31.18    2.00
   1  -6  10   30.93    2.53
   1  -6  10   30.06    2.60
   1  -6  11   31.37    2.73
   1  -6  11   28.56    3.45
   1  -6  11   21.81    3.01
  -1   6 -11   28.19    2.83
   1  -6  11   26.86    2.55
  -1   6 -11   25.28    3.37
  -1   6 -11   25.36    2.91
   1  -6  12    8.31    2.59
   1  -6  12    7.73    1.70
  -1   6 -12    5.77    2.40
   1  -6  12    7.03    2.74
  -1   6 -12    5.89    1.60
  -1   6 -12    7.46    1.95
   1  -6  13    3.25    2.18
  -1   6 -13    4.63    1.70
   1  -6  13    5.28    2.66
  -1   6 -13    7.60    2.62
   1  -6  13    3.02    1.55
   1  -6  14   39.91    4.26
  -1   6 -14   38.74    4.30
   1  -6  14   33.39    4.17
   1  -6  15    9.45    2.65
  -1   6 -15   14.07    3.27
   1  -6  15   12.13    2.92
   1  -6  16   32.08    4.17
   1  -6  16   28.69    4.14
  -1   6 -16   36.08    4.66
   1  -6  17    4.50    2.48
   1  -6  17   -1.48    3.26
  -1   6 -17    3.98    3.08
   1  -6  18   25.20    4.23
   1  -6  18   36.22    4.75
  -1   6 -18   36.50    4.77
   1  -6  19   15.31    3.98
   1  -6  19   21.93    4.24
  -1   6 -19   19.38    4.17
  -1   6 -20   29.14    4.32
   1  -5 -16   37.10    5.18
  -1   5  16   39.52    5.12
  -1   5  15   19.19    4.07
   1  -5 -15   10.95    3.42
   1  -5 -14   15.73    3.77
  -1   5  14   19.19    3.84
  -1   5  13    4.49    2.50
   1  -5 -13    5.49    2.68
   1  -5 -12  118.86    7.23
  -1   5  12  116.85    7.21
   1  -5 -11   39.61    4.31
  -1   5  11   37.30    4.10
  -1   5  11   38.91    3.77
  -1   5  10   41.80    3.82
  -1   5  10   49.30    4.00
   1  -5 -10   45.53    4.46
  -1   5  10   45.93    4.47
  -1   5   9  278.49    9.65
  -1   5   9  278.50    8.81
  -1   5   9  287.08    8.45
   1  -5  -9  299.88    9.87
  -1   5   8    5.27    1.21
   1  -5  -8    6.37    2.49
  -1   5   8    5.45    1.82
  -1   5   8    6.07    2.14
  -1   5   8    6.80    2.52
   1  -5  -7    8.59    2.55
  -1   5   7    5.82    1.27
  -1   5   7    7.19    2.39
  -1   5   7    5.28    2.04
   1  -5  -7    7.53    1.47
  -1   5   7    4.88    1.50
   1  -5  -7   10.90    1.77
  -1   5   6   -1.82    1.48
  -1   5   6    2.73    1.93
   1  -5  -6   -3.60    2.65
   1  -5  -6    2.86    2.36
  -1   5   6    0.07    0.85
  -1   5   6   -0.66    1.85
  -1   5   5   13.74    1.83
  -1   5   5   16.08    2.50
  -1   5   5   13.09    1.44
   1  -5  -5   17.75    1.37
   1  -5  -5   11.76    2.32
   1  -5  -5   11.86    2.18
  -1   5   5   17.67    2.57
  -1   5   4  195.87    6.49
   1  -5  -4  200.34    3.92
   1  -5  -4  198.61    6.45
  -1   5   4  201.85    6.38
  -1   5   4  198.24    5.76
   1  -5  -4  197.59    6.73
   1  -5  -3  122.84    5.08
   1  -5  -3  126.24    4.92
  -1   5   3  118.54    4.76
  -1   5   3  123.78    4.36
   1  -5  -3  124.18    3.22
  -1   5   3  112.80    4.70
   1  -5  -2    0.29    0.76
   1  -5  -2    1.49    1.35
  -1   5   2    0.46    1.25
   1  -5  -2   -2.42    1.85
  -1   5   2    2.27    1.61
   1  -5  -1  353.98    5.73
  -1   5   1  350.83    7.20
   1  -5  -1  348.96    7.58
   1  -5  -1  352.90    7.18
  -1   5   1  361.25    7.70
  -1   5   1  349.15    5.18
   1  -5   0  911.31    9.55
   1  -5   0  891.87   11.51
   1  -5   0  905.04   10.78
  -1   5   0  899.59   11.88
  -1   5   0  900.77    8.47
  -1   5   0  916.51   10.81
  -1   5  -1   25.63    1.92
   1  -5   1   25.10    2.28
   1  -5   1   34.42    2.40
   1  -5   1   30.37    2.10
  -1   5  -1   29.42    2.55
  -1   5  -1   28.42    1.76
  -1   5  -2 2403.81   15.90
   1  -5   2 2355.16   16.73
  -1   5  -2 2408.35   14.10
   1  -5   2 2353.12   16.47
  -1   5  -2 2365.23   16.79
   1  -5   2 2402.43   15.94
  -1   5  -2 2395.26   15.19
   1  -5   2 2353.87   18.99
  -1   5  -2 2383.02   18.66
   1  -5   3  115.21    3.46
   1  -5   3  106.20    3.93
  -1   5  -3  113.50    2.93
   1  -5   3  105.49    4.31
  -1   5  -3  105.62    3.68
  -1   5  -3  106.93    3.68
   1  -5   3  105.20    3.49
  -1   5  -3  106.01    4.05
  -1   5  -4    3.51    1.17
  -1   5  -4    2.14    1.25
   1  -5   4    3.11    1.44
   1  -5   4    5.82    1.12
  -1   5  -4    3.40    1.30
   1  -5   4    5.43    1.34
   1  -5   5  573.90    9.61
  -1   5  -5  599.97    9.51
   1  -5   5  595.16    9.72
   1  -5   5  593.29    7.74
  -1   5  -5  594.71    8.76
  -1   5  -5  584.92    9.38
   1  -5   5  586.03    6.75
  -1   5  -6    1.17    1.15
  -1   5  -6   -0.56    1.36
   1  -5   6   -1.50    1.57
   1  -5   6    0.13    0.84
  -1   5  -6    0.31    1.09
   1  -5   6    0.29    1.28
   1  -5   6    1.85    0.81
   1  -5   7    8.43    1.62
  -1   5  -7   10.39    2.05
   1  -5   7   10.20    1.39
   1  -5   7    6.35    1.70
  -1   5  -7    8.05    1.49
   1  -5   7    8.70    0.89
  -1   5  -7    7.73    1.52
  -1   5  -8  317.06    8.16
   1  -5   8  312.65    8.50
   1  -5   8  315.31    6.74
   1  -5   8  312.86    8.16
   1  -5   8  333.15    6.59
   1  -5   8  331.80    5.29
  -1   5  -8  317.42    5.10
  -1   5  -8  319.67    7.43
  -1   5  -8  301.16    7.34
   1  -5   8  309.59    7.22
  -1   5  -9   43.20    3.07
   1  -5   9   36.70    3.52
   1  -5   9   45.88    2.15
  -1   5  -9   43.62    3.59
   1  -5   9   44.31    2.68
  -1   5  -9   44.59    3.25
   1  -5   9   43.77    2.63
   1  -5   9   46.22    3.58
  -1   5  -9   44.65    2.16
   1  -5   9   39.13    2.77
   1  -5  10  170.04    5.47
   1  -5  10  175.24    4.37
  -1   5 -10  172.44    4.33
   1  -5  10  165.00    6.67
  -1   5 -10  169.72    6.78
  -1   5 -10  160.22    5.77
   1  -5  10  172.54    4.95
  -1   5 -10  178.04    6.22
   1  -5  10  153.60    6.47
   1  -5  11    9.26    1.60
   1  -5  11    8.23    2.35
  -1   5 -11    9.72    2.56
   1  -5  11    6.27    2.10
  -1   5 -11    8.71    1.84
  -1   5 -11   11.12    2.05
   1  -5  12  166.40    7.42
   1  -5  12  180.99    7.53
  -1   5 -12  181.56    7.58
   1  -5  13   23.50    3.22
   1  -5  13   16.48    3.03
  -1   5 -13   21.63    3.47
   1  -5  14    1.86    2.04
  -1   5 -14    4.13    2.57
   1  -5  15    1.38    2.16
   1  -5  15   -2.58    3.26
  -1   5 -15    1.03    2.75
   1  -5  16   13.69    3.17
  -1   5 -16   22.36    3.97
   1  -5  16   21.81    3.61
  -1   5 -17   10.97    3.45
   1  -5  17    0.33    3.34
   1  -5  17    6.32    2.87
   1  -5  18   -0.27    3.57
  -1   5 -18    5.39    3.07
   1  -5  18   11.45    2.95
  -1   5 -19    4.71    3.32
   1  -5  19   -0.53    2.51
   1  -5  19    1.89    3.24
  -1   5 -19    1.80    2.45
   1  -5  20   -4.36    3.75
  -1   5 -20   -5.22    3.24
  -1   4  17    7.69    3.35
   1  -4 -16    3.22    2.73
  -1   4  16    2.44    3.04
   1  -4 -15    2.10    2.71
  -1   4  15   -2.01    2.30
   1  -4 -14    4.61    2.85
  -1   4  14   18.77    3.82
  -1   4  13   27.37    3.55
  -1   4  13   33.17    4.19
   1  -4 -13   29.13    4.03
  -1   4  12   -0.76    2.43
  -1   4  12    1.87    2.18
   1  -4 -12    0.25    2.38
  -1   4  11   80.07    4.97
  -1   4  11   84.91    5.68
   1  -4 -11   85.85    5.77
  -1   4  10    8.85    2.30
   1  -4 -10    5.95    2.30
  -1   4  10    5.99    1.70
  -1   4   9  340.46    7.48
  -1   4   9  342.84    9.06
  -1   4   9  343.09    9.04
  -1   4   9  337.47   10.08
   1  -4  -9  322.14    9.84
   1  -4  -8   44.23    2.76
  -1   4   8   43.98    3.39
  -1   4   8   44.53    3.40
  -1   4   8   47.58    4.02
  -1   4   8   46.91    2.76
   1  -4  -8   49.90    4.07
  -1   4   7  253.56    7.05
   1  -4  -7  250.30    5.44
   1  -4  -7  251.71    5.68
  -1   4   7  246.87    7.17
   1  -4  -7  249.12    7.86
  -1   4   7  249.45    5.62
  -1   4   7  249.95    7.89
  -1   4   6  240.98    5.09
   1  -4  -6  237.94    7.33
  -1   4   6  240.04    6.55
  -1   4   6  231.14    7.27
   1  -4  -6  236.22    5.12
  -1   4   6  230.30    6.65
   1  -4  -6  228.80    3.44
   1  -4  -6  248.89    5.50
   1  -4  -5   93.94    2.20
  -1   4   5   92.79    4.15
  -1   4   5   97.04    4.64
  -1   4   5   95.60    3.05
  -1   4   5   88.71    3.89
   1  -4  -5   89.28    4.50
   1  -4  -5   97.22    3.57
   1  -4  -4   65.82    3.68
  -1   4   4   71.21    3.79
   1  -4  -4   70.80    1.95
  -1   4   4   68.41    2.39
  -1   4   4   72.53    3.60
   1  -4  -4   70.03    3.73
  -1   4   4   68.83    3.29
   1  -4  -4   73.90    3.16
  -1   4   3   14.19    1.92
  -1   4   3   13.01    1.76
  -1   4   3   12.40    1.79
   1  -4  -3   14.08    1.04
   1  -4  -3    9.99    1.99
   1  -4  -3   12.52    1.83
   1  -4  -2  107.98    2.64
   1  -4  -2  104.70    3.95
   1  -4  -2  100.96    4.08
  -1   4   2  103.04    3.96
   1  -4  -2  119.73    4.08
  -1   4   2  108.42    3.94
  -1   4   1   11.39    0.93
  -1   4   1   10.80    1.67
   1  -4  -1   14.98    1.62
   1  -4  -1   11.13    1.10
  -1   4   1   14.00    1.66
   1  -4  -1   11.35    1.96
   1  -4   0  998.77    8.83
   1  -4   0  991.00    9.89
   1  -4   0 1002.64   10.82
  -1   4   0  992.50   11.18
  -1   4   0  997.11    7.51
  -1   4   0  991.09    9.87
   1  -4   0  992.23   11.11
  -1   4  -1   39.38    1.73
  -1   4  -1   42.84    1.98
   1  -4   1   39.75    2.33
  -1   4  -1   39.96    1.92
  -1   4  -1   39.80    2.49
   1  -4   1   38.77    1.94
   1  -4   1   40.36    2.06
   1  -4   1   40.61    2.60
  -1   4  -2   20.04    1.59
  -1   4  -2   19.42    1.31
   1  -4   2   21.95    2.11
  -1   4  -2   20.49    1.20
  -1   4  -2   18.17    1.49
   1  -4   2   21.85    1.51
   1  -4   2   17.17    1.72
  -1   4  -2   15.65    1.71
   1  -4   2   18.65    1.61
  -1   4  -3  105.21    3.18
   1  -4   3  105.21    3.69
   1  -4   3  106.36    2.90
  -1   4  -3  107.61    3.42
   1  -4   3  115.64    2.91
  -1   4  -3  107.63    3.90
  -1   4  -3  111.09    2.26
   1  -4   3  107.10    3.91
   1  -4   4 1210.91   12.61
   1  -4   4 1168.19    8.27
  -1   4  -4 1186.19   12.31
   1  -4   4 1156.99   12.30
  -1   4  -4 1191.50   11.80
   1  -4   4 1166.17    9.18
  -1   4  -4 1156.62   10.58
   1  -4   5  762.63   10.08
   1  -4   5  746.31   10.45
   1  -4   5  761.17    5.79
   1  -4   5  746.53    7.65
  -1   4  -5  752.68   10.13
  -1   4  -5  742.45    8.88
  -1   4  -5  748.51   10.05
   1  -4   6    2.12    1.18
  -1   4  -6    1.59    1.46
   1  -4   6    1.93    0.79
   1  -4   6    0.47    1.28
  -1   4  -6    0.29    1.11
   1  -4   6    1.54    0.39
  -1   4  -6    0.75    1.01
   1  -4   6    1.89    1.39
  -1   4  -7    0.63    0.58
   1  -4   7    0.05    1.64
  -1   4  -7    0.23    1.48
  -1   4  -7    0.77    1.12
   1  -4   7    0.89    0.56
   1  -4   7    1.63    0.96
  -1   4  -7    0.69    1.04
   1  -4   7    1.46    1.41
   1  -4   7    0.93    1.08
  -1   4  -8  459.42    8.57
   1  -4   8  464.03    9.66
   1  -4   8  455.74    8.13
   1  -4   8  490.55    6.13
  -1   4  -8  477.41    9.75
   1  -4   8  479.92   10.04
   1  -4   8  456.50    7.43
  -1   4  -8  477.04    5.99
   1  -4   9   14.54    2.34
  -1   4  -9   12.54    1.25
   1  -4   9   12.95    1.63
   1  -4   9   12.83    1.23
   1  -4   9   13.86    1.44
  -1   4  -9   13.29    1.96
  -1   4  -9   15.45    2.59
   1  -4   9    7.87    1.87
  -1   4 -10  476.68    7.26
   1  -4  10  486.87    7.40
   1  -4  10  482.94   10.87
   1  -4  10  483.59    7.37
   1  -4  10  481.04    8.44
   1  -4  10  481.47   10.98
  -1   4 -10  479.64   10.86
   1  -4  11   -0.49    0.97
   1  -4  11    0.06    1.67
  -1   4 -11   -0.94    2.15
  -1   4 -11    0.62    0.88
   1  -4  11   -1.44    2.30
  -1   4 -12   62.37    4.68
   1  -4  12   63.68    4.62
   1  -4  12   64.93    4.81
   1  -4  13   78.15    5.34
   1  -4  13   64.94    4.84
  -1   4 -13   75.62    5.42
   1  -4  14   16.54    2.95
  -1   4 -14   16.84    3.17
   1  -4  14   18.81    3.35
   1  -4  15  158.05    8.00
   1  -4  15  155.39    7.91
  -1   4 -15  175.52    8.38
   1  -4  16   -1.45    2.52
  -1   4 -16    2.33    2.61
  -1   4 -17   20.13    4.08
   1  -4  17   15.92    3.13
  -1   4 -17   17.20    3.32
   1  -4  17   13.04    3.32
   1  -4  18    7.10    2.87
  -1   4 -18    9.17    2.92
   1  -4  18    2.34    2.73
  -1   4 -18    8.67    3.29
  -1   4 -19    1.66    2.70
   1  -4  19    1.92    2.56
   1  -4  19   -4.82    3.32
  -1   4 -19   -2.21    2.86
  -1   4 -20    3.73    2.46
   1  -4  20    1.63    3.14
  -1   3  18   60.48    6.11
  -1   3  17    4.81    2.73
   1  -3 -17    3.28    3.21
   1  -3 -16   35.23    4.82
  -1   3  16   26.58    4.26
  -1   3  15   86.16    6.20
  -1   3  15   87.84    6.67
   1  -3 -15   88.37    6.58
   1  -3 -14    7.24    2.84
  -1   3  14    5.91    2.58
  -1   3  14    3.99    2.35
   1  -3 -14    8.93    3.12
   1  -3 -13   30.07    4.13
  -1   3  13   32.95    3.96
  -1   3  13   31.34    3.93
   1  -3 -13   33.38    4.13
   1  -3 -12   15.56    3.25
   1  -3 -12    8.72    2.53
  -1   3  12   11.42    2.55
  -1   3  12   10.30    2.70
   1  -3 -11   21.73    3.30
  -1   3  11   23.66    2.38
   1  -3 -11   24.26    3.53
  -1   3  11   18.12    2.89
  -1   3  11   26.16    3.59
   1  -3 -10   36.19    3.77
   1  -3 -10   35.35    2.75
  -1   3  10   42.69    3.80
  -1   3  10   32.56    2.59
  -1   3  10   37.47    3.72
   1  -3 -10   28.70    3.38
  -1   3   9   83.43    4.67
   1  -3  -9   82.94    5.02
  -1   3   9   79.55    4.91
   1  -3  -9   74.75    3.58
  -1   3   9   74.94    4.06
  -1   3   9   82.98    3.67
   1  -3  -9   76.50    4.97
  -1   3   8  500.51   10.24
  -1   3   8  499.84   11.03
  -1   3   8  508.59    8.20
   1  -3  -8  505.64    6.25
   1  -3  -8  508.94   11.02
   1  -3  -8  510.92    8.26
  -1   3   8  512.60    9.68
   1  -3  -8  497.09   10.89
   1  -3  -7  125.22    5.27
   1  -3  -7  127.11    5.39
   1  -3  -7  123.95    3.30
  -1   3   7  127.70    3.84
  -1   3   7  123.59    4.65
   1  -3  -7  131.47    3.89
  -1   3   7  122.46    4.92
  -1   3   7  124.95    5.36
  -1   3   6  348.54    8.28
   1  -3  -6  319.78    3.25
   1  -3  -6  358.56    5.81
  -1   3   6  349.39    5.74
   1  -3  -6  330.26    7.89
   1  -3  -6  357.24    5.66
   1  -3  -6  336.82    8.11
  -1   3   6  339.35    7.25
  -1   3   6  335.20    7.54
  -1   3   5  282.55    4.62
  -1   3   5  280.61    6.53
  -1   3   5  285.91    7.11
   1  -3  -5  281.01    4.69
   1  -3  -5  284.62    5.18
  -1   3   5  278.48    6.29
   1  -3  -5  280.44    7.00
   1  -3  -5  276.71    6.81
  -1   3   4 1735.56   15.25
  -1   3   4 1756.65   10.11
   1  -3  -4 1768.89   12.85
  -1   3   4 1750.36   14.79
   1  -3  -4 1736.52   15.91
  -1   3   4 1713.65   16.01
  -1   3   3  394.98    4.24
  -1   3   3  402.51    7.27
  -1   3   3  382.66    6.87
   1  -3  -3  393.83    6.13
   1  -3  -3  390.89    7.10
  -1   3   3  379.51    6.67
   1  -3  -3  383.26    3.34
   1  -3  -2  416.77    6.70
   1  -3  -2  414.14    6.29
  -1   3   2  405.76    6.70
   1  -3  -2  407.59    7.13
  -1   3   2  413.52    6.76
   1  -3  -2  428.33    3.99
   1  -3  -1  122.91    3.57
  -1   3   1  121.36    3.68
   1  -3  -1  126.93    3.81
  -1   3   1  122.03    1.86
  -1   3   1  124.72    3.44
   1  -3  -1  126.52    3.40
   1  -3  -1  125.51    2.50
   1  -3   0  452.16    5.64
   1  -3   0  455.71    5.26
   1  -3   0  445.58    6.48
   1  -3   0  457.35    6.73
  -1   3   0  440.55    6.67
  -1   3   0  448.69    4.45
  -1   3   0  456.79    4.00
  -1   3   0  460.03    5.78
   1  -3   1  179.34    3.18
  -1   3  -1  175.42    4.27
   1  -3   1  170.47    4.26
  -1   3  -1  172.90    3.20
   1  -3   1  179.26    3.72
   1  -3   1  181.09    3.71
  -1   3  -1  174.60    3.18
  -1   3  -2  391.02    3.31
   1  -3   2  395.22    5.89
  -1   3  -2  387.48    4.91
  -1   3  -2  391.98    5.38
   1  -3   2  394.08    6.46
  -1   3  -2  383.04    6.32
   1  -3   2  381.22    4.91
   1  -3   2  387.23    4.25
  -1   3  -2  404.99    3.96
   1  -3   3  522.55    4.82
   1  -3   3  509.45    4.77
  -1   3  -3  511.55    5.84
  -1   3  -3  514.90    6.83
  -1   3  -3  510.27    7.39
   1  -3   3  504.30    7.34
   1  -3   4  151.59    4.20
  -1   3  -4  152.46    4.22
   1  -3   4  155.76    3.98
   1  -3   4  155.09    2.88
  -1   3  -4  155.78    3.52
  -1   3  -4  147.95    4.21
   1  -3   4  152.86    4.15
   1  -3   5   11.94    1.83
  -1   3  -5    7.49    1.67
   1  -3   5    9.28    1.66
  -1   3  -5    6.47    0.56
  -1   3  -5    8.01    1.27
   1  -3   5    7.43    0.58
   1  -3   5    6.63    1.18
  -1   3  -6  161.73    2.74
   1  -3   6  163.53    2.78
   1  -3   6  161.21    5.12
  -1   3  -6  166.42    5.10
  -1   3  -6  161.54    4.26
   1  -3   6  164.06    5.04
   1  -3   6  163.66    4.10
   1  -3   6  166.11    4.46
   1  -3   7  238.03    6.38
  -1   3  -7  232.64    3.83
   1  -3   7  238.74    4.91
  -1   3  -7  239.33    6.51
  -1   3  -7  227.59    5.55
   1  -3   7  240.80    6.46
   1  -3   7  242.00    3.93
   1  -3   7  241.38    5.48
   1  -3   8 1227.36   15.42
   1  -3   8 1269.72   12.46
  -1   3  -8 1236.09   15.46
   1  -3   8 1244.03   10.22
  -1   3  -8 1262.83   10.10
   1  -3   8 1271.60   11.12
   1  -3   8 1238.26   15.38
   1  -3   9  204.34    4.43
  -1   3  -9  198.84    6.70
   1  -3   9  207.71    5.14
   1  -3   9  197.06    6.62
  -1   3  -9  202.71    4.56
   1  -3   9  206.56    4.59
   1  -3   9  209.74    6.81
   1  -3  10   -0.75    1.02
  -1   3 -10    0.69    1.98
   1  -3  10    0.38    0.88
   1  -3  10   -0.53    2.11
   1  -3  10   -0.35    1.51
  -1   3 -10    0.56    0.86
  -1   3 -11    1.58    0.94
   1  -3  11    5.65    2.33
   1  -3  11    7.06    2.39
   1  -3  11    4.84    1.26
  -1   3 -11    5.69    2.36
   1  -3  12   11.52    2.58
  -1   3 -12   11.22    2.70
  -1   3 -12   11.59    1.70
   1  -3  12   10.50    2.50
   1  -3  13    1.09    1.91
   1  -3  13    0.19    2.22
  -1   3 -13   -0.29    2.36
   1  -3  14   61.65    4.92
   1  -3  14   60.79    4.91
  -1   3 -14   67.97    5.41
  -1   3 -15   77.04    5.42
   1  -3  15   65.21    5.25
   1  -3  15   68.56    5.35
  -1   3 -15   75.07    5.75
   1  -3  16   11.22    3.07
  -1   3 -16   10.94    2.51
   1  -3  16    5.02    2.46
  -1   3 -16    7.92    2.94
  -1   3 -17   39.05    4.48
   1  -3  17   47.32    5.08
  -1   3 -17   42.78    5.05
   1  -3  17   34.91    4.34
   1  -3  18   78.57    6.54
  -1   3 -18   91.23    6.53
  -1   3 -18   84.25    6.86
   1  -3  18   91.95    6.89
   1  -3  19    1.20    2.00
  -1   3 -19    5.16    2.92
  -1   3 -19    9.24    3.47
   1  -3  19   -1.31    3.38
   1  -3  20   -3.42    3.62
  -1   3 -20    3.75    2.88
  -1   2  18    1.16    3.03
   1  -2 -18    3.61    2.85
   1  -2 -18    6.75    3.40
  -1   2  17    0.30    3.16
   1  -2 -17   -0.27    2.44
   1  -2 -17   -0.13    2.64
  -1   2  17   -1.43    2.93
  -1   2  16   63.29    5.67
  -1   2  16   63.42    5.76
   1  -2 -16   70.14    6.27
   1  -2 -16   71.91    6.06
  -1   2  15    2.63    2.21
  -1   2  15    6.66    3.29
   1  -2 -15    5.43    2.75
   1  -2 -15    3.18    2.96
  -1   2  14   20.50    3.47
   1  -2 -14   23.22    3.68
   1  -2 -14   21.44    3.51
  -1   2  14   19.02    3.35
  -1   2  13   45.51    4.31
  -1   2  13   45.55    4.38
   1  -2 -13   43.01    4.49
   1  -2 -13   50.21    4.66
  -1   2  12   47.52    3.37
  -1   2  12   49.39    4.33
   1  -2 -12   44.08    4.25
   1  -2 -12   44.48    4.34
  -1   2  12   41.83    4.00
  -1   2  11   28.14    3.11
   1  -2 -11   33.30    2.84
   1  -2 -11   39.04    3.83
  -1   2  11   30.36    3.48
   1  -2 -11   27.37    3.21
  -1   2  11   34.34    2.82
  -1   2  10   77.52    3.75
   1  -2 -10   77.21    4.86
   1  -2 -10   79.87    4.89
   1  -2 -10   84.50    3.90
  -1   2  10   88.88    5.09
  -1   2  10   76.67    4.83
  -1   2   9  349.16    9.32
   1  -2  -9  350.12    9.26
  -1   2   9  356.65    7.25
  -1   2   9  364.64    9.04
   1  -2  -9  353.10    9.26
  -1   2   9  355.96    7.68
   1  -2  -9  356.08    7.28
  -1   2   8  943.81   14.30
   1  -2  -8  911.50    6.28
   1  -2  -8  958.54   14.32
   1  -2  -8  950.04    8.40
   1  -2  -8  917.21   13.97
  -1   2   8  940.11   13.70
   1  -2  -8  942.47   10.82
  -1   2   8  927.01   11.80
  -1   2   8  952.03   10.87
   1  -2  -7  140.32    2.78
  -1   2   7  139.65    5.38
   1  -2  -7  131.89    5.20
   1  -2  -7  134.31    5.32
  -1   2   7  140.53    4.39
   1  -2  -7  136.03    3.82
   1  -2  -7  137.56    3.32
  -1   2   7  138.14    3.84
  -1   2   7  138.82    5.12
   1  -2  -6  114.97    4.58
   1  -2  -6  115.64    4.55
  -1   2   6  119.22    4.44
   1  -2  -6  116.42    3.18
   1  -2  -6  117.66    2.71
   1  -2  -6  117.94    3.13
  -1   2   6  119.34    3.90
  -1   2   6  117.17    4.69
  -1   2   6  116.76    3.20
  -1   2   5    0.58    0.60
   1  -2  -5    0.72    0.82
  -1   2   5    3.87    1.32
   1  -2  -5   -1.25    0.77
  -1   2   5   -1.20    1.24
   1  -2  -5    0.68    1.42
  -1   2   5    0.68    1.27
   1  -2  -5    0.05    0.65
   1  -2  -5    0.59    1.43
   1  -2  -4  496.25    7.93
  -1   2   4  490.56    7.86
   1  -2  -4  477.43    7.62
  -1   2   4  489.09    6.89
   1  -2  -4  483.56    4.73
  -1   2   4  486.32    7.97
  -1   2   4  495.22    4.74
   1  -2  -4  513.70    5.95
  -1   2   3  572.14    7.91
  -1   2   3  583.53    8.00
   1  -2  -3  575.99    7.58
  -1   2   3  586.49    3.98
  -1   2   3  567.83    7.05
   1  -2  -3  575.93    4.02
   1  -2  -3  583.16    7.96
   1  -2  -3  582.59    6.51
  -1   2   2  930.29    9.14
   1  -2  -2  928.59    8.97
   1  -2  -2  978.23    8.64
   1  -2  -2  940.47    8.35
  -1   2   2  930.42    8.66
  -1   2   1   15.57    1.36
  -1   2   1   12.98    1.37
   1  -2  -1   14.47    1.30
   1  -2  -1   16.47    1.46
   1  -2  -1   14.49    1.31
   1  -2   0   54.37    1.75
   1  -2   0   56.73    2.27
   1  -2   0   55.22    1.35
  -1   2   0   59.28    1.89
  -1   2   0   54.44    1.34
  -1   2   0   54.02    2.25
   1  -2   0   56.37    2.28
   1  -2   0   54.43    1.66
  -1   2  -1  229.82    4.41
   1  -2   1  244.49    3.45
   1  -2   1  240.56    2.53
  -1   2  -1  237.94    3.42
   1  -2   1  243.18    4.49
   1  -2   1  241.07    2.76
   1  -2   1  246.81    4.69
  -1   2  -1  232.69    2.79
   1  -2   2 8656.62   24.02
   1  -2   2 8746.06   26.70
  -1   2  -2 8767.12   24.15
   1  -2   2 8706.61   27.56
   1  -2   3  210.49    4.41
  -1   2  -3  216.80    4.41
  -1   2  -3  223.42    3.31
   1  -2   3  220.20    2.39
   1  -2   3  204.67    4.17
   1  -2   3  216.15    4.39
  -1   2  -4  616.66    6.32
  -1   2  -4  595.01    8.01
   1  -2   4  602.89    7.14
   1  -2   4  610.48    8.05
   1  -2   4  600.17    7.58
   1  -2   5  164.31    4.71
   1  -2   5  173.37    4.81
  -1   2  -5  167.58    4.75
   1  -2   5  174.35    3.91
   1  -2   5  170.34    2.62
   1  -2   5  171.37    4.19
  -1   2  -5  173.60    2.55
  -1   2  -6   13.55    1.92
   1  -2   6   11.47    1.53
   1  -2   6   16.52    1.92
   1  -2   6   13.72    1.26
  -1   2  -6   14.47    1.05
   1  -2   6   12.10    1.31
   1  -2   6   16.34    1.11
  -1   2  -7   53.94    2.11
   1  -2   7   51.96    3.19
   1  -2   7   52.59    2.21
   1  -2   7   59.66    2.62
  -1   2  -7   53.74    3.27
   1  -2   7   45.44    2.85
   1  -2   7   51.32    2.10
   1  -2   8  159.44    5.46
   1  -2   8  169.85    5.82
   1  -2   8  160.01    4.25
   1  -2   8  168.18    3.79
   1  -2   8  161.41    4.04
  -1   2  -8  158.05    5.72
  -1   2  -8  165.97    4.06
   1  -2   9   19.24    2.59
   1  -2   9   17.61    2.42
   1  -2   9   20.82    1.40
   1  -2   9   21.11    1.74
  -1   2  -9   18.00    2.42
  -1   2  -9   21.97    1.77
   1  -2   9   21.23    1.69
   1  -2  10   69.08    4.19
   1  -2  10   78.70    3.39
  -1   2 -10   76.03    3.34
   1  -2  10   75.88    4.46
  -1   2 -10   80.29    4.68
   1  -2  10   74.06    3.02
   1  -2  11  232.10    6.12
  -1   2 -11  224.01    5.98
  -1   2 -11  211.82    7.73
   1  -2  11  227.27    7.85
  -1   2 -12    4.80    2.30
  -1   2 -12    6.52    1.52
   1  -2  12    4.66    1.95
   1  -2  12    9.81    2.43
   1  -2  12    6.70    1.56
  -1   2 -12    4.24    1.91
  -1   2 -13  131.96    6.23
  -1   2 -13  135.33    6.88
   1  -2  13  136.67    6.81
   1  -2  13  128.93    6.53
  -1   2 -13  137.55    5.36
   1  -2  14  369.21   11.47
   1  -2  14  363.98   11.12
  -1   2 -14  396.07   11.85
  -1   2 -14  382.33   10.96
  -1   2 -15  348.10   11.00
  -1   2 -15  336.99   11.44
   1  -2  15  328.46   11.27
   1  -2  15  304.19   10.74
   1  -2  16    4.39    2.67
  -1   2 -16    4.03    2.69
   1  -2  16    5.96    2.61
  -1   2 -16    9.97    3.03
   1  -2  17   16.67    3.37
   1  -2  17   16.18    3.43
  -1   2 -17   23.87    4.22
  -1   2 -17   24.36    3.88
  -1   2 -18    8.24    3.41
   1  -2  18   -5.43    3.75
   1  -2  18    5.36    2.70
  -1   2 -18   -0.33    2.23
   1  -2  19    8.44    3.11
  -1   2 -19    7.32    2.75
  -1   2 -19    4.72    2.99
  -1   1  19   17.14    3.90
  -1   1  19   26.89    4.90
   1  -1 -19   15.45    3.72
  -1   1  18   61.54    6.20
   1  -1 -18   57.39    5.67
   1  -1 -18   63.76    6.13
  -1   1  18   60.18    5.97
   1  -1 -17  102.89    7.40
  -1   1  17  125.06    7.86
  -1   1  17  102.30    7.43
   1  -1 -17   99.69    6.99
  -1   1  16    6.41    2.95
   1  -1 -16    4.10    2.61
  -1   1  16    6.14    2.48
   1  -1 -16   -0.23    2.77
   1  -1 -15   22.33    3.48
  -1   1  15   23.55    3.90
   1  -1 -15   25.10    3.88
  -1   1  15   25.05    3.69
  -1   1  14   47.29    4.47
  -1   1  14   46.43    4.66
  -1   1  14   50.85    3.77
   1  -1 -14   46.87    4.68
   1  -1 -14   54.65    4.79
  -1   1  13   43.40    4.20
  -1   1  13   48.47    3.53
  -1   1  13   47.41    4.44
   1  -1 -13   43.65    4.29
   1  -1 -13   46.33    4.55
   1  -1 -12    3.77    1.67
  -1   1  12    4.36    1.50
   1  -1 -12    2.93    2.04
   1  -1 -12    2.79    2.38
  -1   1  12    2.12    1.97
  -1   1  12    2.62    2.25
  -1   1  11   59.48    4.29
  -1   1  11   70.85    3.76
   1  -1 -11   73.22    4.86
   1  -1 -11   69.80    4.76
   1  -1 -11   68.82    3.82
  -1   1  11   78.78    4.89
  -1   1  10  100.28    5.10
  -1   1  10  113.20    5.47
   1  -1 -10  106.82    5.43
   1  -1 -10  107.32    4.36
  -1   1  10  108.37    4.31
   1  -1 -10  114.10    5.43
  -1   1   9   35.10    3.16
   1  -1  -9   32.69    3.11
  -1   1   9   32.91    2.32
   1  -1  -9   31.42    2.34
   1  -1  -9   27.86    3.09
  -1   1   9   31.79    2.94
  -1   1   8    0.79    1.48
  -1   1   8    5.69    2.21
   1  -1  -8    1.19    1.51
  -1   1   8    0.81    1.22
   1  -1  -8    0.36    0.99
   1  -1  -8    0.28    0.39
  -1   1   8   -0.17    0.93
   1  -1  -8    5.82    2.20
   1  -1  -7   47.92    3.12
  -1   1   7   49.73    2.36
   1  -1  -7   51.78    1.71
  -1   1   7   52.67    3.25
  -1   1   7   51.92    3.26
   1  -1  -7   52.18    2.42
  -1   1   7   50.00    2.37
   1  -1  -7   48.73    3.14
   1  -1  -7   46.87    1.12
   1  -1  -6  555.98    9.16
  -1   1   6  577.84    9.36
  -1   1   6  568.81    7.15
  -1   1   6  563.38    6.81
   1  -1  -6  572.07    5.78
   1  -1  -6  564.86    6.81
   1  -1  -6  575.84    4.65
   1  -1  -6  567.23    9.29
  -1   1   6  567.50    9.44
  -1   1   5 1440.34    9.47
   1  -1  -5 1399.22   13.56
   1  -1  -5 1403.90    9.36
  -1   1   5 1430.05   13.75
   1  -1  -5 1412.81    9.30
  -1   1   5 1411.91   10.36
   1  -1  -5 1422.33    8.00
   1  -1  -5 1389.15   13.28
  -1   1   5 1388.28   13.70
   1  -1  -4 1348.52   11.73
  -1   1   4 1341.58   12.40
   1  -1  -4 1329.67    9.19
  -1   1   4 1343.84    7.66
   1  -1  -4 1353.82    7.67
  -1   1   4 1359.95   12.42
   1  -1  -4 1361.43   12.34
  -1   1   4 1337.30    9.40
   1  -1  -4 1355.44    8.33
  -1   1   3  106.18    3.40
  -1   1   3  105.63    1.67
   1  -1  -3  104.96    2.08
   1  -1  -3  103.51    1.66
   1  -1  -3  107.47    2.69
  -1   1   3  107.19    3.27
   1  -1  -3  104.23    3.23
  -1   1   3  108.37    2.57
   1  -1  -3  106.95    2.51
   1  -1  -3  109.76    3.06
   1  -1  -2   35.90    1.63
   1  -1  -2   41.26    1.97
  -1   1   2   34.91    1.51
   1  -1  -2   37.28    1.65
   1  -1  -2   36.71    1.35
   1  -1  -2   37.80    1.72
  -1   1   2   30.36    1.86
  -1   1   2   35.99    1.79
   1  -1  -1  169.79    2.90
   1  -1  -1  169.31    3.18
  -1   1   1  171.42    3.17
   1  -1  -1  175.94    2.66
   1  -1  -1  168.49    3.47
   1  -1  -1  174.11    3.43
  -1   1   1  166.06    3.13
   1  -1   0 1146.87    8.05
  -1   1   0 1161.42    6.16
   1  -1   0 1145.60    6.71
  -1   1   0 1162.05    8.43
   1  -1   0 1135.06    8.87
   1  -1   0 1186.10    6.18
   1  -1   0 1169.85    8.92
  -1   1   0 1179.99    6.84
   1  -1   1 2584.20   13.14
   1  -1   1 2634.76   13.83
   1  -1   1 2620.21   11.53
   1  -1   1 2631.03   13.53
  -1   1  -1 2643.95   11.56
   1  -1   1 2646.78    8.05
   1  -1   2 5875.22   20.18
   1  -1   2 5881.92   20.66
  -1   1  -2 5894.01   20.26
   1  -1   2 5967.01   21.51
   1  -1   3 5434.33   21.09
   1  -1   3 5463.83   21.92
   1  -1   3 5388.57   19.99
   1  -1   4  271.60    4.91
  -1   1  -4  259.43    5.40
   1  -1   4  265.21    5.10
   1  -1   4  258.44    4.50
   1  -1   4  257.30    3.33
   1  -1   4  257.68    5.34
  -1   1  -4  266.54    2.70
   1  -1   5  346.27    6.36
  -1   1  -5  327.94    3.38
  -1   1  -5  308.43    6.42
   1  -1   5  312.21    6.36
   1  -1   5  314.16    4.32
   1  -1   5  307.74    5.46
   1  -1   5  316.63    5.01
  -1   1  -5  308.26    4.24
   1  -1   6   21.39    1.46
   1  -1   6   16.78    1.33
   1  -1   6   21.76    2.12
  -1   1  -6   20.50    1.50
   1  -1   6   17.06    1.50
  -1   1  -6   16.54    2.12
   1  -1   6   14.75    1.81
  -1   1  -6   15.67    0.95
   1  -1   7  229.70    5.98
   1  -1   7  220.97    4.32
   1  -1   7  225.41    6.29
  -1   1  -7  216.60    4.63
  -1   1  -7  222.24    6.42
   1  -1   7  226.04    4.72
   1  -1   7  218.87    4.80
   1  -1   8   37.36    2.83
   1  -1   8   33.10    2.89
   1  -1   8   35.98    1.84
  -1   1  -8   38.09    3.17
   1  -1   8   35.82    2.17
  -1   1  -8   35.53    2.16
  -1   1  -8   31.70    2.44
  -1   1  -9   68.79    3.73
   1  -1   9   71.17    3.21
   1  -1   9   76.75    4.34
  -1   1  -9   78.00    4.41
   1  -1   9   69.94    3.90
  -1   1  -9   68.71    3.20
  -1   1 -10  121.42    4.45
  -1   1 -10  116.85    5.10
   1  -1  10  115.28    5.51
   1  -1  10  121.74    4.48
  -1   1 -10  115.93    5.51
   1  -1  10  122.77    5.30
   1  -1  11   49.63    3.16
  -1   1 -11   46.03    3.02
   1  -1  11   51.28    3.82
   1  -1  11   47.01    3.91
  -1   1 -11   49.36    3.74
  -1   1 -11   47.03    4.03
   1  -1  12    2.46    1.80
  -1   1 -12    6.65    2.19
  -1   1 -12   10.13    2.01
   1  -1  12    5.81    1.51
  -1   1 -12    4.21    2.36
   1  -1  12    9.56    2.43
   1  -1  13    4.69    2.34
   1  -1  13    4.45    2.43
  -1   1 -13    2.03    2.02
  -1   1 -13    3.13    2.16
  -1   1 -13    5.60    1.81
  -1   1 -14   23.74    3.49
  -1   1 -14   27.00    3.51
   1  -1  14   27.34    3.59
   1  -1  14   30.00    3.48
  -1   1 -15    6.04    2.79
   1  -1  15    7.84    2.53
  -1   1 -15    8.53    2.83
   1  -1  15    5.92    2.35
   1  -1  16    1.37    2.70
  -1   1 -16    8.33    2.80
  -1   1 -16    3.17    2.76
   1  -1  16    4.55    2.27
  -1   1 -17   14.22    3.22
   1  -1  17   15.62    3.23
  -1   1 -17   15.84    3.85
  -1   1 -18   30.50    4.15
   1  -1  18   30.79    4.31
  -1   1 -18   31.13    4.69
   1  -1  19    0.53    2.24
  -1   1 -19    6.86    2.79
  -1   1 -19    0.53    3.08
   1   0 -19    9.25    3.23
  -1   0  19   31.14    5.21
   1   0 -19   15.60    3.71
  -1   0  19   24.76    4.49
   1   0 -18    8.95    2.82
  -1   0  18    4.51    2.48
   1   0 -18    5.53    2.90
  -1   0  18    7.37    3.52
   1   0 -17   96.54    7.15
   1   0 -17   90.31    6.46
  -1   0  17   98.40    6.90
  -1   0  17   86.38    6.76
  -1   0  16   49.44    5.43
   1   0 -16   52.97    5.30
  -1   0  16   50.22    4.74
   1   0 -16   54.45    5.16
  -1   0  15   15.39    3.56
  -1   0  15   21.41    2.75
   1   0 -15   19.27    3.53
   1   0 -15   17.98    3.22
  -1   0  15   12.44    2.76
   1   0 -14   41.38    4.43
  -1   0  14   42.38    3.58
   1   0 -14   44.19    3.78
  -1   0  14   36.66    4.27
  -1   0  14   43.89    4.26
   1   0 -14   38.15    4.10
  -1   0  13  103.07    5.04
   1   0 -13  103.69    6.13
  -1   0  13  110.19    6.04
   1   0 -13  107.43    5.16
   1   0 -13  106.28    5.90
  -1   0  13  105.93    6.27
  -1   0  12  671.92   14.18
  -1   0  12  695.26   12.17
   1   0 -12  673.57   14.18
   1   0 -12  695.49   12.11
  -1   0  12  675.32   13.91
   1   0 -12  707.97   13.98
   1   0 -11    9.36    1.79
   1   0 -11    7.47    2.32
  -1   0  11    8.16    1.60
   1   0 -11    8.49    2.38
  -1   0  11   10.00    2.39
  -1   0  11   12.82    2.63
   1   0 -10  104.89    5.15
   1   0 -10  113.58    4.49
  -1   0  10  110.05    4.38
  -1   0  10  111.65    5.16
  -1   0  10  105.45    5.19
  -1   0   9  813.61   13.06
  -1   0   9  839.34   11.05
   1   0  -9  826.95   13.04
   1   0  -9  834.44   11.02
  -1   0   9  833.83   13.39
  -1   0   8  199.29    5.04
  -1   0   8  196.31    6.12
   1   0  -8  197.66    6.11
   1   0  -8  205.80    5.13
  -1   0   8  213.81    6.49
  -1   0   7   44.37    3.06
   1   0  -7   38.29    2.21
   1   0  -7   35.42    1.25
  -1   0   7   39.61    2.18
  -1   0   7   37.00    2.77
   1   0  -7   40.29    2.86
  -1   0   6  867.81   11.12
  -1   0   6  881.58    6.93
   1   0  -6  851.12    8.25
   1   0  -6  866.98    8.71
  -1   0   6  881.80    7.15
  -1   0   6  877.29   11.30
  -1   0   6  870.12    8.76
   1   0  -6  889.52   11.16
   1   0  -6  874.41    6.38
  -1   0   5 1831.50    9.01
   1   0  -5 1798.97   11.15
   1   0  -5 1800.90   14.75
  -1   0   5 1837.95    9.15
  -1   0   5 1799.09   15.08
   1   0  -5 1826.12   11.74
   1   0  -5 1798.71    9.69
  -1   0   5 1807.91   14.81
  -1   0   4 2719.39   17.01
  -1   0   4 2766.45   16.88
  -1   0   4 2817.09   10.42
   1   0  -4 2721.77   12.08
   1   0  -4 2735.51   12.35
   1   0  -4 2719.10   14.31
  -1   0   4 2784.42    9.99
   1   0  -4 2773.41   16.83
   1   0  -3  812.61    5.84
  -1   0   3  816.05    8.50
   1   0  -3  845.81    7.83
  -1   0   3  844.04    5.57
  -1   0   3  870.77    8.93
  -1   0   3  825.18    5.11
   1   0  -3  810.76    6.93
   1   0  -3  832.27    6.66
   1   0  -3  824.59    8.40
   1   0  -2 1867.70   11.52
   1   0  -2 1817.04   10.60
  -1   0   2 1917.20    8.85
  -1   0   2 1851.18   11.73
   1   0  -2 1892.70    9.89
   1   0  -2 1918.84    8.93
   1   0  -2 1861.80   10.47
   1   0  -2 1868.57   11.42
  -1   0   1  380.31    4.89
   1   0  -1  393.87    5.08
   1   0  -1  381.29    3.91
   1   0  -1  387.34    4.71
   1   0  -1  396.46    5.22
   1   0  -1  400.99    3.64
   1   0  -1  389.95    4.07
   1   0  -1  394.99    4.94
   1   0  -1  397.79    5.05
  -1   0   0  854.75    5.42
   1   0   0  858.81    7.52
   1   0   0  886.27    7.73
   1   0   0  890.38    7.70
   1   0   0  859.31    6.51
   1   0   0  864.68    7.73
   1   0   0  859.28    6.28
   1   0   1  393.35    5.34
   1   0   1  407.60    5.45
   1   0   1  407.79    4.28
  -1   0  -1  398.45    3.55
   1   0   1  406.79    5.09
  -1   0  -1  382.69    4.58
   1   0   1  406.15    5.54
   1   0   1  396.41    5.16
   1   0   2 5389.28   18.28
   1   0   2 5359.98   19.87
   1   0   2 5389.49   20.81
   1   0   2 5518.66   16.60
  -1   0  -2 5457.22   14.66
  -1   0  -2 5444.54   16.38
   1   0   2 5317.70   20.81
   1   0   2 5394.19   20.63
   1   0   3   24.62    1.75
   1   0   3   20.86    1.74
   1   0   3   23.84    1.64
  -1   0  -3   23.44    1.31
  -1   0  -3   23.70    1.30
  -1   0  -3   23.54    1.24
   1   0   3   21.10    1.27
   1   0   3   23.43    1.49
   1   0   3   21.76    1.22
   1   0   4  264.60    4.69
   1   0   4  254.57    4.70
   1   0   4  263.98    4.00
  -1   0  -4  261.65    5.71
  -1   0  -4  267.37    3.94
   1   0   4  259.23    4.33
  -1   0  -4  270.82    4.64
   1   0   4  264.05    5.60
  -1   0  -5 2688.47   19.37
   1   0   5 2708.06   19.16
   1   0   5 2731.73   15.07
   1   0   5 2767.09   12.42
   1   0   5 2718.53   16.47
  -1   0  -5 2732.69   16.40
   1   0   5 2771.08   15.48
  -1   0  -5 2744.54   13.40
   1   0   6  125.89    4.01
  -1   0  -6  125.42    3.25
  -1   0  -6  124.07    3.99
   1   0   6  127.09    2.56
   1   0   6  126.01    4.58
   1   0   6  131.83    3.76
  -1   0  -6  120.39    4.53
  -1   0  -7   23.01    1.97
   1   0   7   20.55    1.99
  -1   0  -7   22.30    2.43
  -1   0  -7   21.10    2.09
  -1   0  -7   23.57    1.60
   1   0   7   23.95    2.39
   1   0   7   22.87    1.92
  -1   0  -8   50.06    2.79
  -1   0  -8   54.94    3.35
   1   0   8   56.93    3.65
  -1   0  -8   56.99    2.57
  -1   0  -8   50.31    3.51
   1   0   8   46.51    3.07
   1   0   8   50.15    2.88
   1   0   9  175.74    5.81
  -1   0  -9  180.02    6.00
  -1   0  -9  180.42    6.60
   1   0   9  182.29    5.47
   1   0   9  180.21    6.50
  -1   0  -9  185.29    5.48
   1   0  10   34.77    2.74
  -1   0 -10   35.14    3.16
  -1   0 -10   35.22    3.44
   1   0  10   32.74    3.33
   1   0  10   30.46    2.93
  -1   0 -10   36.56    2.86
  -1   0 -11   66.92    3.86
   1   0  11   66.70    4.22
   1   0  11   65.28    4.50
   1   0  11   60.03    3.75
  -1   0 -11   73.35    4.97
  -1   0 -11   61.48    4.18
  -1   0 -12  110.33    5.12
   1   0  12  108.84    5.66
   1   0  12  106.07    5.96
  -1   0 -12  105.41    5.62
  -1   0 -12  101.72    5.92
   1   0  12  110.54    5.21
   1   0  13   18.56    2.95
   1   0  13   22.48    2.80
  -1   0 -13   19.69    2.65
  -1   0 -13   22.47    3.17
  -1   0 -13   16.39    3.11
   1   0  13   18.03    2.96
  -1   0 -14    5.99    2.67
   1   0  14    4.65    2.18
  -1   0 -14   12.44    2.47
  -1   0 -14    5.31    2.30
   1   0  14    8.78    2.54
  -1   0 -15    6.31    2.70
   1   0  15    6.56    2.32
  -1   0 -15    6.77    2.51
   1   0  16   72.96    5.85
  -1   0 -16   59.75    5.49
  -1   0 -16   57.96    5.31
   1   0  17   40.62    4.66
  -1   0 -17   41.40    4.83
  -1   0 -17   42.25    5.36
   1   0  18    5.43    2.77
  -1   0 -18    0.47    2.30
  -1   0 -18   -0.44    2.41
   1   1 -20   54.46    5.60
   1   1 -19   16.66    4.04
  -1  -1  19   13.08    3.22
   1   1 -19   11.59    3.23
  -1  -1  19   10.54    3.96
   1   1 -18   24.35    4.29
   1   1 -18   26.61    4.11
  -1  -1  18   26.06    4.09
  -1  -1  18   34.75    5.38
  -1  -1  17   11.77    2.92
  -1  -1  17   18.25    4.37
   1   1 -17   12.59    3.22
   1   1 -17   10.16    2.90
  -1  -1  16    3.31    1.88
   1   1 -16    6.03    2.47
  -1  -1  16   10.68    2.85
   1   1 -16    0.26    2.65
  -1  -1  16    7.48    3.35
   1   1 -15  190.06    7.53
  -1  -1  15  193.56    7.65
   1   1 -15  191.64    8.71
   1   1 -15  177.56    7.96
  -1  -1  15  187.46    8.30
  -1  -1  15  182.97    8.65
   1   1 -14    2.03    1.88
  -1  -1  14    3.76    2.20
  -1  -1  14    2.73    2.57
  -1  -1  14    3.38    1.78
   1   1 -14    2.79    1.93
   1   1 -14    3.64    2.46
  -1  -1  13  545.51   11.58
  -1  -1  13  552.33   12.75
  -1  -1  13  519.98   13.00
   1   1 -13  557.94   11.61
   1   1 -13  551.00   12.79
  -1  -1  12  391.39    9.26
   1   1 -12  399.13    9.36
  -1  -1  12  414.61   11.09
  -1  -1  12  389.57   10.30
   1   1 -12  404.16   10.37
  -1  -1  11   20.19    2.60
   1   1 -11   19.90    2.69
  -1  -1  11   20.82    3.12
  -1  -1  11   21.19    2.38
   1   1 -11   21.70    2.43
  -1  -1  10  209.39    7.27
  -1  -1  10  213.94    6.96
   1   1 -10  215.14    6.14
  -1  -1  10  215.83    6.20
   1   1 -10  221.91    7.01
  -1  -1   9   10.17    2.10
   1   1  -9   14.87    1.34
  -1  -1   9   14.70    2.12
  -1  -1   9   16.33    2.08
   1   1  -9   14.80    1.93
   1   1  -9   11.84    2.19
   1   1  -8  273.84    4.86
  -1  -1   8  278.92    7.00
  -1  -1   8  278.62    5.23
   1   1  -8  274.56    6.07
   1   1  -8  276.75    7.00
  -1  -1   8  270.81    6.15
  -1  -1   8  265.69    7.15
   1   1  -7  873.99    8.59
  -1  -1   7  854.57   11.50
   1   1  -7  848.14   11.47
  -1  -1   7  868.43    8.63
   1   1  -7  869.76    9.96
  -1  -1   7  868.31   12.01
   1   1  -6  298.68    6.46
  -1  -1   6  289.96    6.55
  -1  -1   6  294.40    4.79
   1   1  -6  295.84    5.40
   1   1  -6  286.05    4.93
  -1  -1   6  290.67    6.36
  -1  -1   5 1038.77   11.32
  -1  -1   5 1042.00    8.46
   1   1  -5 1044.17    9.29
   1   1  -5 1041.18    9.33
   1   1  -5 1024.85   10.89
   1   1  -5 1049.90   11.11
  -1  -1   5 1055.30   11.20
   1   1  -4  130.72    3.13
   1   1  -4  130.83    3.76
   1   1  -4  134.83    3.35
   1   1  -4  131.97    2.94
  -1  -1   4  135.00    3.03
  -1  -1   4  130.06    3.77
   1   1  -4  135.83    3.63
   1   1  -3  604.20    6.95
  -1  -1   3  610.30    6.24
   1   1  -3  599.71    6.75
   1   1  -3  605.30    7.36
  -1  -1   3  611.43    7.18
   1   1  -3  621.29    6.68
   1   1  -3  594.70    6.32
   1   1  -2  147.50    3.32
  -1  -1   2  140.41    3.09
   1   1  -2  146.85    3.45
  -1  -1   2  143.61    3.16
   1   1  -2  148.64    3.21
   1   1  -2  150.50    3.01
   1   1  -2  143.08    3.44
  -1  -1   1    1.77    0.99
   1   1  -1    2.07    1.10
  -1  -1   1    2.29    0.68
  -1  -1   1   -0.28    1.15
   1   1  -1    2.78    0.76
   1   1  -1    0.67    0.98
  -1  -1   1    0.98    0.85
   1   1  -1    1.53    0.97
   1   1  -1    1.81    0.88
   1   1   0   50.41    2.20
  -1  -1   0   51.76    2.29
   1   1   0   48.56    2.02
   1   1   0   48.43    2.00
   1   1   0   47.43    2.11
   1   1   0   51.06    1.60
  -1  -1   0   47.20    1.81
  -1  -1   0   48.98    2.07
   1   1   0   48.43    2.06
   1   1   0   54.68    2.18
   1   1   1    7.80    1.48
   1   1   1    7.57    1.26
  -1  -1  -1    2.46    1.00
   1   1   1    7.50    1.25
   1   1   1    4.85    1.00
  -1  -1  -1    6.50    0.99
   1   1   1    7.22    1.32
   1   1   2   80.44    2.50
   1   1   2   80.53    2.64
   1   1   2   74.88    2.74
  -1  -1  -2   76.74    2.41
  -1  -1  -2   78.57    2.53
   1   1   2   85.51    2.98
   1   1   3  178.74    3.66
  -1  -1  -3  181.22    3.94
   1   1   3  189.97    4.37
   1   1   3  201.64    4.93
   1   1   3  179.23    3.99
  -1  -1  -3  172.20    3.81
   1   1   4    1.78    0.72
   1   1   4    4.23    1.15
  -1  -1  -4    5.37    1.43
  -1  -1  -4    2.71    1.18
   1   1   4    2.32    0.96
   1   1   5  424.68    8.02
  -1  -1  -5  435.08    6.53
   1   1   5  418.63    5.41
  -1  -1  -5  423.87    7.16
   1   1   5  422.09    6.98
   1   1   5  425.41    6.21
   1   1   6  285.54    6.19
   1   1   6  281.77    6.96
  -1  -1  -6  281.81    7.05
   1   1   6  271.18    5.52
  -1  -1  -6  284.51    5.65
  -1  -1  -6  277.60    6.29
   1   1   6  286.44    4.37
   1   1   7 1925.46   17.06
   1   1   7 1913.05   19.15
   1   1   7 1936.52   10.73
  -1  -1  -7 1899.29   15.33
  -1  -1  -7 1931.19   19.42
   1   1   7 1938.97   15.76
  -1  -1  -7 1922.08   17.66
  -1  -1  -8  156.84    5.54
  -1  -1  -8  153.10    4.60
   1   1   8  150.78    2.76
   1   1   8  155.78    5.21
  -1  -1  -8  148.75    5.87
   1   1   8  152.52    5.87
   1   1   8  146.94    4.84
   1   1   9   41.18    3.09
  -1  -1  -9   38.70    3.24
  -1  -1  -9   42.72    2.81
   1   1   9   45.09    3.11
  -1  -1  -9   36.90    3.49
  -1  -1  -9   39.17    3.06
   1   1   9   37.68    3.29
  -1  -1 -10   49.28    3.45
   1   1  10   44.36    3.29
  -1  -1 -10   48.20    3.72
   1   1  10   43.90    3.72
  -1  -1 -10   44.05    3.90
   1   1  10   45.87    3.36
   1   1  11  124.54    5.44
   1   1  11  128.60    6.28
  -1  -1 -11  132.49    6.13
   1   1  11  136.89    5.85
  -1  -1 -11  131.23    6.45
  -1  -1 -11  138.07    5.76
   1   1  12   97.10    5.26
  -1  -1 -12   87.76    4.98
   1   1  12   88.61    5.55
  -1  -1 -12   92.67    5.56
  -1  -1 -12   88.55    5.65
   1   1  12   92.88    5.07
   1   1  13  203.86    8.52
  -1  -1 -13  228.78    8.77
  -1  -1 -13  205.28    8.58
  -1  -1 -13  224.15    8.04
   1   1  13  220.76    7.96
  -1  -1 -14   16.31    3.36
  -1  -1 -14   14.89    2.70
   1   1  14   17.14    2.96
  -1  -1 -14   15.07    3.13
  -1  -1 -15   14.51    3.36
   1   1  15   15.57    3.16
   1   1  16    2.86    2.09
  -1  -1 -16    4.23    2.98
   1   1  17   10.06    2.84
  -1  -1 -17   10.07    3.60
  -1  -1 -18   25.95    4.51
   1   1  18   26.61    4.04
  -1  -2  20   30.79    5.26
   1   2 -19   30.49    4.74
   1   2 -19   29.56    4.41
  -1  -2  19   38.22    5.36
   1   2 -18   19.21    3.99
  -1  -2  18   24.47    4.74
   1   2 -18   24.01    3.78
  -1  -2  18   26.63    3.89
   1   2 -17   -1.57    1.97
  -1  -2  17    4.81    3.25
   1   2 -17    0.31    2.33
  -1  -2  17    1.52    1.90
  -1  -2  17    2.25    2.33
  -1  -2  16    0.60    1.70
   1   2 -16    0.69    1.90
  -1  -2  16   -0.36    1.77
   1   2 -16   -3.72    2.92
  -1  -2  16    1.43    2.90
   1   2 -16    0.57    1.93
   1   2 -15   70.92    5.14
   1   2 -15   75.42    5.02
  -1  -2  15   66.09    5.59
  -1  -2  15   74.05    4.90
  -1  -2  15   70.94    5.04
  -1  -2  14    4.57    2.86
   1   2 -14    1.81    1.87
  -1  -2  14    0.23    1.54
  -1  -2  14   -2.16    1.84
   1   2 -14   -0.97    1.69
  -1  -2  13   24.26    2.98
  -1  -2  13   23.29    2.76
   1   2 -13   23.46    2.87
  -1  -2  13   26.70    3.98
   1   2 -13   24.04    3.08
  -1  -2  12  425.24    9.99
  -1  -2  12  435.85   11.28
   1   2 -12  433.84   10.56
   1   2 -12  431.11    9.85
  -1  -2  12  422.40   10.52
  -1  -2  11    4.46    1.53
  -1  -2  11    3.96    1.58
   1   2 -11    3.28    1.65
  -1  -2  11    5.41    2.35
   1   2 -11    2.43    1.73
   1   2 -10   59.45    2.47
  -1  -2  10   53.45    3.40
   1   2 -10   59.92    3.51
   1   2 -10   58.83    3.80
  -1  -2  10   56.83    2.98
  -1  -2  10   54.99    3.64
  -1  -2  10   59.33    4.23
   1   2  -9    9.98    1.81
   1   2  -9    9.58    1.21
  -1  -2   9   10.32    2.17
  -1  -2   9    6.87    1.76
  -1  -2   9    8.57    1.43
   1   2  -9   10.87    1.96
  -1  -2   8  995.08   13.15
   1   2  -8 1002.29   10.02
  -1  -2   8  993.43   13.75
  -1  -2   8 1000.23   10.84
   1   2  -8 1023.99   12.13
   1   2  -8 1000.82   13.02
  -1  -2   7   -0.58    1.75
  -1  -2   7    1.44    1.13
   1   2  -7    1.65    1.37
   1   2  -7    0.58    1.26
   1   2  -7    1.03    1.06
  -1  -2   7    0.33    1.08
   1   2  -7    2.07    0.82
   1   2  -6  188.41    5.17
  -1  -2   6  189.63    4.44
   1   2  -6  192.92    4.42
   1   2  -6  190.14    4.75
  -1  -2   6  186.27    5.33
   1   2  -6  183.64    5.15
  -1  -2   5 1081.10   11.40
   1   2  -5 1067.09   11.41
   1   2  -5 1063.63   10.21
   1   2  -5 1074.74   10.54
   1   2  -5 1052.96   11.26
  -1  -2   5 1073.83   10.04
  -1  -2   4  330.08    5.83
   1   2  -4  328.50    5.82
   1   2  -4  339.50    5.74
  -1  -2   4  333.54    5.51
   1   2  -4  327.22    6.02
   1   2  -4  344.73    5.98
  -1  -2   3  935.68    8.72
  -1  -2   3  950.55    9.10
  -1  -2   3  944.05    9.70
   1   2  -3  954.40    9.11
  -1  -2   3  939.97    9.53
   1   2  -3  957.85    9.45
   1   2  -3  946.03    9.66
   1   2  -3  956.00    9.56
  -1  -2   2  221.24    4.70
  -1  -2   2  234.36    3.82
   1   2  -2  230.46    4.68
  -1  -2   2  237.19    4.68
   1   2  -2  231.19    4.72
   1   2  -2  231.12    4.29
  -1  -2   2  229.40    4.60
   1   2  -2  232.71    4.65
  -1  -2   1  178.01    2.74
  -1  -2   1  171.35    3.99
  -1  -2   1  169.74    4.05
   1   2  -1  169.78    3.56
   1   2  -1  167.49    3.99
  -1  -2   1  167.27    4.10
   1   2  -1  163.65    4.00
   1   2  -1  166.39    4.01
   1   2   0   13.05    1.37
  -1  -2   0    9.93    1.31
   1   2   0   14.10    1.49
   1   2   0   14.62    1.44
   1   2   0   15.18    1.44
  -1  -2   0   13.59    1.36
  -1  -2   0   14.51    0.66
   1   2   0   12.73    1.43
  -1  -2   0   15.72    1.73
   1   2   1  114.65    3.48
   1   2   1  113.27    3.62
   1   2   1  119.43    3.37
  -1  -2  -1  116.02    3.67
  -1  -2  -1  118.07    3.34
   1   2   1  125.27    3.55
  -1  -2  -1  111.05    3.47
   1   2   2  306.97    6.05
   1   2   2  317.49    5.45
  -1  -2  -2  300.27    5.51
   1   2   2  303.00    5.60
   1   2   2  302.53    5.73
  -1  -2  -2  303.16    5.66
   1   2   3   32.66    2.35
  -1  -2  -3   32.16    2.22
   1   2   3   29.21    1.92
  -1  -2  -3   34.58    2.21
   1   2   3   30.58    2.07
   1   2   3   29.70    1.74
   1   2   4   11.78    1.04
   1   2   4    8.82    1.12
   1   2   4   11.17    1.60
   1   2   4   12.02    1.48
  -1  -2  -4   12.39    1.68
  -1  -2  -4   15.53    2.08
   1   2   4   11.38    1.66
  -1  -2  -5  305.80    6.44
   1   2   5  314.17    6.79
   1   2   5  304.59    5.31
   1   2   5  304.70    7.16
  -1  -2  -5  303.35    6.74
   1   2   5  313.70    6.25
   1   2   5  287.16    4.85
   1   2   6    7.00    1.82
   1   2   6    5.89    1.36
  -1  -2  -6    7.61    1.77
   1   2   6    4.98    1.03
   1   2   6    6.76    1.13
  -1  -2  -6    6.24    1.61
   1   2   7  311.20    5.15
   1   2   7  303.24    7.98
  -1  -2  -7  306.25    8.09
  -1  -2  -7  310.73    7.07
   1   2   7  297.57    6.12
   1   2   7  301.38    7.44
   1   2   8  548.36   11.24
  -1  -2  -8  547.24   11.30
  -1  -2  -8  567.96    9.92
   1   2   8  561.33    8.97
   1   2   8  541.41   10.45
   1   2   9  490.39    9.05
  -1  -2  -9  507.77    9.85
   1   2   9  493.39   11.23
  -1  -2  -9  512.81   11.58
   1   2   9  513.95   10.72
  -1  -2 -10    8.60    2.37
   1   2  10    9.27    1.95
  -1  -2 -10    7.04    1.71
   1   2  10    5.01    1.89
   1   2  10   12.13    2.01
  -1  -2 -10   12.29    2.34
  -1  -2 -11   13.71    2.82
   1   2  11   11.45    2.47
   1   2  11   12.25    2.52
  -1  -2 -11   10.05    2.42
  -1  -2 -12    6.36    2.39
   1   2  12    9.43    2.29
   1   2  12   10.34    2.49
  -1  -2 -12   10.84    2.59
  -1  -2 -13   39.89    3.92
  -1  -2 -13   42.48    4.47
   1   2  13   44.84    4.28
   1   2  13   44.33    4.16
   1   2  14    4.85    2.34
  -1  -2 -14    2.39    2.87
   1   2  14    2.50    2.22
  -1  -2 -14    0.48    1.97
  -1  -2 -15   16.14    3.59
   1   2  15   23.88    3.56
  -1  -2 -16    0.24    2.70
   1   2  16    2.70    2.23
   1   2  17    8.54    2.96
  -1  -2 -17    6.66    2.65
  -1  -3  20   98.61    8.10
   1   3 -19   -0.58    2.60
   1   3 -19    3.97    2.35
  -1  -3  18   99.26    7.69
   1   3 -18   92.12    6.41
  -1  -3  18   96.63    6.39
  -1  -3  18   95.03    6.58
   1   3 -18   84.03    6.72
   1   3 -18   97.02    6.35
  -1  -3  17    4.84    2.19
   1   3 -17    6.57    2.54
  -1  -3  17    8.37    2.48
  -1  -3  17   13.39    3.89
   1   3 -17   -0.51    2.24
   1   3 -16   32.76    3.80
  -1  -3  16   32.39    3.65
   1   3 -16   36.58    3.89
  -1  -3  16   38.06    4.78
  -1  -3  16   37.99    4.10
   1   3 -15   16.28    2.91
  -1  -3  15   12.65    3.51
  -1  -3  15   14.98    2.71
  -1  -3  15   13.77    2.59
   1   3 -15   15.64    2.94
   1   3 -14   -0.29    1.89
  -1  -3  14   -1.05    1.73
  -1  -3  14   -1.12    1.65
   1   3 -14   -0.46    1.88
  -1  -3  14    0.01    2.79
  -1  -3  13  122.32    5.94
  -1  -3  13  124.10    6.79
  -1  -3  13  129.87    6.05
   1   3 -13  128.94    5.92
   1   3 -13  132.15    6.15
   1   3 -12   14.16    2.40
   1   3 -12   14.83    2.43
  -1  -3  12   13.72    2.35
  -1  -3  12   15.94    3.27
  -1  -3  12   14.95    2.40
  -1  -3  11  179.10    6.50
  -1  -3  11  182.99    6.68
  -1  -3  11  176.83    5.65
   1   3 -11  197.12    6.61
   1   3 -11  179.72    6.58
  -1  -3  11  181.75    7.27
  -1  -3  10   90.14    4.01
   1   3 -10   87.45    3.29
   1   3 -10   90.31    4.38
  -1  -3  10   91.10    4.53
   1   3 -10   85.76    4.64
   1   3 -10   84.43    4.36
  -1  -3  10   93.42    5.08
  -1  -3   9  264.27    7.66
  -1  -3   9  256.66    6.28
  -1  -3   9  258.93    7.10
   1   3  -9  253.71    6.77
   1   3  -9  244.19    7.30
   1   3  -9  257.26    7.03
   1   3  -9  254.23    5.53
   1   3  -8   49.89    2.57
   1   3  -8   55.41    3.28
  -1  -3   8   47.54    2.81
   1   3  -8   51.51    3.15
   1   3  -8   51.38    3.36
  -1  -3   8   48.29    3.50
  -1  -3   7   45.18    2.71
   1   3  -7   42.54    2.39
   1   3  -7   46.57    2.79
   1   3  -7   44.79    2.96
   1   3  -7   42.67    2.84
  -1  -3   7   43.81    3.13
   1   3  -6  216.32    5.14
   1   3  -6  213.43    5.47
  -1  -3   6  220.43    5.33
   1   3  -6  221.78    5.83
  -1  -3   6  217.93    5.76
   1   3  -6  215.93    5.72
   1   3  -5 1044.55   11.64
  -1  -3   5 1017.73   11.03
  -1  -3   5 1021.09   11.80
  -1  -3   5 1038.48   11.36
   1   3  -5 1025.02   11.38
   1   3  -5 1029.97    5.63
   1   3  -5 1045.23   11.76
  -1  -3   5 1026.29   11.27
   1   3  -5 1038.16   11.03
   1   3  -5 1049.58   11.80
  -1  -3   4   18.15    2.09
   1   3  -4   21.78    2.80
  -1  -3   4   24.65    2.34
   1   3  -4   12.32    1.56
   1   3  -4   15.69    1.75
  -1  -3   4   17.43    1.65
   1   3  -4   19.68    1.04
   1   3  -4   25.44    2.29
  -1  -3   4   16.35    1.81
   1   3  -3 3780.50   20.95
   1   3  -3 3850.79   20.32
  -1  -3   3 3790.36   20.99
   1   3  -3 3848.98   21.34
  -1  -3   3 3788.37   17.40
   1   3  -3 3812.53   15.12
  -1  -3   3 3821.11   21.08
   1   3  -3 3821.66   21.09
  -1  -3   3 3822.74   20.74
  -1  -3   2 1106.25    8.17
   1   3  -2 1127.87   11.42
   1   3  -2 1110.07   10.58
  -1  -3   2 1090.34   11.10
  -1  -3   2 1109.43   11.32
   1   3  -2 1109.05    9.18
   1   3  -2 1104.98   11.37
  -1  -3   2 1139.98   11.35
   1   3  -1  337.74    6.37
  -1  -3   1  355.93    3.72
   1   3  -1  344.09    6.48
  -1  -3   1  367.18    6.85
   1   3  -1  347.66    5.75
  -1  -3   1  403.50    7.26
   1   3  -1  337.85    5.84
  -1  -3   1  389.56    6.70
   1   3  -1  388.14    7.12
   1   3   0   -0.48    1.15
   1   3   0    0.62    1.12
  -1  -3   0    2.04    1.46
   1   3   0   -1.58    1.27
  -1  -3   0    0.38    1.05
   1   3   0    0.12    1.04
   1   3   0   -2.15    1.34
  -1  -3   0    2.18    1.38
  -1  -3  -1  702.99    9.48
   1   3   1  708.93    9.70
   1   3   1  717.85    9.15
  -1  -3  -1  718.59    9.71
   1   3   1  731.75    9.58
  -1  -3  -1  705.14    9.33
   1   3   1  705.67    9.67
   1   3   1  723.17    9.13
   1   3   2   27.38    1.98
   1   3   2   23.89    2.19
   1   3   2   26.14    2.14
  -1  -3  -2   25.75    2.25
  -1  -3  -2   23.43    2.10
   1   3   2   25.85    2.00
  -1  -3  -2   27.21    2.39
  -1  -3  -3   75.65    3.52
   1   3   3   77.57    3.14
   1   3   3   78.88    3.16
   1   3   3   80.17    3.63
   1   3   3   79.17    3.62
  -1  -3  -3   78.59    3.50
  -1  -3  -3   82.42    3.73
   1   3   4  703.52    9.11
  -1  -3  -4  689.31   10.57
   1   3   4  701.69    9.46
  -1  -3  -4  692.36   10.55
   1   3   4  705.30   10.74
  -1  -3  -4  684.37   10.32
   1   3   4  705.44   10.95
   1   3   4  715.36    5.82
   1   3   5   86.66    2.51
   1   3   5   83.16    3.18
   1   3   5   85.18    3.44
  -1  -3  -5   87.39    4.04
   1   3   5   82.94    4.10
  -1  -3  -5   80.28    3.94
   1   3   5   79.91    3.91
  -1  -3  -6   86.38    4.19
   1   3   6   78.75    3.15
   1   3   6   82.08    3.51
  -1  -3  -6   82.12    4.23
   1   3   6   81.32    4.13
   1   3   6   82.85    2.79
   1   3   6   82.07    4.22
   1   3   7  221.68    5.02
   1   3   7  217.44    5.02
  -1  -3  -7  214.08    6.53
   1   3   7  207.87    6.97
  -1  -3  -7  208.02    6.97
   1   3   7  214.67    6.85
   1   3   8  153.83    6.11
   1   3   8  136.94    6.00
  -1  -3  -8  139.49    6.21
  -1  -3  -8  143.50    5.63
   1   3   9    3.67    1.65
   1   3   9    1.74    1.62
  -1  -3  -9    0.71    1.91
  -1  -3  -9    1.02    1.75
   1   3  10   19.32    2.82
  -1  -3 -10   17.89    2.76
   1   3  10   21.60    2.84
  -1  -3 -10   14.88    2.30
  -1  -3 -11  158.95    7.02
  -1  -3 -11  142.74    6.32
   1   3  11  147.02    6.97
  -1  -3 -11  152.82    7.27
   1   3  11  152.93    6.90
  -1  -3 -12    5.21    2.33
   1   3  12    4.18    1.77
   1   3  12    4.09    2.20
  -1  -3 -12    4.59    2.12
  -1  -3 -13   20.83    3.40
   1   3  13   19.89    3.20
  -1  -3 -13   18.27    3.50
   1   3  13   18.27    3.18
  -1  -3 -14  123.06    6.98
  -1  -3 -14  134.76    7.86
   1   3  14  123.51    7.25
   1   3  14  127.74    7.18
  -1  -3 -15   10.71    3.47
  -1  -3 -15   13.93    3.23
   1   3  15    9.37    2.78
   1   3  16   15.71    3.06
  -1  -3 -16   16.02    3.93
   1   3  17   33.24    4.34
  -1  -4  20   70.80    6.80
   1   4 -20   83.73    7.14
  -1  -4  19   16.27    4.52
  -1  -4  19   10.70    2.72
   1   4 -19    9.62    3.01
   1   4 -19   10.44    3.07
  -1  -4  18   15.89    3.16
  -1  -4  18   21.98    4.75
  -1  -4  18   21.90    3.53
   1   4 -18   14.65    3.24
   1   4 -18   11.61    3.15
  -1  -4  17    3.14    2.20
  -1  -4  17    1.40    2.10
   1   4 -17    2.30    2.23
   1   4 -17    0.48    1.97
  -1  -4  17    4.46    3.33
   1   4 -16    8.26    2.52
  -1  -4  16    8.01    2.51
   1   4 -16   10.39    2.85
  -1  -4  16   12.80    2.87
  -1  -4  16   14.90    4.09
  -1  -4  15   17.54    2.84
  -1  -4  15   14.52    2.78
   1   4 -15   14.60    2.83
  -1  -4  15   19.85    3.93
   1   4 -15   15.16    2.93
  -1  -4  14   73.78    5.64
   1   4 -14   70.72    4.83
   1   4 -14   79.31    5.13
  -1  -4  14   71.08    4.84
  -1  -4  14   70.26    4.84
  -1  -4  13   29.27    3.88
  -1  -4  13   24.70    3.02
   1   4 -13   27.46    3.20
  -1  -4  13   24.78    2.61
   1   4 -13   22.87    2.94
  -1  -4  13   27.40    3.22
   1   4 -12    5.13    1.91
  -1  -4  12    8.89    2.98
  -1  -4  12    5.34    1.78
  -1  -4  12    8.04    2.02
   1   4 -12    5.48    2.09
  -1  -4  11  225.68    7.93
   1   4 -11  229.10    5.72
  -1  -4  11  224.96    6.76
   1   4 -11  229.81    7.91
   1   4 -11  228.49    7.34
  -1  -4  11  220.11    7.31
   1   4 -11  218.68    7.19
   1   4 -10  152.66    4.72
   1   4 -10  147.97    5.72
  -1  -4  10  143.98    5.29
  -1  -4  10  144.49    6.10
   1   4 -10  142.11    6.02
  -1  -4  10  147.50    5.74
   1   4 -10  145.77    5.72
  -1  -4   9  124.02    5.40
   1   4  -9  129.13    5.14
  -1  -4   9  127.46    4.70
   1   4  -9  124.59    4.32
  -1  -4   9  130.00    4.92
   1   4  -9  125.04    5.42
   1   4  -9  126.63    5.04
  -1  -4   8  286.49    7.56
   1   4  -8  285.20    7.24
   1   4  -8  289.00    6.47
  -1  -4   8  286.96    6.96
   1   4  -8  292.20    7.61
  -1  -4   8  289.80    6.82
   1   4  -8  287.98    7.31
   1   4  -7  475.26    8.95
   1   4  -7  491.57    8.45
  -1  -4   7  481.32    8.80
   1   4  -7  493.12    9.14
  -1  -4   7  498.58    9.42
   1   4  -7  478.59    9.25
   1   4  -7  470.95    4.26
  -1  -4   7  489.01    8.68
  -1  -4   7  488.50    9.18
  -1  -4   6  144.75    4.73
  -1  -4   6  142.81    4.71
   1   4  -6  144.72    4.63
   1   4  -6  147.30    4.90
  -1  -4   6  145.85    5.08
  -1  -4   6  148.88    4.87
   1   4  -6  150.27    5.01
   1   4  -6  145.96    2.72
   1   4  -6  143.30    4.97
   1   4  -6  150.99    4.99
   1   4  -5  531.54    8.88
  -1  -4   5  533.25    9.15
  -1  -4   5  524.21    8.83
   1   4  -5  534.79    5.77
   1   4  -5  530.78    8.73
   1   4  -5  525.26    8.95
   1   4  -5  538.08    9.18
  -1  -4   5  531.68    8.17
  -1  -4   5  528.76    8.76
   1   4  -4 1090.75   12.40
  -1  -4   4 1117.46   10.73
   1   4  -4 1088.04   12.54
  -1  -4   4 1088.35   12.37
  -1  -4   4 1114.18   12.54
   1   4  -4 1106.63   12.42
  -1  -4   4 1080.37   12.63
   1   4  -4 1118.25   12.87
   1   4  -4 1080.44    9.07
   1   4  -3   49.52    3.09
  -1  -4   3   44.34    2.77
   1   4  -3   45.33    2.66
  -1  -4   3   57.42    3.18
   1   4  -3   47.25    2.22
  -1  -4   3   47.18    2.13
  -1  -4   3   40.95    2.59
   1   4  -3   44.41    2.81
  -1  -4   2  286.50    4.27
   1   4  -2  286.78    6.14
  -1  -4   2  278.72    6.35
   1   4  -2  277.33    6.32
   1   4  -2  286.47    5.51
  -1  -4   2  268.05    6.31
   1   4  -2  279.93    6.41
   1   4  -2  278.26    6.39
  -1  -4   2  277.54    6.43
   1   4  -1 2446.39   18.69
  -1  -4   1 2413.15   18.59
   1   4  -1 2416.41   18.45
   1   4  -1 2445.85   17.71
   1   4  -1 2422.63   18.72
  -1  -4   1 2386.81   18.49
   1   4  -1 2397.94   16.98
  -1  -4   1 2408.57   18.73
  -1  -4   0   33.47    2.86
   1   4   0   29.82    2.52
   1   4   0   26.07    2.12
   1   4   0   27.92    2.38
  -1  -4   0   25.29    2.43
  -1  -4   0   26.21    2.37
   1   4   0   26.08    2.32
   1   4   1   28.53    2.43
   1   4   1   27.47    2.38
   1   4   1   31.06    2.52
  -1  -4  -1   29.53    2.49
   1   4   1   29.48    2.40
   1   4   1   28.17    2.32
  -1  -4  -1   29.22    2.43
  -1  -4  -1   29.14    2.69
   1   4   1   28.41    2.12
   1   4   2  214.19    5.44
   1   4   2  217.17    5.67
  -1  -4  -2  220.66    5.99
   1   4   2  221.99    6.16
  -1  -4  -2  214.56    6.05
   1   4   2  212.39    6.05
   1   4   2  219.05    6.23
  -1  -4  -2  222.76    6.21
   1   4   3   84.61    4.04
  -1  -4  -3   79.16    4.01
   1   4   3   79.25    3.57
  -1  -4  -3   72.73    3.72
   1   4   3   81.52    4.00
   1   4   3   78.47    3.35
  -1  -4  -3   83.00    4.03
   1   4   4  233.35    6.83
  -1  -4  -4  222.29    6.65
   1   4   4  226.79    5.70
   1   4   4  213.64    5.65
  -1  -4  -4  219.17    6.36
  -1  -4  -4  221.94    6.69
   1   4   4  217.28    6.64
   1   4   5   24.13    2.02
  -1  -4  -5   21.49    2.60
  -1  -4  -5   22.05    2.46
   1   4   5   22.27    2.04
  -1  -4  -5   22.06    2.60
   1   4   5   23.27    2.62
   1   4   5   24.74    2.64
  -1  -4  -6   24.00    2.96
   1   4   6   21.42    1.96
   1   4   6   21.97    2.62
   1   4   6   22.92    2.04
  -1  -4  -6   20.73    2.43
  -1  -4  -6   19.19    2.60
   1   4   6   21.52    2.54
  -1  -4  -7  220.04    7.34
   1   4   7  206.82    7.23
   1   4   7  213.77    5.56
  -1  -4  -7  206.11    6.91
  -1  -4  -7  207.36    7.41
   1   4   7  214.81    7.43
  -1  -4  -8   14.41    2.60
   1   4   8   15.02    2.63
  -1  -4  -8   21.40    2.64
   1   4   8   15.84    2.49
  -1  -4  -8   12.73    2.43
  -1  -4  -9   20.54    2.94
  -1  -4  -9   14.89    2.87
   1   4   9   14.70    2.50
  -1  -4  -9   14.63    2.37
   1   4   9   19.83    2.90
   1   4  10   60.95    4.66
  -1  -4 -10   64.64    4.36
  -1  -4 -10   54.92    4.27
  -1  -4 -10   57.21    4.71
   1   4  10   63.62    4.85
   1   4  11    3.53    2.12
  -1  -4 -11    0.10    1.94
  -1  -4 -11    6.63    2.61
  -1  -4 -11    0.09    2.28
   1   4  11    1.03    2.11
   1   4  12   35.78    4.11
  -1  -4 -12   40.00    4.33
   1   4  12   40.43    4.18
  -1  -4 -12   32.25    3.99
  -1  -4 -13   -2.08    2.25
   1   4  13    0.82    1.94
   1   4  13    0.13    1.76
  -1  -4 -13    3.57    2.62
   1   4  14    8.17    3.13
   1   4  14    8.83    2.82
  -1  -4 -14    5.74    2.97
  -1  -4 -14    5.40    3.01
  -1  -4 -15    7.82    3.44
  -1  -4 -15    5.97    2.84
   1   4  15    2.64    2.21
   1   4  16    3.09    2.16
  -1  -5  20    1.30    2.11
   1   5 -20    6.55    2.82
  -1  -5  20    6.27    3.89
  -1  -5  19  107.42    8.17
  -1  -5  19  116.05    7.38
   1   5 -19  109.86    7.28
   1   5 -18    1.22    1.94
  -1  -5  18    1.74    2.40
   1   5 -18   -1.84    2.36
  -1  -5  18    3.00    3.44
   1   5 -17   22.64    3.40
  -1  -5  17   24.22    3.79
  -1  -5  17   25.36    3.54
  -1  -5  17   24.87    4.56
   1   5 -17   21.50    3.58
   1   5 -16    5.23    2.34
  -1  -5  16    6.62    2.56
   1   5 -16    3.41    2.36
  -1  -5  16    8.92    3.67
  -1  -5  16    6.31    2.25
  -1  -5  15   16.22    2.75
   1   5 -15   19.36    3.05
  -1  -5  15   17.97    4.00
  -1  -5  15   14.03    2.75
   1   5 -15    9.50    2.63
   1   5 -14   22.49    3.33
  -1  -5  14   30.99    4.33
  -1  -5  14   23.81    3.28
  -1  -5  14   26.55    2.98
  -1  -5  14   24.31    3.11
   1   5 -14   26.85    3.38
  -1  -5  13   70.64    4.76
  -1  -5  13   70.41    4.39
  -1  -5  13   74.31    4.16
   1   5 -13   70.68    4.82
   1   5 -13   70.77    5.11
  -1  -5  13   67.40    5.31
   1   5 -13   71.75    4.79
  -1  -5  12  617.43   13.65
  -1  -5  12  604.50   11.96
   1   5 -12  619.07   12.54
   1   5 -12  620.34   12.89
   1   5 -12  598.83   13.45
  -1  -5  12  607.24   12.57
  -1  -5  12  624.13   11.30
  -1  -5  11  141.20    5.33
   1   5 -11  151.06    5.17
   1   5 -11  140.90    5.87
  -1  -5  11  153.83    6.79
  -1  -5  11  142.91    5.83
   1   5 -11  148.53    6.23
   1   5 -11  135.31    6.22
  -1  -5  10  554.26   11.78
   1   5 -10  580.17    9.95
  -1  -5  10  565.38   10.33
  -1  -5  10  560.22   10.91
   1   5 -10  570.25   12.00
   1   5 -10  581.84   11.59
   1   5 -10  569.82   11.19
  -1  -5   9    9.35    2.06
   1   5  -9    7.66    1.80
  -1  -5   9    8.08    1.85
  -1  -5   9    8.28    2.12
   1   5  -9    4.45    1.26
  -1  -5   9    5.15    1.77
   1   5  -9    8.00    2.08
   1   5  -9   10.66    2.27
  -1  -5   8   66.35    3.48
  -1  -5   8   66.88    3.88
  -1  -5   8   69.79    3.95
   1   5  -8   65.10    3.97
   1   5  -8   65.62    3.90
   1   5  -8   67.22    4.04
   1   5  -8   61.79    3.65
  -1  -5   8   67.30    3.97
   1   5  -8   62.47    3.42
  -1  -5   7  202.83    6.04
   1   5  -7  201.90    6.51
   1   5  -7  197.55    5.88
  -1  -5   7  195.03    5.84
  -1  -5   7  194.81    6.14
  -1  -5   7  193.31    6.24
   1   5  -7  197.75    6.34
   1   5  -7  199.73    3.74
   1   5  -7  202.56    6.11
  -1  -5   6  881.11   11.55
   1   5  -6  900.54    8.51
   1   5  -6  885.22   12.43
  -1  -5   6  887.14   12.14
  -1  -5   6  878.72   12.46
   1   5  -6  886.76   12.37
  -1  -5   6  893.86   12.87
   1   5  -6  873.61   12.67
   1   5  -6  872.55   12.95
   1   5  -5  112.02    3.28
   1   5  -5  112.43    4.55
   1   5  -5  110.55    4.70
   1   5  -5  112.13    4.47
  -1  -5   5  110.56    4.54
  -1  -5   5  118.92    4.71
  -1  -5   5  110.22    4.39
  -1  -5   5  117.02    3.98
  -1  -5   4   76.88    3.02
   1   5  -4   83.00    4.01
  -1  -5   4   78.65    3.89
   1   5  -4   77.09    3.73
  -1  -5   4   72.23    3.77
  -1  -5   4   72.79    3.63
   1   5  -4   77.93    2.96
   1   5  -4   71.53    3.78
  -1  -5   3   77.07    3.83
   1   5  -3   80.46    3.97
  -1  -5   3   75.65    3.86
   1   5  -3   81.21    3.76
  -1  -5   3   79.99    3.88
   1   5  -3   82.08    3.23
   1   5  -3   78.40    3.82
  -1  -5   3   82.76    2.77
  -1  -5   2   -1.09    0.71
   1   5  -2    4.67    1.98
   1   5  -2    0.24    1.42
   1   5  -2    0.63    1.24
  -1  -5   2    0.44    1.57
   1   5  -2   -0.62    1.25
   1   5  -2   -0.55    1.12
  -1  -5   2    1.21    1.55
  -1  -5   2    1.14    1.49
   1   5  -1  308.10    7.48
   1   5  -1  317.18    6.94
   1   5  -1  316.94    7.44
   1   5  -1  309.17    7.10
  -1  -5   1  311.11    7.45
   1   5  -1  306.57    7.42
  -1  -5   1  320.30    7.66
  -1  -5   1  310.06    7.37
   1   5   0  786.59   11.92
  -1  -5   0  807.28   12.21
   1   5   0  779.87   11.80
  -1  -5   0  801.90   11.96
   1   5   0  807.02   11.62
   1   5   0  789.05   11.84
  -1  -5   0  791.58   11.89
  -1  -5  -1   16.87    2.39
   1   5   1   24.17    2.59
   1   5   1   19.94    2.33
  -1  -5  -1   22.32    2.36
  -1  -5  -1   19.96    2.29
   1   5   1   21.65    2.06
   1   5   1   21.85    2.36
   1   5   1   20.38    2.46
  -1  -5  -2  203.36    6.27
  -1  -5  -2  210.22    6.87
   1   5   2  197.68    6.30
   1   5   2  199.95    6.06
   1   5   2  193.87    6.36
   1   5   2  203.90    5.64
  -1  -5  -2  194.15    6.34
   1   5   2  202.49    6.38
   1   5   3    0.95    1.42
   1   5   3    0.49    0.99
   1   5   3    1.50    1.57
  -1  -5  -3    1.15    1.55
   1   5   3    0.12    1.81
   1   5   3    4.13    1.74
  -1  -5  -3    2.82    2.00
  -1  -5  -3    1.04    1.56
   1   5   4   41.18    3.35
   1   5   4   36.12    2.84
  -1  -5  -4   35.99    3.03
   1   5   4   41.09    2.69
   1   5   4   44.31    3.49
  -1  -5  -4   42.10    3.46
  -1  -5  -4   43.59    3.71
  -1  -5  -5    7.50    2.41
   1   5   5    5.80    1.74
   1   5   5    8.56    2.32
   1   5   5    8.13    1.74
  -1  -5  -5   14.47    2.44
   1   5   5    7.46    1.48
  -1  -5  -5    6.86    2.77
   1   5   6  192.63    7.13
   1   5   6  198.02    6.07
  -1  -5  -6  184.64    6.62
   1   5   6  197.40    7.38
  -1  -5  -6  185.96    7.23
  -1  -5  -6  197.89    7.38
   1   5   6  199.15    5.71
   1   5   7   43.84    3.73
   1   5   7   44.42    3.89
  -1  -5  -7   47.91    4.21
  -1  -5  -7   41.48    3.93
  -1  -5  -7   41.82    3.44
   1   5   7   42.22    2.85
   1   5   8   62.60    4.62
   1   5   8   55.78    4.32
  -1  -5  -8   57.62    4.10
  -1  -5  -8   54.15    4.62
  -1  -5  -8   57.42    4.48
  -1  -5  -9   29.25    3.64
   1   5   9   30.39    3.62
   1   5   9   28.44    3.47
  -1  -5  -9   29.38    3.14
  -1  -5  -9   35.95    3.88
  -1  -5 -10    5.20    2.67
   1   5  10    4.51    1.98
   1   5  10    5.20    2.26
  -1  -5 -10   -1.55    2.67
   1   5  11   -0.01    1.97
   1   5  11    2.83    2.01
  -1  -5 -11   -1.42    2.40
  -1  -5 -11   -0.62    2.30
  -1  -5 -12   16.21    3.36
   1   5  12   11.43    2.97
   1   5  12   12.63    2.87
  -1  -5 -12   19.75    3.66
  -1  -5 -13    0.24    2.55
  -1  -5 -13    0.88    2.32
   1   5  13   -0.20    1.77
   1   5  13   -0.49    2.48
  -1  -5 -14   13.04    3.32
  -1  -5 -14   10.51    3.05
   1   5  14    9.88    2.94
   1   5  14   10.16    2.86
  -1  -5 -15   15.56    3.90
  -1  -6  20    0.26    2.29
   1   6 -20    6.10    2.77
  -1  -6  19   11.83    2.86
   1   6 -19   11.87    3.41
  -1  -6  19   11.10    4.23
  -1  -6  18   -0.65    2.47
  -1  -6  18   -0.48    3.32
   1   6 -18   -2.58    2.96
   1   6 -18   -1.46    1.97
   1   6 -17    0.62    2.04
  -1  -6  17    0.81    1.84
  -1  -6  17    1.25    1.99
   1   6 -17    2.34    2.55
  -1  -6  17    7.86    3.59
  -1  -6  16   98.50    6.48
   1   6 -16  120.55    7.03
  -1  -6  16  117.76    6.67
   1   6 -16  119.68    6.58
  -1  -6  16  111.48    7.47
  -1  -6  15    5.43    2.13
   1   6 -15    7.67    2.32
   1   6 -15    5.66    2.40
  -1  -6  15   11.01    3.45
  -1  -6  15    5.00    2.17
  -1  -6  15    3.05    2.14
   1   6 -14    0.10    2.06
  -1  -6  14    1.19    2.62
  -1  -6  14    5.55    2.27
   1   6 -14    3.24    2.04
   1   6 -14    3.76    2.64
  -1  -6  14    1.55    1.71
   1   6 -13   20.65    2.94
  -1  -6  13   24.20    3.79
   1   6 -13   25.14    3.32
  -1  -6  13   27.04    3.29
  -1  -6  13   27.36    3.38
   1   6 -13   24.08    3.33
  -1  -6  13   24.47    3.01
   1   6 -12   87.65    4.32
  -1  -6  12   90.71    5.79
  -1  -6  12   85.04    5.03
   1   6 -12   85.72    5.31
  -1  -6  12   84.84    5.26
   1   6 -12   76.30    5.20
  -1  -6  12   83.85    4.47
   1   6 -12   80.71    4.81
   1   6 -11  173.74    5.96
  -1  -6  11  163.01    7.06
  -1  -6  11  168.75    6.68
   1   6 -11  179.79    7.07
  -1  -6  11  170.75    6.97
   1   6 -11  170.76    7.14
   1   6 -11  175.08    6.66
  -1  -6  11  172.43    6.16
   1   6 -10    3.09    1.41
  -1  -6  10    5.96    2.06
  -1  -6  10    7.40    2.11
  -1  -6  10    8.95    2.53
   1   6 -10    7.46    2.33
   1   6 -10    5.34    2.37
   1   6 -10    5.21    2.27
   1   6 -10    3.24    1.67
  -1  -6  10    5.45    1.69
  -1  -6   9   80.88    4.67
   1   6  -9   82.84    4.20
  -1  -6   9   77.41    4.56
   1   6  -9   80.19    4.67
   1   6  -9   75.30    4.59
   1   6  -9   70.51    4.57
  -1  -6   9   80.00    4.55
  -1  -6   9   74.50    4.12
   1   6  -9   70.81    4.11
   1   6  -8    0.59    1.55
  -1  -6   8   -0.06    1.79
  -1  -6   8    3.84    1.88
  -1  -6   8   -1.29    1.82
   1   6  -8    0.47    1.61
  -1  -6   8    4.19    1.77
   1   6  -8    1.04    1.61
   1   6  -8    3.04    2.00
  -1  -6   7   65.44    3.73
  -1  -6   7   62.14    3.96
   1   6  -7   66.21    3.97
  -1  -6   7   66.56    4.12
   1   6  -7   63.85    4.06
   1   6  -7   66.00    2.69
  -1  -6   7   59.28    3.51
   1   6  -7   65.30    4.19
   1   6  -7   66.26    3.83
  -1  -6   6   29.25    2.50
   1   6  -6   25.14    2.67
  -1  -6   6   26.16    2.52
   1   6  -6   31.20    2.97
   1   6  -6   24.99    2.83
  -1  -6   6   28.25    2.91
  -1  -6   6   32.58    2.96
   1   6  -6   29.24    2.00
  -1  -6   5   25.72    2.11
  -1  -6   5   21.63    2.43
   1   6  -5   32.29    3.08
   1   6  -5   23.95    2.61
  -1  -6   5   24.33    2.77
  -1  -6   5   26.51    2.84
   1   6  -5   24.85    2.62
   1   6  -5   26.50    2.03
  -1  -6   4   80.99    3.14
   1   6  -4   79.11    4.28
  -1  -6   4   80.20    4.21
  -1  -6   4   73.11    4.06
   1   6  -4   80.23    3.42
  -1  -6   4   75.72    4.11
   1   6  -4   77.84    4.11
   1   6  -4   69.62    3.94
   1   6  -3  296.94    7.88
   1   6  -3  295.40    7.81
   1   6  -3  293.88    7.70
   1   6  -3  300.57    7.61
  -1  -6   3  302.05    7.89
   1   6  -3  303.37    6.83
  -1  -6   3  303.50    7.84
  -1  -6   3  307.06    7.94
  -1  -6   3  309.07    5.56
  -1  -6   2  132.19    5.28
   1   6  -2  126.34    5.32
   1   6  -2  137.21    5.47
   1   6  -2  132.32    5.29
   1   6  -2  123.92    5.03
  -1  -6   2  135.19    5.53
  -1  -6   2  130.28    5.46
   1   6  -2  137.56    4.91
  -1  -6   1   43.52    3.31
   1   6  -1   55.15    3.88
   1   6  -1   52.46    3.41
  -1  -6   1   54.89    3.72
   1   6  -1   50.59    3.24
  -1  -6   1   46.33    3.48
   1   6  -1   46.73    3.36
   1   6  -1   50.20    3.46
   1   6   0  246.65    7.27
   1   6   0  259.91    7.45
   1   6   0  268.30    7.57
  -1  -6   0  263.74    7.55
   1   6   0  259.37    7.24
  -1  -6   0  271.81    7.88
  -1  -6   0  254.49    7.36
  -1  -6  -1  305.66    8.08
   1   6   1  311.73    8.19
   1   6   1  308.51    8.35
   1   6   1  308.99    7.37
   1   6   1  319.51    8.37
  -1  -6  -1  301.31    8.38
   1   6   1  300.21    8.03
  -1  -6  -1  315.91    8.61
  -1  -6  -2   75.27    4.35
  -1  -6  -2   77.36    4.74
   1   6   2   82.96    4.49
   1   6   2   72.29    4.47
   1   6   2   78.17    4.43
   1   6   2   72.98    3.67
  -1  -6  -2   76.19    4.50
  -1  -6  -3    1.05    2.32
   1   6   3    2.21    1.74
   1   6   3    2.26    1.19
   1   6   3    8.57    2.31
   1   6   3   -2.36    2.43
  -1  -6  -3    1.71    1.81
   1   6   3    2.63    1.78
  -1  -6  -3    2.73    2.06
   1   6   4 1030.36   13.41
   1   6   4  993.00   14.49
  -1  -6  -4  984.37   15.08
   1   6   4  993.69   15.87
  -1  -6  -4  999.53   16.26
   1   6   4  988.00   16.26
  -1  -6  -4 1004.94   16.46
  -1  -6  -5   11.84    3.18
   1   6   5    4.99    2.25
   1   6   5    8.10    1.93
  -1  -6  -5    3.70    1.81
  -1  -6  -5    4.63    2.11
   1   6   5    3.79    1.20
   1   6   5    4.79    1.93
  -1  -6  -6  189.89    6.95
   1   6   6  206.91    6.68
   1   6   6  196.49    7.65
   1   6   6  194.98    7.78
  -1  -6  -6  207.06    8.19
  -1  -6  -6  196.87    8.11
   1   6   7  714.85   14.86
  -1  -6  -7  700.88   13.55
  -1  -6  -7  707.79   15.49
  -1  -6  -7  715.44   15.03
   1   6   7  719.70   15.51
   1   6   8   50.87    4.29
  -1  -6  -8   57.30    4.26
  -1  -6  -8   58.00    4.92
  -1  -6  -8   58.46    4.95
   1   6   8   56.49    4.70
   1   6   9   69.88    5.21
   1   6   9   67.71    5.44
  -1  -6  -9   76.32    5.78
   1   6  10  193.97    8.57
  -1  -6 -10  208.90    9.14
  -1  -6 -10  178.82    8.51
   1   6  10  187.24    8.78
   1   6  11    0.87    1.98
  -1  -6 -11    1.42    2.17
   1   6  11   -1.50    2.42
  -1  -6 -11   -4.81    3.05
  -1  -6 -12    7.11    3.17
   1   6  12   -1.66    2.76
   1   6  12    1.95    2.02
  -1  -6 -12   -0.74    2.29
   1   6  13    4.43    2.78
   1   6  13    5.50    2.46
  -1  -6 -13    5.34    2.82
  -1  -6 -13    1.95    2.82
   1   6  14   20.41    3.90
  -1  -6 -14   17.31    3.95
  -1  -7  20    0.10    2.36
  -1  -7  20    3.02    2.69
   1   7 -20    2.35    2.31
  -1  -7  19    1.71    2.90
  -1  -7  19    0.91    2.18
  -1  -7  19    3.95    2.48
   1   7 -19    1.62    2.67
  -1  -7  18    1.51    2.29
  -1  -7  18    1.72    3.03
   1   7 -18   -2.79    2.86
  -1  -7  18    1.39    2.52
   1   7 -17   40.07    4.23
  -1  -7  17   36.73    4.58
   1   7 -17   45.19    4.83
  -1  -7  17   41.96    4.55
  -1  -7  17   33.53    4.76
  -1  -7  16   67.42    6.06
  -1  -7  16   66.24    5.51
  -1  -7  16   66.28    5.74
  -1  -7  16   61.29    4.89
  -1  -7  16   69.40    5.18
   1   7 -16   66.53    5.06
   1   7 -16   63.57    5.39
   1   7 -15    6.58    2.35
  -1  -7  15    6.24    3.06
   1   7 -15    4.31    2.35
  -1  -7  15    0.86    2.51
  -1  -7  15    2.73    2.23
   1   7 -15    2.45    2.25
  -1  -7  15    3.57    1.89
   1   7 -14    3.65    2.07
  -1  -7  14    7.49    3.04
  -1  -7  14    1.13    1.95
   1   7 -14    5.43    2.50
  -1  -7  14    1.96    2.23
   1   7 -14    4.39    2.40
  -1  -7  14    4.08    2.03
  -1  -7  13   72.83    5.50
   1   7 -13   80.12    5.05
  -1  -7  13   69.09    4.87
   1   7 -13   75.73    5.29
  -1  -7  13   81.52    5.46
   1   7 -13   73.20    5.45
   1   7 -12   14.72    2.56
  -1  -7  12   13.40    3.01
   1   7 -12    9.03    1.86
  -1  -7  12   18.41    3.18
  -1  -7  12   13.70    2.61
   1   7 -12   10.70    2.62
   1   7 -12   11.93    2.72
   1   7 -12   10.43    2.83
  -1  -7  12   12.04    2.06
   1   7 -11   67.35    4.96
  -1  -7  11   71.89    5.01
  -1  -7  11   61.52    3.94
   1   7 -11   71.68    4.58
  -1  -7  11   73.41    5.03
   1   7 -11   70.50    4.27
  -1  -7  11   67.38    4.71
   1   7 -11   66.09    4.73
   1   7 -11   65.58    4.85
  -1  -7  10   79.75    4.83
   1   7 -10   78.16    4.45
   1   7 -10   80.03    5.21
  -1  -7  10   79.93    4.89
   1   7 -10   76.41    5.00
   1   7 -10   77.62    4.58
  -1  -7  10   76.31    4.27
  -1  -7  10   75.29    4.84
   1   7  -9   11.50    2.20
  -1  -7   9    9.92    2.25
  -1  -7   9   12.00    2.69
  -1  -7   9    6.38    1.92
  -1  -7   9   10.80    2.55
   1   7  -9   12.90    2.34
   1   7  -9   11.51    2.76
  -1  -7   8 1633.31   18.76
  -1  -7   8 1616.97   20.08
   1   7  -8 1621.05   19.41
  -1  -7   8 1621.91   18.90
  -1  -7   8 1640.85   20.32
   1   7  -8 1611.97   20.27
   1   7  -8 1599.57   20.68
   1   7  -7   19.79    2.78
  -1  -7   7   17.24    2.60
   1   7  -7   21.63    2.06
   1   7  -7   14.56    2.58
  -1  -7   7   14.27    2.64
  -1  -7   7   15.66    2.10
   1   7  -7   14.53    2.69
  -1  -7   7   16.19    2.42
  -1  -7   6  256.47    6.72
   1   7  -6  257.94    7.91
   1   7  -6  257.33    8.09
  -1  -7   6  256.00    8.00
   1   7  -6  254.66    7.85
   1   7  -6  270.74    6.26
  -1  -7   6  243.86    7.81
  -1  -7   6  253.92    7.58
  -1  -7   5   89.30    4.95
   1   7  -5   91.25    4.99
   1   7  -5   89.02    4.71
  -1  -7   5   88.24    4.77
   1   7  -5   90.12    3.90
  -1  -7   5   87.67    4.71
  -1  -7   5   88.63    3.72
   1   7  -5   80.54    4.69
  -1  -7   4    9.04    2.50
   1   7  -4    8.43    1.66
   1   7  -4   12.07    2.75
  -1  -7   4    9.47    2.41
  -1  -7   4    8.42    2.09
   1   7  -4    6.63    1.96
   1   7  -4    8.47    2.04
  -1  -7   3  424.65   10.04
   1   7  -3  428.37    9.93
   1   7  -3  422.20    9.76
   1   7  -3  422.32    9.94
   1   7  -3  427.87    9.01
  -1  -7   3  436.62   10.11
  -1  -7   3  414.32    9.84
   1   7  -3  428.30   10.16
   1   7  -2   57.07    4.33
  -1  -7   2   45.56    3.68
   1   7  -2   49.54    3.67
   1   7  -2   46.93    3.53
  -1  -7   2   49.17    3.74
   1   7  -2   53.28    3.44
  -1  -7   2   48.40    3.92
   1   7  -2   49.02    3.61
   1   7  -1  581.18   11.66
  -1  -7   1  587.21   12.09
  -1  -7   1  567.10   11.45
   1   7  -1  582.31   11.54
  -1  -7   1  581.69   11.96
   1   7  -1  566.63   11.80
   1   7  -1  589.34   11.37
   1   7  -1  561.65   11.55
   1   7   0   55.78    3.98
  -1  -7   0   45.99    3.59
   1   7   0   58.74    4.35
   1   7   0   55.27    4.05
  -1  -7   0   58.24    4.24
   1   7   0   49.38    3.67
  -1  -7   0   50.67    4.28
   1   7   1   57.87    4.34
  -1  -7  -1   46.02    4.15
  -1  -7  -1   42.93    3.56
   1   7   1   44.21    3.74
   1   7   1   46.74    3.20
  -1  -7  -1   50.06    4.08
   1   7   1   46.69    3.67
   1   7   1   51.51    3.76
  -1  -7  -2   -0.98    1.80
   1   7   2    4.19    2.26
   1   7   2   -0.03    1.72
  -1  -7  -2    2.51    2.55
   1   7   2    0.00    2.13
   1   7   2    1.37    1.15
  -1  -7  -2   -1.74    2.14
   1   7   3   34.20    2.73
   1   7   3   35.25    3.49
   1   7   3   33.07    3.46
   1   7   3   33.62    3.47
  -1  -7  -3   29.70    3.43
  -1  -7  -3   32.45    3.24
  -1  -7  -3   36.95    4.05
   1   7   4  488.61   11.07
  -1  -7  -4  475.77   12.26
   1   7   4  495.00    9.66
  -1  -7  -4  465.09   11.16
   1   7   4  459.76   11.85
   1   7   4  490.98   12.40
  -1  -7  -4  478.73   12.31
  -1  -7  -5   38.85    3.73
   1   7   5   28.67    3.07
  -1  -7  -5   28.24    3.80
  -1  -7  -5   42.71    4.45
   1   7   5   36.78    3.91
   1   7   5   32.60    3.48
  -1  -7  -6    0.84    1.84
   1   7   6   -1.65    1.86
   1   7   6    1.12    1.60
   1   7   6    1.57    2.30
  -1  -7  -6    2.06    2.31
  -1  -7  -6    4.23    2.92
   1   7   7    8.02    2.53
   1   7   7    6.88    2.41
  -1  -7  -7    7.32    2.20
  -1  -7  -7    4.76    2.57
  -1  -7  -7    3.73    2.61
   1   7   8    3.57    2.52
  -1  -7  -8    3.68    2.58
  -1  -7  -8    4.58    2.87
   1   7   8    3.13    2.10
  -1  -7  -9   28.15    4.04
   1   7   9   36.28    4.04
   1   7   9   36.85    4.46
  -1  -7  -9   31.09    4.42
   1   7  10   29.03    4.28
   1   7  10   24.06    3.63
  -1  -7 -10   19.58    3.69
  -1  -7 -10   28.19    4.07
  -1  -7 -11    4.93    2.77
   1   7  11    4.16    2.23
   1   7  11    4.38    2.90
  -1  -7 -11    2.08    2.77
   1   7  12   56.14    5.27
   1   7  12   63.46    6.11
  -1  -7 -12   71.09    6.35
  -1  -7 -13    5.10    3.14
  -1  -8  20  179.32    9.82
  -1  -8  19    8.23    3.51
  -1  -8  19    6.23    2.83
   1   8 -19   -1.10    2.69
  -1  -8  19    2.41    2.60
  -1  -8  18   40.36    5.45
  -1  -8  18   37.42    4.77
   1   8 -18   37.96    4.86
  -1  -8  18   34.84    4.59
  -1  -8  17   59.70    6.03
   1   8 -17   51.16    5.33
  -1  -8  17   50.43    4.88
  -1  -8  17   60.99    5.54
  -1  -8  17   59.41    5.72
   1   8 -17   62.27    5.20
   1   8 -16    1.92    2.06
  -1  -8  16    2.93    2.14
   1   8 -16    3.93    2.86
  -1  -8  16   -2.84    2.69
  -1  -8  16    2.68    2.57
  -1  -8  16    0.87    2.38
   1   8 -16    2.38    2.54
   1   8 -15   42.71    4.24
  -1  -8  15   37.21    4.80
  -1  -8  15   39.44    4.27
   1   8 -15   37.43    4.38
  -1  -8  15   42.28    4.46
   1   8 -15   36.08    4.61
  -1  -8  15   42.18    4.12
   1   8 -15   31.74    4.25
   1   8 -14    2.47    2.40
   1   8 -14   -0.15    2.01
  -1  -8  14    2.04    2.45
  -1  -8  14    0.52    2.34
  -1  -8  14    5.27    3.07
   1   8 -14    3.13    2.48
   1   8 -14    3.92    2.62
  -1  -8  13  142.86    7.37
  -1  -8  13  158.23    7.53
   1   8 -13  154.16    7.59
  -1  -8  13  156.66    7.53
   1   8 -13  152.01    7.83
   1   8 -13  176.84    7.40
   1   8 -13  149.60    7.94
  -1  -8  12   17.78    3.37
   1   8 -12    9.51    1.98
  -1  -8  12   11.09    2.80
   1   8 -12   12.97    2.57
  -1  -8  12    7.50    2.54
   1   8 -12   10.82    2.69
  -1  -8  12    7.19    1.88
   1   8 -12   13.87    3.02
  -1  -8  11   44.51    4.35
  -1  -8  11   43.17    4.01
   1   8 -11   47.49    3.82
   1   8 -11   41.83    4.12
  -1  -8  11   39.64    4.06
  -1  -8  11   39.75    3.47
   1   8 -11   41.87    4.38
  -1  -8  10    2.16    1.96
  -1  -8  10    7.00    2.66
   1   8 -10    3.66    1.99
   1   8 -10    4.69    2.06
  -1  -8  10    4.95    2.30
  -1  -8  10    5.04    2.21
   1   8 -10    4.12    2.20
  -1  -8   9  318.44    9.03
  -1  -8   9  311.52    9.61
   1   8  -9  308.76    9.26
  -1  -8   9  306.49    8.79
   1   8  -9  299.80    9.84
  -1  -8   9  321.83    9.78
   1   8  -9  312.48    9.76
   1   8  -8  716.31   14.57
  -1  -8   8  727.75   12.85
   1   8  -8  713.15   14.00
  -1  -8   8  700.17   14.20
  -1  -8   8  733.72   14.45
   1   8  -8  743.41   14.43
  -1  -8   8  734.56   13.51
  -1  -8   7  113.56    5.00
  -1  -8   7  134.13    6.33
   1   8  -7  124.01    5.95
  -1  -8   7  119.22    6.00
   1   8  -7  133.42    4.79
  -1  -8   7  121.60    5.84
   1   8  -7  114.78    5.96
   1   8  -7  131.08    6.16
  -1  -8   6   90.43    4.17
  -1  -8   6   82.30    5.15
   1   8  -6   96.70    5.52
  -1  -8   6   94.42    5.20
  -1  -8   6   90.88    5.27
   1   8  -6   92.21    5.19
   1   8  -6   92.49    4.23
   1   8  -6   91.46    5.35
  -1  -8   5    8.30    2.55
   1   8  -5   15.49    3.29
  -1  -8   5   11.67    3.03
  -1  -8   5    7.02    2.31
   1   8  -5    9.53    2.44
   1   8  -5    9.86    2.12
   1   8  -5    7.73    2.37
   1   8  -4   -0.65    1.42
  -1  -8   4    4.67    2.67
  -1  -8   4   -1.65    2.05
   1   8  -4   -2.80    2.01
  -1  -8   4    3.41    2.34
   1   8  -4    1.11    2.17
   1   8  -3  357.18    9.78
  -1  -8   3  349.00    9.64
  -1  -8   3  359.09    9.92
   1   8  -3  355.53   10.06
   1   8  -3  361.66    9.77
  -1  -8   3  369.36   10.09
   1   8  -3  365.85    9.89
   1   8  -3  364.12    9.03
   1   8  -2  163.50    6.72
   1   8  -2  169.63    7.18
   1   8  -2  165.16    6.72
   1   8  -2  176.28    6.87
  -1  -8   2  173.26    7.09
   1   8  -2  159.14    6.40
  -1  -8   2  166.20    7.20
  -1  -8   2  173.77    6.88
   1   8  -1   57.99    4.72
  -1  -8   1   47.77    3.94
   1   8  -1   50.29    3.90
  -1  -8   1   51.39    4.23
   1   8  -1   50.80    3.98
   1   8  -1   52.27    3.85
  -1  -8   1   47.92    4.52
   1   8  -1   46.67    3.85
  -1  -8   0    3.43    2.20
   1   8   0    5.20    1.96
   1   8   0    2.98    2.01
  -1  -8   0    2.09    2.06
  -1  -8   0    3.68    2.77
   1   8   0   11.82    2.54
   1   8   0    4.15    2.06
  -1  -8  -1  199.59    8.25
   1   8   1  205.73    7.99
   1   8   1  209.59    7.93
  -1  -8  -1  189.09    7.35
  -1  -8  -1  194.83    7.92
   1   8   1  193.17    7.62
   1   8   1  201.92    6.76
  -1  -8  -2   27.17    4.20
   1   8   2   36.49    3.85
   1   8   2   25.88    3.15
   1   8   2   29.97    3.56
  -1  -8  -2   26.50    3.26
   1   8   2   28.52    2.76
  -1  -8  -2   28.93    3.72
   1   8   3    6.26    1.58
   1   8   3    9.75    2.46
  -1  -8  -3    5.33    1.94
  -1  -8  -3   11.36    2.92
   1   8   3    3.16    1.96
   1   8   3    6.31    2.57
  -1  -8  -3    6.79    2.89
   1   8   4    9.08    2.41
  -1  -8  -4    4.14    1.93
  -1  -8  -4    7.28    2.70
   1   8   4    5.28    2.29
   1   8   4    8.22    2.57
  -1  -8  -4   13.58    3.50
   1   8   5   11.90    2.62
  -1  -8  -5    6.99    2.18
   1   8   5   13.40    2.69
  -1  -8  -5   11.88    3.18
  -1  -8  -5   13.69    3.60
  -1  -8  -6   -4.16    2.43
   1   8   6    2.14    2.44
  -1  -8  -6    0.96    2.34
  -1  -8  -6    5.02    3.37
  -1  -8  -7   24.72    4.13
  -1  -8  -7   23.43    3.98
   1   8   7   23.70    3.75
   1   8   8    2.01    2.41
  -1  -8  -8   -0.37    2.66
  -1  -8  -8    1.26    2.92
  -1  -8  -9   57.43    5.77
   1   8   9   55.59    5.50
  -1  -8  -9   54.10    5.73
   1   8   9   55.52    4.99
   1   8  10    1.42    2.62
   1   8  10    0.44    2.02
  -1  -8 -10   -0.45    2.21
   1   8  11    5.13    3.14
   1   8  11    3.69    2.15
  -1  -8 -11   -1.27    3.43
  -1  -9  19    0.81    2.20
  -1  -9  19    0.16    2.57
   1   9 -19    2.74    3.03
  -1  -9  18    6.77    3.65
  -1  -9  18    7.34    2.59
  -1  -9  18    5.67    2.73
  -1  -9  18   10.85    3.41
   1   9 -18    7.42    2.99
   1   9 -18   15.23    3.96
   1   9 -17   24.73    4.37
  -1  -9  17    9.74    2.72
  -1  -9  17   21.51    4.08
   1   9 -17   20.58    4.01
   1   9 -17   19.50    4.04
  -1  -9  17   21.84    4.11
   1   9 -16    6.53    2.57
  -1  -9  16    7.90    2.67
   1   9 -16   10.71    3.29
  -1  -9  16    6.59    2.76
   1   9 -16   14.42    2.97
  -1  -9  16    0.88    3.37
   1   9 -16   11.60    3.46
  -1  -9  15    2.00    2.74
  -1  -9  15    1.82    2.29
   1   9 -15    4.88    2.82
  -1  -9  15    6.14    2.73
   1   9 -15    3.21    2.53
   1   9 -14   11.77    3.15
  -1  -9  14    9.46    2.83
  -1  -9  14   22.53    3.83
  -1  -9  14   17.81    3.61
   1   9 -14   17.96    3.47
  -1  -9  13   19.28    3.28
   1   9 -13   19.32    3.44
   1   9 -13   20.18    2.86
  -1  -9  13   19.53    3.41
  -1  -9  13   20.30    3.51
   1   9 -13   15.38    3.37
  -1  -9  12    5.78    2.25
  -1  -9  12    9.87    2.36
  -1  -9  12   11.34    2.97
   1   9 -12   10.02    2.67
   1   9 -12    6.24    2.14
  -1  -9  12   13.00    3.19
   1   9 -12   10.86    3.07
  -1  -9  11    0.87    2.16
   1   9 -11    1.54    1.92
  -1  -9  11   -2.23    2.63
  -1  -9  11   -0.59    2.23
   1   9 -11   -0.33    2.13
  -1  -9  11   -0.97    1.91
   1   9 -11   -2.31    2.24
   1   9 -10   33.49    3.67
  -1  -9  10   33.59    3.74
  -1  -9  10   36.50    3.86
   1   9 -10   35.69    4.05
   1   9 -10   35.67    4.24
  -1  -9  10   35.72    3.91
  -1  -9  10   33.48    3.54
  -1  -9   9   35.47    3.41
   1   9  -9   41.82    4.37
   1   9  -9   43.92    4.18
  -1  -9   9   40.87    3.96
  -1  -9   9   45.95    4.62
  -1  -9   9   38.41    3.86
   1   9  -9   37.84    4.02
  -1  -9   8    1.27    2.46
  -1  -9   8   -1.94    1.76
  -1  -9   8    4.42    2.86
   1   9  -8    1.29    2.17
   1   9  -8    4.77    2.49
  -1  -9   8   -0.18    2.26
   1   9  -8   -0.30    1.97
   1   9  -7   63.16    4.91
  -1  -9   7   54.25    4.81
   1   9  -7   51.72    4.48
  -1  -9   7   52.97    4.56
   1   9  -7   57.83    4.54
   1   9  -7   62.02    3.76
  -1  -9   7   61.72    4.78
   1   9  -6   53.44    4.68
  -1  -9   6   55.18    4.76
  -1  -9   6   45.41    4.30
   1   9  -6   44.91    4.11
  -1  -9   6   51.45    4.39
   1   9  -6   43.72    4.01
   1   9  -6   55.51    3.68
   1   9  -5  219.72    8.57
   1   9  -5  223.90    8.37
  -1  -9   5  204.59    7.91
  -1  -9   5  215.54    8.37
   1   9  -5  199.41    7.92
   1   9  -5  227.58    7.25
  -1  -9   5  198.63    7.97
   1   9  -4  159.51    7.01
  -1  -9   4  183.93    7.63
   1   9  -4  180.27    6.74
   1   9  -4  173.22    7.37
  -1  -9   4  167.67    7.36
  -1  -9   4  176.38    7.52
   1   9  -4  184.50    7.89
   1   9  -3   94.44    6.00
   1   9  -3   80.56    5.22
  -1  -9   3   84.02    5.40
  -1  -9   3   73.46    5.34
   1   9  -3   80.03    5.11
   1   9  -3   78.97    5.09
  -1  -9   3   86.19    5.52
   1   9  -3   85.93    4.89
  -1  -9   2   39.64    4.03
  -1  -9   2   34.53    4.22
   1   9  -2   48.29    4.66
   1   9  -2   41.55    3.94
  -1  -9   2   35.50    3.84
   1   9  -2   28.35    3.39
   1   9  -2   37.63    3.57
   1   9  -2   36.81    3.66
  -1  -9   1   54.35    4.44
   1   9  -1   62.11    5.00
   1   9  -1   47.65    4.24
   1   9  -1   50.28    4.26
  -1  -9   1   48.26    4.54
   1   9  -1   52.22    4.16
  -1  -9   1   60.74    5.14
   1   9  -1   58.77    4.58
   1   9   0  432.01   11.93
  -1  -9   0  438.51   11.47
  -1  -9   0  451.79   12.52
   1   9   0  457.85   12.10
   1   9   0  455.63   10.78
  -1  -9   0  445.81   12.39
   1   9   0  453.61   11.90
   1   9   0  449.01   12.03
   1   9   0  435.42   11.57
  -1  -9  -1   68.02    4.93
   1   9   1   66.85    5.25
   1   9   1   64.81    5.05
   1   9   1   64.50    4.18
  -1  -9  -1   66.13    5.25
   1   9   1   57.70    4.67
  -1  -9  -1   60.67    5.49
   1   9   2    0.80    2.66
   1   9   2    7.07    2.70
  -1  -9  -2   -0.68    1.92
   1   9   2    4.58    2.34
  -1  -9  -2    2.37    2.55
  -1  -9  -2    1.20    2.89
  -1  -9  -3   66.04    4.89
   1   9   3   71.92    5.28
   1   9   3   72.73    5.47
  -1  -9  -3   78.24    5.83
  -1  -9  -3   73.35    5.84
   1   9   3   80.49    5.78
   1   9   4   28.59    3.60
  -1  -9  -4   30.97    4.79
  -1  -9  -4   26.28    3.43
   1   9   4   24.69    3.63
  -1  -9  -4   26.76    4.01
   1   9   4   25.99    3.72
   1   9   5    9.15    2.47
  -1  -9  -5    7.02    2.34
   1   9   5    8.67    2.89
  -1  -9  -5    8.87    3.12
  -1  -9  -5   11.49    3.68
  -1  -9  -6   15.58    4.11
  -1  -9  -6   16.00    3.82
   1   9   6   13.08    3.15
  -1  -9  -7   14.61    3.80
   1   9   7   16.99    3.65
  -1  -9  -7   12.74    4.00
   1   9   8    1.56    2.56
  -1  -9  -8    1.73    2.68
  -1  -9  -8    1.36    3.05
   1   9   9   22.07    4.10
  -1  -9  -9   15.22    3.87
  -1  -9  -9   12.22    3.39
  -1  -9 -10   78.29    7.12
  -1 -10  18    4.02    2.74
  -1 -10  18   -2.92    2.83
  -1 -10  18    1.66    2.41
  -1 -10  18   -4.39    3.83
   1  10 -18   -0.18    2.79
   1  10 -18   -3.43    2.65
  -1 -10  17   47.34    5.25
   1  10 -17   50.92    5.83
  -1 -10  17   56.98    5.64
   1  10 -17   46.61    5.48
  -1 -10  17   48.82    5.60
  -1 -10  16   51.01    5.13
  -1 -10  16   64.99    5.90
   1  10 -16   56.32    5.95
  -1 -10  16   49.66    5.40
   1  10 -16   60.57    6.07
  -1 -10  15    1.82    2.87
  -1 -10  15    9.64    3.15
  -1 -10  15   12.02    3.54
   1  10 -15    4.23    2.82
   1  10 -15    2.47    2.95
  -1 -10  14   11.76    3.28
  -1 -10  14   15.15    3.56
   1  10 -14   17.87    4.01
  -1 -10  14   15.32    3.25
   1  10 -14   16.64    3.42
  -1 -10  13   34.46    4.16
   1  10 -13   39.24    3.99
  -1 -10  13   43.46    4.76
   1  10 -13   36.73    4.62
  -1 -10  13   32.69    4.26
   1  10 -13   43.15    4.89
  -1 -10  12    1.25    2.23
   1  10 -12   -0.35    2.32
  -1 -10  12    2.94    2.51
  -1 -10  12    6.52    3.07
   1  10 -12    1.08    2.17
   1  10 -12    1.30    2.17
  -1 -10  11   12.71    2.66
  -1 -10  11   14.45    3.31
   1  10 -11    8.50    2.70
  -1 -10  11   15.00    3.12
   1  10 -11   15.28    3.23
   1  10 -11   12.83    3.01
  -1 -10  11   20.60    3.40
  -1 -10  10   82.77    5.27
   1  10 -10   83.95    5.78
  -1 -10  10   87.48    6.19
  -1 -10  10   95.81    5.79
  -1 -10  10   94.73    6.27
   1  10 -10   89.84    6.10
   1  10 -10   91.15    6.30
  -1 -10   9   60.00    5.05
   1  10  -9   71.66    5.30
  -1 -10   9   61.58    5.11
   1  10  -9   56.13    4.81
  -1 -10   9   67.02    5.05
   1  10  -9   58.17    4.96
   1  10  -8   34.77    4.21
   1  10  -8   32.21    3.86
  -1 -10   8   32.62    4.11
  -1 -10   8   31.77    4.02
   1  10  -8   25.87    3.62
  -1 -10   8   33.22    3.83
   1  10  -7   39.10    4.52
   1  10  -7   34.26    3.99
  -1 -10   7   31.63    3.97
   1  10  -7   33.73    4.02
  -1 -10   7   29.95    3.85
  -1 -10   7   32.46    3.88
  -1 -10   6   12.33    2.99
   1  10  -6   19.45    3.70
  -1 -10   6   13.23    3.12
  -1 -10   6   17.84    3.25
   1  10  -6   12.57    2.65
   1  10  -6   15.09    2.34
   1  10  -6   10.70    2.62
  -1 -10   5    6.99    2.77
   1  10  -5    8.94    2.18
  -1 -10   5   10.62    3.27
   1  10  -5    9.96    3.41
   1  10  -5    7.00    2.40
  -1 -10   5    3.95    2.46
   1  10  -5    1.61    1.81
   1  10  -4  127.45    6.81
   1  10  -4  125.54    7.15
  -1 -10   4  102.44    6.29
  -1 -10   4  113.89    6.59
   1  10  -4  112.21    6.37
   1  10  -4  118.67    6.01
  -1 -10   4  110.00    6.60
  -1 -10   3    8.55    2.82
   1  10  -3   13.33    3.47
   1  10  -3    4.56    1.93
  -1 -10   3    3.79    2.83
   1  10  -3    5.42    2.20
   1  10  -3    1.57    2.10
  -1 -10   3    2.33    2.76
   1  10  -3    4.94    2.50
   1  10  -2    3.21    2.14
  -1 -10   2    1.80    2.95
   1  10  -2   10.94    3.53
  -1 -10   2    6.99    2.75
   1  10  -2    1.26    1.92
  -1 -10   2    3.06    2.46
   1  10  -2    2.69    2.35
   1  10  -2   -0.62    2.32
  -1 -10   1    5.00    3.04
   1  10  -1    1.16    1.97
  -1 -10   1    6.93    2.80
   1  10  -1    2.44    1.88
   1  10  -1    3.74    2.31
  -1 -10   1   -0.22    2.44
   1  10  -1    4.53    2.40
   1  10   0   38.23    4.64
   1  10   0   37.84    4.11
   1  10   0   34.72    3.36
   1  10   0   40.14    4.16
   1  10   0   35.15    3.86
  -1 -10   0   39.30    4.48
   1  10   0   36.88    4.06
  -1 -10   0   40.37    4.84
  -1 -10   0   38.38    4.04
  -1 -10  -1  141.76    7.13
   1  10   1  133.58    7.29
   1  10   1  137.16    7.38
   1  10   1  135.59    7.30
  -1 -10  -1  143.01    7.78
   1  10   1  139.13    7.29
  -1 -10  -1  128.58    7.80
  -1 -10  -2   32.94    5.09
  -1 -10  -2   22.70    3.55
   1  10   2   22.94    3.56
  -1 -10  -2   20.70    3.89
   1  10   2   25.16    3.60
   1  10   2   25.59    3.78
   1  10   3   11.52    2.94
  -1 -10  -3    8.46    2.59
   1  10   3    9.65    2.72
  -1 -10  -3    8.12    3.22
   1  10   3    7.08    2.69
  -1 -10  -3   16.89    4.26
   1  10   4   72.38    5.56
  -1 -10  -4   67.04    5.23
   1  10   4   68.30    5.87
  -1 -10  -4   70.30    6.19
  -1 -10  -4   80.35    7.07
  -1 -10  -5   12.72    3.32
  -1 -10  -5   15.76    4.26
   1  10   5   10.06    3.17
   1  10   6    3.66    2.86
  -1 -10  -6   -0.31    2.96
  -1 -10  -6    4.87    3.66
   1  10   7    5.49    2.94
  -1 -10  -7   -3.58    2.73
  -1 -10  -7   -4.44    3.43
  -1 -10  -8    6.86    3.67
   1  10   8   10.22    3.18
  -1 -10  -8   13.24    4.15
  -1 -11  18   49.02    5.43
  -1 -11  17   23.11    4.41
   1  11 -17   19.82    4.46
  -1 -11  17   20.27    4.06
  -1 -11  17   12.58    3.28
   1  11 -17   15.60    3.98
  -1 -11  16   99.58    7.38
  -1 -11  16   99.21    7.18
  -1 -11  16  115.45    7.76
   1  11 -16  108.73    7.93
   1  11 -16  100.97    7.93
  -1 -11  15   -4.77    3.12
  -1 -11  15    1.37    2.88
  -1 -11  15   -0.92    2.60
   1  11 -15    0.14    2.66
   1  11 -15    1.13    2.84
  -1 -11  14   16.20    3.32
  -1 -11  14   15.77    3.49
   1  11 -14   23.10    4.08
   1  11 -14   15.51    3.77
  -1 -11  13   25.64    3.84
   1  11 -13   28.95    3.67
  -1 -11  13   40.60    5.22
  -1 -11  13   34.26    4.56
   1  11 -13   27.28    4.29
   1  11 -13   29.31    4.50
   1  11 -12   42.98    4.79
  -1 -11  12   41.88    4.62
   1  11 -12   45.62    4.64
   1  11 -12   37.35    4.59
   1  11 -11    8.07    2.61
  -1 -11  11    5.45    2.95
   1  11 -11   10.79    3.17
  -1 -11  11    8.20    2.91
  -1 -11  11    8.99    3.08
   1  11 -11    4.36    2.90
  -1 -11  10   22.39    3.39
   1  11 -10   24.58    3.90
  -1 -11  10   28.49    4.28
   1  11 -10   32.23    4.07
  -1 -11  10   35.79    4.32
   1  11 -10   33.58    4.39
  -1 -11   9    3.71    2.74
   1  11  -9   13.20    3.38
  -1 -11   9   13.27    3.60
  -1 -11   9    3.58    2.51
   1  11  -9    8.55    2.96
   1  11  -9   12.34    3.31
   1  11  -8   13.20    3.49
  -1 -11   8    6.28    2.96
   1  11  -8    1.51    2.26
  -1 -11   8    8.04    2.76
   1  11  -8    3.51    2.36
  -1 -11   8    4.96    2.61
   1  11  -7  191.67    8.80
  -1 -11   7  181.48    8.68
  -1 -11   7  197.18    8.91
   1  11  -7  185.14    8.53
  -1 -11   7  184.48    8.47
   1  11  -7  185.19    8.70
  -1 -11   6   10.76    3.45
   1  11  -6   12.83    3.37
   1  11  -6    7.80    2.47
  -1 -11   6   14.18    3.44
  -1 -11   6    3.99    2.49
   1  11  -6    6.91    2.48
   1  11  -6   12.14    2.47
   1  11  -5   82.38    6.28
   1  11  -5   78.95    5.80
  -1 -11   5   68.92    5.53
  -1 -11   5   77.73    5.81
   1  11  -5   83.46    5.94
   1  11  -5   82.52    5.22
  -1 -11   5   85.75    6.17
  -1 -11   4    3.94    2.56
  -1 -11   4    4.26    3.12
   1  11  -4    0.80    2.03
   1  11  -4   10.84    3.53
   1  11  -4    1.50    2.25
  -1 -11   4    4.60    2.80
   1  11  -4    3.21    2.35
   1  11  -3    5.97    3.02
   1  11  -3   -1.91    2.36
   1  11  -3   -0.35    2.21
  -1 -11   3   -0.24    2.53
   1  11  -3    0.53    1.93
  -1 -11   3   -0.94    3.04
  -1 -11   3   -1.57    2.99
   1  11  -3    0.59    2.10
   1  11  -2   35.68    4.94
   1  11  -2   30.03    3.69
   1  11  -2   28.35    3.77
   1  11  -2   21.40    3.57
  -1 -11   2   26.40    4.05
   1  11  -2   24.32    3.58
  -1 -11   2   33.74    4.72
  -1 -11   2   31.14    4.30
   1  11  -1   40.14    4.61
  -1 -11   1   41.73    4.54
   1  11  -1   37.98    4.16
   1  11  -1   33.62    4.28
   1  11  -1   39.46    3.84
   1  11  -1   40.51    4.34
  -1 -11   1   42.45    5.03
  -1 -11   1   38.33    5.02
   1  11  -1   33.76    3.97
  -1 -11   0   -2.99    3.40
   1  11   0    7.32    3.41
   1  11   0    0.06    1.90
  -1 -11   0    2.67    2.98
   1  11   0    0.64    2.24
   1  11   0   -2.69    2.88
  -1 -11   0   11.21    3.45
   1  11   1   10.22    3.38
  -1 -11  -1    9.59    3.07
   1  11   1    1.23    2.28
  -1 -11  -1    4.32    2.71
   1  11   1    3.45    2.40
   1  11   1   -0.40    2.79
  -1 -11  -1   14.91    4.62
  -1 -11  -2    9.10    4.25
   1  11   2    5.43    3.07
   1  11   2    1.98    2.52
   1  11   2   -0.18    2.22
  -1 -11  -2    4.14    3.22
  -1 -11  -2    5.98    2.91
   1  11   2   -3.10    3.29
   1  11   3  120.20    7.40
  -1 -11  -3  143.06    8.98
   1  11   3  132.99    8.03
  -1 -11  -3  123.20    8.25
   1  11   3  123.53    7.90
   1  11   4  102.17    6.76
  -1 -11  -4  108.84    7.83
   1  11   4  105.47    7.43
  -1 -11  -4  118.64    8.46
   1  11   5   13.33    3.43
  -1 -11  -5   15.13    4.23
  -1 -11  -5   24.32    5.11
   1  11   6    3.07    2.37
  -1 -11  -6    1.74    2.77
  -1 -11  -6   -0.29    3.63
  -1 -12  17    5.79    3.16
  -1 -12  16    0.86    2.51
  -1 -12  16    0.61    2.67
  -1 -12  15   10.42    3.14
  -1 -12  15   10.65    3.29
   1  12 -15    7.41    3.31
   1  12 -15   10.75    3.69
   1  12 -14   40.85    5.36
   1  12 -14   33.39    4.20
  -1 -12  14   45.56    5.23
  -1 -12  14   42.17    5.17
   1  12 -14   36.61    4.78
   1  12 -13    1.75    2.35
   1  12 -13    3.74    2.69
  -1 -12  13    1.97    3.00
  -1 -12  13   -1.02    2.84
   1  12 -13    3.21    2.64
   1  12 -12   -0.67    2.60
   1  12 -12    3.57    2.80
  -1 -12  12    7.41    3.52
  -1 -12  12    4.68    2.82
   1  12 -12   -0.29    2.45
   1  12 -11    7.41    2.60
  -1 -12  11    7.67    3.69
  -1 -12  11    7.88    3.18
  -1 -12  11    4.40    2.93
   1  12 -11    5.69    3.16
   1  12 -11    2.35    2.27
  -1 -12  10   12.24    3.38
   1  12 -10   19.88    3.98
  -1 -12  10   25.79    4.42
  -1 -12  10   20.44    3.90
   1  12 -10   26.99    4.32
   1  12 -10   17.73    3.52
   1  12  -9   62.15    5.85
  -1 -12   9   54.79    5.36
  -1 -12   9   66.11    6.19
  -1 -12   9   63.70    5.78
   1  12  -9   54.37    5.42
   1  12  -9   58.53    5.55
  -1 -12   8   17.60    3.94
   1  12  -8   20.39    3.76
   1  12  -8   19.84    3.98
  -1 -12   8   19.03    3.89
   1  12  -8   18.81    3.47
  -1 -12   8   20.31    4.06
  -1 -12   7   28.22    4.62
   1  12  -7   30.61    4.67
  -1 -12   7   28.57    4.58
  -1 -12   7   22.91    3.81
   1  12  -7   18.46    3.42
   1  12  -7   23.47    3.86
  -1 -12   6   16.02    4.01
   1  12  -6   18.98    3.89
  -1 -12   6   16.89    3.80
  -1 -12   6   10.92    3.37
   1  12  -6   14.29    3.20
   1  12  -6   12.79    3.35
  -1 -12   5   -3.33    2.61
   1  12  -5   12.34    3.93
  -1 -12   5    4.28    2.70
   1  12  -5    2.64    2.56
   1  12  -5    4.43    2.42
  -1 -12   5    4.23    3.39
   1  12  -5    4.65    2.62
   1  12  -4    0.40    2.38
  -1 -12   4    7.22    4.01
   1  12  -4   -0.57    2.16
  -1 -12   4   -0.45    2.76
  -1 -12   4    0.97    2.57
   1  12  -4   -0.54    2.47
   1  12  -4    7.42    3.53
  -1 -12   3    6.57    3.50
   1  12  -3   15.06    3.99
   1  12  -3    1.11    2.20
   1  12  -3    4.91    2.60
  -1 -12   3    4.29    3.13
   1  12  -3    6.11    2.78
   1  12  -3    1.96    2.38
  -1 -12   3   -6.27    3.63
   1  12  -2    6.05    3.13
   1  12  -2    4.12    2.26
  -1 -12   2    6.70    3.01
   1  12  -2    2.25    2.33
   1  12  -2    6.61    2.92
   1  12  -2    4.97    2.44
  -1 -12   2    8.74    4.12
  -1 -12   2   -2.13    3.11
   1  12  -1   10.59    3.60
  -1 -12   1   -3.28    3.07
   1  12  -1    3.91    2.30
  -1 -12   1    1.71    2.93
   1  12  -1    4.31    2.55
   1  12  -1    1.07    2.88
  -1 -12   1    7.98    4.18
   1  12   0    5.68    3.07
  -1 -12   0    4.91    3.54
  -1 -12   0    8.13    3.22
  -1 -12   0    1.09    2.42
   1  12   0    2.08    2.15
   1  12   0    5.28    2.63
   1  12   0    2.32    2.51
  -1 -12  -1   34.35    5.32
  -1 -12  -1   32.99    4.67
   1  12   1   24.57    4.08
   1  12   1   24.67    4.09
  -1 -12  -1   17.47    4.06
   1  12   1   24.39    4.09
   1  12   1   25.86    4.05
   1  12   2   68.34    6.04
   1  12   2   68.25    6.17
  -1 -12  -2   71.48    6.56
   1  12   2   59.45    5.76
   1  12   2   66.67    6.04
  -1 -12  -2   66.02    6.95
   1  12   3    7.60    3.36
  -1 -12  -3    3.07    2.93
   1  12   3    8.50    3.17
   1  12   3    7.88    3.27
  -1 -12  -3   17.03    5.07
   1  12   4   61.58    6.12
  -1 -12  -4   57.95    6.48
  -1 -12  -4   57.46    6.47
   1  13 -14    1.52    2.88
  -1 -13  14    5.84    3.08
  -1 -13  14    3.29    3.08
   1  13 -14    3.09    2.79
   1  13 -13    2.40    2.58
  -1 -13  13   11.55    4.06
  -1 -13  13    7.38    3.39
   1  13 -13   11.11    3.30
   1  13 -13    6.25    2.90
   1  13 -12    1.78    2.32
   1  13 -12    1.87    2.74
  -1 -13  12    8.43    3.69
  -1 -13  12    2.80    3.01
   1  13 -12    0.90    2.45
   1  13 -11   26.10    4.53
  -1 -13  11   25.78    4.60
  -1 -13  11   24.00    4.14
   1  13 -11   30.13    4.84
   1  13 -11   28.12    4.35
  -1 -13  10   20.23    3.90
  -1 -13  10   21.97    4.24
   1  13 -10   25.13    4.35
   1  13 -10   21.30    4.09
  -1 -13  10   22.38    4.11
   1  13 -10   15.95    3.61
   1  13  -9  153.24    8.92
  -1 -13   9  153.41    8.97
  -1 -13   9  157.10    9.03
   1  13  -9  165.81    9.26
   1  13  -9  170.07    9.36
  -1 -13   9  163.05    8.93
  -1 -13   8    4.70    3.63
   1  13  -8    3.51    3.55
  -1 -13   8   -1.24    3.07
  -1 -13   8    1.16    2.94
   1  13  -8    1.61    2.25
   1  13  -8    4.77    3.07
   1  13  -7    8.19    3.82
  -1 -13   7    5.62    3.49
  -1 -13   7    2.73    3.10
   1  13  -7    5.54    2.88
   1  13  -7    5.35    2.87
  -1 -13   7    7.16    3.95
   1  13  -6   11.88    3.84
  -1 -13   6    4.40    3.12
   1  13  -6    9.65    2.91
  -1 -13   6    0.31    2.86
   1  13  -6    7.91    3.10
  -1 -13   6    5.37    3.57
  -1 -13   5   21.13    4.06
   1  13  -5   33.51    4.65
   1  13  -5   24.98    3.82
  -1 -13   5   22.63    4.26
  -1 -13   5   25.01    4.80
   1  13  -5   26.87    4.23
   1  13  -5   33.78    4.84
   1  13  -4   52.83    5.65
  -1 -13   4   42.20    5.51
  -1 -13   4   42.56    5.28
  -1 -13   4   41.83    5.40
   1  13  -4   40.37    4.78
   1  13  -4   43.72    4.66
   1  13  -4   35.83    4.60
   1  13  -3   93.11    7.23
  -1 -13   3   89.95    6.90
  -1 -13   3   97.56    7.36
   1  13  -3  102.02    7.33
   1  13  -3   98.80    6.86
  -1 -13   3   91.30    7.55
   1  13  -3  100.13    7.01
  -1 -13   2   37.67    5.31
   1  13  -2   50.35    5.96
   1  13  -2   46.58    5.03
   1  13  -2   45.47    4.93
  -1 -13   2   40.61    5.19
  -1 -13   2   44.62    5.37
   1  13  -2   43.84    5.09
   1  13  -2   49.04    5.33
   1  13  -1    4.15    3.06
   1  13  -1   -0.91    2.13
  -1 -13   1   -6.69    3.49
  -1 -13   1   -0.45    2.99
   1  13  -1    0.41    2.64
   1  13  -1   -0.26    2.81
   1  13   0    4.85    3.16
  -1 -13   0    5.62    3.34
   1  13   0    1.85    2.04
  -1 -13   0    5.47    3.51
   1  13   0    1.90    2.39
   1  13   0    5.59    2.79
   1  13   1   23.61    4.35
   1  13   1   25.27    4.15
  -1 -13  -1   21.02    4.26
   1  13   1   28.24    4.41
   1  13   1   21.13    4.37
  -1 -13  -1   32.82    5.50
   1  13   2    5.98    3.09
   1  13   3    7.78    3.41
   1  14 -12    8.16    3.59
  -1 -14  11   52.00    5.81
   1  14 -11   49.55    5.75
   1  14 -11   57.52    6.21
   1  14 -10    5.90    2.88
   1  14 -10    1.54    2.79
  -1 -14  10   -1.82    3.02
   1  14 -10    5.11    2.92
  -1 -14  10    1.32    3.37
   1  14  -9  148.25    9.25
  -1 -14   9  163.96    9.23
   1  14  -9  153.70    9.37
  -1 -14   9  144.78    9.12
  -1 -14   9  160.67    9.53
   1  14  -9  151.29    9.18
   1  14  -8  162.98    9.85
  -1 -14   8  162.79    9.47
  -1 -14   8  160.60    9.54
   1  14  -8  147.68    9.04
  -1 -14   8  151.33    9.16
   1  14  -8  154.63    9.14
  -1 -14   7   29.19    5.12
   1  14  -7   28.49    4.97
  -1 -14   7   30.48    4.81
  -1 -14   7   31.27    4.87
   1  14  -7   25.28    4.12
   1  14  -7   29.53    4.64
  -1 -14   6   22.23    4.74
   1  14  -6   27.61    5.00
  -1 -14   6   23.72    4.44
  -1 -14   6   22.06    4.44
   1  14  -6   26.33    4.42
   1  14  -6   22.79    4.25
   1  14  -5   25.48    5.08
  -1 -14   5   27.50    4.82
  -1 -14   5   27.97    5.11
  -1 -14   5   24.49    4.48
   1  14  -5   27.63    4.58
   1  14  -5   25.52    4.32
  -1 -14   4  215.82   11.15
   1  14  -4  205.41   11.00
  -1 -14   4  211.61   10.62
  -1 -14   4  223.36   11.35
   1  14  -4  221.31   11.03
   1  14  -4  228.49   10.90
   1  14  -4  218.42   10.21
   1  14  -3   79.14    7.09
  -1 -14   3   70.47    6.56
   1  14  -3   75.22    6.73
   1  14  -3   80.60    6.82
  -1 -14   3   75.85    7.61
   1  14  -3   78.88    6.57
  -1 -14   2   77.02    6.94
   1  14  -2   70.86    6.50
   1  14  -2   75.57    6.56
  -1 -14   1   13.06    4.05
   1  14  -1    9.39    3.43
   2 -15   2   44.37    5.50
   2 -15   3    9.06    3.00
  -2  15  -3   28.39    4.33
  -2  15  -4   29.53    4.48
  -2  15  -5   -1.55    2.46
  -2  15  -5   -2.70    2.65
  -2  15  -6    5.33    2.35
  -2  15  -6    3.19    3.22
  -2  15  -7    7.39    3.60
  -2  15  -7    2.48    2.56
  -2  15  -8   11.09    3.77
   2 -15   8    4.21    2.51
  -2  15  -8    5.97    2.59
  -2  15  -9    3.14    2.98
   2 -15   9   -5.80    3.70
  -2  15  -9    0.04    2.05
   2 -15  10   -4.30    3.46
  -2  15 -10    0.77    2.34
  -2  15 -10    1.73    2.95
   2 -14  -3    0.78    2.63
   2 -14  -2   11.79    3.36
   2 -14  -2    5.79    3.25
   2 -14  -1   -1.41    2.67
  -2  14   1    1.16    2.48
   2 -14  -1    4.39    3.06
   2 -14   0   12.42    3.97
   2 -14   0    3.75    2.95
  -2  14   0    8.92    3.76
   2 -14   0    0.50    3.64
  -2  14   0    5.15    2.48
   2 -14   1  105.84    8.04
   2 -14   1  123.58    8.02
  -2  14  -1  119.59    7.66
   2 -14   1  107.09    7.88
  -2  14  -1  137.94    9.04
   2 -14   2   -5.11    3.40
   2 -14   2    2.89    3.48
  -2  14  -2    2.92    2.47
  -2  14  -2    4.05    3.31
   2 -14   3   17.99    4.21
  -2  14  -3   21.40    3.88
  -2  14  -3   14.79    4.00
   2 -14   3   11.99    3.12
   2 -14   4   13.85    4.25
  -2  14  -4    3.88    2.59
  -2  14  -4    6.90    3.50
   2 -14   5   25.39    4.73
  -2  14  -5   18.29    3.44
  -2  14  -5   22.52    4.31
   2 -14   6    0.77    2.93
  -2  14  -6    1.43    2.02
   2 -14   6   -0.80    2.75
  -2  14  -6    0.16    2.62
   2 -14   7    7.96    3.42
   2 -14   7    1.53    2.99
  -2  14  -7    8.56    2.58
  -2  14  -7   10.32    3.32
   2 -14   8   -6.84    3.46
  -2  14  -8    0.18    2.15
   2 -14   8   -2.63    3.03
  -2  14  -8   -1.02    2.66
   2 -14   9    0.49    2.90
  -2  14  -9   -0.58    2.10
   2 -14   9   -2.55    2.99
  -2  14  -9    0.13    3.09
   2 -14  10    8.80    3.06
   2 -14  10   12.49    3.85
  -2  14 -10   16.18    3.41
  -2  14 -11   -1.27    2.96
  -2  14 -11    2.08    2.25
   2 -14  11   -4.06    3.63
   2 -14  12   -4.48    3.52
   2 -14  12    2.47    2.59
   2 -14  12    3.59    3.13
   2 -14  13    4.78    2.92
  -2  14 -13    3.96    2.97
  -2  14 -14    7.79    3.23
   2 -14  14    0.33    2.77
  -2  13   5   33.47    4.67
   2 -13  -4   12.13    3.78
  -2  13   4   12.00    3.21
   2 -13  -3   -0.42    2.80
   2 -13  -3    2.66    2.95
  -2  13   3    2.54    2.21
   2 -13  -3   -0.54    2.53
   2 -13  -2    4.85    3.10
   2 -13  -2    8.91    3.54
  -2  13   2    4.30    2.35
  -2  13   2    8.49    3.94
   2 -13  -1   17.31    3.84
  -2  13   1   26.02    3.93
   2 -13  -1   29.92    4.48
   2 -13  -1   24.42    4.18
  -2  13   1   29.25    4.65
   2 -13   0    7.49    2.96
  -2  13   0    3.89    2.48
   2 -13   0    9.00    3.86
   2 -13   0   -2.25    3.33
  -2  13   0    7.04    3.49
   2 -13   1   28.99    4.20
  -2  13  -1   22.46    3.58
   2 -13   1   16.18    3.98
   2 -13   1   18.90    4.04
  -2  13  -1   28.15    4.77
   2 -13   2   59.00    5.23
  -2  13  -2   48.91    4.82
   2 -13   2   45.35    5.50
   2 -13   2   45.84    4.96
  -2  13  -2   54.40    5.89
   2 -13   3    3.53    3.18
  -2  13  -3    4.71    3.44
  -2  13  -3    1.67    2.24
   2 -13   3   -4.86    3.61
   2 -13   4    3.65    2.93
   2 -13   4   -5.62    3.34
  -2  13  -4    1.47    2.14
  -2  13  -4    1.57    2.58
   2 -13   5   14.85    2.79
  -2  13  -5   14.64    3.67
  -2  13  -5   15.57    3.16
   2 -13   5   18.78    3.92
   2 -13   6    0.59    2.88
  -2  13  -6    0.53    3.11
   2 -13   6   -0.09    2.37
  -2  13  -6    6.32    2.46
   2 -13   7    6.74    3.46
  -2  13  -7    5.62    3.09
   2 -13   7    1.91    2.81
  -2  13  -7    7.85    2.59
  -2  13  -8   -3.63    3.35
   2 -13   8   -0.25    2.46
   2 -13   8   -4.28    3.03
  -2  13  -8    1.46    2.04
   2 -13   9   73.94    5.89
   2 -13   9   67.62    6.23
  -2  13  -9   80.99    5.81
  -2  13  -9   79.12    6.32
   2 -13  10   40.24    5.06
   2 -13  10   42.18    4.74
  -2  13 -10   35.53    4.12
  -2  13 -10   41.65    4.72
   2 -13  11   23.60    4.01
  -2  13 -11   37.24    4.33
  -2  13 -11   38.31    4.87
  -2  13 -11   28.64    4.14
   2 -13  12    1.49    2.61
   2 -13  12    4.39    2.83
   2 -13  12    5.09    3.07
  -2  13 -12    2.96    2.74
  -2  13 -12   -0.16    2.13
   2 -13  13   -0.93    3.02
   2 -13  13   -1.40    3.00
  -2  13 -13    0.57    2.79
  -2  13 -13    5.20    2.91
  -2  13 -14    3.47    2.58
   2 -13  14    0.98    2.34
   2 -13  14    3.62    2.72
  -2  13 -14    1.11    2.85
   2 -13  15    3.38    2.56
  -2  13 -15    0.78    2.41
   2 -12  -6    5.58    3.53
  -2  12   6   -0.43    3.05
  -2  12   6    2.93    2.68
   2 -12  -5    3.64    3.29
  -2  12   5   -0.15    2.30
  -2  12   5    0.02    3.00
  -2  12   5   -0.17    2.80
   2 -12  -4   14.56    4.01
  -2  12   4    3.98    2.58
  -2  12   4   10.65    3.00
   2 -12  -4    9.80    3.11
  -2  12   4    8.92    3.92
   2 -12  -3    9.59    3.08
  -2  12   3   15.29    4.25
  -2  12   3   11.51    3.09
  -2  12   3   11.55    2.82
   2 -12  -3   11.20    3.29
   2 -12  -2    5.66    2.75
  -2  12   2    6.34    2.51
   2 -12  -2    4.12    2.70
   2 -12  -2   -3.26    3.65
  -2  12   1   23.66    3.23
   2 -12  -1   15.05    3.48
   2 -12  -1   11.37    3.14
  -2  12   1   29.03    4.71
   2 -12  -1   24.83    4.31
   2 -12   0   10.98    3.27
  -2  12   0   14.51    2.97
   2 -12   0    9.34    2.98
   2 -12   0    1.93    3.16
  -2  12   0   15.04    4.03
   2 -12   1    0.47    2.83
   2 -12   1   -1.62    2.36
  -2  12  -1    0.92    2.27
   2 -12   1   -3.07    3.22
  -2  12  -1    3.35    2.66
   2 -12   2    1.05    2.07
  -2  12  -2    2.72    2.12
   2 -12   2   -1.72    2.89
  -2  12  -2    1.13    2.79
   2 -12   2   -0.74    2.69
   2 -12   3   24.97    4.29
   2 -12   3   31.24    3.99
   2 -12   3   34.68    3.77
  -2  12  -3   30.03    3.58
  -2  12  -3   37.19    4.63
   2 -12   4   23.60    4.07
   2 -12   4   23.01    3.33
   2 -12   4   32.36    3.62
  -2  12  -4   33.83    3.71
  -2  12  -4   28.59    4.38
   2 -12   5    7.71    2.86
  -2  12  -5   10.71    3.06
   2 -12   5   11.78    2.45
  -2  12  -5   14.93    2.90
   2 -12   6   -1.14    2.45
  -2  12  -6    0.06    2.73
   2 -12   6   -1.71    2.55
  -2  12  -6    0.38    1.77
   2 -12   7   45.58    4.96
   2 -12   7   42.35    4.24
  -2  12  -7   50.00    4.46
  -2  12  -7   45.14    4.84
   2 -12   8   49.20    5.25
  -2  12  -8   50.71    4.25
   2 -12   8   61.55    5.16
  -2  12  -8   55.92    4.66
  -2  12  -8   57.96    5.30
   2 -12   9   65.81    5.85
  -2  12  -9   72.97    5.26
  -2  12  -9   72.15    5.30
  -2  12  -9   80.48    6.04
   2 -12   9   69.27    5.56
   2 -12  10   36.63    4.51
  -2  12 -10   41.62    4.37
  -2  12 -10   40.02    4.32
  -2  12 -10   40.18    4.17
  -2  12 -10   44.28    4.74
  -2  12 -11    1.28    2.16
  -2  12 -11    3.94    2.50
   2 -12  11    1.31    2.58
   2 -12  11   -1.85    2.13
  -2  12 -11   -0.91    2.63
  -2  12 -11    0.70    1.87
   2 -12  11   -2.52    3.02
  -2  12 -12   30.61    4.10
   2 -12  12   24.47    4.12
   2 -12  12   21.39    3.46
   2 -12  12   17.59    3.42
  -2  12 -12   13.88    3.41
  -2  12 -12   29.83    3.78
  -2  12 -12   22.01    3.73
   2 -12  13   14.49    3.41
   2 -12  13    9.04    2.73
  -2  12 -13    9.65    3.02
   2 -12  14   15.36    3.58
   2 -12  14    9.95    3.20
  -2  12 -14   14.68    3.70
   2 -12  15   -4.00    2.68
  -2  12 -15    1.85    3.34
   2 -12  16    4.68    2.69
  -2  12 -16    2.95    3.13
   2 -11  -8    0.50    3.20
  -2  11   8    4.67    2.67
  -2  11   8    5.79    3.02
   2 -11  -7   68.26    6.53
  -2  11   7   58.79    5.85
  -2  11   7   67.80    6.35
  -2  11   6    0.79    2.47
   2 -11  -6    4.55    3.25
  -2  11   6    3.91    3.30
  -2  11   5   70.01    5.96
  -2  11   5   78.60    6.49
   2 -11  -5   82.04    6.54
  -2  11   4   41.64    4.61
   2 -11  -4   43.15    4.70
   2 -11  -4   35.20    4.74
  -2  11   4   50.43    5.42
   2 -11  -4   45.07    4.96
  -2  11   3    0.19    2.36
   2 -11  -3    6.67    2.85
   2 -11  -3    4.69    2.66
   2 -11  -2   13.85    3.27
   2 -11  -2   22.51    3.79
  -2  11   2   14.86    2.94
  -2  11   2   18.58    3.01
   2 -11  -2   13.09    2.97
  -2  11   2   19.59    4.02
  -2  11   1   12.11    2.54
   2 -11  -1   12.96    3.14
   2 -11  -1   13.40    3.11
  -2  11   1   16.96    2.71
   2 -11  -1   14.73    2.89
  -2  11   1   14.18    3.30
  -2  11   0    8.51    2.00
   2 -11   0    5.50    2.38
   2 -11   0    7.15    2.81
  -2  11   0    7.83    2.91
   2 -11   0    6.53    2.76
   2 -11   1    3.63    2.54
   2 -11   1    8.55    2.84
  -2  11  -1    6.55    1.85
  -2  11  -1    3.86    2.69
   2 -11   1    8.56    2.61
  -2  11  -1    6.26    2.39
   2 -11   2   17.47    3.55
   2 -11   2   17.65    2.90
  -2  11  -2   21.46    3.11
   2 -11   2   17.46    2.82
  -2  11  -2   20.03    3.50
  -2  11  -3   15.37    3.00
   2 -11   3   20.92    4.00
   2 -11   3   16.82    2.59
   2 -11   3   13.51    2.54
  -2  11  -3   16.41    2.75
   2 -11   3   13.00    2.75
   2 -11   4   93.87    5.42
   2 -11   4   89.28    5.13
  -2  11  -4   90.13    5.51
   2 -11   4   80.98    5.32
   2 -11   4   89.59    6.41
  -2  11  -4   82.84    5.96
   2 -11   5  221.60    9.63
   2 -11   5  246.77    8.80
  -2  11  -5  250.21    8.73
  -2  11  -5  237.60    9.53
   2 -11   5  236.30    8.20
   2 -11   6   12.35    3.28
   2 -11   6    8.08    2.19
  -2  11  -6    6.23    2.01
  -2  11  -6    9.99    2.95
  -2  11  -6    7.90    2.03
   2 -11   7    3.21    2.47
   2 -11   7    2.64    2.32
  -2  11  -7    9.08    2.34
  -2  11  -7    7.09    2.00
  -2  11  -7    9.95    3.17
  -2  11  -8    4.22    2.07
   2 -11   8   11.60    3.23
   2 -11   8    5.03    2.48
  -2  11  -8    9.62    2.55
  -2  11  -8   11.22    2.84
  -2  11  -8    8.80    2.43
   2 -11   9   -2.25    3.04
  -2  11  -9    2.97    2.35
  -2  11  -9    1.91    1.90
  -2  11  -9   -1.80    2.28
  -2  11  -9    1.82    1.89
   2 -11  10   18.97    3.35
  -2  11 -10   17.42    3.20
  -2  11 -10   16.92    2.84
  -2  11 -10   20.78    3.51
   2 -11  10   14.57    3.05
  -2  11 -11   20.99    3.61
   2 -11  11   13.94    3.06
   2 -11  11   18.51    3.20
  -2  11 -11   12.57    2.46
  -2  11 -11   10.85    2.76
   2 -11  11   14.40    3.13
   2 -11  12   14.53    3.33
   2 -11  12   15.75    3.45
   2 -11  12   18.08    3.26
  -2  11 -12   13.95    2.95
  -2  11 -12    9.42    2.51
  -2  11 -12   15.40    3.36
   2 -11  13  250.18   10.32
  -2  11 -13  282.15   11.22
  -2  11 -13  277.00   10.18
  -2  11 -13  283.58   10.57
   2 -11  13  268.68   11.04
   2 -11  14    4.94    2.58
  -2  11 -14    3.82    3.19
  -2  11 -15   67.59    6.34
   2 -11  15   64.19    6.14
   2 -11  16   -1.25    2.66
  -2  11 -16   -0.09    2.68
  -2  10  10    5.07    2.65
   2 -10  -9   60.80    6.33
  -2  10   9   67.91    6.43
  -2  10   9   65.24    6.07
  -2  10   8   30.60    4.67
   2 -10  -8   26.88    4.58
  -2  10   8   30.22    4.60
   2 -10  -7  109.43    7.64
  -2  10   7  113.42    7.56
  -2  10   7  116.68    7.73
   2 -10  -6   41.13    5.05
  -2  10   6   40.54    4.74
  -2  10   6   46.53    5.14
  -2  10   5   78.75    5.96
   2 -10  -5   84.14    6.37
  -2  10   5   89.09    6.53
   2 -10  -5   73.66    5.35
   2 -10  -4   33.29    4.30
  -2  10   4   27.46    3.64
   2 -10  -4   28.41    3.67
   2 -10  -4   25.00    3.92
  -2  10   4   32.84    4.25
   2 -10  -3    1.69    2.46
  -2  10   3    1.56    2.17
   2 -10  -3    3.44    2.42
  -2  10   3   -0.33    1.77
  -2  10   3    2.36    2.67
   2 -10  -2   38.03    4.11
  -2  10   2   40.51    4.56
   2 -10  -2   35.93    4.27
  -2  10   2   36.93    3.95
   2 -10  -2   36.49    4.07
   2 -10  -1   54.85    4.85
   2 -10  -1   51.70    4.46
  -2  10   1   52.45    4.28
  -2  10   1   62.54    5.19
   2 -10  -1   44.76    4.36
  -2  10   0   53.05    4.07
  -2  10   0   52.49    3.87
   2 -10   0   53.33    4.33
  -2  10   0   52.21    4.87
   2 -10   0   46.34    4.36
   2 -10   0   60.13    5.16
  -2  10  -1  615.94   11.85
   2 -10   1  591.76   13.80
  -2  10  -1  608.86   13.16
   2 -10   1  591.65   12.84
  -2  10  -1  581.94   14.40
   2 -10   1  557.29   14.07
   2 -10   2    6.92    2.79
  -2  10  -2    4.17    2.44
  -2  10  -2    4.49    1.55
   2 -10   2    5.59    2.02
   2 -10   2    3.98    1.98
  -2  10  -2    5.06    1.83
   2 -10   2    7.53    2.16
   2 -10   3   71.49    4.48
   2 -10   3   70.75    4.71
   2 -10   3   76.10    4.51
  -2  10  -3   75.24    4.72
  -2  10  -3   62.59    5.07
   2 -10   3   74.11    5.59
   2 -10   4  119.59    5.72
   2 -10   4  121.86    5.87
   2 -10   4  128.21    5.60
  -2  10  -4  122.15    5.82
  -2  10  -4  121.60    6.61
   2 -10   4  111.20    6.57
   2 -10   5    3.42    2.78
   2 -10   5    0.30    2.20
   2 -10   5   -2.23    2.28
  -2  10  -5    3.73    1.80
  -2  10  -5    6.80    2.55
  -2  10  -5    3.20    1.53
  -2  10  -6   13.68    2.56
   2 -10   6    6.21    2.26
  -2  10  -6    9.24    2.35
   2 -10   6    8.85    2.99
  -2  10  -6   11.35    2.97
  -2  10  -6    7.68    1.87
   2 -10   7    0.70    2.41
   2 -10   7    1.68    2.14
  -2  10  -7    4.84    1.88
  -2  10  -7    4.60    1.95
  -2  10  -7    5.96    2.27
  -2  10  -7    9.18    2.22
   2 -10   8    6.29    2.41
  -2  10  -8   13.16    2.81
   2 -10   8   10.12    2.50
  -2  10  -8   10.71    2.29
  -2  10  -8   13.29    2.65
   2 -10   9    5.30    2.05
   2 -10   9    8.90    2.49
  -2  10  -9    8.50    2.25
  -2  10  -9    9.13    2.74
  -2  10  -9    8.55    2.39
  -2  10 -10   -0.20    2.03
   2 -10  10    1.64    2.02
   2 -10  10   -5.06    3.01
  -2  10 -10   -1.38    1.72
  -2  10 -10   -3.26    2.07
   2 -10  10    2.11    2.01
  -2  10 -11   28.50    3.65
   2 -10  11   27.16    3.74
   2 -10  11   23.50    3.49
  -2  10 -11   27.00    3.21
   2 -10  11   28.82    3.60
  -2  10 -11   25.19    3.52
   2 -10  12    2.46    2.55
  -2  10 -12    5.22    2.34
   2 -10  12    5.15    2.51
  -2  10 -12    4.52    2.05
  -2  10 -12    4.35    2.64
   2 -10  12    4.40    2.18
   2 -10  13  187.31    9.17
  -2  10 -13  205.79    9.43
  -2  10 -13  197.68    8.29
  -2  10 -13  195.12    8.60
   2 -10  13  185.38    8.46
   2 -10  14   28.01    4.14
  -2  10 -14   26.87    4.32
   2 -10  15   20.66    3.83
  -2  10 -15   21.16    3.96
   2 -10  16   13.58    3.39
  -2  10 -16   13.02    3.94
   2 -10  17    1.87    2.78
  -2  10 -17    5.08    3.45
  -2   9  12   -0.25    2.25
  -2   9  11   15.54    4.05
   2  -9 -11   18.66    4.46
  -2   9  11   15.86    3.49
   2  -9 -10    1.37    2.94
  -2   9  10    1.50    2.51
  -2   9  10   -2.80    2.77
   2  -9  -9    1.31    2.67
  -2   9   9    4.19    2.56
  -2   9   9   -0.23    2.28
   2  -9  -8   -0.15    2.61
  -2   9   8    3.70    2.62
  -2   9   8    2.44    2.46
   2  -9  -7   36.30    4.51
  -2   9   7   41.79    4.66
  -2   9   7   39.87    4.51
   2  -9  -6   60.52    5.36
  -2   9   6   57.08    5.27
  -2   9   6   56.17    5.15
   2  -9  -5   40.06    4.33
  -2   9   5   36.26    3.66
  -2   9   5   39.44    4.42
   2  -9  -5   31.42    3.48
  -2   9   5   34.21    4.00
   2  -9  -4   21.29    3.53
  -2   9   4   21.29    3.00
  -2   9   4   20.29    3.20
   2  -9  -4   23.00    3.21
  -2   9   4   20.82    3.51
  -2   9   3   27.64    3.45
  -2   9   3   24.25    2.94
   2  -9  -3   31.03    3.72
  -2   9   3   32.68    3.91
   2  -9  -3   29.09    3.65
   2  -9  -2  100.35    5.66
  -2   9   2  109.14    6.35
  -2   9   2  103.51    5.74
   2  -9  -2   97.07    5.79
  -2   9   1   78.09    4.78
   2  -9  -1   78.83    4.91
  -2   9   1   86.34    5.74
   2  -9  -1   71.78    5.10
   2  -9  -1   84.58    5.49
  -2   9   0   53.56    3.92
   2  -9   0   52.01    3.96
  -2   9   0   48.50    4.38
   2  -9   0   45.32    4.05
   2  -9   0   42.41    4.14
  -2   9  -1  752.54   13.13
  -2   9  -1  760.00   12.17
   2  -9   1  759.22   12.38
   2  -9   1  755.08   13.27
  -2   9  -1  741.61   15.33
   2  -9   1  753.31   14.57
   2  -9   1  719.01   14.98
  -2   9  -2   -2.63    2.59
  -2   9  -2    0.05    1.20
   2  -9   2   -2.58    1.91
   2  -9   2    0.96    1.51
  -2   9  -2    1.65    1.56
   2  -9   2   -1.50    2.38
   2  -9   2    1.41    2.41
  -2   9  -3    0.41    2.00
  -2   9  -3    0.44    1.14
  -2   9  -3    0.56    0.95
   2  -9   3   -3.24    2.03
   2  -9   3    0.47    1.40
  -2   9  -3   -0.60    1.47
   2  -9   3   -1.12    2.13
   2  -9   3    4.28    2.56
  -2   9  -4   21.77    3.44
   2  -9   4   15.98    2.34
   2  -9   4   19.70    2.28
  -2   9  -4   18.48    2.40
   2  -9   4   18.74    2.37
  -2   9  -4   19.64    2.16
   2  -9   4   18.17    3.22
   2  -9   5    4.25    2.44
   2  -9   5   -0.95    2.10
   2  -9   5    1.00    1.31
   2  -9   5    2.03    1.56
  -2   9  -5    2.56    1.50
  -2   9  -5    0.38    1.61
  -2   9  -5    2.98    2.28
  -2   9  -5    1.87    1.40
   2  -9   6   59.22    4.82
   2  -9   6   55.63    4.15
  -2   9  -6   61.60    4.13
  -2   9  -6   61.80    3.95
  -2   9  -6   55.05    4.47
   2  -9   7    1.85    2.19
  -2   9  -7   -0.18    2.10
  -2   9  -7    3.09    1.55
  -2   9  -7    3.71    1.89
  -2   9  -8    3.43    1.84
   2  -9   8    3.47    1.88
  -2   9  -8    5.61    1.82
  -2   9  -8    4.45    1.86
   2  -9   8    2.99    2.34
   2  -9   9   -1.81    2.69
   2  -9   9    2.22    1.79
   2  -9   9    2.66    2.00
  -2   9  -9    0.48    1.39
  -2   9  -9   -0.11    2.24
  -2   9  -9   -1.29    2.27
   2  -9  10    4.73    2.23
   2  -9  10    9.59    2.55
   2  -9  10   13.52    2.64
  -2   9 -10    8.74    2.68
  -2   9 -10    9.72    2.17
  -2   9 -10    6.29    2.24
   2  -9  11    1.18    1.92
   2  -9  11    2.53    1.96
  -2   9 -11    2.61    1.90
   2  -9  11    3.01    1.80
  -2   9 -11    0.65    2.20
  -2   9 -11    0.35    1.99
   2  -9  12   38.57    4.04
   2  -9  12   36.95    4.22
  -2   9 -12   36.27    4.28
  -2   9 -12   36.32    3.60
  -2   9 -12   40.47    4.19
   2  -9  13    2.62    2.24
  -2   9 -13    5.22    2.10
  -2   9 -13    7.99    2.72
  -2   9 -13    5.86    2.35
   2  -9  13    8.33    2.53
   2  -9  14    0.50    2.07
  -2   9 -14   -0.56    2.87
  -2   9 -14   -1.05    1.81
   2  -9  15   70.19    6.03
  -2   9 -15   72.62    6.19
   2  -9  16  113.61    7.80
  -2   9 -16  125.36    8.15
   2  -9  17   28.29    4.34
  -2   9 -17   32.64    4.80
   2  -8 -12   29.16    4.64
  -2   8  12   42.14    5.34
  -2   8  11   25.88    3.93
  -2   8  11   32.33    4.56
   2  -8 -11   30.69    4.67
   2  -8 -10   20.76    3.77
  -2   8  10   29.34    4.55
  -2   8  10   24.00    3.70
  -2   8   9    0.65    2.20
  -2   8   9    0.74    2.39
   2  -8  -9   -0.44    2.35
   2  -8  -8   14.43    2.98
  -2   8   8   18.69    2.92
  -2   8   8   19.03    3.61
  -2   8   8   18.05    3.47
  -2   8   7   27.74    3.93
  -2   8   7   24.45    3.64
   2  -8  -7   27.07    3.82
  -2   8   7   27.49    3.43
  -2   8   6  155.17    6.92
   2  -8  -6  147.07    7.44
  -2   8   6  141.33    7.43
  -2   8   6  152.42    7.40
   2  -8  -6  134.08    6.13
  -2   8   5   53.63    4.50
  -2   8   5   60.52    4.43
   2  -8  -5   60.81    4.95
   2  -8  -5   48.55    3.93
  -2   8   5   59.38    4.73
   2  -8  -4   47.13    4.17
  -2   8   4   47.30    3.83
   2  -8  -4   46.08    3.86
  -2   8   4   46.30    4.11
  -2   8   4   50.90    4.40
   2  -8  -3   82.45    5.02
   2  -8  -3   73.77    4.86
  -2   8   3   76.32    4.64
  -2   8   3   83.82    5.56
   2  -8  -3   70.47    4.62
  -2   8   3   78.58    4.89
   2  -8  -2  307.13    9.25
   2  -8  -2  329.47    9.27
  -2   8   2  324.19    9.92
  -2   8   2  330.07    9.31
   2  -8  -1  149.00    6.05
  -2   8   1  146.07    6.68
   2  -8  -1  147.89    6.54
  -2   8   1  154.23    6.12
   2  -8   0  212.03    7.56
  -2   8   0  219.87    6.92
   2  -8   0  223.50    6.08
   2  -8   0  215.45    6.92
  -2   8   0  215.29    7.91
   2  -8   0  212.95    7.82
   2  -8   1   59.36    4.46
   2  -8   1   65.18    3.55
   2  -8   1   60.09    4.21
   2  -8   1   67.82    3.88
  -2   8  -1   67.78    4.64
  -2   8  -1   66.45    3.74
  -2   8  -2   14.49    1.83
   2  -8   2   12.02    2.64
  -2   8  -2   15.03    1.64
  -2   8  -2   17.93    1.85
   2  -8   2   15.55    2.09
   2  -8   2   19.07    2.28
  -2   8  -2   16.71    2.13
   2  -8   2   14.83    2.40
  -2   8  -2   17.78    3.03
   2  -8   3    6.99    2.61
  -2   8  -3    6.35    1.29
  -2   8  -3   11.69    1.45
   2  -8   3    9.13    1.81
   2  -8   3   12.80    1.86
  -2   8  -3   12.10    2.01
   2  -8   3    7.08    1.81
  -2   8  -3   11.45    2.46
   2  -8   4  158.78    5.97
   2  -8   4  176.67    5.33
  -2   8  -4  171.94    5.87
  -2   8  -4  177.09    7.14
   2  -8   4  170.28    5.73
  -2   8  -4  175.04    5.80
  -2   8  -4  159.19    5.27
   2  -8   4  162.00    7.01
   2  -8   5    0.03    2.14
   2  -8   5   -2.43    2.20
   2  -8   5   -0.95    1.24
  -2   8  -5    0.43    1.35
   2  -8   5   -2.10    1.56
  -2   8  -5    0.45    1.39
  -2   8  -5    2.74    1.73
   2  -8   6  435.65   11.24
  -2   8  -6  445.66    9.92
  -2   8  -6  456.24    9.44
  -2   8  -6  438.47   11.00
   2  -8   7  109.13    5.33
  -2   8  -7  107.40    5.28
  -2   8  -7  104.53    4.68
  -2   8  -7   96.76    5.39
   2  -8   7  115.71    5.80
   2  -8   7  105.14    5.64
   2  -8   8  265.34    8.46
  -2   8  -8  256.77    8.29
  -2   8  -8  263.54    7.44
  -2   8  -8  255.13    8.61
   2  -8   8  251.40    8.32
   2  -8   8  246.62    8.57
   2  -8   9   95.07    5.47
  -2   8  -9   91.51    5.34
  -2   8  -9   91.38    4.64
   2  -8   9   94.20    5.19
   2  -8   9   92.18    5.45
  -2   8  -9   86.01    5.32
   2  -8  10   82.01    5.38
  -2   8 -10   82.59    5.36
  -2   8 -10   77.60    4.48
   2  -8  10   81.56    5.18
   2  -8  10   83.79    4.86
  -2   8 -10   78.80    5.17
   2  -8  11  139.48    6.77
   2  -8  11  126.70    6.68
  -2   8 -11  134.05    6.98
  -2   8 -11  136.24    6.03
   2  -8  11  132.84    6.10
  -2   8 -11  130.94    6.62
   2  -8  12   46.04    4.01
   2  -8  12   51.14    4.65
  -2   8 -12   54.99    4.94
  -2   8 -12   51.63    3.95
  -2   8 -12   49.68    4.41
   2  -8  13   -1.34    2.34
  -2   8 -13    1.86    1.99
  -2   8 -13    2.94    1.78
  -2   8 -13    1.81    2.50
   2  -8  14   27.51    3.88
  -2   8 -14   31.84    3.68
  -2   8 -14   29.62    4.21
   2  -8  15   54.41    5.37
  -2   8 -15   46.65    5.20
   2  -8  16   20.57    3.83
  -2   8 -16   23.11    4.20
   2  -8  17   25.10    4.22
  -2   8 -17   30.20    4.83
  -2   8 -18    4.08    3.30
   2  -8  18    2.53    2.85
   2  -7 -13  144.42    9.15
  -2   7  13  146.08    9.10
  -2   7  12  201.80   10.30
   2  -7 -12  201.84   10.22
   2  -7 -11    1.10    2.75
  -2   7  11    3.58    2.92
  -2   7  11   -2.77    2.57
  -2   7  10    6.65    2.97
  -2   7  10   10.80    2.72
  -2   7  10   12.66    2.99
   2  -7 -10    9.56    3.09
   2  -7  -9    2.31    2.68
  -2   7   9    1.74    2.15
  -2   7   9    7.10    2.58
  -2   7   9    4.11    2.50
  -2   7   8    6.09    2.61
  -2   7   8    7.81    2.45
  -2   7   8    4.83    1.79
   2  -7  -8   -0.35    2.49
   2  -7  -7    3.22    2.81
  -2   7   7    0.43    1.66
  -2   7   7    4.91    2.57
  -2   7   7   -1.15    2.06
   2  -7  -6   56.21    4.71
  -2   7   6   53.84    4.16
  -2   7   6   58.20    4.58
   2  -7  -6   51.18    3.69
  -2   7   6   50.27    4.38
   2  -7  -5    5.61    1.81
   2  -7  -5    8.11    2.63
  -2   7   5    3.25    1.80
  -2   7   5    5.46    2.56
  -2   7   5    6.53    2.41
   2  -7  -4  273.95    8.64
  -2   7   4  273.48    8.72
  -2   7   4  276.13    8.82
  -2   7   4  272.58    8.46
   2  -7  -4  263.81    8.05
   2  -7  -3  182.68    6.84
  -2   7   3  177.26    6.68
   2  -7  -3  174.23    6.61
  -2   7   3  170.48    6.84
   2  -7  -3  172.70    6.53
   2  -7  -2    3.16    1.92
  -2   7   2    4.07    1.79
  -2   7   2   -2.18    2.28
   2  -7  -2    2.05    1.73
   2  -7  -2    3.48    2.00
   2  -7  -1    0.23    1.72
  -2   7   1    1.77    1.58
   2  -7  -1   -1.38    1.26
   2  -7  -1   -0.09    1.51
  -2   7   1   -1.30    2.11
   2  -7   0    8.10    2.00
  -2   7   0   11.38    1.96
  -2   7   0   10.05    2.46
   2  -7   0    5.55    1.25
   2  -7   0    8.74    1.71
  -2   7   0    8.29    0.98
  -2   7  -1   50.27    2.98
   2  -7   1   50.44    2.97
   2  -7   1   56.37    3.19
  -2   7  -1   50.45    3.91
  -2   7  -1   48.37    2.24
   2  -7   1   49.50    3.83
  -2   7  -2   10.95    1.52
  -2   7  -2   11.28    1.50
   2  -7   2    8.56    1.66
   2  -7   2   10.96    1.62
  -2   7  -2   12.75    1.38
  -2   7  -2   11.32    1.74
  -2   7  -2    8.39    2.13
   2  -7   2   12.13    2.41
   2  -7   3   85.54    4.08
  -2   7  -3   86.32    2.89
  -2   7  -3   81.93    3.63
   2  -7   3   89.03    3.52
  -2   7  -3   82.10    3.77
  -2   7  -3   81.17    4.63
   2  -7   3   76.25    4.58
  -2   7  -4  110.25    2.91
  -2   7  -4  101.55    4.21
   2  -7   4  104.81    3.68
  -2   7  -4  106.90    4.21
  -2   7  -4  101.63    5.27
   2  -7   5  119.76    5.75
   2  -7   5  127.12    4.95
  -2   7  -5  122.93    4.86
   2  -7   5  124.93    3.84
  -2   7  -5  121.44    4.48
  -2   7  -5  118.74    5.64
   2  -7   6  159.57    5.87
  -2   7  -6  152.88    5.75
  -2   7  -6  164.60    5.26
  -2   7  -6  159.97    6.45
   2  -7   6  154.20    6.24
   2  -7   6  143.12    6.22
   2  -7   7   -0.03    2.17
   2  -7   7    4.53    1.93
   2  -7   7    4.76    1.79
  -2   7  -7    3.82    1.43
  -2   7  -7    3.57    1.76
  -2   7  -7    5.78    2.13
   2  -7   8    7.67    2.30
   2  -7   8   11.27    2.40
  -2   7  -8    8.33    2.27
  -2   7  -8   13.16    2.47
   2  -7   8   12.56    2.31
  -2   7  -8   11.14    1.87
   2  -7   9    3.43    1.98
  -2   7  -9    3.54    2.06
   2  -7   9    3.57    1.89
  -2   7  -9    1.47    1.39
   2  -7   9    3.15    1.71
  -2   7  -9    1.79    1.83
   2  -7  10    2.93    1.88
   2  -7  10    8.05    1.94
  -2   7 -10    6.60    2.35
   2  -7  10    6.17    2.25
  -2   7 -10    4.39    1.86
  -2   7 -10    8.53    1.82
   2  -7  11   19.31    2.91
   2  -7  11   29.55    3.00
   2  -7  11   26.81    3.03
  -2   7 -11   20.21    2.48
  -2   7 -11   19.09    3.26
  -2   7 -11   19.79    2.94
   2  -7  12  132.36    7.02
   2  -7  12  128.83    6.13
  -2   7 -12  129.98    6.98
  -2   7 -12  133.51    6.00
  -2   7 -12  121.05    6.34
   2  -7  13   30.90    3.86
  -2   7 -13   36.22    4.42
  -2   7 -13   32.88    3.67
   2  -7  14  121.36    7.34
  -2   7 -14  115.83    7.23
  -2   7 -14  117.93    6.64
  -2   7 -15   10.91    3.30
  -2   7 -15    6.05    2.30
   2  -7  15    9.25    2.81
   2  -7  16   12.16    3.35
  -2   7 -16   10.60    3.39
   2  -7  17   33.78    4.62
  -2   7 -17   28.84    4.85
   2  -7  18    7.56    3.27
  -2   7 -18   10.08    3.78
  -2   6  14   26.67    4.69
   2  -6 -14   33.42    5.19
   2  -6 -13  101.89    7.44
  -2   6  13  107.88    7.82
   2  -6 -12    1.93    2.74
  -2   6  12    6.84    2.91
  -2   6  12    3.30    2.93
  -2   6  11    6.48    2.95
  -2   6  11   17.00    3.33
   2  -6 -11   10.27    3.23
  -2   6  11   12.29    2.83
  -2   6  10   20.84    3.70
   2  -6 -10   22.55    3.76
  -2   6  10   20.74    3.30
  -2   6  10   21.24    3.02
  -2   6   9   99.48    5.89
   2  -6  -9  103.13    6.47
  -2   6   9   98.85    6.28
  -2   6   9  102.07    5.67
  -2   6   8   21.89    3.43
  -2   6   8   24.18    3.11
   2  -6  -8   25.33    2.68
  -2   6   8   26.98    3.30
   2  -6  -8   24.81    3.61
   2  -6  -7  132.66    6.72
  -2   6   7  137.07    6.32
  -2   6   7  145.23    6.45
   2  -6  -7  136.95    5.64
  -2   6   7  129.37    6.57
   2  -6  -7  138.81    5.29
  -2   6   6   29.90    3.19
  -2   6   6   28.23    3.31
  -2   6   6   28.12    3.18
   2  -6  -6   34.94    3.12
   2  -6  -6   25.86    3.25
   2  -6  -6   28.91    2.60
  -2   6   5  146.38    6.16
  -2   6   5  141.26    6.30
  -2   6   5  141.53    6.06
   2  -6  -5  138.69    6.24
   2  -6  -5  135.07    5.37
   2  -6  -4  153.25    6.22
  -2   6   4  146.43    6.03
  -2   6   4  152.64    6.17
  -2   6   4  145.03    6.06
   2  -6  -4  145.71    5.58
  -2   6   3  131.06    5.44
  -2   6   3  122.05    5.46
   2  -6  -3  131.25    5.50
   2  -6  -3  118.89    5.18
   2  -6  -2   35.06    2.94
   2  -6  -2   31.77    2.87
   2  -6  -2   34.95    2.85
  -2   6   2   31.93    2.77
  -2   6   2   32.98    3.03
   2  -6  -1  101.87    4.29
   2  -6  -1  103.23    4.27
  -2   6   1  109.81    5.09
  -2   6   1  107.71    4.40
  -2   6   1   97.50    2.06
   2  -6  -1   98.15    4.72
   2  -6   0   75.01    3.50
   2  -6   0   69.05    3.32
  -2   6   0   67.85    3.35
  -2   6   0   71.26    4.19
  -2   6   0   72.32    2.12
   2  -6   0   68.62    4.04
  -2   6  -1  132.57    3.73
   2  -6   1  135.63    4.26
  -2   6  -1  131.38    5.45
  -2   6  -1  133.12    3.29
   2  -6   1  129.34    5.46
  -2   6  -1  135.96    4.30
  -2   6  -2  356.82    6.30
  -2   6  -2  334.79    6.29
   2  -6   2  343.35    6.24
  -2   6  -2  329.80    6.66
  -2   6  -2  338.14    8.49
   2  -6   2  333.66    8.68
   2  -6   3   18.43    2.54
  -2   6  -3   21.01    1.54
   2  -6   3   20.79    1.93
  -2   6  -3   21.43    1.30
  -2   6  -3   21.30    1.98
   2  -6   3   21.55    1.68
  -2   6  -3   22.36    1.93
   2  -6   3   23.83    2.72
  -2   6  -3   18.85    2.57
   2  -6   4   39.86    3.31
   2  -6   4   42.19    2.74
  -2   6  -4   35.93    1.29
  -2   6  -4   37.51    2.66
   2  -6   4   35.24    1.92
  -2   6  -4   39.04    2.34
  -2   6  -4   38.59    3.35
   2  -6   4   32.21    3.07
   2  -6   5   59.58    3.96
   2  -6   5   62.92    3.46
   2  -6   5   65.06    2.43
  -2   6  -5   62.18    3.47
  -2   6  -5   61.18    2.95
   2  -6   5   67.26    4.07
  -2   6  -5   64.54    4.08
  -2   6  -6   64.80    4.14
   2  -6   6   69.51    3.82
  -2   6  -6   70.87    3.91
  -2   6  -6   65.69    3.09
   2  -6   6   70.57    4.31
   2  -6   6   63.77    3.89
   2  -6   7   39.05    3.26
  -2   6  -7   35.48    3.22
  -2   6  -7   35.17    2.47
   2  -6   7   39.57    3.19
  -2   6  -7   33.25    3.14
   2  -6   7   41.62    3.53
  -2   6  -8  109.01    5.47
  -2   6  -8  113.12    5.48
  -2   6  -8  107.37    4.26
   2  -6   8  113.36    5.05
   2  -6   8  108.21    5.24
   2  -6   8  104.94    5.24
   2  -6   9    0.29    1.58
   2  -6   9   -1.84    1.70
  -2   6  -9   -1.91    1.38
   2  -6   9    0.45    1.29
  -2   6  -9    0.14    1.56
  -2   6  -9    2.22    2.02
   2  -6  10    6.90    2.06
   2  -6  10    6.41    2.04
  -2   6 -10    6.52    1.67
   2  -6  10    6.83    1.85
  -2   6 -10    7.32    2.22
  -2   6 -10    6.98    2.00
  -2   6 -11   46.05    4.07
   2  -6  11   55.17    3.58
  -2   6 -11   54.73    4.61
   2  -6  11   51.07    4.36
   2  -6  11   45.91    3.56
   2  -6  12    0.57    1.94
  -2   6 -12   -1.44    2.34
  -2   6 -12   -0.70    1.83
   2  -6  12   -0.38    1.45
   2  -6  13   20.53    3.47
  -2   6 -13   12.35    2.55
  -2   6 -13   20.66    3.44
  -2   6 -14    7.90    2.46
  -2   6 -14    9.60    2.94
   2  -6  14    8.59    2.69
   2  -6  15   13.92    3.35
  -2   6 -15    8.97    2.33
  -2   6 -15   13.32    3.44
   2  -6  16   34.80    4.48
  -2   6 -16   41.74    5.15
   2  -6  17   74.06    6.31
  -2   6 -17   73.94    6.62
  -2   6 -18   18.17    4.51
   2  -6  18   10.23    3.18
   2  -5 -15   -1.44    3.05
  -2   5  15    1.70    3.10
  -2   5  14    0.53    2.23
   2  -5 -14    0.77    2.82
  -2   5  14   -1.99    2.93
  -2   5  13   65.23    5.56
   2  -5 -13   65.75    6.06
  -2   5  13   62.15    5.82
  -2   5  12    5.96    2.80
  -2   5  12   -0.27    2.47
   2  -5 -12   -1.34    2.76
  -2   5  11    3.74    2.32
  -2   5  11    3.82    2.48
  -2   5  11    2.57    1.97
   2  -5 -11    4.12    2.54
   2  -5 -10   68.04    5.39
  -2   5  10   58.35    5.12
  -2   5  10   57.02    4.13
  -2   5  10   58.06    4.63
   2  -5  -9    1.98    2.32
  -2   5   9    5.18    2.27
  -2   5   9    5.27    2.68
  -2   5   9    4.43    1.73
  -2   5   8  117.69    5.95
   2  -5  -8  123.55    4.96
  -2   5   8  119.78    5.56
   2  -5  -8  118.89    6.39
  -2   5   8  116.91    6.31
   2  -5  -7  204.25    5.94
  -2   5   7  188.38    7.23
   2  -5  -7  202.64    7.70
   2  -5  -7  207.55    6.43
  -2   5   7  194.42    6.87
  -2   5   7  187.18    7.58
   2  -5  -6   89.39    4.08
   2  -5  -6   80.79    4.87
  -2   5   6   86.91    4.61
   2  -5  -6   87.82    4.29
  -2   5   6   86.67    4.88
  -2   5   6   83.50    4.93
  -2   5   5   36.80    3.29
  -2   5   5   38.50    3.31
  -2   5   5   39.17    3.20
   2  -5  -5   40.53    3.04
   2  -5  -5   41.77    3.61
   2  -5  -5   36.78    2.77
  -2   5   4  770.21   13.09
  -2   5   4  765.41   12.40
   2  -5  -4  783.25   12.24
  -2   5   4  778.11   12.91
   2  -5  -4  777.85   12.81
   2  -5  -4  767.51   11.70
   2  -5  -3    3.68    1.62
  -2   5   3    2.09    1.44
   2  -5  -3    4.20    1.69
  -2   5   3    3.31    1.70
   2  -5  -3    1.40    1.44
   2  -5  -2 1065.99   14.00
   2  -5  -2 1059.39   13.31
  -2   5   2 1065.28   14.16
  -2   5   2 1056.24   13.36
   2  -5  -2 1051.86   14.13
   2  -5  -1  240.32    6.86
   2  -5  -1  236.20    3.49
   2  -5  -1  249.78    6.09
  -2   5   1  243.71    6.83
  -2   5   1  248.56    6.06
   2  -5  -1  249.77    6.87
   2  -5   0  684.47    9.19
   2  -5   0  691.38    6.86
  -2   5   0  680.32    6.80
   2  -5   0  689.79   11.33
  -2   5   0  691.15    9.32
   2  -5   0  692.06    8.95
  -2   5   0  677.58   11.18
   2  -5   0  676.20   11.30
  -2   5   0  646.71    5.42
   2  -5   1   66.54    3.78
   2  -5   1   75.83    2.60
  -2   5  -1   72.36    2.58
   2  -5   1   76.57    2.78
  -2   5  -1   73.65    3.88
   2  -5   1   73.12    3.92
  -2   5  -1   72.10    2.83
   2  -5   1   71.92    2.84
   2  -5   2  165.40    4.21
   2  -5   2  164.50    3.65
  -2   5  -2  165.00    4.23
  -2   5  -2  162.46    4.07
   2  -5   2  166.23    5.75
  -2   5  -2  168.84    5.77
   2  -5   2  167.11    5.85
  -2   5  -2  167.57    3.80
   2  -5   2  162.55    3.75
   2  -5   3    7.98    1.74
   2  -5   3    6.32    1.17
  -2   5  -3    5.72    0.78
  -2   5  -3    5.93    0.56
   2  -5   3    8.09    0.88
   2  -5   3    7.45    0.90
  -2   5  -3    6.70    1.08
  -2   5  -3    6.30    1.70
  -2   5  -3    6.24    1.27
   2  -5   3    6.40    1.70
   2  -5   4  370.50    3.73
   2  -5   4  383.61    4.61
  -2   5  -4  366.99    6.05
   2  -5   4  370.44    8.40
  -2   5  -4  371.00    8.63
  -2   5  -4  376.15    7.37
   2  -5   4  368.05    7.29
   2  -5   4  367.16    8.67
   2  -5   5   -0.40    1.38
   2  -5   5    1.25    1.21
   2  -5   5    0.18    1.17
   2  -5   5    0.79    0.51
  -2   5  -5    1.63    0.86
  -2   5  -5    0.87    1.49
  -2   5  -5    0.02    1.40
   2  -5   6   54.25    3.41
  -2   5  -6   53.48    3.40
  -2   5  -6   50.51    2.52
   2  -5   6   53.77    3.40
  -2   5  -6   50.91    3.61
   2  -5   6   52.54    3.59
   2  -5   7  313.79    8.28
   2  -5   7  319.19    8.19
  -2   5  -7  312.49    8.14
   2  -5   7  314.44    7.84
  -2   5  -7  321.88    6.46
  -2   5  -7  305.12    8.42
   2  -5   8   25.64    2.79
   2  -5   8   18.29    2.48
   2  -5   8   19.47    2.19
  -2   5  -8   19.31    1.87
  -2   5  -8   17.08    2.48
  -2   5  -8   19.65    2.72
   2  -5   9   26.01    3.11
   2  -5   9   25.17    2.47
  -2   5  -9   25.79    3.15
   2  -5   9   23.33    2.64
   2  -5  10  372.57   10.34
   2  -5  10  384.24    8.78
  -2   5 -10  383.90   10.60
   2  -5  10  377.39    9.27
   2  -5  11    7.00    2.43
  -2   5 -11    9.92    2.87
   2  -5  11    8.15    1.86
   2  -5  12   54.11    4.68
  -2   5 -12   42.76    4.29
   2  -5  13   99.27    6.27
  -2   5 -13   92.42    6.18
   2  -5  14    7.14    2.65
  -2   5 -14    4.13    2.97
  -2   5 -15    5.56    3.37
   2  -5  15   -0.68    2.28
   2  -5  16    0.55    2.33
  -2   5 -16    0.34    3.05
   2  -5  17    0.70    2.55
  -2   5 -17   -0.84    3.34
   2  -5  18   14.40    3.52
  -2   5 -18   12.64    3.59
   2  -4 -16    8.20    3.48
  -2   4  16   10.39    3.68
  -2   4  16    3.87    3.31
   2  -4 -15   18.49    3.97
  -2   4  15   13.74    3.37
  -2   4  15   21.39    4.03
  -2   4  14   42.11    4.91
  -2   4  14   48.37    5.32
   2  -4 -14   47.62    5.33
   2  -4 -13    6.60    2.92
  -2   4  13    7.08    2.88
  -2   4  13    7.10    3.03
  -2   4  12    6.75    2.79
  -2   4  12    4.52    2.58
   2  -4 -12    4.58    2.93
   2  -4 -11  123.76    7.03
  -2   4  11  130.03    6.94
  -2   4  11  127.31    5.71
  -2   4  11  128.18    7.13
   2  -4 -10   -1.89    2.41
  -2   4  10   -2.19    1.80
  -2   4  10   -2.38    2.35
  -2   4  10    1.72    2.17
   2  -4  -9   20.92    3.15
  -2   4   9   15.38    2.55
  -2   4   9   19.65    3.11
  -2   4   9   18.84    2.43
  -2   4   8  327.11    9.54
   2  -4  -8  328.15    9.72
   2  -4  -8  334.12    7.47
  -2   4   8  331.85    8.32
  -2   4   8  327.49    9.75
  -2   4   7  114.50    5.57
   2  -4  -7  118.72    5.81
   2  -4  -7  120.70    4.57
  -2   4   7  120.23    4.99
  -2   4   7  122.39    5.84
   2  -4  -7  120.11    4.20
  -2   4   6  258.62    7.96
   2  -4  -6  265.19    6.72
  -2   4   6  262.09    7.10
   2  -4  -6  273.75    8.11
  -2   4   6  250.66    7.80
   2  -4  -6  269.56    6.39
   2  -4  -5  361.19    8.75
  -2   4   5  367.66    9.02
   2  -4  -5  368.36    7.88
  -2   4   5  364.54    8.03
  -2   4   5  350.65    8.73
   2  -4  -5  366.76    7.54
  -2   4   4   12.78    2.03
  -2   4   4    9.46    1.93
   2  -4  -4    9.45    1.87
  -2   4   4    8.60    1.77
   2  -4  -4    7.37    1.65
   2  -4  -4   11.36    1.69
   2  -4  -3   40.20    2.85
  -2   4   3   41.04    2.89
  -2   4   3   38.91    2.79
   2  -4  -3   40.87    2.75
   2  -4  -3   38.65    2.85
   2  -4  -2  953.15   11.69
   2  -4  -2  951.29   12.66
  -2   4   2  962.28   12.40
   2  -4  -2  974.60   12.50
  -2   4   2  964.69   11.83
   2  -4  -1   29.10    1.03
   2  -4  -1   28.76    2.46
  -2   4   1   28.43    2.42
  -2   4   1   31.68    2.19
   2  -4  -1   29.29    2.09
   2  -4  -1   31.50    2.52
   2  -4   0  207.30    3.44
  -2   4   0  197.62    3.38
   2  -4   0  191.15    5.77
  -2   4   0  197.04    5.69
   2  -4   0  198.39    4.58
  -2   4   0  206.32    4.70
   2  -4   0  197.00    5.84
   2  -4   1  442.44    5.87
  -2   4  -1  429.90    5.83
   2  -4   1  439.01    8.64
   2  -4   1  438.53    6.00
  -2   4  -1  440.44    8.50
  -2   4  -1  436.79    6.06
   2  -4   1  428.46    8.65
   2  -4   2  481.57    9.22
  -2   4  -2  490.08    5.45
   2  -4   2  486.53    6.89
  -2   4  -2  483.57    5.75
  -2   4  -2  472.25    6.82
   2  -4   2  482.85    9.08
  -2   4  -2  481.47    9.05
   2  -4   2  476.74    5.37
   2  -4   3   38.09    2.87
  -2   4  -3   40.10    2.90
   2  -4   3   35.54    2.16
   2  -4   3   38.10    1.12
  -2   4  -3   34.95    1.62
  -2   4  -3   39.26    2.35
   2  -4   3   37.79    2.82
   2  -4   3   37.17    1.20
  -2   4  -3   37.37    1.22
   2  -4   4  220.80    5.56
  -2   4  -4  220.53    3.99
  -2   4  -4  213.82    5.53
   2  -4   4  215.86    6.17
  -2   4  -4  215.88    6.39
   2  -4   4  215.25    6.35
   2  -4   5  188.62    5.80
   2  -4   5  169.66    5.85
   2  -4   5  155.98    1.93
   2  -4   5  170.39    5.52
  -2   4  -5  161.92    5.21
  -2   4  -5  166.68    3.77
  -2   4  -5  171.35    5.98
   2  -4   6    1.86    1.44
   2  -4   6    0.20    1.63
   2  -4   6    0.85    1.15
  -2   4  -6    0.10    0.75
  -2   4  -6    1.72    1.62
   2  -4   7  477.74    9.74
   2  -4   7  490.69   10.08
   2  -4   7  493.16    9.32
  -2   4  -7  492.76   10.11
   2  -4   8    1.66    1.35
   2  -4   8    1.54    1.11
   2  -4   8    2.11    1.70
  -2   4  -8    3.93    2.04
   2  -4   9    9.50    2.23
   2  -4   9    7.23    1.56
   2  -4   9    6.98    1.74
  -2   4  -9    4.74    2.08
   2  -4  10    3.86    2.16
   2  -4  10    4.56    1.66
   2  -4  10    4.98    1.33
  -2   4 -10    2.88    2.20
   2  -4  11   55.34    3.63
   2  -4  11   52.04    4.33
  -2   4 -11   64.02    4.84
   2  -4  12  119.46    6.53
  -2   4 -12  111.95    6.46
   2  -4  13   19.78    3.20
  -2   4 -13   26.79    3.00
  -2   4 -13   24.77    3.66
   2  -4  14   -2.18    2.09
  -2   4 -14    0.29    1.61
  -2   4 -14   -2.90    2.45
  -2   4 -15   27.57    4.27
   2  -4  15   32.38    4.31
   2  -4  16    9.06    2.72
  -2   4 -16   14.07    3.87
   2  -4  17  130.39    8.44
  -2   4 -17  123.36    8.15
  -2   4 -18   33.54    5.20
   2  -4  18   22.77    4.21
  -2   3  17    2.09    3.32
  -2   3  17   -1.46    2.34
   2  -3 -17    1.29    3.15
   2  -3 -16   -1.94    3.18
  -2   3  16   -0.92    3.10
  -2   3  16    0.46    2.65
   2  -3 -16   -3.04    2.78
   2  -3 -15   -1.68    2.38
  -2   3  15    2.37    2.40
   2  -3 -15    8.71    3.55
  -2   3  15    2.74    2.93
   2  -3 -14    4.66    3.05
  -2   3  14    3.55    2.68
  -2   3  14   10.87    3.30
   2  -3 -14   10.09    3.46
  -2   3  13  271.94   10.41
   2  -3 -13  264.87   10.25
   2  -3 -13  261.12   10.39
  -2   3  13  275.09   10.80
   2  -3 -12    5.24    2.66
  -2   3  12    3.05    2.23
  -2   3  12    2.12    2.50
   2  -3 -12    3.20    2.62
  -2   3  11   37.23    4.08
   2  -3 -11   33.96    3.81
  -2   3  11   35.02    3.89
   2  -3 -11   38.32    4.21
  -2   3  10  205.82    6.38
  -2   3  10  193.49    8.04
   2  -3 -10  213.32    8.07
  -2   3  10  201.85    7.95
   2  -3 -10  199.89    8.08
   2  -3  -9    2.40    2.15
  -2   3   9    4.14    2.24
  -2   3   9   -0.76    2.01
  -2   3   9    3.37    1.38
   2  -3  -9    4.26    2.10
   2  -3  -8   44.14    4.18
  -2   3   8   38.56    3.43
   2  -3  -8   40.73    3.48
   2  -3  -8   43.93    2.65
  -2   3   8   45.87    2.99
  -2   3   8   45.07    3.86
   2  -3  -7   86.49    3.33
   2  -3  -7   87.31    4.92
  -2   3   7   87.39    4.79
   2  -3  -7   93.30    4.67
   2  -3  -7   91.13    3.71
  -2   3   7   88.18    3.88
  -2   3   7   87.76    4.77
   2  -3  -6    5.96    1.17
  -2   3   6    6.02    1.90
  -2   3   6    6.70    1.91
   2  -3  -6    4.64    1.69
   2  -3  -6    2.80    1.71
   2  -3  -6    6.46    1.37
  -2   3   6    5.67    1.43
   2  -3  -5  376.70    7.12
   2  -3  -5  371.33    8.47
  -2   3   5  360.99    8.63
  -2   3   5  381.20    8.63
   2  -3  -5  380.06    7.94
   2  -3  -5  373.21    7.51
  -2   3   5  374.50    7.38
   2  -3  -5  377.60    4.57
   2  -3  -4  101.43    3.81
  -2   3   4   94.21    4.16
   2  -3  -4   97.63    4.23
  -2   3   4   95.99    4.46
   2  -3  -4   95.47    2.59
   2  -3  -4   92.77    3.76
   2  -3  -4   97.61    3.94
  -2   3   4   94.47    3.75
  -2   3   3 1830.93   16.47
   2  -3  -3 1851.74   16.04
  -2   3   3 1849.98   18.22
   2  -3  -3 1838.62   16.43
   2  -3  -3 1827.91   11.91
   2  -3  -3 1841.31   16.60
  -2   3   3 1849.12   15.82
  -2   3   2    9.06    1.53
   2  -3  -2    9.17    1.53
   2  -3  -2    8.90    1.51
   2  -3  -2    8.41    1.55
  -2   3   1  244.70    5.20
   2  -3  -1  251.72    6.16
   2  -3  -1  239.68    2.77
  -2   3   1  230.68    2.72
   2  -3  -1  250.40    6.19
  -2   3   1  237.34    5.77
   2  -3  -1  248.68    5.20
   2  -3   0  442.51    4.93
   2  -3   0  425.16    6.12
   2  -3   0  432.84    8.14
  -2   3   0  428.59    4.90
  -2   3   0  427.52    7.81
  -2   3   0  427.32    6.20
   2  -3   0  426.30    8.16
   2  -3   1    4.63    1.60
  -2   3  -1    2.47    0.78
  -2   3  -1    3.62    0.80
   2  -3   1    1.43    0.69
   2  -3   1    2.89    0.76
   2  -3   1    2.92    1.35
  -2   3  -1    1.21    1.41
  -2   3  -2    1.99    0.62
   2  -3   2    0.26    0.85
   2  -3   2   -0.32    1.36
  -2   3  -2    0.49    0.43
  -2   3  -2    0.06    1.28
  -2   3  -2    0.60    0.89
   2  -3   2    1.17    0.53
   2  -3   3  758.04    9.49
   2  -3   3  768.51   10.94
  -2   3  -3  757.76    5.43
  -2   3  -3  756.33    9.50
   2  -3   3  737.70   11.02
   2  -3   4  411.27    7.60
   2  -3   4  417.70    8.42
   2  -3   4  410.69    8.11
  -2   3  -4  411.08    7.64
  -2   3  -4  425.92    4.66
   2  -3   5  391.04    7.95
   2  -3   5  396.15    7.93
  -2   3  -5  398.91    8.12
  -2   3  -5  386.44    4.00
   2  -3   5  393.67    8.30
  -2   3  -6    5.85    1.82
   2  -3   6   25.79    2.57
   2  -3   6    5.97    0.46
   2  -3   6    7.61    1.49
   2  -3   6   23.44    2.49
   2  -3   7    1.41    1.31
   2  -3   7    2.36    0.52
   2  -3   7    3.77    1.31
   2  -3   8   51.62    3.67
   2  -3   8   51.45    3.06
  -2   3  -8   50.80    3.82
   2  -3   8   54.68    3.37
   2  -3   9  133.81    5.96
   2  -3   9  139.31    4.91
   2  -3   9  132.74    5.24
  -2   3  -9  134.29    6.12
   2  -3  10   67.68    3.82
   2  -3  10   65.58    3.40
  -2   3 -10   60.15    3.51
   2  -3  10   61.58    4.48
  -2   3 -10   60.30    4.49
  -2   3 -11   29.39    3.72
  -2   3 -11   30.59    2.86
   2  -3  11   31.49    3.57
   2  -3  11   29.78    2.66
   2  -3  12   12.98    2.61
  -2   3 -12   11.41    2.13
  -2   3 -12   13.85    2.98
  -2   3 -13  172.82    6.79
   2  -3  13  167.66    7.99
  -2   3 -13  164.52    8.11
  -2   3 -14   11.86    3.22
   2  -3  14   13.27    3.06
  -2   3 -14   13.27    2.60
   2  -3  15   46.70    4.94
  -2   3 -15   37.20    4.62
  -2   3 -16    0.70    2.60
   2  -3  16    0.78    2.29
   2  -3  17  132.40    8.25
  -2   3 -17  137.42    8.63
   2  -3  18    3.62    2.58
  -2   3 -18    7.46    3.83
  -2   2  18    3.55    2.73
  -2   2  18    3.79    3.56
  -2   2  17   71.25    6.54
  -2   2  17   88.14    7.26
   2  -2 -17   86.25    7.12
   2  -2 -17   73.80    6.56
   2  -2 -16   52.74    5.66
  -2   2  16   38.45    4.97
   2  -2 -16   35.57    4.81
  -2   2  16   36.39    4.68
  -2   2  15  216.11    9.96
   2  -2 -15  220.46   10.15
  -2   2  15  231.98   10.34
   2  -2 -15  233.93   10.39
   2  -2 -14    5.35    2.75
   2  -2 -14    8.42    3.08
  -2   2  14    2.86    2.26
  -2   2  14    2.38    2.57
   2  -2 -13    6.97    2.67
  -2   2  13    4.01    2.36
  -2   2  13    4.11    2.90
   2  -2 -13   -1.48    2.58
  -2   2  12  126.61    6.93
   2  -2 -12  129.02    6.89
  -2   2  12  128.48    7.01
   2  -2 -12  130.46    7.02
   2  -2 -11   14.55    3.01
  -2   2  11   19.22    3.28
  -2   2  11   19.72    3.27
   2  -2 -11   17.03    3.06
  -2   2  10   49.73    4.29
   2  -2 -10   52.13    4.29
  -2   2  10   47.73    2.84
  -2   2  10   50.79    4.27
   2  -2 -10   43.73    4.01
  -2   2   9  118.04    5.93
   2  -2  -9  120.93    5.94
   2  -2  -9  113.58    5.59
  -2   2   9  118.94    4.27
  -2   2   9  120.78    5.99
  -2   2   8    0.82    1.00
   2  -2  -8    0.26    0.86
  -2   2   8    1.40    1.76
   2  -2  -8    0.22    1.90
  -2   2   8   -2.27    2.12
   2  -2  -8   -1.31    1.75
   2  -2  -8   -0.53    0.80
  -2   2   7    0.26    1.41
   2  -2  -7    0.86    1.70
  -2   2   7   -2.82    2.03
   2  -2  -7    0.30    1.54
  -2   2   7    0.60    1.06
  -2   2   7    0.18    0.45
   2  -2  -7    0.46    0.87
   2  -2  -7   -0.18    0.83
  -2   2   6   26.81    2.91
  -2   2   6   25.84    1.01
   2  -2  -6   28.30    2.69
   2  -2  -6   26.61    1.54
   2  -2  -6   27.52    2.02
  -2   2   6   27.83    2.10
   2  -2  -6   25.39    2.65
  -2   2   6   25.21    2.67
   2  -2  -6   26.47    1.89
  -2   2   5  225.79    6.65
  -2   2   5  229.17    6.58
   2  -2  -5  230.99    6.46
   2  -2  -5  233.67    5.87
   2  -2  -5  225.51    5.26
   2  -2  -5  223.92    4.27
   2  -2  -5  230.40    5.59
  -2   2   5  230.55    5.19
   2  -2  -5  225.76    3.22
  -2   2   4  105.25    4.48
   2  -2  -4  105.46    3.69
  -2   2   4  103.05    4.14
   2  -2  -4  103.83    3.71
  -2   2   4  103.68    1.88
   2  -2  -4  106.03    3.02
   2  -2  -4  107.25    3.91
  -2   2   4  113.03    3.65
   2  -2  -4   98.91    1.77
   2  -2  -4  110.66    4.28
   2  -2  -3  453.75    6.44
   2  -2  -3  471.07    6.91
   2  -2  -3  457.88    7.87
  -2   2   3  463.42    8.78
  -2   2   3  459.31    7.19
  -2   2   3  464.10    7.98
   2  -2  -3  463.49    7.70
   2  -2  -3  475.19    8.07
   2  -2  -2   93.21    3.65
  -2   2   2   85.91    3.37
   2  -2  -2   95.86    3.16
   2  -2  -2   94.78    2.81
   2  -2  -2   94.37    3.70
  -2   2   2   89.97    1.53
  -2   2   2   92.94    3.35
   2  -2  -2   96.24    3.48
  -2   2   1  111.15    3.40
   2  -2  -1  110.38    2.27
   2  -2  -1  107.34    3.44
   2  -2  -1  109.99    4.04
  -2   2   1  113.71    2.32
  -2   2   1  107.18    3.70
   2  -2  -1  108.85    3.96
   2  -2  -1  102.82    3.25
   2  -2   0  794.57    9.59
   2  -2   0  796.41    7.20
   2  -2   0  807.99   10.58
  -2   2   0  806.89    7.32
  -2   2   0  779.27    9.98
  -2   2   0  802.03    8.00
   2  -2   0  806.26   10.68
   2  -2   0  792.51    7.97
   2  -2   1    4.77    1.40
  -2   2  -1    4.17    0.73
   2  -2   1    4.17    1.35
  -2   2  -1    4.19    0.98
   2  -2   1    4.28    1.39
   2  -2   1    3.17    0.74
   2  -2   2  650.98    8.20
   2  -2   2  647.99    9.71
  -2   2  -2  653.49    8.31
  -2   2  -2  641.96    5.56
   2  -2   2  652.04    5.49
   2  -2   2  632.81    9.81
   2  -2   3 3056.22   19.43
   2  -2   3 3062.25   21.89
   2  -2   3 3062.07   21.22
  -2   2  -3 3049.84   19.57
  -2   2  -4  568.95    5.96
   2  -2   4  577.04    9.37
   2  -2   4  567.79    9.04
  -2   2  -4  561.26    4.85
  -2   2  -4  567.70    9.10
   2  -2   4  573.58    9.61
   2  -2   5 1350.33   15.03
  -2   2  -5 1389.01    9.45
  -2   2  -5 1353.10    8.28
   2  -2   5 1370.46    8.33
   2  -2   5 1343.66   14.99
  -2   2  -5 1366.94   15.06
   2  -2   5 1361.54   14.44
   2  -2   6  241.05    6.78
  -2   2  -6  210.89    2.98
   2  -2   6  223.76    5.98
  -2   2  -6  225.17    3.05
  -2   2  -6  228.10    4.53
   2  -2   6  209.85    6.16
   2  -2   6  225.13    3.85
  -2   2  -6  229.05    6.71
  -2   2  -7   89.90    2.27
   2  -2   7   90.04    4.50
  -2   2  -7   87.65    3.28
   2  -2   7   92.90    2.83
   2  -2   7   92.72    3.95
  -2   2  -7   95.19    4.85
   2  -2   7   92.95    4.21
  -2   2  -7   82.58    1.68
   2  -2   8   69.55    3.46
  -2   2  -8   78.04    3.35
   2  -2   8   75.52    4.40
  -2   2  -8   75.62    4.58
   2  -2   8   82.41    4.08
  -2   2  -8   73.64    2.34
   2  -2   9  253.94    8.29
  -2   2  -9  257.95    6.51
   2  -2   9  279.32    6.69
   2  -2   9  261.74    7.12
  -2   2  -9  251.73    8.30
   2  -2  10   54.51    4.32
  -2   2 -10   55.94    3.42
   2  -2  10   52.52    3.36
  -2   2 -10   51.67    4.35
  -2   2 -11   -1.38    2.45
   2  -2  11    0.88    1.72
  -2   2 -11   -1.54    1.62
  -2   2 -12    2.76    2.48
   2  -2  12   -0.12    1.92
  -2   2 -12    2.05    1.51
   2  -2  13   85.92    5.94
  -2   2 -13   92.01    5.17
  -2   2 -13   86.43    6.08
  -2   2 -14   29.55    4.14
   2  -2  14   31.74    3.95
  -2   2 -14   33.20    3.53
   2  -2  15   50.28    5.10
  -2   2 -15   48.05    5.20
  -2   2 -16   58.76    5.92
   2  -2  16   45.89    5.15
  -2   2 -17   25.92    4.53
   2  -2  17   27.08    4.29
  -2   2 -18   19.26    4.43
   2  -2  18   34.24    4.70
   2  -1 -18   18.43    4.26
  -2   1  18    9.45    4.09
   2  -1 -18    8.07    3.02
  -2   1  18    8.29    2.87
  -2   1  17  115.06    8.13
   2  -1 -17  111.70    7.82
  -2   1  17  118.64    7.87
   2  -1 -17  125.44    8.17
   2  -1 -16   10.92    3.20
  -2   1  16   13.57    3.85
   2  -1 -16   10.63    3.30
  -2   1  16   12.26    3.35
   2  -1 -15   21.98    3.89
  -2   1  15   28.86    4.03
  -2   1  15   23.24    4.07
   2  -1 -15   25.46    3.94
  -2   1  14    4.51    2.49
  -2   1  14    2.93    2.60
   2  -1 -14    7.00    2.72
   2  -1 -14    8.05    3.06
  -2   1  13   35.50    4.12
   2  -1 -13   40.89    4.39
  -2   1  13   42.36    4.46
   2  -1 -13   44.60    4.56
   2  -1 -12    5.16    2.54
  -2   1  12    6.41    2.40
  -2   1  12    9.45    3.13
   2  -1 -12    5.59    2.38
   2  -1 -11   24.73    3.20
   2  -1 -11   29.81    3.53
  -2   1  11   30.94    3.87
  -2   1  11   28.20    3.36
  -2   1  10  242.20    8.45
   2  -1 -10  244.56    8.06
  -2   1  10  222.37    8.09
   2  -1 -10  230.82    8.14
  -2   1   9  532.41   11.84
   2  -1  -9  542.28    7.61
  -2   1   9  539.88    7.73
   2  -1  -9  535.01   11.20
  -2   1   9  545.45    7.69
  -2   1   9  534.72   11.81
   2  -1  -9  538.96   11.74
  -2   1   8   16.98    2.47
   2  -1  -8   20.69    2.71
  -2   1   8   17.27    2.64
  -2   1   8   20.31    1.49
   2  -1  -8   18.85    1.63
   2  -1  -8   15.39    2.36
   2  -1  -8   18.43    1.44
  -2   1   8   19.63    1.55
   2  -1  -7  387.36    5.34
  -2   1   7  369.55    9.05
  -2   1   7  387.53    9.02
  -2   1   7  383.93    5.34
   2  -1  -7  375.63    6.77
   2  -1  -7  384.25    8.48
  -2   1   7  353.38    3.30
   2  -1  -7  375.62    6.24
  -2   1   7  381.21    5.99
   2  -1  -7  371.32    6.09
   2  -1  -7  373.65    8.92
  -2   1   6  102.69    4.67
  -2   1   6  101.06    2.50
   2  -1  -6   97.22    4.06
   2  -1  -6  100.97    3.59
  -2   1   6   96.30    1.92
   2  -1  -6   96.76    3.22
   2  -1  -6  104.54    3.38
  -2   1   6  101.79    3.08
  -2   1   6   98.87    4.45
   2  -1  -6  101.76    2.95
   2  -1  -6  101.81    4.59
  -2   1   5  167.08    5.59
  -2   1   5  182.80    5.63
   2  -1  -5  178.47    4.54
   2  -1  -5  176.56    3.50
   2  -1  -5  180.09    4.77
  -2   1   5  173.47    2.87
   2  -1  -5  175.48    4.25
  -2   1   5  173.55    3.95
   2  -1  -5  177.97    5.55
  -2   1   4   12.00    1.74
   2  -1  -4    8.57    1.61
  -2   1   4    9.03    1.77
   2  -1  -4   10.71    1.28
  -2   1   4   11.46    0.99
   2  -1  -4   10.91    0.97
  -2   1   4    9.92    1.14
   2  -1  -4    9.38    1.40
   2  -1  -4    9.93    1.38
   2  -1  -3    8.48    0.84
  -2   1   3    7.78    1.37
   2  -1  -3    8.92    1.60
   2  -1  -3   10.15    1.73
   2  -1  -3    7.84    1.36
  -2   1   3    9.63    1.06
   2  -1  -3    6.76    1.14
   2  -1  -3    8.38    1.45
  -2   1   3    7.03    1.61
  -2   1   3    7.70    1.23
  -2   1   2 1625.35   14.94
   2  -1  -2 1596.28   14.38
   2  -1  -2 1609.31   15.09
   2  -1  -2 1613.76   14.61
   2  -1  -2 1597.68   13.26
  -2   1   2 1628.52   12.66
  -2   1   2 1600.75   13.65
   2  -1  -2 1593.59   13.42
   2  -1  -1    1.05    0.90
   2  -1  -1    1.07    1.37
   2  -1  -1    0.93    0.66
   2  -1  -1    1.23    0.54
   2  -1  -1    0.96    1.10
  -2   1   1    1.43    0.95
   2  -1  -1   -0.59    1.09
   2  -1  -1    1.16    1.13
   2  -1   0 1415.18   14.09
   2  -1   0 1427.84   13.27
   2  -1   0 1429.02   13.99
   2  -1   0 1439.04   10.73
   2  -1   0 1420.63   10.84
   2  -1   0 1446.74   14.20
   2  -1   1 1174.37   12.48
   2  -1   1 1165.16   13.13
   2  -1   1 1171.26   12.64
   2  -1   1 1158.32   10.63
   2  -1   1 1169.47   12.80
   2  -1   1 1153.65    9.01
  -2   1  -1 1157.82    6.67
   2  -1   2   49.23    2.81
   2  -1   2   52.11    2.60
   2  -1   2   50.29    2.93
   2  -1   2   49.26    2.90
  -2   1  -2   49.02    1.26
   2  -1   2   54.33    3.06
   2  -1   3  945.56   11.10
   2  -1   3  899.21   11.05
   2  -1   3  904.73   11.80
   2  -1   3  917.04   11.58
  -2   1  -3  908.45    5.60
  -2   1  -3  906.01    8.76
  -2   1  -3  900.49   11.14
   2  -1   3  914.81   11.95
   2  -1   4  485.24    8.55
   2  -1   4  481.00    8.61
   2  -1   4  500.75    8.09
   2  -1   4  474.79    5.99
   2  -1   4  500.40    9.02
  -2   1  -4  478.83    8.72
  -2   1  -4  516.15    6.29
   2  -1   5   67.03    3.36
   2  -1   5   68.29    3.64
  -2   1  -5   67.44    2.34
  -2   1  -5   69.78    2.35
   2  -1   5   65.89    2.44
  -2   1  -5   67.54    3.71
   2  -1   5   69.07    3.61
   2  -1   6   18.31    2.28
  -2   1  -6   17.19    1.56
   2  -1   6   19.92    1.55
   2  -1   6   16.64    1.88
  -2   1  -6   19.82    1.33
  -2   1  -6   17.97    2.32
   2  -1   6   20.35    2.19
   2  -1   7   28.93    2.84
  -2   1  -7   24.50    2.09
   2  -1   7   28.30    1.94
  -2   1  -7   31.93    3.14
   2  -1   7   25.55    2.45
  -2   1  -7   29.82    1.61
   2  -1   7   29.12    2.39
   2  -1   8  313.08    7.12
   2  -1   8  304.94    8.79
  -2   1  -8  309.19    6.70
  -2   1  -8  310.75    5.77
  -2   1  -8  312.36    8.95
  -2   1  -9  310.96    6.31
   2  -1   9  321.01    9.36
  -2   1  -9  317.74    7.38
  -2   1  -9  318.46    9.45
   2  -1   9  334.14    7.41
   2  -1  10  148.46    6.77
  -2   1 -10  152.63    5.66
  -2   1 -10  159.34    7.11
  -2   1 -11    2.96    2.62
   2  -1  11    2.91    2.40
  -2   1 -11    0.75    1.46
  -2   1 -12    5.45    2.36
   2  -1  12    3.14    2.14
  -2   1 -12    2.32    1.55
  -2   1 -13   12.00    3.17
   2  -1  13   10.90    2.95
  -2   1 -13   14.04    2.63
  -2   1 -14   36.01    4.61
  -2   1 -14   32.42    3.59
   2  -1  14   40.57    4.62
   2  -1  15   22.02    3.67
  -2   1 -15   18.66    3.99
  -2   1 -16    5.29    2.93
   2  -1  16   10.48    3.35
   2  -1  17    8.85    2.89
  -2   1 -17    1.96    2.67
  -2   0  19    0.33    2.64
   2   0 -19    3.44    3.32
   2   0 -18   37.68    4.90
   2   0 -18   33.12    4.85
  -2   0  18   38.40    5.45
  -2   0  18   35.34    4.71
   2   0 -17    6.85    2.98
   2   0 -17   12.53    3.34
  -2   0  17   12.54    3.87
  -2   0  17   16.01    3.60
   2   0 -16    2.48    2.71
  -2   0  16   12.45    3.88
   2   0 -16    5.49    2.94
  -2   0  16   11.87    3.33
   2   0 -15    3.63    2.78
  -2   0  15    1.68    2.29
  -2   0  15    1.34    2.95
   2   0 -15    2.28    2.51
  -2   0  14   18.44    3.37
  -2   0  14   15.51    3.44
   2   0 -14   16.03    3.37
   2   0 -14   15.17    2.96
   2   0 -13    0.58    2.21
  -2   0  13    2.87    1.82
   2   0 -13    1.70    2.58
  -2   0  13   -0.26    2.65
  -2   0  12  257.60    9.44
   2   0 -12  251.68    9.03
  -2   0  12  272.29    9.51
   2   0 -12  272.29    9.40
  -2   0  11  303.91    9.84
  -2   0  11  313.96    7.15
  -2   0  11  324.26    9.84
   2   0 -11  322.50    9.81
  -2   0  10 1874.89   22.80
  -2   0  10 1938.32   16.49
  -2   0  10 1909.51   22.66
   2   0 -10 1904.62   22.48
  -2   0   9  298.02    8.61
   2   0  -9  296.62    5.52
  -2   0   9  303.30    6.23
   2   0  -9  292.19    6.07
  -2   0   9  304.35    8.84
   2   0  -9  292.87    8.61
   2   0  -8    6.95    1.11
  -2   0   8    3.66    1.66
  -2   0   8    7.38    2.11
  -2   0   8    4.82    1.15
  -2   0   8    6.70    0.81
  -2   0   8    7.08    0.94
   2   0  -8    5.33    1.12
   2   0  -8    4.34    1.94
  -2   0   7    7.57    1.81
   2   0  -7    6.05    1.86
   2   0  -7    8.20    1.21
  -2   0   7    4.43    1.81
   2   0  -7    6.78    1.41
   2   0  -7    7.24    1.34
  -2   0   7    7.72    0.98
  -2   0   7    7.80    0.82
  -2   0   6   76.58    4.04
   2   0  -6   76.24    3.08
   2   0  -6   74.46    3.55
  -2   0   6   78.17    2.42
  -2   0   6   77.07    2.18
  -2   0   6   73.77    3.85
   2   0  -6   76.48    2.88
   2   0  -6   78.35    4.00
  -2   0   5    7.63    1.68
   2   0  -5    7.51    1.29
   2   0  -5    7.86    1.74
   2   0  -5    6.89    1.22
   2   0  -5    5.28    1.36
  -2   0   5    9.42    1.76
  -2   0   5    6.58    0.79
  -2   0   5    6.16    0.92
   2   0  -5    6.27    0.97
   2   0  -4  839.53   10.29
  -2   0   4  842.99   11.32
  -2   0   4  850.51    8.38
   2   0  -4  823.61   10.02
  -2   0   4  845.98    7.65
  -2   0   4  841.02   11.14
   2   0  -4  843.87    8.47
   2   0  -4  838.60   11.15
   2   0  -4  830.95   11.04
  -2   0   3  894.98   11.18
  -2   0   3  891.03    8.37
   2   0  -3  861.29   11.26
   2   0  -3  865.44   10.59
  -2   0   3  876.08    8.89
   2   0  -3  852.94   10.25
   2   0  -3  861.47    8.45
   2   0  -3  875.76   10.49
   2   0  -3  859.45   10.60
  -2   0   2   66.08    3.00
   2   0  -2   64.02    3.24
  -2   0   2   67.19    2.74
   2   0  -2   69.75    3.10
   2   0  -2   68.68    2.19
   2   0  -2   68.70    2.52
   2   0  -2   63.10    3.05
   2   0  -2   66.01    3.15
   2   0  -2   63.06    2.86
   2   0  -1  136.20    4.46
   2   0  -1  129.70    4.43
   2   0  -1  141.85    3.60
   2   0  -1  135.96    4.33
  -2   0   1  139.45    3.35
   2   0  -1  129.35    4.34
   2   0  -1  140.55    2.61
   2   0  -1  133.89    3.84
   2   0   0 2007.41   16.50
   2   0   0 2007.37   16.65
   2   0   0 2012.51   16.64
   2   0   0 2048.19   14.35
  -2   0   0 1995.45   11.65
   2   0   0 2036.38    8.28
   2   0   0 2002.17   13.75
   2   0   0 2056.66   17.03
   2   0   1   47.14    2.80
   2   0   1   46.65    2.75
   2   0   1   43.40    2.38
   2   0   1   46.32    2.89
   2   0   1   46.71    2.74
  -2   0  -1   44.88    1.76
   2   0   1   43.07    1.18
  -2   0  -1   45.14    2.39
   2   0   2    9.91    1.59
   2   0   2   15.05    1.87
   2   0   2   15.84    1.78
  -2   0  -2   14.45    1.13
   2   0   2   14.41    1.98
   2   0   2   11.52    1.73
  -2   0  -2   12.96    1.44
   2   0   3  162.87    5.00
   2   0   3  161.81    4.69
   2   0   3  161.49    4.95
   2   0   3  151.18    5.06
   2   0   3  149.47    3.92
  -2   0  -3  152.17    3.27
  -2   0  -3  150.58    3.99
   2   0   4   26.73    2.27
   2   0   4   28.14    2.14
  -2   0  -4   24.53    1.69
   2   0   4   23.96    2.24
   2   0   4   25.54    2.37
  -2   0  -4   24.20    1.54
   2   0   4   23.67    1.73
   2   0   5  154.61    5.00
   2   0   5  157.06    4.58
   2   0   5  149.07    5.40
   2   0   5  152.90    5.46
   2   0   5  150.20    4.26
  -2   0  -5  155.19    3.91
  -2   0  -5  155.23    5.64
  -2   0  -5  158.22    4.03
   2   0   6   34.20    2.65
   2   0   6   37.85    2.30
   2   0   6   34.63    2.99
   2   0   6   32.66    2.18
  -2   0  -6   33.87    3.07
  -2   0  -6   38.72    2.15
  -2   0  -7    4.81    1.96
   2   0   7    8.40    1.32
   2   0   7    8.64    2.09
   2   0   7    8.10    1.42
  -2   0  -7    7.65    1.29
   2   0   7    8.82    1.64
   2   0   8   93.14    5.22
  -2   0  -8   92.55    5.17
  -2   0  -8  101.52    3.51
   2   0   9  137.67    4.76
   2   0   9  131.59    6.36
  -2   0  -9  132.43    6.39
   2   0  10   -1.63    1.85
  -2   0 -10   -0.24    2.11
  -2   0 -10    1.74    1.32
   2   0  11   41.65    4.14
  -2   0 -11   41.44    4.28
  -2   0 -12   12.48    3.23
   2   0  12   16.75    2.85
  -2   0 -13   26.34    3.92
   2   0  13   31.00    4.01
  -2   0 -14   22.77    3.90
   2   0  14   28.57    4.00
  -2   0 -15   -0.42    2.91
   2   0  15   -0.39    2.16
  -2   0 -16   20.86    3.93
   2   0  16   22.67    3.90
   2   0  17    4.50    2.36
  -2   0 -17    1.02    3.26
   2   1 -19   23.33    4.14
  -2  -1  19   23.43    4.78
  -2  -1  19   15.64    3.66
   2   1 -19   23.75    4.49
   2   1 -18   27.31    4.42
  -2  -1  18   36.15    5.40
   2   1 -18   34.64    5.01
  -2  -1  18   36.19    5.09
   2   1 -17   -1.85    2.61
  -2  -1  17    1.23    2.60
  -2  -1  17   -0.27    2.90
   2   1 -17    1.01    2.55
  -2  -1  16   12.68    2.87
   2   1 -16   11.87    3.19
  -2  -1  16   12.52    3.76
   2   1 -16    9.91    2.97
   2   1 -15    3.88    2.44
  -2  -1  15    7.62    2.41
  -2  -1  15    7.18    3.29
   2   1 -15    6.28    2.80
   2   1 -14    3.86    2.26
  -2  -1  14    8.85    2.49
  -2  -1  14   10.13    3.20
  -2  -1  13   54.22    4.85
  -2  -1  13   54.85    4.62
   2   1 -13   59.31    4.92
   2   1 -12   27.64    3.44
  -2  -1  12   20.46    2.28
  -2  -1  12   17.57    3.33
  -2  -1  12   20.03    2.95
  -2  -1  11   77.51    5.22
  -2  -1  11   83.07    5.17
  -2  -1  11   80.64    4.00
   2   1 -11   87.21    4.00
   2   1 -11   88.00    5.28
  -2  -1  10   42.86    4.13
   2   1 -10   38.96    2.74
  -2  -1  10   41.67    2.79
   2   1 -10   39.13    2.75
  -2  -1  10   39.79    3.67
  -2  -1  10   38.95    2.28
   2   1 -10   36.06    3.61
  -2  -1   9   18.72    2.62
   2   1  -9   17.77    2.66
  -2  -1   9   21.76    3.00
  -2  -1   9   21.39    1.77
   2   1  -9   20.36    1.91
   2   1  -9   24.09    2.27
  -2  -1   8   95.31    4.84
   2   1  -8   99.57    4.12
  -2  -1   8   99.35    3.31
   2   1  -8   99.48    3.67
   2   1  -8   95.16    4.80
  -2  -1   8   96.41    4.72
   2   1  -8  100.50    4.02
   2   1  -7   21.13    2.51
  -2  -1   7   19.32    2.56
   2   1  -7   19.47    1.97
   2   1  -7   19.79    1.78
  -2  -1   7   17.50    1.57
   2   1  -7   20.83    2.01
  -2  -1   7   22.94    2.56
   2   1  -6   47.68    2.58
  -2  -1   6   44.20    3.05
   2   1  -6   43.97    2.80
  -2  -1   6   47.60    2.35
  -2  -1   6   39.06    1.15
  -2  -1   6   42.51    3.06
   2   1  -6   42.36    2.44
   2   1  -6   44.41    3.13
   2   1  -5  890.06   10.74
  -2  -1   5  908.84   12.12
   2   1  -5  895.45   11.80
  -2  -1   5  894.64    9.59
   2   1  -5  896.35   10.86
  -2  -1   5  904.97    6.41
   2   1  -5  874.17   10.09
   2   1  -5  905.35   12.22
   2   1  -4   -1.04    1.35
  -2  -1   4   -1.32    1.38
  -2  -1   4    1.91    1.00
  -2  -1   4   -0.06    0.59
   2   1  -4    0.39    1.13
   2   1  -4    0.63    0.97
   2   1  -4    0.46    0.88
   2   1  -4    0.76    0.98
   2   1  -3  693.99    9.72
  -2  -1   3  685.60    9.38
   2   1  -3  700.51   10.22
   2   1  -3  678.72    8.66
  -2  -1   3  703.95    8.97
   2   1  -3  688.57    9.86
   2   1  -3  676.00    8.00
   2   1  -3  691.97    9.76
   2   1  -2  182.85    4.59
  -2  -1   2  186.10    4.67
   2   1  -2  189.18    5.24
   2   1  -2  183.82    5.43
  -2  -1   2  192.67    4.91
   2   1  -2  189.32    5.28
  -2  -1   2  193.75    4.58
   2   1  -2  191.30    3.90
   2   1  -2  185.66    4.98
   2   1  -1  393.49    7.59
  -2  -1   1  385.69    6.25
   2   1  -1  385.18    7.59
   2   1  -1  375.05    6.60
  -2  -1   1  385.75    7.18
   2   1  -1  380.46    7.48
  -2  -1   1  383.48    6.11
   2   1  -1  388.22    5.05
  -2  -1   1  387.12    7.29
   2   1  -1  383.34    6.75
   2   1  -1  380.26    6.75
   2   1   0    4.44    1.16
   2   1   0    7.79    1.67
   2   1   0    5.56    1.34
  -2  -1   0    6.76    1.55
  -2  -1   0    5.36    1.04
   2   1   0    4.35    0.75
   2   1   0    6.30    1.55
   2   1   1  354.98    7.44
   2   1   1  344.33    7.14
   2   1   1  349.27    6.97
  -2  -1  -1  349.59    6.74
   2   1   1  356.22    7.47
   2   1   1  358.67    4.73
  -2  -1  -1  352.86    5.69
  -2  -1  -2   -2.34    1.45
   2   1   2    0.23    1.10
   2   1   2    1.70    1.04
   2   1   2    0.74    0.94
  -2  -1  -2    1.26    0.74
   2   1   2    1.13    1.25
   2   1   2    1.30    1.34
   2   1   3 1554.98   15.85
   2   1   3 1511.84   14.72
   2   1   3 1548.85   16.26
   2   1   3 1576.82   13.97
  -2  -1  -3 1568.24   12.40
  -2  -1  -3 1569.17   13.94
   2   1   3 1532.73   16.06
  -2  -1  -4  199.39    5.12
   2   1   4  200.22    5.34
   2   1   4  187.96    5.91
   2   1   4  181.55    5.08
  -2  -1  -4  186.41    4.68
   2   1   4  185.30    5.99
   2   1   5  168.12    4.87
   2   1   5  157.88    5.83
   2   1   5  152.53    5.55
   2   1   5  164.05    4.99
  -2  -1  -5  158.05    4.64
  -2  -1  -5  168.09    4.68
   2   1   6    1.56    0.90
   2   1   6    0.40    1.57
   2   1   6    2.56    1.25
  -2  -1  -6    1.61    1.10
  -2  -1  -6    0.91    1.17
   2   1   7   98.28    3.68
   2   1   7  102.80    5.33
   2   1   7  101.26    4.33
  -2  -1  -7  100.34    5.27
  -2  -1  -7  103.42    3.97
  -2  -1  -8   -2.33    2.24
   2   1   8   -0.55    1.68
  -2  -1  -8    0.33    1.27
   2   1   9  343.08   10.21
  -2  -1  -9  349.80   10.49
  -2  -1 -10    4.60    2.59
   2   1  10    1.88    2.17
  -2  -1 -11    3.09    2.54
   2   1  11    8.55    2.77
   2   1  12  144.79    7.59
  -2  -1 -12  157.58    8.06
  -2  -1 -13    1.05    2.35
   2   1  13    1.51    1.97
  -2  -1 -14   20.82    4.08
   2   1  14   16.77    3.24
   2   1  15   -2.87    2.44
  -2  -1 -15   -3.62    3.24
  -2  -1 -16    2.13    3.30
   2   1  16    6.13    2.62
  -2  -2  20    4.81    2.56
   2   2 -19    9.52    3.33
  -2  -2  19   11.28    3.31
  -2  -2  19   11.78    4.46
   2   2 -19    7.11    3.08
   2   2 -18    0.47    2.37
  -2  -2  18    2.80    2.44
  -2  -2  18    7.27    3.34
   2   2 -18    2.16    3.19
   2   2 -17   73.25    6.05
  -2  -2  17   73.83    6.54
   2   2 -17   78.90    6.50
  -2  -2  17   72.57    6.09
  -2  -2  16  147.44    8.68
   2   2 -16  164.65    8.45
  -2  -2  16  158.94    8.36
   2   2 -15    0.31    2.15
  -2  -2  15   -0.79    1.83
  -2  -2  15    3.64    3.07
   2   2 -14   24.69    3.62
  -2  -2  14   22.71    3.44
  -2  -2  14   22.82    3.66
  -2  -2  14   23.89    2.85
  -2  -2  13   59.01    4.67
  -2  -2  13   62.64    4.05
  -2  -2  13   55.62    4.88
   2   2 -13   62.70    3.96
   2   2 -13   54.27    4.59
  -2  -2  12    3.40    2.00
   2   2 -12    1.08    2.24
  -2  -2  12   -1.38    2.97
  -2  -2  12    3.53    1.53
   2   2 -12    2.72    1.57
  -2  -2  11   10.03    2.27
   2   2 -11   10.55    2.35
  -2  -2  11    8.86    2.65
   2   2 -11   11.31    1.69
  -2  -2  11   12.78    1.77
   2   2 -11   11.34    1.92
   2   2 -10   98.85    4.31
  -2  -2  10  105.59    4.03
   2   2 -10  106.87    4.46
  -2  -2  10   97.60    5.34
  -2  -2  10  102.25    5.34
   2   2 -10  108.45    5.53
  -2  -2   9  357.93    9.47
   2   2  -9  343.92    7.82
  -2  -2   9  347.68    6.93
   2   2  -9  352.53    7.62
   2   2  -9  352.04    9.27
  -2  -2   9  347.23    9.30
   2   2  -9  334.47    7.92
  -2  -2   8  157.76    6.04
   2   2  -8  147.06    5.16
  -2  -2   8  154.68    4.60
   2   2  -8  152.24    5.97
   2   2  -8  151.54    5.73
  -2  -2   8  151.94    5.98
   2   2  -8  149.93    5.13
  -2  -2   7    8.71    1.99
   2   2  -7   11.86    2.21
   2   2  -7    7.53    1.55
  -2  -2   7   10.02    1.62
   2   2  -7   11.31    2.05
   2   2  -7   10.45    1.82
  -2  -2   6  208.76    6.11
   2   2  -6  194.91    5.87
  -2  -2   6  201.21    5.15
   2   2  -6  186.37    5.54
   2   2  -6  203.30    5.57
   2   2  -6  194.91    6.14
  -2  -2   5  308.91    7.08
   2   2  -5  314.59    7.27
  -2  -2   5  312.95    6.44
   2   2  -5  307.67    6.62
   2   2  -5  300.87    6.55
   2   2  -5  301.40    7.28
  -2  -2   4   35.35    2.41
   2   2  -4   38.98    2.79
  -2  -2   4   36.94    2.50
   2   2  -4   37.27    2.37
   2   2  -4   35.33    2.44
   2   2  -4   36.31    2.72
  -2  -2   4   36.68    2.39
  -2  -2   3  105.27    3.62
   2   2  -3  114.74    4.43
  -2  -2   3  107.65    4.36
  -2  -2   3  113.14    4.08
   2   2  -3  112.06    4.33
  -2  -2   3  112.48    3.98
   2   2  -3  112.15    3.52
   2   2  -3  111.54    3.98
   2   2  -3  112.70    4.25
  -2  -2   2  353.45    6.04
  -2  -2   2  358.77    7.52
   2   2  -2  355.71    7.63
  -2  -2   2  350.86    7.24
   2   2  -2  360.86    7.63
  -2  -2   2  355.20    6.80
   2   2  -2  355.29    5.90
   2   2  -2  356.58    7.08
   2   2  -2  358.71    7.19
  -2  -2   1  166.64    3.84
  -2  -2   1  159.01    5.07
   2   2  -1  164.70    5.25
  -2  -2   1  158.90    5.04
   2   2  -1  167.34    5.29
   2   2  -1  160.15    3.89
  -2  -2   1  158.41    4.44
   2   2  -1  169.04    5.02
  -2  -2   0  549.51    6.40
   2   2   0  536.84    9.32
   2   2   0  532.19    8.95
  -2  -2   0  537.07    9.41
   2   2   0  546.14    9.47
   2   2   0  535.33    6.98
  -2  -2   0  538.18    7.95
  -2  -2   0  538.54    9.00
   2   2   1  300.88    6.93
   2   2   1  299.01    7.01
  -2  -2  -1  297.85    7.26
   2   2   1  296.66    7.11
   2   2   1  295.05    6.63
   2   2   1  297.11    5.29
  -2  -2  -1  302.54    6.02
  -2  -2  -1  282.97    6.52
   2   2   2   58.22    3.20
   2   2   2   59.82    3.49
   2   2   2   60.45    3.43
   2   2   2   57.23    3.11
  -2  -2  -2   53.48    2.74
  -2  -2  -2   59.27    3.16
   2   2   3   26.02    2.32
   2   2   3   21.42    2.39
   2   2   3   29.78    2.64
   2   2   3   23.17    2.27
  -2  -2  -3   22.19    1.98
  -2  -2  -3   22.71    2.21
   2   2   4   29.13    2.31
   2   2   4   29.06    2.76
   2   2   4   28.86    2.60
   2   2   4   29.07    2.45
  -2  -2  -4   28.23    2.29
  -2  -2  -4   33.62    2.79
   2   2   5   76.74    3.57
   2   2   5   70.89    4.19
   2   2   5   67.79    3.95
   2   2   5   76.17    3.84
  -2  -2  -5   71.80    3.55
  -2  -2  -5   69.16    3.53
   2   2   6   50.17    2.92
   2   2   6   41.04    3.46
   2   2   6   43.52    3.28
   2   2   6   44.43    3.15
  -2  -2  -6   43.92    3.06
  -2  -2  -6   43.71    3.00
   2   2   7    2.11    1.89
   2   2   7    0.99    0.93
   2   2   7    1.96    1.49
  -2  -2  -7    0.22    1.32
  -2  -2  -7    4.48    1.68
  -2  -2  -8   11.87    2.20
  -2  -2  -8    2.76    2.08
   2   2   8    6.28    1.95
   2   2   8    8.47    1.92
  -2  -2  -9    1.52    2.36
   2   2   9    0.51    1.91
   2   2   9   -0.41    1.50
  -2  -2  -9    1.96    1.82
  -2  -2 -10    1.84    2.24
   2   2  10    1.61    2.06
  -2  -2 -11   55.75    4.14
   2   2  11   48.82    4.56
  -2  -2 -11   45.64    4.72
   2   2  12   99.66    6.54
  -2  -2 -12   99.24    6.78
  -2  -2 -13    8.59    3.29
   2   2  13    6.72    2.52
   2   2  14   96.65    6.79
  -2  -2 -14  104.81    7.47
  -2  -2 -15    0.13    2.45
   2   2  15    3.94    2.49
  -2  -2 -16    4.41    3.11
   2   2  16    0.79    2.47
   2   3 -20    8.54    3.19
  -2  -3  20   20.46    3.94
  -2  -3  19   66.83    6.92
   2   3 -19   62.41    6.30
  -2  -3  19   59.25    5.83
   2   3 -19   55.05    5.61
  -2  -3  18  135.66    8.25
  -2  -3  18  123.71    8.48
   2   3 -18  125.82    7.95
  -2  -3  17  203.45   10.31
  -2  -3  17  216.66    9.96
   2   3 -17  222.06    9.95
   2   3 -16   20.96    3.71
  -2  -3  16   26.35    3.79
  -2  -3  16   19.19    3.79
  -2  -3  15   65.13    5.29
  -2  -3  15   68.01    4.72
  -2  -3  15   68.43    5.96
   2   3 -15   63.65    5.34
  -2  -3  14   19.95    3.03
   2   3 -14   17.52    3.36
  -2  -3  14   24.98    2.99
   2   3 -14   21.01    2.81
  -2  -3  14   21.75    3.90
  -2  -3  13  104.38    6.48
  -2  -3  13  100.46    5.29
  -2  -3  13   91.56    5.78
   2   3 -13  101.71    5.16
   2   3 -13   95.25    5.88
  -2  -3  12   14.57    2.60
   2   3 -12   14.38    2.61
  -2  -3  12   13.77    3.06
  -2  -3  12   16.03    2.13
   2   3 -12   13.51    2.25
  -2  -3  11   -0.31    1.56
   2   3 -11    0.21    1.99
  -2  -3  11   -0.15    2.33
   2   3 -11    1.36    1.23
  -2  -3  11    1.68    1.52
   2   3 -11   -0.71    1.35
   2   3 -10   74.57    4.74
  -2  -3  10   65.89    4.60
   2   3 -10   70.74    3.81
  -2  -3  10   69.70    3.60
   2   3 -10   80.84    4.19
   2   3 -10   74.17    4.71
  -2  -3  10   75.85    4.70
   2   3 -10   72.83    4.27
   2   3  -9    7.05    2.17
   2   3  -9    5.26    1.58
  -2  -3   9    6.82    1.69
   2   3  -9    3.57    1.84
  -2  -3   9    5.60    2.05
   2   3  -9    5.60    1.68
  -2  -3   8  867.05   13.77
   2   3  -8  887.08   12.91
  -2  -3   8  899.91   12.01
   2   3  -8  889.97   13.61
   2   3  -8  874.38   13.01
   2   3  -8  902.02   14.24
  -2  -3   7  795.69   12.51
   2   3  -7  799.02   12.21
   2   3  -7  811.12   13.07
  -2  -3   7  797.64   11.25
   2   3  -7  792.20   12.30
   2   3  -7  802.53   12.15
  -2  -3   6   19.00    2.37
   2   3  -6   18.46    2.53
   2   3  -6   14.60    2.00
  -2  -3   6   12.88    2.08
   2   3  -6   17.97    2.31
  -2  -3   6   19.16    2.41
  -2  -3   6   17.55    2.16
   2   3  -6   14.57    1.91
  -2  -3   5  338.32    7.23
   2   3  -5  339.18    7.92
   2   3  -5  348.72    8.16
  -2  -3   5  349.75    8.22
   2   3  -5  342.37    7.66
  -2  -3   5  338.55    7.37
  -2  -3   5  348.43    7.84
   2   3  -5  331.50    7.19
  -2  -3   4   63.05    3.03
   2   3  -4   62.80    3.61
  -2  -3   4   58.97    3.22
  -2  -3   4   59.10    3.33
   2   3  -4   58.49    3.00
  -2  -3   4   59.38    3.53
   2   3  -4   63.30    3.38
   2   3  -4   64.45    3.60
  -2  -3   3  122.81    3.73
   2   3  -3  120.41    4.78
  -2  -3   3  123.92    4.68
  -2  -3   3  124.05    4.56
   2   3  -3  121.79    4.07
   2   3  -3  116.63    4.49
  -2  -3   3  116.78    4.74
   2   3  -3  116.76    4.61
  -2  -3   2    6.61    0.99
   2   3  -2    7.77    1.74
  -2  -3   2    6.74    1.76
  -2  -3   2    7.98    1.83
  -2  -3   2    8.74    1.65
   2   3  -2    7.75    1.31
   2   3  -2    6.79    1.58
   2   3  -2    8.59    1.60
  -2  -3   1  569.35    6.49
   2   3  -1  565.87   10.21
  -2  -3   1  568.47   10.09
   2   3  -1  578.95   10.23
   2   3  -1  573.76    8.31
  -2  -3   1  565.94    9.16
  -2  -3   1  597.51   10.13
   2   3  -1  584.32   10.02
   2   3   0   39.91    2.91
   2   3   0   41.48    2.99
  -2  -3   0   40.62    1.54
  -2  -3   0   41.49    3.08
   2   3   0   40.80    2.83
   2   3   0   39.63    2.96
   2   3   0   44.21    2.46
  -2  -3   0   42.82    2.73
  -2  -3   0   36.61    2.78
   2   3   0   42.17    3.03
   2   3   1   79.71    3.93
   2   3   1   84.67    4.27
  -2  -3  -1   85.68    4.36
   2   3   1   84.41    4.10
   2   3   1   83.01    3.94
   2   3   1   87.57    3.44
  -2  -3  -1   81.33    3.69
  -2  -3  -1   79.23    1.81
  -2  -3  -1   82.59    4.02
   2   3   2 1744.33   17.56
   2   3   2 1757.43   18.78
  -2  -3  -2 1736.43   18.97
   2   3   2 1754.74   18.20
   2   3   2 1768.72   17.68
  -2  -3  -2 1745.67   16.50
  -2  -3  -2 1716.24   17.43
   2   3   3   45.68    2.97
   2   3   3   49.42    3.47
  -2  -3  -3   48.53    3.58
   2   3   3   42.61    3.15
   2   3   3   50.60    3.34
  -2  -3  -3   45.84    2.99
  -2  -3  -3   48.95    3.32
  -2  -3  -4    1.35    1.72
   2   3   4    1.12    1.58
  -2  -3  -4    1.21    1.61
   2   3   4    1.89    1.14
   2   3   4    1.80    1.49
  -2  -3  -4    0.99    1.39
   2   3   4    0.49    1.35
   2   3   5   26.50    2.36
   2   3   5   26.80    3.18
   2   3   5   23.43    2.56
   2   3   5   25.51    2.68
  -2  -3  -5   23.37    2.55
  -2  -3  -5   25.29    2.73
   2   3   6   38.38    2.83
   2   3   6   37.56    3.15
   2   3   6   37.15    3.18
  -2  -3  -6   39.09    3.18
  -2  -3  -6   40.41    3.30
   2   3   6   37.95    3.51
   2   3   7    6.58    1.86
   2   3   7    4.59    2.04
   2   3   7    7.22    1.40
   2   3   7    6.88    2.00
  -2  -3  -7    4.58    1.58
  -2  -3  -7    4.33    1.93
   2   3   8    1.56    1.84
   2   3   8    3.66    1.91
  -2  -3  -8   -0.12    1.84
  -2  -3  -9    1.43    2.25
   2   3   9   -0.26    1.91
   2   3   9    1.84    1.93
  -2  -3  -9   -0.10    1.79
  -2  -3 -10    0.06    2.14
   2   3  10   -1.17    2.13
   2   3  10    4.14    2.11
  -2  -3 -11   12.55    3.05
   2   3  11   16.17    3.09
   2   3  11   14.03    2.67
  -2  -3 -12   16.61    3.57
   2   3  12   21.83    3.63
   2   3  12   22.41    3.32
  -2  -3 -13   18.90    4.01
   2   3  13   25.34    3.89
   2   3  14    4.39    2.52
  -2  -3 -14    6.36    3.33
   2   3  15   50.93    5.38
  -2  -3 -15   55.57    6.26
  -2  -4  20   -0.72    2.35
   2   4 -20    1.50    2.59
   2   4 -19   -1.64    2.76
  -2  -4  19   -4.51    2.55
   2   4 -18    2.40    2.24
  -2  -4  18    2.09    2.68
  -2  -4  18   -0.88    2.87
   2   4 -17    2.23    2.31
  -2  -4  17    3.24    2.03
  -2  -4  17    2.15    3.35
  -2  -4  16  142.56    8.59
   2   4 -16  149.92    7.90
  -2  -4  16  147.33    7.19
  -2  -4  16  145.97    7.98
  -2  -4  15   -1.01    1.90
   2   4 -15    0.14    2.04
  -2  -4  15   -0.15    1.65
   2   4 -15   -0.86    2.00
  -2  -4  15    2.55    3.29
  -2  -4  14   76.47    5.46
   2   4 -14   80.17    5.61
   2   4 -14   86.50    5.20
  -2  -4  14   76.32    5.96
  -2  -4  13    3.66    1.91
   2   4 -13    4.23    2.23
  -2  -4  13    6.08    2.08
  -2  -4  13    6.10    3.11
   2   4 -13    2.76    1.98
  -2  -4  12    2.07    1.72
   2   4 -12    2.94    2.25
  -2  -4  12    5.06    2.80
   2   4 -12    3.56    1.44
  -2  -4  12    7.10    2.14
   2   4 -12    2.97    1.92
   2   4 -12    5.52    2.06
  -2  -4  11  262.43    8.97
   2   4 -11  253.94    7.39
  -2  -4  11  255.47    7.40
   2   4 -11  250.23    8.58
  -2  -4  11  253.18    8.78
   2   4 -11  240.42    8.07
   2   4 -11  263.81    8.78
  -2  -4  10  406.04   10.62
   2   4 -10  418.88    9.46
  -2  -4  10  411.64    9.13
   2   4 -10  419.24   10.59
   2   4 -10  414.37   10.19
   2   4 -10  418.46   10.60
  -2  -4   9   33.62    3.41
   2   4  -9   35.47    2.97
  -2  -4   9   33.39    2.93
   2   4  -9   31.17    3.29
   2   4  -9   33.96    3.28
  -2  -4   9   40.08    3.44
   2   4  -9   34.09    3.14
   2   4  -8   11.42    2.62
   2   4  -8   10.59    2.13
  -2  -4   8    6.33    1.89
  -2  -4   8   11.16    2.45
  -2  -4   8    8.45    1.92
   2   4  -8    8.32    2.05
  -2  -4   8    8.41    1.91
   2   4  -8    8.26    2.01
   2   4  -7    1.73    1.60
  -2  -4   7    1.90    1.52
   2   4  -7    1.79    1.46
  -2  -4   7    4.92    1.79
  -2  -4   7    1.13    1.49
  -2  -4   7    0.97    1.63
   2   4  -7    0.26    1.54
   2   4  -7    6.35    1.98
  -2  -4   6   26.69    2.74
  -2  -4   6   26.39    2.51
   2   4  -6   27.01    2.71
  -2  -4   6   25.49    2.62
  -2  -4   6   28.65    2.71
   2   4  -6   27.45    2.54
   2   4  -6   28.63    2.78
   2   4  -6   24.30    2.75
  -2  -4   5  264.32    6.32
   2   4  -5  268.34    7.48
   2   4  -5  257.75    7.25
  -2  -4   5  254.85    6.97
  -2  -4   5  262.86    7.25
   2   4  -5  272.40    6.89
   2   4  -5  257.93    7.37
  -2  -4   5  262.13    7.47
  -2  -4   4  301.25    6.21
   2   4  -4  305.41    7.79
   2   4  -4  295.54    7.80
  -2  -4   4  295.61    7.56
  -2  -4   4  300.45    7.56
   2   4  -4  293.28    6.93
  -2  -4   4  305.26    7.88
   2   4  -4  306.51    7.72
  -2  -4   3    1.85    0.90
   2   4  -3    1.80    1.52
  -2  -4   3    3.42    1.57
  -2  -4   3    2.95    1.39
   2   4  -3    2.17    1.20
  -2  -4   3    4.63    1.93
   2   4  -3    1.57    1.42
   2   4  -2    5.26    1.73
  -2  -4   2   -0.57    0.80
  -2  -4   2   -0.52    2.08
  -2  -4   2    1.76    1.77
   2   4  -2    1.94    1.69
   2   4  -2    0.36    1.15
   2   4  -2    1.45    1.44
  -2  -4   1   29.87    1.41
   2   4  -1   31.49    2.89
  -2  -4   1   26.22    2.80
   2   4  -1   32.72    2.98
   2   4  -1   30.44    2.39
  -2  -4   1   28.11    2.63
  -2  -4   1   29.25    2.81
   2   4  -1   29.17    2.78
   2   4   0  919.54   13.62
  -2  -4   0  952.69   14.08
   2   4   0  928.09   13.68
   2   4   0  964.16   13.95
   2   4   0  958.29   12.00
  -2  -4   0  955.54   13.03
  -2  -4   0  975.46   13.91
   2   4   0  959.11   14.01
   2   4   1  466.34    9.72
   2   4   1  453.48    9.99
  -2  -4  -1  465.02   10.14
   2   4   1  460.32    9.79
   2   4   1  445.93    9.61
  -2  -4  -1  446.30    9.17
  -2  -4  -1  454.50    9.81
   2   4   2    9.08    2.11
   2   4   2    6.99    1.76
  -2  -4  -2    7.68    2.08
   2   4   2    7.41    1.83
  -2  -4  -2    5.81    1.71
   2   4   2    5.03    1.58
  -2  -4  -2   11.83    2.53
  -2  -4  -3    3.10    2.29
   2   4   3    3.15    2.04
   2   4   3    0.37    1.44
  -2  -4  -3    3.64    2.11
   2   4   3    1.68    1.56
  -2  -4  -3    2.35    1.91
   2   4   3   -0.27    1.45
   2   4   4   51.04    3.46
   2   4   4   48.68    3.85
  -2  -4  -4   41.64    3.63
   2   4   4   47.31    3.42
   2   4   4   49.63    3.74
  -2  -4  -4   45.37    3.60
  -2  -4  -4   48.53    3.55
   2   4   5   95.64    4.47
   2   4   5   95.11    5.34
   2   4   5   97.86    4.86
  -2  -4  -5   88.47    5.16
   2   4   5   96.13    5.05
  -2  -4  -5   89.67    4.92
  -2  -4  -5   94.36    4.97
   2   4   6   70.59    3.89
   2   4   6   73.30    4.97
   2   4   6   74.97    4.35
  -2  -4  -6   67.35    4.63
   2   4   6   72.69    4.58
  -2  -4  -6   72.76    4.54
  -2  -4  -6   74.35    4.63
   2   4   7   41.57    4.02
   2   4   7   46.05    3.54
  -2  -4  -7   36.28    3.76
   2   4   7   49.02    4.03
  -2  -4  -7   48.16    4.03
  -2  -4  -7   44.38    3.90
   2   4   8    0.02    1.91
  -2  -4  -8   -1.10    2.00
   2   4   8    1.68    1.78
  -2  -4  -8    0.22    2.00
  -2  -4  -9  158.33    7.48
   2   4   9  182.88    7.84
   2   4   9  170.81    8.10
  -2  -4  -9  173.51    8.34
  -2  -4  -9  186.32    7.42
   2   4  10   38.27    4.23
  -2  -4 -10   39.13    4.26
   2   4  10   41.07    4.04
  -2  -4 -10   47.53    4.82
  -2  -4 -11   -1.78    2.50
   2   4  11   -1.38    1.86
  -2  -4 -11    0.70    2.15
   2   4  11    1.67    2.00
  -2  -4 -12   45.53    4.53
  -2  -4 -12   37.32    4.92
   2   4  12   39.64    4.31
   2   4  12   45.17    4.99
  -2  -4 -13    3.96    2.82
   2   4  13    4.05    2.62
   2   4  13    2.22    2.37
  -2  -4 -14    7.60    3.20
   2   4  14    6.74    2.53
   2   5 -20    2.19    2.68
  -2  -5  20    2.27    2.46
   2   5 -19    4.63    2.86
  -2  -5  19    1.78    2.39
  -2  -5  19    2.36    3.51
   2   5 -18    0.46    2.28
  -2  -5  18    3.25    2.77
  -2  -5  17   82.77    5.90
  -2  -5  17   82.92    6.34
   2   5 -17   80.87    6.18
  -2  -5  17   86.39    7.17
   2   5 -16    3.66    2.47
  -2  -5  16    3.59    2.24
  -2  -5  16    7.24    3.69
  -2  -5  16    1.29    1.96
   2   5 -16    2.49    2.17
   2   5 -16    3.87    2.58
   2   5 -15   17.39    3.33
  -2  -5  15   13.71    2.85
  -2  -5  15   13.48    3.73
   2   5 -15   13.08    2.71
  -2  -5  15    9.56    2.35
   2   5 -15   13.75    2.98
  -2  -5  14  245.27    9.89
  -2  -5  14  242.09    8.06
   2   5 -14  250.66    8.94
  -2  -5  14  255.48    8.93
  -2  -5  14  239.78    9.43
   2   5 -14  235.41    9.17
   2   5 -14  257.74    9.70
  -2  -5  13    1.99    1.81
   2   5 -13    8.39    2.81
  -2  -5  13    3.36    2.77
  -2  -5  13    5.12    1.92
   2   5 -13    0.21    2.32
   2   5 -13    3.99    2.31
  -2  -5  13    2.99    1.79
  -2  -5  12  162.81    7.50
   2   5 -12  174.68    6.50
  -2  -5  12  174.46    6.67
   2   5 -12  157.97    7.39
  -2  -5  12  163.20    7.42
   2   5 -12  164.07    7.26
  -2  -5  12  171.90    7.10
   2   5 -12  164.51    7.37
  -2  -5  11  169.37    7.35
   2   5 -11  171.38    6.48
  -2  -5  11  182.55    7.12
  -2  -5  11  174.75    6.63
  -2  -5  11  179.11    7.50
   2   5 -11  168.71    7.27
   2   5 -11  168.84    7.15
   2   5 -11  188.62    7.60
  -2  -5  10  287.77    8.88
   2   5 -10  282.37    8.20
  -2  -5  10  280.14    8.58
  -2  -5  10  281.05    8.17
  -2  -5  10  294.98    9.17
   2   5 -10  276.57    8.91
   2   5 -10  289.33    9.01
   2   5 -10  287.64    9.02
  -2  -5   9  166.01    6.57
   2   5  -9  168.21    6.49
  -2  -5   9  164.53    6.31
  -2  -5   9  173.50    6.94
   2   5  -9  174.67    6.89
  -2  -5   9  171.46    6.72
   2   5  -9  170.48    6.77
   2   5  -9  171.87    6.89
  -2  -5   8  114.71    5.22
   2   5  -8  125.82    5.58
  -2  -5   8  112.60    5.23
   2   5  -8  117.72    5.68
   2   5  -8  120.99    5.69
  -2  -5   8  120.74    5.73
   2   5  -8  114.54    5.44
  -2  -5   8  118.65    5.53
   2   5  -7   -0.65    1.79
  -2  -5   7   -0.05    1.79
  -2  -5   7    1.59    1.55
   2   5  -7    0.60    1.69
  -2  -5   7    0.95    1.89
  -2  -5   7    1.95    1.91
   2   5  -7    1.63    1.59
   2   5  -7    0.02    1.67
  -2  -5   6  110.21    4.48
   2   5  -6  122.50    5.46
  -2  -5   6  115.38    5.33
  -2  -5   6  110.25    5.14
  -2  -5   6  112.12    5.22
   2   5  -6  104.64    4.82
   2   5  -6  114.97    5.29
   2   5  -6  117.97    5.45
   2   5  -5  137.56    5.78
  -2  -5   5  130.72    5.52
  -2  -5   5  134.43    5.58
   2   5  -5  138.71    5.39
  -2  -5   5  138.94    5.87
  -2  -5   5  138.69    4.59
   2   5  -5  145.47    5.88
  -2  -5   4   83.07    3.26
   2   5  -4   77.24    4.39
  -2  -5   4   75.82    4.28
  -2  -5   4   77.83    4.31
   2   5  -4   78.44    3.99
  -2  -5   4   77.39    4.37
   2   5  -4   68.00    4.12
  -2  -5   3   29.55    1.85
   2   5  -3   25.01    2.75
   2   5  -3   21.80    2.49
  -2  -5   3   25.07    2.80
   2   5  -3   30.00    2.65
  -2  -5   3   28.89    2.87
  -2  -5   3   22.76    2.68
  -2  -5   2   80.48    2.42
   2   5  -2   81.77    4.59
   2   5  -2   71.97    4.23
  -2  -5   2   76.85    4.47
   2   5  -2   74.40    3.89
  -2  -5   2   76.55    4.26
  -2  -5   2   72.20    4.37
  -2  -5   1   39.11    3.42
   2   5  -1   36.06    3.08
   2   5  -1   38.45    3.23
   2   5  -1   41.95    3.37
   2   5  -1   37.23    2.83
  -2  -5   1   38.70    3.20
   2   5  -1   41.58    3.40
  -2  -5   1   40.50    3.47
   2   5   0    1.48    1.57
  -2  -5   0    2.04    2.07
   2   5   0   -0.78    1.66
   2   5   0    0.77    1.72
  -2  -5   0    1.12    1.73
   2   5   0   -0.73    1.71
  -2  -5   0    1.72    1.58
   2   5   0    0.19    1.27
  -2  -5  -1   29.54    3.14
   2   5   1   20.84    2.49
   2   5   1   32.16    3.16
   2   5   1   29.19    2.92
   2   5   1   31.69    2.87
  -2  -5  -1   33.92    3.24
  -2  -5  -1   35.84    3.72
   2   5   2   34.71    3.16
   2   5   2   33.75    3.47
  -2  -5  -2   33.46    3.43
   2   5   2   34.93    3.16
   2   5   2   34.45    3.37
  -2  -5  -2   29.58    3.05
  -2  -5  -2   32.09    3.32
   2   5   3   43.60    3.44
   2   5   3   47.46    3.92
  -2  -5  -3   42.38    3.75
   2   5   3   40.33    3.31
   2   5   3   45.86    3.76
  -2  -5  -3   38.10    3.39
  -2  -5  -3   39.02    3.72
   2   5   4   55.51    3.85
   2   5   4   50.11    4.14
  -2  -5  -4   54.79    4.25
   2   5   4   52.33    3.74
   2   5   4   55.24    4.16
  -2  -5  -4   54.77    4.07
  -2  -5  -4   48.98    4.00
   2   5   5  550.64   11.31
   2   5   5  542.21   12.91
   2   5   5  560.34   11.75
  -2  -5  -5  540.79   12.56
   2   5   5  532.28   12.42
  -2  -5  -5  537.26   12.12
  -2  -5  -5  565.19   12.45
   2   5   6  545.11   11.13
   2   5   6  524.91   13.09
   2   5   6  551.20   11.68
  -2  -5  -6  541.60   12.84
   2   5   6  527.92   12.66
  -2  -5  -6  533.17   12.49
  -2  -5  -6  532.27   12.41
   2   5   7  188.04    8.24
   2   5   7  187.36    7.01
  -2  -5  -7  177.19    7.69
   2   5   7  173.83    7.57
  -2  -5  -7  183.96    7.82
  -2  -5  -7  182.08    7.57
   2   5   8    2.83    2.37
  -2  -5  -8    1.16    2.06
   2   5   8    1.25    1.97
  -2  -5  -8   -1.15    2.13
  -2  -5  -8    5.79    2.69
   2   5   9  165.76    8.22
  -2  -5  -9  154.18    7.68
   2   5   9  157.70    7.74
  -2  -5  -9  155.65    7.81
  -2  -5  -9  157.96    7.36
   2   5  10   63.06    5.47
  -2  -5 -10   65.72    5.25
   2   5  10   68.53    5.56
  -2  -5 -10   61.92    5.66
  -2  -5 -11    6.76    2.96
   2   5  11   11.92    2.96
   2   5  11   10.49    2.79
  -2  -5 -12   10.25    3.49
   2   5  12   15.29    3.31
   2   5  12   15.55    3.49
  -2  -5 -13   31.25    4.95
   2   5  13   30.87    4.46
   2   5  13   31.18    4.51
   2   6 -20    3.68    2.70
   2   6 -20    4.43    3.13
   2   6 -19   19.60    3.98
  -2  -6  19   20.65    3.79
   2   6 -19   24.54    4.45
   2   6 -18   33.79    4.49
  -2  -6  18   36.95    4.57
  -2  -6  18   33.97    4.22
   2   6 -18   34.27    4.75
   2   6 -17    0.06    2.44
  -2  -6  17    1.64    2.47
  -2  -6  17    5.26    3.43
  -2  -6  17    0.13    1.91
   2   6 -17    1.93    2.53
  -2  -6  17    2.58    2.62
   2   6 -17    3.13    2.67
   2   6 -16    1.50    2.20
  -2  -6  16    0.58    2.06
  -2  -6  16    4.65    3.30
  -2  -6  16    2.79    2.28
   2   6 -16    5.80    2.92
  -2  -6  15   71.10    6.14
  -2  -6  15   64.37    5.26
  -2  -6  15   70.72    4.85
  -2  -6  15   78.44    5.83
  -2  -6  15   64.27    4.84
   2   6 -15   70.90    5.66
   2   6 -15   64.77    5.43
  -2  -6  14   -2.55    2.37
   2   6 -14    0.75    2.32
  -2  -6  14    1.88    2.87
  -2  -6  14    0.53    1.96
  -2  -6  14    0.86    2.40
   2   6 -14    1.09    2.43
  -2  -6  14   -0.04    1.86
   2   6 -14   -1.55    2.16
  -2  -6  13   63.35    5.23
  -2  -6  13   62.93    4.56
  -2  -6  13   64.18    5.10
   2   6 -13   56.95    4.97
   2   6 -13   63.84    5.01
  -2  -6  13   58.78    4.89
  -2  -6  13   61.70    4.59
   2   6 -13   56.67    4.83
   2   6 -12   12.13    2.91
   2   6 -12   12.29    2.28
  -2  -6  12   10.39    2.42
  -2  -6  12   13.68    2.61
   2   6 -12   10.21    2.60
  -2  -6  12   18.63    3.33
  -2  -6  12   15.18    2.54
   2   6 -12   16.43    3.00
   2   6 -11    2.02    2.19
  -2  -6  11    9.63    2.84
   2   6 -11    5.54    2.34
   2   6 -11    4.77    1.92
  -2  -6  11    5.34    2.03
  -2  -6  11    5.95    2.47
   2   6 -11    3.03    2.13
  -2  -6  11    3.30    2.11
  -2  -6  10   55.81    4.37
   2   6 -10   60.94    4.58
   2   6 -10   56.60    4.11
  -2  -6  10   57.39    4.34
  -2  -6  10   57.97    4.45
   2   6 -10   53.25    4.31
  -2  -6  10   58.85    4.34
   2   6 -10   57.47    4.53
   2   6  -9    2.55    2.27
   2   6  -9    2.66    1.92
  -2  -6   9    1.92    2.00
  -2  -6   9    1.42    1.77
  -2  -6   9    1.97    1.93
   2   6  -9    3.36    1.98
  -2  -6   9    0.98    1.83
   2   6  -9   -0.06    1.95
   2   6  -8   11.28    2.43
  -2  -6   8    8.70    1.98
  -2  -6   8   18.14    2.87
   2   6  -8   13.47    2.55
  -2  -6   8   12.31    2.66
  -2  -6   8   11.94    2.57
   2   6  -8   11.19    2.30
   2   6  -8   12.19    2.53
  -2  -6   7   10.54    2.03
   2   6  -7   11.20    2.45
  -2  -6   7   16.56    2.95
  -2  -6   7    7.46    2.27
   2   6  -7    4.35    1.68
   2   6  -7    7.79    2.22
  -2  -6   7   10.71    2.55
  -2  -6   6  634.04   10.45
   2   6  -6  627.22   12.80
  -2  -6   6  627.77   12.56
  -2  -6   6  668.29   13.13
   2   6  -6  658.43   12.46
  -2  -6   6  649.03   12.91
   2   6  -6  656.79   13.17
  -2  -6   5 1688.91   15.49
   2   6  -5 1677.71   20.75
  -2  -6   5 1663.44   20.18
  -2  -6   5 1716.86   20.55
   2   6  -5 1691.26   19.46
  -2  -6   5 1677.76   20.61
   2   6  -5 1664.53   20.69
  -2  -6   4   42.09    2.40
   2   6  -4   41.95    3.77
   2   6  -4   33.72    3.29
  -2  -6   4   34.27    3.39
  -2  -6   4   34.80    3.26
   2   6  -4   36.81    3.10
  -2  -6   4   35.58    3.51
   2   6  -3   46.79    3.82
  -2  -6   3   41.74    3.66
   2   6  -3   48.10    3.49
  -2  -6   3   44.36    3.69
  -2  -6   3   47.67    4.00
   2   6  -3   47.86    3.85
   2   6  -2   33.57    3.41
   2   6  -2   32.18    3.20
  -2  -6   2   31.35    3.33
   2   6  -2   37.08    3.15
  -2  -6   2   37.68    3.39
  -2  -6   2   33.43    3.65
  -2  -6   1    4.71    2.56
   2   6  -1    1.13    1.83
  -2  -6   1    5.12    2.06
   2   6  -1    2.16    1.72
  -2  -6   1    3.00    1.81
   2   6  -1    2.27    1.63
   2   6  -1    2.26    1.94
   2   6  -1    2.21    1.55
  -2  -6   0  422.39   10.72
   2   6   0  413.08   10.44
   2   6   0  432.48   10.76
   2   6   0  431.50    9.86
  -2  -6   0  421.54   10.45
  -2  -6   0  421.72   10.72
   2   6   0  451.94   11.05
   2   6   0  422.85   10.28
   2   6   1  685.81   13.36
  -2  -6  -1  702.00   13.87
   2   6   1  699.31   13.84
   2   6   1  703.53   13.24
   2   6   1  713.70   12.71
  -2  -6  -1  698.65   13.43
  -2  -6  -1  705.04   13.92
  -2  -6  -2    1.36    2.47
   2   6   2   -1.35    2.02
  -2  -6  -2    0.37    2.11
   2   6   2   -0.67    1.76
  -2  -6  -2    0.29    1.94
   2   6   2    0.36    1.46
   2   6   3  134.15    6.03
   2   6   3  150.02    6.97
  -2  -6  -3  147.28    6.71
   2   6   3  150.45    6.22
   2   6   3  143.74    6.69
  -2  -6  -3  147.15    6.58
  -2  -6  -3  148.25    6.90
   2   6   4    2.89    2.03
   2   6   4    4.71    1.87
  -2  -6  -4    3.72    2.26
   2   6   4    3.65    2.26
  -2  -6  -4    5.87    2.42
   2   6   4    0.14    1.70
  -2  -6  -4    4.68    2.97
   2   6   5    5.68    2.26
   2   6   5    6.02    2.14
  -2  -6  -5    5.00    2.06
   2   6   5    4.89    2.24
  -2  -6  -5    3.19    2.30
   2   6   5    3.14    1.50
  -2  -6  -5    5.32    2.68
   2   6   6  354.98    9.70
   2   6   6  352.08   11.34
   2   6   6  359.28    9.74
  -2  -6  -6  335.06   10.68
   2   6   6  341.84   10.95
  -2  -6  -6  347.55   10.88
  -2  -6  -6  344.00   10.62
   2   6   7    5.89    2.41
  -2  -6  -7    6.95    2.64
   2   6   7   11.62    2.66
  -2  -6  -7    9.16    2.53
  -2  -6  -7   12.69    3.25
  -2  -6  -8    9.49    3.27
   2   6   8    6.32    2.55
  -2  -6  -8    1.91    2.05
   2   6   8    2.97    2.19
  -2  -6  -8    5.09    2.41
   2   6   9   -0.30    2.03
  -2  -6  -9    1.08    1.89
   2   6   9   -0.48    2.01
  -2  -6  -9    2.25    2.49
  -2  -6  -9    3.20    2.75
  -2  -6 -10    3.16    2.99
   2   6  10    6.09    2.63
   2   6  10   -0.47    2.57
  -2  -6 -11   10.71    3.33
   2   6  11    6.97    2.62
   2   6  11    8.59    3.22
  -2  -6 -12   34.96    5.04
   2   6  12   40.21    4.89
   2   6  12   39.59    4.79
   2   6  13    3.13    2.63
   2   7 -19   -2.81    2.67
  -2  -7  19    1.27    2.40
  -2  -7  19    4.85    2.88
  -2  -7  19   -0.76    2.91
   2   7 -19   -0.96    2.77
   2   7 -18   -0.15    2.58
  -2  -7  18    1.21    2.55
  -2  -7  18    4.19    3.62
  -2  -7  18    0.31    2.33
  -2  -7  18    1.51    2.52
   2   7 -18    2.95    2.76
  -2  -7  17  132.93    8.63
  -2  -7  17  131.29    8.22
  -2  -7  17  120.43    7.58
   2   7 -17  119.79    7.88
   2   7 -17  125.71    7.65
   2   7 -16   38.88    4.62
  -2  -7  16   44.20    4.96
  -2  -7  16   44.67    4.76
   2   7 -16   45.54    4.94
  -2  -7  16   58.58    6.02
  -2  -7  15   -0.31    2.08
   2   7 -15    3.66    2.77
  -2  -7  15    4.88    3.35
  -2  -7  15    2.75    2.13
  -2  -7  15    1.21    2.27
   2   7 -15    0.70    2.00
   2   7 -15    2.66    2.16
   2   7 -14   18.88    3.37
  -2  -7  14   25.21    4.09
  -2  -7  14   20.67    3.25
  -2  -7  14   21.29    3.60
   2   7 -14   14.97    3.35
  -2  -7  14   15.23    2.96
  -2  -7  14   20.40    3.10
   2   7 -14   20.54    3.56
   2   7 -13   12.97    2.84
   2   7 -13   12.88    2.57
  -2  -7  13   10.91    2.75
  -2  -7  13   13.96    3.00
   2   7 -13   11.36    2.86
  -2  -7  13   15.14    3.47
  -2  -7  13   10.20    2.68
   2   7 -13    9.24    2.88
  -2  -7  12  124.96    6.83
   2   7 -12  134.31    6.45
  -2  -7  12  133.51    6.72
  -2  -7  12  134.81    6.69
  -2  -7  12  129.26    7.00
   2   7 -12  130.61    7.12
   2   7 -12  123.44    7.06
   2   7 -12  140.09    7.08
  -2  -7  11   82.59    5.44
   2   7 -11   77.21    4.91
   2   7 -11   75.89    5.50
  -2  -7  11   78.94    5.31
  -2  -7  11   71.02    5.26
   2   7 -11   73.30    5.35
  -2  -7  11   77.72    5.13
   2   7 -11   69.81    5.07
   2   7 -10   -0.32    2.07
  -2  -7  10    2.62    2.26
  -2  -7  10    3.79    2.41
   2   7 -10    0.26    1.93
  -2  -7  10    1.02    2.08
  -2  -7  10    0.70    2.25
   2   7 -10    1.46    1.96
   2   7 -10    1.14    2.16
  -2  -7   9   54.17    4.06
   2   7  -9   49.79    4.21
   2   7  -9   46.68    4.22
  -2  -7   9   53.07    4.34
  -2  -7   9   55.34    4.64
   2   7  -9   46.70    4.15
  -2  -7   9   51.34    4.38
  -2  -7   8  461.82   10.13
   2   7  -8  441.46   11.36
  -2  -7   8  431.54   11.16
  -2  -7   8  465.69   11.85
   2   7  -8  442.04   11.30
  -2  -7   8  436.77   11.19
   2   7  -8  439.25   11.69
  -2  -7   7   22.93    2.55
   2   7  -7   15.03    2.71
  -2  -7   7   20.82    3.21
  -2  -7   7   14.47    2.70
   2   7  -7   18.39    2.87
   2   7  -7   17.88    2.87
  -2  -7   7    8.82    2.34
  -2  -7   6  670.88   10.68
   2   7  -6  650.36   13.83
  -2  -7   6  647.94   13.54
  -2  -7   6  652.21   13.68
   2   7  -6  644.60   13.02
  -2  -7   6  668.67   13.75
   2   7  -6  667.69   14.02
   2   7  -5  221.66    8.21
  -2  -7   5  227.36    8.21
  -2  -7   5  222.62    8.05
   2   7  -5  223.85    7.71
  -2  -7   5  217.23    8.08
   2   7  -5  228.03    8.25
   2   7  -4  155.21    6.84
  -2  -7   4  158.21    6.89
   2   7  -4  158.20    6.96
  -2  -7   4  149.75    6.72
   2   7  -4  151.83    6.34
  -2  -7   4  158.43    6.90
   2   7  -3  179.00    7.36
  -2  -7   3  173.99    7.25
   2   7  -3  184.96    6.94
  -2  -7   3  193.55    7.50
  -2  -7   3  186.03    7.61
   2   7  -3  184.29    7.40
   2   7  -2   56.39    4.32
  -2  -7   2   50.61    4.12
   2   7  -2   56.43    4.24
   2   7  -2   57.25    4.09
  -2  -7   2   53.60    4.20
  -2  -7   2   52.44    4.53
   2   7  -2   49.60    4.06
  -2  -7   1    8.53    3.19
   2   7  -1   -0.68    2.34
  -2  -7   1   -0.43    1.90
   2   7  -1    1.30    1.92
  -2  -7   1    0.40    1.98
   2   7  -1    3.44    1.77
   2   7  -1    0.57    1.83
   2   7  -1   -0.15    1.77
  -2  -7   0   -1.17    2.82
   2   7   0    0.03    2.04
  -2  -7   0   -6.21    2.90
   2   7   0   -0.91    1.82
  -2  -7   0    1.02    1.93
   2   7   0    1.14    1.83
   2   7   0    1.12    2.21
   2   7   0    0.33    1.57
  -2  -7  -1    2.11    2.81
   2   7   1   -5.79    2.63
  -2  -7  -1    3.59    2.40
   2   7   1    0.62    1.86
  -2  -7  -1   -1.45    1.92
   2   7   1    1.29    1.67
   2   7   1   -0.18    1.57
   2   7   2  296.13    9.44
  -2  -7  -2  306.68    9.98
   2   7   2  305.01    9.17
   2   7   2  312.20   10.05
  -2  -7  -2  303.16    9.83
  -2  -7  -2  303.40   10.09
   2   7   3   89.87    5.38
  -2  -7  -3   90.53    5.65
   2   7   3   93.98    5.26
   2   7   3   84.32    5.61
  -2  -7  -3   85.32    5.57
  -2  -7  -3   88.65    5.99
   2   7   4   -5.18    2.38
  -2  -7  -4   -0.64    2.18
   2   7   4    0.69    1.78
  -2  -7  -4    1.14    2.23
   2   7   4    0.30    1.49
  -2  -7  -4   -1.80    2.68
  -2  -7  -5   24.76    4.08
   2   7   5   19.72    3.29
   2   7   5   19.90    2.99
  -2  -7  -5   15.60    3.07
   2   7   5   18.66    3.11
  -2  -7  -5   15.19    2.98
   2   7   5   18.93    2.76
   2   7   6    3.94    2.36
  -2  -7  -6    4.81    2.41
   2   7   6   -0.59    2.09
  -2  -7  -6   -0.62    2.25
  -2  -7  -6    4.93    3.10
   2   7   7    2.82    2.25
  -2  -7  -7   -2.00    2.00
   2   7   7    0.94    2.03
  -2  -7  -7   -1.46    2.42
   2   7   8   39.21    4.59
  -2  -7  -8   45.86    4.59
   2   7   8   39.12    4.51
  -2  -7  -8   35.93    4.49
  -2  -7  -8   43.56    5.08
   2   7   9   20.42    3.75
   2   7   9   23.70    4.06
  -2  -7  -9   16.95    3.71
  -2  -7  -9   24.48    4.20
  -2  -7 -10   -2.74    2.98
   2   7  10    2.82    2.55
   2   7  10   -3.21    2.41
  -2  -7 -11   16.97    4.17
   2   7  11   14.16    3.07
   2   7  11   16.45    3.67
   2   8 -19    1.72    2.65
  -2  -8  19    0.99    2.22
   2   8 -19   -0.41    2.65
  -2  -8  18  187.69   10.37
  -2  -8  18  183.22    9.84
   2   8 -18  183.60   10.05
  -2  -8  18  200.22   10.38
  -2  -8  18  198.66    9.89
   2   8 -18  196.89    9.71
   2   8 -17   20.71    3.97
  -2  -8  17   23.27    4.08
  -2  -8  17   21.68    4.17
  -2  -8  17   22.14    4.17
   2   8 -17   21.86    4.16
  -2  -8  16  130.92    8.28
  -2  -8  16  118.06    7.02
   2   8 -16  123.98    7.51
  -2  -8  16  127.77    8.06
   2   8 -16  113.86    7.80
  -2  -8  16  108.17    7.12
   2   8 -16  117.43    7.83
  -2  -8  15  207.58    9.69
   2   8 -15  219.75    9.62
  -2  -8  15  212.15    9.15
  -2  -8  15  219.88   10.16
   2   8 -15  205.83   10.05
  -2  -8  15  210.88    9.64
   2   8 -15  205.61    9.92
   2   8 -14   -1.65    2.55
  -2  -8  14    4.48    2.96
  -2  -8  14    1.71    2.35
  -2  -8  14    3.49    2.65
   2   8 -14   -1.20    2.08
  -2  -8  14    0.89    2.21
   2   8 -14    0.01    2.26
  -2  -8  13   39.74    4.42
   2   8 -13   41.84    4.00
  -2  -8  13   38.54    4.22
   2   8 -13   41.19    4.68
  -2  -8  13   40.81    4.49
  -2  -8  13   44.52    4.29
   2   8 -13   39.48    4.56
   2   8 -13   43.85    4.52
  -2  -8  12   13.53    3.07
   2   8 -12   11.69    2.49
  -2  -8  12    4.24    2.43
  -2  -8  12   10.58    2.93
  -2  -8  12   11.95    3.18
   2   8 -12   10.68    2.79
   2   8 -12    4.80    2.58
   2   8 -12    7.12    2.38
  -2  -8  11   31.42    3.67
   2   8 -11   33.90    3.70
  -2  -8  11   29.31    3.72
  -2  -8  11   34.04    4.18
   2   8 -11   31.84    4.14
   2   8 -11   34.50    4.09
  -2  -8  11   30.48    3.62
  -2  -8  10   12.57    2.71
   2   8 -10    7.55    2.33
  -2  -8  10    9.71    2.64
  -2  -8  10   11.90    3.12
   2   8 -10   10.43    2.69
  -2  -8  10    4.48    2.32
   2   8 -10   13.08    3.19
  -2  -8   9   -0.05    1.69
   2   8  -9   -2.79    2.76
  -2  -8   9   -2.63    2.14
  -2  -8   9   -1.89    2.37
   2   8  -9   -0.03    1.86
  -2  -8   9   -3.72    2.91
   2   8  -9    0.36    2.21
  -2  -8   8    3.83    1.84
   2   8  -8    0.36    2.14
  -2  -8   8   -0.63    2.28
  -2  -8   8    0.72    2.24
   2   8  -8    2.45    2.05
   2   8  -8    1.08    2.31
  -2  -8   8    0.12    2.60
   2   8  -7   -3.96    2.65
  -2  -8   7    3.71    2.67
  -2  -8   7   -1.45    2.54
  -2  -8   7    5.63    2.65
   2   8  -7   -0.30    2.02
   2   8  -7    1.42    2.09
  -2  -8   6   10.68    2.91
   2   8  -6    7.62    2.55
  -2  -8   6    7.22    2.57
  -2  -8   6    8.63    2.51
   2   8  -6    7.88    2.29
   2   8  -6    6.42    2.44
   2   8  -5  194.26    8.17
  -2  -8   5  200.09    8.26
  -2  -8   5  202.25    8.20
   2   8  -5  209.11    7.95
  -2  -8   5  218.54    8.55
   2   8  -5  206.06    8.35
  -2  -8   4    5.40    2.68
   2   8  -4    0.13    2.45
  -2  -8   4    1.78    2.55
  -2  -8   4    2.36    2.37
   2   8  -4   -0.22    1.72
   2   8  -4   -4.59    2.69
   2   8  -3  116.82    6.33
  -2  -8   3  115.15    6.36
  -2  -8   3  132.50    6.96
  -2  -8   3  125.53    6.60
   2   8  -3  123.25    6.15
   2   8  -3  111.00    6.16
   2   8  -2    1.71    1.77
   2   8  -2    1.72    2.23
  -2  -8   2    4.09    2.24
   2   8  -2   -1.39    2.16
  -2  -8   2    4.45    2.40
   2   8  -2    2.41    1.82
   2   8  -2    0.84    2.31
   2   8  -1  142.35    7.07
  -2  -8   1  137.27    6.97
   2   8  -1  146.28    7.23
   2   8  -1  155.58    7.00
   2   8  -1  157.68    6.95
  -2  -8   1  145.67    7.15
  -2  -8   1  137.76    7.23
   2   8  -1  152.49    7.34
   2   8   0   17.19    2.71
   2   8   0   16.22    3.00
  -2  -8   0   15.42    3.08
   2   8   0   15.63    2.92
  -2  -8   0   21.09    3.52
   2   8   0   21.70    3.05
  -2  -8   0   19.10    3.73
   2   8   1   42.70    4.09
  -2  -8  -1   40.07    4.26
   2   8   1   44.21    4.41
   2   8   1   48.24    4.07
   2   8   1   44.75    4.02
  -2  -8  -1   52.12    4.76
  -2  -8  -1   48.91    4.82
  -2  -8  -2    6.11    3.34
   2   8   2    5.20    2.00
   2   8   2    5.14    2.00
  -2  -8  -2    4.81    2.24
   2   8   2    8.40    2.47
   2   8   2    8.48    2.54
  -2  -8  -2   10.45    2.76
   2   8   3   32.46    3.57
   2   8   3   35.85    3.53
   2   8   3   35.57    4.23
  -2  -8  -3   31.48    3.95
  -2  -8  -3   46.48    4.71
  -2  -8  -3   45.08    5.10
  -2  -8  -4   68.44    5.38
  -2  -8  -4   61.05    5.77
   2   8   4   63.25    5.40
  -2  -8  -4   62.41    5.51
   2   8   4   59.35    4.60
  -2  -8  -5    2.36    2.93
   2   8   5    4.47    1.93
  -2  -8  -5    1.67    2.46
   2   8   5    2.37    2.12
  -2  -8  -5    1.97    2.36
  -2  -8  -6   34.64    4.89
  -2  -8  -6   42.60    4.52
   2   8   6   40.83    4.86
  -2  -8  -6   36.08    4.64
  -2  -8  -7    5.22    2.88
   2   8   7    1.35    2.38
  -2  -8  -7   -4.11    3.01
  -2  -8  -7    5.29    3.60
   2   8   8    2.12    2.57
  -2  -8  -8    0.73    2.65
  -2  -8  -8    3.56    3.01
   2   8   9    0.65    2.25
  -2  -8  -9    5.04    3.12
  -2  -8  -9    2.55    2.93
  -2  -8 -10   -4.17    3.09
   2   8  10    2.15    2.84
   2   9 -19    5.27    3.08
   2   9 -18   30.20    4.41
  -2  -9  18   35.42    4.63
  -2  -9  18   35.56    5.26
   2   9 -18   29.89    4.60
   2   9 -17    1.32    2.42
  -2  -9  17   -3.82    2.53
   2   9 -17    2.32    2.87
  -2  -9  17   -1.22    2.53
  -2  -9  17   -2.99    3.01
  -2  -9  17    6.02    3.63
   2   9 -17   -0.65    2.39
   2   9 -16   28.73    4.41
  -2  -9  16   29.91    4.19
  -2  -9  16   23.95    3.87
  -2  -9  16   24.07    4.18
   2   9 -16   24.94    4.21
  -2  -9  16   22.88    4.09
   2   9 -16   28.36    4.62
  -2  -9  15    0.96    2.61
  -2  -9  15    0.90    2.37
  -2  -9  15    2.80    2.97
   2   9 -15   -1.29    2.56
   2   9 -15    0.55    2.29
   2   9 -15   -2.18    2.42
  -2  -9  14   12.04    3.23
  -2  -9  14    6.95    2.39
  -2  -9  14   15.77    3.32
  -2  -9  14   11.97    3.18
   2   9 -14   12.19    3.32
   2   9 -14   12.17    3.23
  -2  -9  13   17.27    3.37
   2   9 -13   18.66    3.23
  -2  -9  13   17.10    3.33
  -2  -9  13   22.77    3.83
   2   9 -13   19.57    3.64
  -2  -9  13   17.99    3.33
   2   9 -13   17.23    3.43
  -2  -9  12   49.45    4.57
   2   9 -12   56.51    4.79
  -2  -9  12   53.72    4.97
  -2  -9  12   58.09    5.41
   2   9 -12   49.11    5.02
  -2  -9  12   51.51    4.82
   2   9 -12   45.23    4.73
  -2  -9  11  227.99    8.64
   2   9 -11  220.34    9.06
  -2  -9  11  213.02    9.18
  -2  -9  11  220.20    9.54
   2   9 -11  228.37    9.59
  -2  -9  11  221.79    9.04
   2   9 -11  214.28    9.62
  -2  -9  10   15.91    2.69
   2   9 -10   17.80    3.18
  -2  -9  10   21.15    3.61
  -2  -9  10   18.57    3.34
   2   9 -10   21.39    3.43
  -2  -9  10   18.70    3.23
   2   9 -10   21.66    3.60
   2   9  -9   -1.34    2.52
  -2  -9   9   -1.51    2.58
  -2  -9   9   -1.43    2.30
   2   9  -9    1.27    2.18
   2   9  -9    0.78    2.25
  -2  -9   9    0.52    2.45
   2   9  -8   15.17    2.90
  -2  -9   8   11.67    3.02
  -2  -9   8   16.90    3.28
   2   9  -8   14.69    2.81
  -2  -9   8   16.90    3.21
   2   9  -8   17.75    3.44
   2   9  -7    2.33    2.59
  -2  -9   7   11.32    3.39
  -2  -9   7    7.17    2.59
  -2  -9   7    8.17    2.84
   2   9  -7    8.94    2.57
   2   9  -7    8.22    2.51
   2   9  -6   88.78    5.90
  -2  -9   6   94.37    6.24
  -2  -9   6   96.98    6.22
   2   9  -6   97.96    6.01
  -2  -9   6  106.90    6.58
   2   9  -6   89.81    6.07
   2   9  -5   49.17    4.45
  -2  -9   5   54.68    5.15
  -2  -9   5   56.60    4.98
   2   9  -5   53.76    4.48
  -2  -9   5   55.95    5.19
   2   9  -5   51.12    4.69
   2   9  -4   -2.12    2.73
  -2  -9   4    1.03    2.47
  -2  -9   4   -0.65    2.33
   2   9  -4   -0.54    2.23
   2   9  -4    1.78    2.29
   2   9  -3   -1.50    2.79
  -2  -9   3    4.48    2.80
  -2  -9   3    7.46    2.57
   2   9  -3    2.72    2.03
  -2  -9   3    0.20    3.18
   2   9  -3    2.66    2.02
   2   9  -2   72.50    5.42
   2   9  -2   70.85    5.41
  -2  -9   2   69.80    5.43
   2   9  -2   74.40    5.47
   2   9  -2   70.96    5.17
  -2  -9   2   78.33    5.74
   2   9  -2   73.91    5.27
  -2  -9   2   72.09    5.63
   2   9  -1   72.81    5.50
   2   9  -1   68.01    5.34
  -2  -9   1   63.10    5.24
   2   9  -1   68.78    5.39
   2   9  -1   69.52    5.08
   2   9  -1   65.60    4.96
  -2  -9   1   68.17    5.37
  -2  -9   1   76.91    6.07
   2   9   0    0.73    2.44
  -2  -9   0   -3.10    2.63
   2   9   0   -0.95    2.18
  -2  -9   0    2.23    2.44
   2   9   0    0.05    2.00
  -2  -9   0   -0.62    3.16
   2   9   0    2.18    2.01
  -2  -9  -1   13.08    3.85
   2   9   1    5.05    2.13
   2   9   1    2.55    2.28
  -2  -9  -1    5.60    2.48
   2   9   1    9.59    2.80
  -2  -9  -1    3.10    2.47
   2   9   1    6.24    2.58
  -2  -9  -2   -0.42    3.13
   2   9   2   -3.94    2.77
  -2  -9  -2   -1.25    2.62
   2   9   2   -1.30    2.14
  -2  -9  -2   -0.92    2.26
   2   9   2    1.20    2.21
   2   9   2   -0.59    1.55
   2   9   3   -2.00    2.53
  -2  -9  -3   -2.58    2.41
   2   9   3   -0.21    2.07
   2   9   3    0.81    1.99
  -2  -9  -3    0.21    2.48
  -2  -9  -3    1.54    2.95
  -2  -9  -4   46.10    4.71
   2   9   4   49.97    4.62
   2   9   4   54.20    5.33
  -2  -9  -4   51.17    5.40
  -2  -9  -4   48.64    5.58
   2   9   5   32.11    4.44
  -2  -9  -5   21.90    3.77
  -2  -9  -5   30.63    4.62
  -2  -9  -5   29.81    4.92
  -2  -9  -6   15.61    3.29
   2   9   6   24.31    4.00
  -2  -9  -6   20.92    4.12
  -2  -9  -6   27.64    4.70
   2   9   7    8.70    3.21
  -2  -9  -7    1.21    2.60
  -2  -9  -7   10.64    3.98
   2   9   8   32.83    4.63
  -2  -9  -8   26.17    4.45
  -2  -9  -8   35.79    5.18
  -2  -9  -9   -2.92    3.32
  -2 -10  17   29.42    4.28
  -2 -10  17   32.86    4.77
  -2 -10  17   29.43    4.33
  -2 -10  17   36.03    5.02
   2  10 -17   28.74    4.65
  -2 -10  16  127.50    8.14
  -2 -10  16  124.72    7.92
  -2 -10  16  137.01    8.61
   2  10 -16  134.76    8.85
   2  10 -16  133.25    8.64
  -2 -10  15   16.38    3.60
  -2 -10  15   16.78    3.72
  -2 -10  15   18.60    3.93
   2  10 -15    8.63    3.11
   2  10 -15   13.75    3.81
  -2 -10  14   45.39    4.89
   2  10 -14   51.29    4.92
  -2 -10  14   45.83    4.99
  -2 -10  14   47.12    5.24
   2  10 -14   36.29    4.83
   2  10 -14   44.70    5.33
  -2 -10  13   48.56    4.71
   2  10 -13   50.74    4.88
  -2 -10  13   48.30    5.23
  -2 -10  13   52.65    5.50
   2  10 -13   47.52    5.10
  -2 -10  13   47.59    4.94
   2  10 -13   41.71    5.30
   2  10 -12    0.62    1.99
  -2 -10  12    2.10    2.75
  -2 -10  12   -2.22    2.93
   2  10 -12    2.02    2.37
  -2 -10  12    1.13    2.45
   2  10 -12   -0.10    2.83
   2  10 -11   -3.67    2.77
  -2 -10  11    1.78    2.29
  -2 -10  11    0.77    2.68
   2  10 -11    6.95    3.08
  -2 -10  11    0.79    2.56
   2  10 -11   -0.07    2.57
   2  10 -10    3.97    2.69
  -2 -10  10    7.23    3.07
  -2 -10  10    9.00    2.89
   2  10 -10    5.14    2.80
  -2 -10  10    9.24    3.22
   2  10 -10   11.86    3.57
   2  10  -9    1.29    2.55
  -2 -10   9   14.15    3.61
  -2 -10   9   12.42    3.41
  -2 -10   9    9.99    2.82
   2  10  -9    7.37    2.59
   2  10  -9    7.96    3.01
   2  10  -8    3.44    2.36
  -2 -10   8    0.33    2.90
  -2 -10   8    2.41    2.47
   2  10  -8    1.55    1.94
  -2 -10   8    8.88    3.57
   2  10  -8    2.68    2.43
  -2 -10   7    3.03    3.02
   2  10  -7   -1.40    2.70
  -2 -10   7   -0.19    2.88
  -2 -10   7    0.22    2.45
   2  10  -7    1.52    2.20
   2  10  -7    0.56    2.16
   2  10  -6   16.43    3.21
  -2 -10   6   15.96    3.42
  -2 -10   6   24.95    3.94
   2  10  -6   20.07    3.36
   2  10  -6   23.83    3.76
  -2 -10   5    0.01    2.92
   2  10  -5    1.40    2.59
  -2 -10   5    6.99    3.12
  -2 -10   5    1.87    2.47
   2  10  -5    4.65    2.55
   2  10  -5    1.44    2.19
   2  10  -4  102.62    6.72
   2  10  -4  125.96    7.39
  -2 -10   4  104.06    6.82
  -2 -10   4   98.98    6.68
   2  10  -4  107.89    6.54
  -2 -10   4  109.49    7.16
  -2 -10   3    9.45    3.31
   2  10  -3   -0.72    3.01
  -2 -10   3   10.76    3.37
  -2 -10   3    8.08    2.95
   2  10  -3    9.96    2.77
   2  10  -3   10.49    2.92
   2  10  -3   10.81    2.65
  -2 -10   2   -1.50    3.39
   2  10  -2   -1.89    2.75
  -2 -10   2    2.22    2.74
  -2 -10   2   -5.79    3.05
   2  10  -2   -0.35    2.09
   2  10  -2   -2.22    2.39
   2  10  -2    2.04    1.97
   2  10  -1   -2.58    2.84
  -2 -10   1    3.08    2.43
   2  10  -1    2.12    2.22
  -2 -10   1    0.77    2.73
   2  10  -1    4.19    2.31
  -2 -10   1    0.92    3.04
   2  10  -1   -0.01    1.63
   2  10   0   20.82    3.46
   2  10   0   21.55    3.26
  -2 -10   0   20.06    3.64
   2  10   0   17.35    3.34
  -2 -10   0   21.94    3.85
   2  10   0   26.57    3.81
  -2 -10   0   28.79    4.67
   2  10   1   -1.21    2.68
  -2 -10  -1    0.61    2.46
   2  10   1    1.30    2.41
  -2 -10  -1   -1.98    2.75
   2  10   1    2.93    2.41
   2  10   1    0.83    1.74
  -2 -10  -1    1.70    3.18
   2  10   2   -0.08    2.53
  -2 -10  -2   -2.63    2.82
   2  10   2   -0.70    2.38
  -2 -10  -2    1.25    2.59
   2  10   2    3.25    2.33
  -2 -10  -2   -0.82    3.17
  -2 -10  -3    3.98    3.54
   2  10   3   -1.21    2.67
  -2 -10  -3   -0.01    2.54
   2  10   3   -0.71    2.16
  -2 -10  -3    1.03    2.74
   2  10   3    4.17    2.76
  -2 -10  -4    8.99    3.95
   2  10   4    5.60    2.22
  -2 -10  -4    8.32    3.04
   2  10   4   13.59    3.59
   2  10   4   11.12    3.28
  -2 -10  -4   12.79    3.51
  -2 -10  -5   17.08    3.62
   2  10   5   16.45    3.51
  -2 -10  -5   17.34    3.88
   2  10   6  233.92   11.24
  -2 -10  -6  217.42   11.31
  -2 -10  -6  225.03   11.40
  -2 -10  -7   21.78    4.66
  -2 -11  17   -6.63    3.73
  -2 -11  16   -3.35    2.95
  -2 -11  15    4.29    3.00
  -2 -11  15   -1.65    3.21
   2  11 -15    2.07    2.86
   2  11 -15   -0.15    2.84
   2  11 -14    2.90    2.52
  -2 -11  14    0.81    2.50
  -2 -11  14    2.42    2.89
   2  11 -14    0.67    2.53
   2  11 -14   -1.09    2.47
   2  11 -13    1.08    2.53
  -2 -11  13    2.61    2.83
   2  11 -13    3.38    2.93
  -2 -11  13    1.78    2.89
  -2 -11  13   -1.17    2.85
   2  11 -13    0.82    2.54
   2  11 -12  107.50    7.15
  -2 -11  12  112.28    7.69
  -2 -11  12  126.68    8.14
   2  11 -12  122.04    8.02
  -2 -11  12  126.98    7.83
   2  11 -12  117.82    8.07
  -2 -11  11   16.52    3.94
   2  11 -11   13.51    3.17
  -2 -11  11   18.86    4.20
  -2 -11  11   17.23    3.96
   2  11 -11   18.57    3.68
   2  11 -11   23.03    4.16
  -2 -11  10    4.41    3.08
   2  11 -10   -5.74    3.40
  -2 -11  10    3.07    3.41
  -2 -11  10   -3.09    2.66
   2  11 -10    4.48    2.78
   2  11 -10    3.08    3.06
   2  11  -9   20.01    3.49
  -2 -11   9   33.93    4.67
  -2 -11   9   32.22    4.51
   2  11  -9   26.09    4.05
  -2 -11   9   38.37    5.18
   2  11  -9   19.90    3.80
   2  11  -8   11.76    3.28
  -2 -11   8   20.46    3.80
  -2 -11   8   22.54    4.19
   2  11  -8   22.54    3.53
  -2 -11   8   29.37    4.70
   2  11  -8   19.88    3.75
  -2 -11   7   -4.24    3.75
   2  11  -7    0.09    2.87
  -2 -11   7    0.47    2.94
  -2 -11   7   -0.65    2.67
   2  11  -7    1.59    2.41
   2  11  -7   -0.64    2.59
   2  11  -6   34.72    4.49
  -2 -11   6   40.51    4.74
  -2 -11   6   42.57    4.90
   2  11  -6   36.12    4.34
  -2 -11   6   33.58    4.36
   2  11  -6   41.56    4.85
  -2 -11   5   11.17    3.61
   2  11  -5   13.75    3.30
  -2 -11   5   14.21    3.58
  -2 -11   5   15.60    3.24
   2  11  -5   20.11    3.33
   2  11  -5   21.46    3.78
   2  11  -4    7.75    3.17
  -2 -11   4    9.99    3.50
  -2 -11   4    6.52    3.36
   2  11  -4    8.60    2.94
  -2 -11   4    2.79    3.47
   2  11  -4    5.92    2.76
  -2 -11   3    8.01    3.60
   2  11  -3    5.87    2.28
   2  11  -3    6.07    2.59
  -2 -11   3    9.57    3.34
   2  11  -3   10.68    2.98
   2  11  -3    6.69    2.84
   2  11  -2   81.18    6.35
  -2 -11   2  100.66    7.04
   2  11  -2   99.66    6.42
  -2 -11   2  104.78    7.32
   2  11  -2   97.17    6.69
  -2 -11   2  104.47    7.59
   2  11  -2  105.14    7.20
   2  11  -1   12.38    3.43
  -2 -11   1   24.13    3.95
   2  11  -1   15.42    3.64
  -2 -11   1   17.05    3.94
   2  11  -1   16.87    3.35
  -2 -11   1   14.72    4.14
   2  11  -1   17.03    3.19
  -2 -11   0   46.17    5.09
   2  11   0   41.71    4.75
   2  11   0   42.36    4.94
  -2 -11   0   48.38    5.51
   2  11   0   50.27    5.18
  -2 -11   0   49.68    5.90
   2  11   1    5.42    2.84
  -2 -11  -1    8.84    3.37
   2  11   1   11.58    3.04
  -2 -11  -1    6.29    3.12
   2  11   1    6.64    2.90
  -2 -11  -1    7.43    3.81
  -2 -11  -2   -0.83    3.48
   2  11   2   -2.14    2.89
  -2 -11  -2    1.02    2.90
   2  11   2   -1.62    2.63
  -2 -11  -2   -3.53    3.28
   2  11   2    2.94    2.48
   2  11   3   -2.44    2.60
  -2 -11  -3    0.85    2.90
   2  11   3   -1.29    2.62
  -2 -11  -3    4.69    3.57
  -2 -11  -3    1.63    3.07
   2  11   3    1.79    2.19
   2  11   4   47.04    5.50
  -2 -11  -4   38.24    4.90
  -2 -11  -4   45.03    5.75
   2  11   4   49.55    5.27
  -2 -11  -4   50.86    6.30
   2  11   5    0.43    2.56
   2  12 -14   15.55    3.46
  -2 -12  14    7.70    3.16
   2  12 -13    2.04    2.29
  -2 -12  13    1.59    2.66
  -2 -12  13    2.00    2.94
   2  12 -13    1.17    2.77
   2  12 -13    3.43    3.17
  -2 -12  12    6.97    3.94
   2  12 -12    5.29    3.27
   2  12 -12   -4.56    3.46
  -2 -12  12    0.73    2.85
  -2 -12  12    2.58    2.53
   2  12 -12    2.33    2.24
   2  12 -11   -0.27    2.89
  -2 -12  11    3.94    3.44
  -2 -12  11   -1.39    3.01
   2  12 -11    0.22    2.58
  -2 -12  11    9.64    4.09
   2  12 -11    0.58    2.93
   2  12 -10   -1.48    3.40
  -2 -12  10    2.50    3.22
  -2 -12  10   -0.12    2.83
   2  12 -10    3.74    2.64
  -2 -12  10   -0.25    3.28
   2  12 -10    1.33    2.40
  -2 -12   9    9.09    3.56
   2  12  -9    5.76    3.02
  -2 -12   9   13.92    3.72
  -2 -12   9   15.15    3.89
   2  12  -9   10.22    2.99
   2  12  -9   14.82    3.76
   2  12  -8  161.11    9.20
  -2 -12   8  157.87    9.07
  -2 -12   8  175.05    9.52
   2  12  -8  160.13    8.97
  -2 -12   8  162.25    9.02
   2  12  -8  158.10    9.12
   2  12  -7  149.03    8.87
  -2 -12   7  144.95    8.69
   2  12  -7  146.74    8.78
  -2 -12   7  149.57    8.83
   2  12  -7  151.52    8.66
  -2 -12   7  147.91    9.03
   2  12  -6   -6.23    3.83
  -2 -12   6    0.91    2.91
  -2 -12   6   -1.78    2.95
   2  12  -6    0.43    2.28
  -2 -12   6   -3.44    3.79
   2  12  -6    1.03    2.98
  -2 -12   5   -3.58    3.76
   2  12  -5   -5.33    3.61
  -2 -12   5   -0.85    2.98
  -2 -12   5    1.09    2.87
   2  12  -5    5.43    3.35
   2  12  -5   -1.19    2.23
  -2 -12   4    3.27    3.75
   2  12  -4    1.45    2.75
  -2 -12   4   -1.91    3.29
  -2 -12   4    3.38    3.19
   2  12  -4    7.04    2.67
   2  12  -4    2.40    2.52
   2  12  -4    3.35    2.26
   2  12  -3   34.80    4.84
   2  12  -3   39.58    4.62
  -2 -12   3   45.94    5.51
   2  12  -3   46.31    5.03
  -2 -12   3   42.40    5.53
   2  12  -3   41.67    5.13
   2  12  -2    5.55    3.07
  -2 -12   2   10.09    3.43
   2  12  -2    5.32    2.22
  -2 -12   2    2.08    2.72
   2  12  -2    7.09    2.98
  -2 -12   2    8.11    3.99
  -2 -12   1    9.96    4.22
   2  12  -1    5.96    2.85
  -2 -12   1   14.61    3.98
   2  12  -1   12.62    3.40
  -2 -12   1    6.94    3.40
   2  12  -1   13.08    3.17
   2  12   0    0.92    2.62
  -2 -12   0    7.19    3.90
  -2 -12   0   12.50    3.95
   2  12   0    2.35    2.59
  -2 -12   0    3.85    2.94
   2  12   0    5.03    2.88
   2  12   1   -2.68    2.79
  -2 -12  -1    4.66    3.25
   2  12   1   -1.92    2.58
  -2 -12  -1    6.63    3.84
   2  12   1   -0.54    2.53
  -2 -12  -1   -4.21    4.03
   2  12   2   -1.55    3.27
  -2 -12  -2    5.02    3.21
   2  12   2    1.98    2.51
   2  13 -12   44.48    5.22
  -2 -13  12   43.92    5.33
  -2 -13  11   -7.20    3.96
   2  13 -11   -7.05    3.51
   2  13 -11    2.24    2.64
  -2 -13  10   -0.04    3.64
   2  13 -10    3.65    3.17
   2  13 -10    3.25    3.15
  -2 -13  10    7.53    3.58
  -2 -13  10    5.08    3.10
   2  13 -10    7.74    3.21
   2  13  -9   11.95    3.60
  -2 -13   9   26.78    4.76
  -2 -13   9   17.52    4.32
   2  13  -9   22.66    4.21
   2  13  -9   17.32    3.72
  -2 -13   9    7.38    3.77
   2  13  -8   48.86    5.43
  -2 -13   8   57.04    6.38
  -2 -13   8   62.27    6.59
   2  13  -8   63.73    6.25
  -2 -13   8   59.73    6.30
   2  13  -8   51.77    5.95
  -2 -13   7  149.96    9.45
   2  13  -7  138.54    9.05
  -2 -13   7  153.17    9.48
  -2 -13   7  160.76    9.61
   2  13  -7  152.78    9.07
   2  13  -7  155.23    9.41
   2  13  -6   22.55    4.09
   2  13  -6   20.54    3.82
  -2 -13   6   31.01    5.05
  -2 -13   6   26.05    4.36
   2  13  -6   24.22    4.16
  -2 -13   6   30.27    5.47
   2  13  -5    1.53    2.95
  -2 -13   5    6.61    3.52
  -2 -13   5    6.24    2.79
   2  13  -5    6.22    3.02
  -2 -13   5    3.22    4.01
   2  13  -5    4.92    2.98
   2  13  -5    5.29    2.86
   2  13  -4   21.71    3.82
  -2 -13   4   27.27    4.46
  -2 -13   4   39.75    5.45
   2  13  -4   33.88    4.64
  -2 -13   4   28.39    5.35
   2  13  -4   30.62    4.64
   2  13  -4   30.97    4.29
   2  13  -3   26.64    4.60
  -2 -13   3   23.85    4.74
   2  13  -3   38.06    5.03
  -2 -13   2   49.97    5.80
   2  13  -2   59.80    5.89
  -2 -13   1  200.43   10.49
   3 -14   0   -7.61    3.98
   3 -14   1   23.62    4.05
   3 -14   2   30.57    4.66
  -3  14  -2   36.32    5.34
   3 -14   2   38.90    5.30
   3 -14   3   35.78    5.15
   3 -14   3   20.32    4.11
  -3  14  -3   36.25    5.45
   3 -14   4    8.88    3.72
  -3  14  -4    3.30    3.59
   3 -14   5   20.14    4.05
   3 -14   5   27.67    4.62
  -3  14  -5   26.26    4.57
   3 -14   6    1.74    2.72
   3 -14   6   -3.76    3.82
  -3  14  -6   -0.02    3.19
   3 -14   7   -1.14    3.44
   3 -14   7    3.54    2.73
  -3  14  -7    2.09    3.37
   3 -14   8   12.26    4.02
   3 -14   8   11.12    3.47
  -3  14  -8    8.51    3.30
   3 -14   9    1.45    2.93
   3 -14   9    0.04    2.41
  -3  14  -9    0.22    3.16
  -3  14 -10    0.45    2.89
   3 -14  10   -1.79    2.45
   3 -14  11    6.12    3.19
  -3  14 -11   10.76    3.80
  -3  13   4    1.15    2.40
   3 -13  -4    7.86    3.30
   3 -13  -3   68.15    6.28
   3 -13  -3   57.08    5.69
   3 -13  -2    0.62    3.31
   3 -13  -2    5.67    3.08
  -3  13   2    2.39    3.26
   3 -13  -1   18.84    4.02
  -3  13   1   10.60    2.97
  -3  13   1   13.70    4.15
   3 -13   0   -2.94    3.38
   3 -13   0    3.31    3.14
  -3  13   0    0.73    2.10
  -3  13   0   -1.59    3.33
   3 -13   1    3.69    2.50
   3 -13   1    8.16    3.10
  -3  13  -1    1.68    3.26
   3 -13   2    5.36    2.65
   3 -13   2   13.83    3.43
  -3  13  -2   10.90    3.53
   3 -13   3   -4.84    3.91
  -3  13  -3   -0.24    3.19
   3 -13   4   -5.91    3.91
   3 -13   4    2.18    2.80
  -3  13  -4   -4.68    3.47
   3 -13   5    7.01    3.11
  -3  13  -5   15.97    3.84
   3 -13   5   20.12    4.11
   3 -13   6   34.70    4.61
  -3  13  -6   34.76    5.00
   3 -13   6   39.07    5.17
  -3  13  -7   63.67    6.38
   3 -13   7   71.74    6.64
   3 -13   7   56.87    5.90
   3 -13   8   23.11    4.46
   3 -13   8   18.01    4.12
  -3  13  -8   22.50    4.45
   3 -13   9   29.70    4.82
  -3  13  -9   35.97    5.03
   3 -13   9   29.25    4.21
   3 -13  10   11.18    3.40
  -3  13 -10   12.57    3.61
   3 -13  10   12.41    3.56
   3 -13  11  105.47    7.76
  -3  13 -11  112.32    7.93
   3 -13  11  101.50    7.69
   3 -13  12   10.65    3.51
   3 -13  12    9.25    2.82
  -3  13 -12    9.93    3.28
  -3  13 -12    9.88    3.46
   3 -13  13   -0.26    2.32
  -3  13 -13   -2.00    2.63
  -3  13 -13    1.61    2.78
   3 -13  14    8.42    3.21
  -3  13 -14    1.60    2.55
   3 -12  -6    7.04    2.89
  -3  12   6    8.87    3.08
   3 -12  -5   32.30    4.74
   3 -12  -5   39.87    5.00
  -3  12   5   42.31    5.58
  -3  12   5   35.91    4.62
   3 -12  -4    7.42    3.05
  -3  12   4    8.49    2.66
   3 -12  -4    6.71    2.60
   3 -12  -4    8.12    3.34
  -3  12   4   12.87    3.72
   3 -12  -3   -3.08    3.19
   3 -12  -3    0.32    2.48
  -3  12   3   -3.13    2.54
  -3  12   3   -1.25    2.85
   3 -12  -3    3.75    2.67
   3 -12  -2    7.78    2.80
  -3  12   2   10.81    3.11
  -3  12   2   16.09    3.03
   3 -12  -2   18.98    3.82
  -3  12   2   16.38    4.05
   3 -12  -1   14.48    3.28
  -3  12   1   27.04    4.54
   3 -12  -1   20.55    3.76
   3 -12   0    2.74    3.10
   3 -12   0   16.36    3.80
  -3  12   0   14.43    2.78
  -3  12   0    6.41    2.99
  -3  12  -1   95.71    5.93
  -3  12  -1   84.43    6.66
   3 -12   1   93.86    6.95
   3 -12   2   47.80    5.30
   3 -12   2   61.86    5.99
  -3  12  -2   54.75    5.50
   3 -12   3   37.87    4.73
  -3  12  -3   44.88    5.29
   3 -12   3   47.77    5.12
   3 -12   4   27.09    4.10
  -3  12  -4   23.38    3.95
   3 -12   5   -2.35    2.83
  -3  12  -5    4.67    2.54
   3 -12   5    1.21    2.70
  -3  12  -6  114.10    7.74
   3 -12   6  115.38    7.70
   3 -12   6  101.39    7.11
   3 -12   7   13.38    3.39
   3 -12   7   13.18    3.72
  -3  12  -7    8.84    3.59
   3 -12   8   12.40    3.57
   3 -12   8    8.31    3.09
  -3  12  -8    7.14    3.03
   3 -12   9    5.04    3.10
   3 -12   9    3.22    2.54
  -3  12  -9    3.46    2.69
   3 -12  10   17.82    4.03
  -3  12 -10   20.31    4.15
   3 -12  10   20.37    3.80
  -3  12 -10   23.19    3.52
  -3  12 -11    2.69    2.94
   3 -12  11    2.67    2.76
  -3  12 -11    3.74    2.62
   3 -12  11    2.92    2.86
   3 -12  12   27.39    3.97
   3 -12  12   21.57    4.07
   3 -12  12   21.45    3.72
  -3  12 -12   26.24    4.43
  -3  12 -12   27.98    4.18
   3 -12  13   17.69    3.55
   3 -12  13   30.64    4.46
  -3  12 -13   27.12    4.33
  -3  12 -13   22.88    4.39
   3 -12  14    1.36    2.61
   3 -12  14    4.47    2.55
  -3  12 -14    8.36    3.15
  -3  12 -14    2.77    2.74
   3 -12  15    8.86    2.97
  -3  11   8    9.98    3.56
   3 -11  -7   24.96    4.30
  -3  11   7   19.82    3.92
  -3  11   7   20.44    4.28
   3 -11  -6   39.37    5.17
  -3  11   6   35.04    4.55
   3 -11  -6   34.44    4.45
  -3  11   6   40.85    5.15
   3 -11  -5    0.30    2.51
   3 -11  -5    2.48    2.61
  -3  11   5    4.98    3.03
  -3  11   5    2.37    3.26
  -3  11   4  136.97    7.85
  -3  11   4  137.57    7.80
   3 -11  -4  133.84    7.58
  -3  11   4  148.05    8.53
   3 -11  -4  150.16    8.38
   3 -11  -4  149.12    8.20
   3 -11  -3   -4.49    3.13
   3 -11  -3   -2.17    2.12
  -3  11   3   -3.34    2.41
  -3  11   3   -2.13    2.01
   3 -11  -3   -0.83    2.48
  -3  11   3    2.10    3.20
   3 -11  -2   22.08    3.41
   3 -11  -2   30.84    4.20
   3 -11  -2   25.94    3.70
  -3  11   2   28.32    3.88
  -3  11   2   23.36    3.47
  -3  11   2   23.78    4.05
   3 -11  -1    2.00    2.73
  -3  11   1    6.79    2.15
  -3  11   1    8.86    3.13
   3 -11   0   19.15    3.57
  -3  11   0   24.19    3.33
   3 -11   0   23.70    3.96
  -3  11   0   20.11    3.93
   3 -11   1   20.92    3.43
  -3  11  -1   30.59    3.33
   3 -11   1   29.99    4.24
  -3  11  -1   31.07    4.35
   3 -11   2   10.43    3.05
   3 -11   2   23.29    4.09
  -3  11  -2   18.77    2.80
  -3  11  -2   14.44    3.52
  -3  11  -3   84.18    6.48
   3 -11   3   88.58    6.46
   3 -11   3   76.63    6.00
   3 -11   4   12.83    3.00
   3 -11   4   21.52    3.87
  -3  11  -4   22.48    3.95
   3 -11   5   -3.86    3.06
  -3  11  -5    4.36    2.97
   3 -11   5    2.32    2.44
   3 -11   6    3.24    2.88
   3 -11   6    1.73    2.53
  -3  11  -6    9.19    3.19
   3 -11   7    5.88    3.11
   3 -11   7   -0.27    1.93
  -3  11  -7    1.61    2.63
   3 -11   8   18.17    3.64
   3 -11   8   16.02    3.36
  -3  11  -8   24.70    4.05
   3 -11   9    3.64    2.99
   3 -11   9   -1.73    2.31
  -3  11  -9    2.04    2.06
  -3  11  -9   -3.12    2.63
   3 -11  10    3.03    2.93
   3 -11  10    0.49    1.79
   3 -11  10   -4.56    2.62
  -3  11 -10    0.91    2.24
  -3  11 -10   -1.38    2.66
   3 -11  11    1.13    2.87
   3 -11  11   -1.51    2.01
   3 -11  11    0.33    2.31
  -3  11 -11   -3.41    2.52
  -3  11 -11    1.81    2.56
   3 -11  12    1.77    2.70
   3 -11  12    3.58    2.61
   3 -11  12    4.33    2.36
  -3  11 -12    2.23    2.39
  -3  11 -12   -1.89    2.53
   3 -11  13   10.31    3.12
   3 -11  13   15.67    3.73
  -3  11 -13   11.01    3.17
  -3  11 -13    9.88    3.20
   3 -11  14   16.51    3.77
  -3  11 -14   12.31    3.39
  -3  11 -14   10.69    3.24
  -3  11 -15   26.29    4.61
   3 -11  15   39.02    4.94
  -3  11 -15   33.23    5.11
   3 -10  -9    2.76    2.98
  -3  10   9    3.47    3.03
  -3  10   9    0.86    2.80
   3 -10  -8   -2.58    2.65
  -3  10   8    2.07    2.76
  -3  10   8   -0.18    2.59
  -3  10   7    4.04    2.77
   3 -10  -7    4.19    2.97
  -3  10   7    6.99    3.19
   3 -10  -6    6.03    2.53
  -3  10   6    8.28    2.84
  -3  10   6    4.42    2.24
  -3  10   6    7.02    2.90
   3 -10  -6    5.45    2.28
   3 -10  -5    0.84    1.96
   3 -10  -5   -0.82    2.74
  -3  10   5    0.46    2.18
   3 -10  -5    2.24    2.38
  -3  10   5    2.44    2.82
  -3  10   5    4.11    2.72
   3 -10  -4    4.26    2.54
   3 -10  -4    2.50    2.64
  -3  10   4   -0.25    2.41
  -3  10   4    2.32    2.08
   3 -10  -4    4.58    2.36
  -3  10   4    0.99    2.81
   3 -10  -3   22.05    3.36
   3 -10  -3   24.65    3.57
  -3  10   3   17.45    3.00
  -3  10   3   24.25    3.25
   3 -10  -3   25.02    3.75
  -3  10   3   25.21    3.98
   3 -10  -2    2.68    2.21
   3 -10  -2    7.99    2.45
  -3  10   2    4.73    2.00
   3 -10  -2    7.61    2.87
  -3  10   2   10.71    3.32
   3 -10  -1   -2.58    3.02
  -3  10   1    0.18    1.57
  -3  10   1   -2.02    2.60
   3 -10  -1    3.07    2.48
  -3  10   0  190.53    8.90
   3 -10   0  185.46    8.73
  -3  10  -1   92.53    5.15
  -3  10  -1   85.78    6.13
   3 -10   1   84.52    6.14
   3 -10   2   20.41    3.57
  -3  10  -2   26.84    2.85
   3 -10   2   27.01    3.68
  -3  10  -2   29.77    4.17
  -3  10  -3  130.49    7.45
   3 -10   3  132.96    7.42
   3 -10   3  122.60    7.18
   3 -10   4  119.32    7.09
  -3  10  -4  118.42    7.14
   3 -10   4  108.90    6.98
   3 -10   5   63.01    5.25
  -3  10  -5   61.87    5.36
   3 -10   5   70.55    5.64
   3 -10   6   40.40    4.56
   3 -10   6   38.45    4.43
  -3  10  -6   44.43    4.78
   3 -10   7   -0.72    2.59
   3 -10   7    1.00    2.03
  -3  10  -7    1.53    1.72
  -3  10  -7   -2.32    2.23
   3 -10   8   -1.97    2.34
   3 -10   8    1.79    1.85
   3 -10   8   -0.22    1.95
  -3  10  -8   -1.82    2.40
  -3  10  -8   -1.77    2.01
   3 -10   9   23.40    3.77
   3 -10   9   24.62    3.22
   3 -10   9   22.86    3.35
  -3  10  -9   27.03    3.56
  -3  10  -9   22.04    3.55
   3 -10  10    3.12    2.41
  -3  10 -10    3.23    2.47
   3 -10  10    9.57    2.68
  -3  10 -10    4.65    2.41
   3 -10  10   10.44    2.82
   3 -10  11   47.92    4.96
   3 -10  11   48.71    4.73
  -3  10 -11   48.28    4.78
   3 -10  11   45.88    4.48
  -3  10 -11   47.69    4.90
   3 -10  12   59.01    5.34
  -3  10 -12   53.85    5.13
   3 -10  12   61.91    5.15
  -3  10 -12   53.88    5.39
   3 -10  12   57.41    5.47
   3 -10  13    3.09    2.39
   3 -10  13   -1.09    2.45
  -3  10 -13   -1.68    2.77
  -3  10 -13   -1.48    2.66
   3 -10  14    3.25    2.64
  -3  10 -14   -1.69    2.75
  -3  10 -14   -0.45    2.44
   3 -10  15   22.36    3.90
  -3  10 -15   20.26    4.37
  -3  10 -15   20.78    3.90
   3 -10  16    8.63    3.00
  -3  10 -16   10.94    3.97
   3  -9 -10   13.05    3.57
  -3   9  10   19.64    4.01
   3  -9  -9    4.56    3.29
  -3   9   9   -2.22    2.90
  -3   9   9    1.92    2.45
  -3   9   9    2.54    2.70
   3  -9  -8   -2.10    2.98
  -3   9   8    4.52    2.43
  -3   9   8   -1.50    2.63
  -3   9   8    4.34    2.92
   3  -9  -7    6.64    2.76
  -3   9   7   15.25    3.19
  -3   9   7   11.14    3.18
  -3   9   7   12.22    3.38
  -3   9   6    3.99    2.41
  -3   9   6    2.91    2.42
   3  -9  -6    2.08    2.10
  -3   9   6    1.41    2.50
   3  -9  -6    4.17    2.45
   3  -9  -5   15.09    2.94
   3  -9  -5   15.59    3.05
  -3   9   5   12.99    2.87
  -3   9   5   19.04    3.33
  -3   9   5   15.48    3.59
   3  -9  -5   15.20    3.11
   3  -9  -4    2.02    1.94
   3  -9  -4    1.45    2.35
   3  -9  -4   -1.62    2.23
  -3   9   4    0.44    2.11
  -3   9   4    3.75    2.26
  -3   9   4    1.16    2.24
   3  -9  -3   29.78    3.65
   3  -9  -3   29.85    3.49
  -3   9   3   21.21    3.18
   3  -9  -3   30.45    3.84
  -3   9   3   30.50    4.06
  -3   9   3   32.58    3.69
   3  -9  -2    0.29    2.25
   3  -9  -2    0.65    1.75
  -3   9   2    1.76    1.81
   3  -9  -2   -0.41    2.09
  -3   9   2   -2.66    2.84
   3  -9  -1  105.14    5.47
   3  -9  -1  111.05    6.52
  -3   9   1  104.07    6.36
   3  -9  -1  104.64    6.30
  -3   9   1  106.42    5.47
   3  -9   0  162.00    7.78
  -3   9   0  168.43    7.96
   3  -9   0  159.07    7.82
  -3   9   0  177.45    6.64
  -3   9  -1  170.48    6.24
   3  -9   1  165.05    7.79
  -3   9  -1  166.31    7.92
   3  -9   1  165.08    7.98
  -3   9  -2    1.74    2.50
   3  -9   2    5.47    2.52
  -3   9  -2    1.89    1.42
   3  -9   3  205.61    8.68
  -3   9  -3  201.01    8.59
   3  -9   3  199.90    8.65
   3  -9   4   31.78    3.97
   3  -9   4   34.84    4.06
  -3   9  -4   31.79    3.97
   3  -9   5   16.66    3.49
   3  -9   5   21.54    3.43
  -3   9  -5   17.59    2.31
  -3   9  -5   15.87    3.31
   3  -9   6    5.72    2.94
   3  -9   6    1.46    2.12
  -3   9  -6    3.05    1.64
  -3   9  -6    6.85    2.83
   3  -9   7   17.83    3.56
   3  -9   7   15.03    2.40
  -3   9  -7   12.62    2.50
   3  -9   7   13.80    2.90
  -3   9  -7   11.57    2.92
   3  -9   8   53.57    4.20
  -3   9  -8   56.03    4.31
   3  -9   8   44.38    4.31
  -3   9  -8   44.74    4.44
   3  -9   8   46.48    4.74
   3  -9   9   69.50    4.90
  -3   9  -9   70.05    5.05
   3  -9   9   65.98    5.10
  -3   9  -9   70.59    5.54
   3  -9   9   55.40    5.02
   3  -9  10   67.92    5.12
  -3   9 -10   56.45    4.76
   3  -9  10   63.23    5.03
  -3   9 -10   61.37    5.31
   3  -9  10   57.93    5.14
   3  -9  11   -1.62    2.47
   3  -9  11   -1.31    1.82
   3  -9  11   -0.89    1.91
  -3   9 -11    0.42    2.20
  -3   9 -11   -1.17    2.34
   3  -9  12    1.03    2.36
  -3   9 -12    0.12    2.66
  -3   9 -12    3.44    2.34
   3  -9  12    3.56    2.38
   3  -9  13   28.57    3.85
   3  -9  13   35.95    4.35
  -3   9 -13   28.68    4.17
  -3   9 -13   36.28    4.46
   3  -9  14   13.18    3.31
  -3   9 -14   14.80    3.55
  -3   9 -14   10.06    3.09
   3  -9  15    1.51    2.46
  -3   9 -15    1.10    2.93
  -3   9 -15    7.71    3.13
   3  -9  16   -1.58    2.45
  -3   9 -16    6.82    3.77
  -3   9 -16    0.12    2.50
  -3   8  11  307.90   12.07
  -3   8  11  325.88   13.25
   3  -8 -11  346.07   13.57
   3  -8 -10   -0.27    2.45
  -3   8  10    1.49    2.80
  -3   8  10    2.84    2.76
   3  -8  -9   64.11    5.82
  -3   8   9   63.93    5.61
  -3   8   9   65.46    5.90
  -3   8   9   67.80    5.50
   3  -8  -8  100.72    6.82
  -3   8   8   97.53    6.70
  -3   8   8  108.38    7.15
  -3   8   8  107.75    6.61
   3  -8  -7    0.86    2.15
  -3   8   7    0.23    2.03
  -3   8   7    2.71    2.37
   3  -8  -7   -0.07    1.75
  -3   8   7    1.10    2.38
   3  -8  -6   -1.54    2.36
  -3   8   6    2.29    2.09
  -3   8   6    1.85    2.57
   3  -8  -6    0.55    1.64
  -3   8   6    2.22    2.30
   3  -8  -5    1.72    1.70
   3  -8  -5    1.25    2.13
  -3   8   5    0.89    2.00
  -3   8   5    0.86    1.81
   3  -8  -5    0.73    1.90
  -3   8   5    0.02    1.98
   3  -8  -4   17.28    2.97
   3  -8  -4   17.02    3.01
  -3   8   4   16.85    2.98
  -3   8   4   19.33    3.03
   3  -8  -4   20.46    3.25
  -3   8   4   16.68    3.15
   3  -8  -3    8.75    2.54
  -3   8   3    3.75    2.00
  -3   8   3   12.29    2.59
   3  -8  -3    6.24    1.96
   3  -8  -3    6.05    2.35
  -3   8   3    5.58    2.61
   3  -8  -2    0.25    1.67
  -3   8   2    0.65    1.55
  -3   8   2   -0.53    2.16
   3  -8  -2    0.26    2.15
   3  -8  -1  123.89    6.54
  -3   8   1  128.90    6.68
   3  -8  -1  126.49    5.58
   3  -8  -1  120.35    6.50
  -3   8   1  124.88    5.53
   3  -8   0   12.47    2.76
   3  -8   0    7.86    1.85
  -3   8   0   10.13    1.89
  -3   8   0   12.23    2.85
   3  -8   0    8.41    2.45
   3  -8   1    2.42    1.87
  -3   8  -1    0.56    2.18
  -3   8  -1   -0.71    1.26
  -3   8  -1    2.18    1.34
   3  -8   1    1.52    2.16
   3  -8   2   18.49    3.26
  -3   8  -2   18.53    3.11
  -3   8  -2   18.35    2.08
   3  -8   2   19.90    3.07
   3  -8   3    6.34    2.61
  -3   8  -3    4.02    2.29
   3  -8   3    6.68    2.37
   3  -8   4   16.69    3.19
   3  -8   4   18.12    3.10
  -3   8  -4   19.96    2.26
  -3   8  -4   16.80    3.03
   3  -8   5  128.90    5.31
  -3   8  -5  131.45    5.40
   3  -8   5  120.39    6.47
  -3   8  -5  114.99    6.49
   3  -8   5  129.18    6.87
   3  -8   6    1.88    2.13
   3  -8   6    0.06    2.00
   3  -8   6    3.20    1.63
  -3   8  -6    3.04    1.58
  -3   8  -6   -1.99    2.32
   3  -8   7    2.12    2.39
   3  -8   7    3.00    1.49
  -3   8  -7    3.32    1.89
  -3   8  -7    4.82    2.43
   3  -8   7   -0.71    1.96
   3  -8   8  233.00    8.21
   3  -8   8  246.82    9.46
  -3   8  -8  235.41    8.32
   3  -8   8  238.94    8.98
  -3   8  -8  224.34    9.19
   3  -8   9   71.15    4.94
  -3   8  -9   68.85    5.00
   3  -8   9   65.35    4.91
  -3   8  -9   61.63    5.20
   3  -8   9   60.73    4.93
   3  -8  10    6.41    2.30
  -3   8 -10    3.47    2.06
   3  -8  10    5.58    2.26
   3  -8  10    5.20    1.75
  -3   8 -10    5.74    2.62
   3  -8  11   13.49    3.12
   3  -8  11   10.67    2.35
   3  -8  11   12.84    2.96
  -3   8 -11   10.57    2.72
  -3   8 -11    5.42    2.48
   3  -8  12   27.62    3.93
  -3   8 -12   22.24    3.45
  -3   8 -12   18.60    3.40
   3  -8  12   23.57    3.57
   3  -8  13    9.31    2.62
  -3   8 -13    8.97    3.07
   3  -8  13    7.77    2.66
  -3   8 -13   11.73    3.08
   3  -8  14    1.15    2.04
  -3   8 -14   -1.13    2.75
  -3   8 -14    0.83    2.45
  -3   8 -15   -0.36    2.67
   3  -8  15   -4.33    3.05
  -3   8 -15    4.55    2.65
  -3   8 -16    4.45    3.41
   3  -8  16   -2.26    2.60
  -3   8 -16    1.93    2.40
  -3   7  13    7.78    3.06
   3  -7 -12    3.54    3.49
  -3   7  12   -0.26    2.57
  -3   7  12   -2.19    2.59
   3  -7 -11   34.29    4.58
  -3   7  11   31.21    4.28
  -3   7  11   33.08    4.58
   3  -7 -10    5.94    3.31
  -3   7  10    0.52    2.64
  -3   7  10    4.00    2.73
   3  -7  -9   51.86    5.24
  -3   7   9   51.85    4.97
  -3   7   9   56.00    4.76
  -3   7   9   46.98    5.04
   3  -7  -8   10.74    2.94
  -3   7   8   13.30    3.05
  -3   7   8    9.16    2.75
  -3   7   8   13.56    2.85
   3  -7  -7  164.05    7.90
  -3   7   7  151.18    7.70
   3  -7  -7  163.16    7.07
  -3   7   7  163.42    7.46
  -3   7   7  158.72    7.81
   3  -7  -6    2.31    2.09
   3  -7  -6    3.34    1.78
  -3   7   6    3.18    2.22
  -3   7   6    3.74    2.03
  -3   7   6    3.50    2.11
   3  -7  -6    2.71    1.62
   3  -7  -5   33.55    3.71
  -3   7   5   35.71    3.90
   3  -7  -5   39.32    3.71
  -3   7   5   37.43    3.83
  -3   7   5   32.02    3.56
   3  -7  -5   36.59    3.55
   3  -7  -4  157.84    6.80
  -3   7   4  145.59    7.09
   3  -7  -4  152.50    6.86
  -3   7   4  153.83    6.97
  -3   7   4  149.52    6.67
   3  -7  -4  154.38    6.75
   3  -7  -3   38.04    3.50
   3  -7  -3   41.36    3.92
  -3   7   3   41.61    3.86
  -3   7   3   40.99    3.56
   3  -7  -3   44.19    3.88
   3  -7  -2   16.93    2.87
   3  -7  -2   18.18    2.51
  -3   7   2   20.80    2.53
  -3   7   2   23.20    3.39
   3  -7  -2   19.56    2.98
   3  -7  -1   11.55    2.70
  -3   7   1   10.92    2.57
   3  -7  -1    9.26    1.87
  -3   7   1   10.67    1.94
   3  -7  -1   12.14    2.65
   3  -7   0   60.58    3.48
  -3   7   0   66.82    3.61
   3  -7   0   54.15    4.42
  -3   7   0   62.08    4.53
   3  -7   0   52.40    4.29
   3  -7   1   10.59    2.50
  -3   7  -1   14.04    1.87
   3  -7   1   10.18    2.25
  -3   7  -1   10.23    1.54
  -3   7  -1    9.48    2.42
  -3   7  -2  221.36    5.63
   3  -7   2  203.32    7.85
  -3   7  -2  204.23    7.87
   3  -7   2  192.32    7.71
   3  -7   3    1.93    2.13
   3  -7   3    1.23    1.65
  -3   7  -3    0.59    1.20
  -3   7  -3   -2.16    2.41
  -3   7  -4    2.64    1.82
   3  -7   4    2.89    2.38
   3  -7   4   -0.73    1.77
   3  -7   4    1.59    1.18
  -3   7  -4    1.46    1.34
   3  -7   5    2.20    2.26
   3  -7   5    1.13    1.29
   3  -7   5    0.58    1.75
  -3   7  -5    0.60    1.38
  -3   7  -5   -0.37    1.87
   3  -7   6   -0.84    1.96
   3  -7   6    1.30    1.35
   3  -7   6    2.10    1.86
  -3   7  -6    1.25    1.58
  -3   7  -6    0.85    1.92
   3  -7   7   21.31    3.21
   3  -7   7   18.56    2.55
   3  -7   7   21.79    2.97
  -3   7  -7   21.12    2.80
  -3   7  -7   21.88    3.31
   3  -7   8   17.48    2.93
   3  -7   8   20.34    2.82
   3  -7   8   19.78    3.09
  -3   7  -8   18.28    3.17
  -3   7  -8   24.05    3.14
   3  -7   9    5.96    2.35
   3  -7   9   11.04    2.34
   3  -7   9    8.04    1.91
  -3   7  -9    8.67    2.51
  -3   7  -9   13.07    2.74
   3  -7  10   20.78    3.26
   3  -7  10   19.11    3.08
   3  -7  10   26.57    3.18
  -3   7 -10   18.12    3.36
  -3   7 -10   22.31    3.43
   3  -7  11    7.93    2.46
   3  -7  11   10.83    2.70
  -3   7 -11    3.94    2.29
  -3   7 -11    7.64    2.69
   3  -7  11    6.15    1.82
   3  -7  12   89.49    6.13
  -3   7 -12   83.41    6.14
  -3   7 -12   88.76    6.40
   3  -7  12   82.68    5.63
   3  -7  13    2.74    2.22
  -3   7 -13    0.57    2.35
  -3   7 -13    0.69    2.81
   3  -7  14   11.31    3.16
  -3   7 -14   10.37    2.96
  -3   7 -14   10.05    3.21
   3  -7  15    9.36    3.10
  -3   7 -15   12.16    4.06
  -3   7 -15    5.41    2.61
   3  -7  16   21.99    4.07
  -3   7 -16   17.40    3.91
  -3   7 -16   15.91    3.63
   3  -7  17    1.13    2.08
  -3   7 -17    0.66    2.90
  -3   7 -17    1.50    2.23
  -3   6  14    7.55    3.39
   3  -6 -13    6.10    3.37
  -3   6  13    3.48    2.67
  -3   6  13    4.33    3.07
   3  -6 -12    9.08    3.44
  -3   6  12    9.20    3.46
  -3   6  12    6.51    2.88
   3  -6 -11   15.04    3.67
  -3   6  11    9.30    3.12
  -3   6  11   14.42    3.27
   3  -6 -10    9.59    3.24
  -3   6  10    8.40    2.84
  -3   6  10   10.70    2.93
   3  -6  -9    9.34    2.56
  -3   6   9    4.98    2.44
  -3   6   9   10.97    2.96
  -3   6   9   10.00    2.50
  -3   6   8   37.43    4.25
   3  -6  -8   32.21    4.04
  -3   6   8   29.20    3.67
   3  -6  -8   34.23    3.26
  -3   6   8   31.04    3.49
   3  -6  -7   12.08    2.89
  -3   6   7    7.61    2.50
  -3   6   7   10.24    2.83
   3  -6  -7   11.60    2.10
  -3   6   7   13.90    2.52
  -3   6   6  366.37   11.19
   3  -6  -6  366.20   10.67
   3  -6  -6  372.75   10.08
  -3   6   6  370.49   10.18
  -3   6   6  361.67   10.75
   3  -6  -6  365.51    9.53
   3  -6  -5   76.25    4.90
  -3   6   5   93.78    5.82
   3  -6  -5   78.34    4.78
  -3   6   5   87.39    5.14
  -3   6   5   88.06    5.22
   3  -6  -5   89.14    4.95
   3  -6  -4    2.46    1.64
  -3   6   4   -0.62    2.00
   3  -6  -4   -0.27    1.83
  -3   6   4    0.99    1.68
  -3   6   4    1.99    1.84
   3  -6  -4    0.64    1.52
   3  -6  -3   -0.06    1.69
   3  -6  -3   -1.14    1.75
   3  -6  -3    1.78    1.55
  -3   6   3    1.83    1.58
  -3   6   3    3.06    2.01
   3  -6  -2  216.25    6.80
   3  -6  -2  214.09    7.70
  -3   6   2  202.66    7.36
  -3   6   2  211.43    6.70
   3  -6  -2  207.94    7.57
   3  -6  -1   76.36    3.92
   3  -6  -1   74.02    4.70
  -3   6   1   68.54    4.46
  -3   6   1   70.63    3.80
   3  -6  -1   77.42    4.76
   3  -6   0  150.88    6.66
  -3   6   0  138.87    6.19
  -3   6   0  146.98    4.94
   3  -6   0  145.17    6.48
   3  -6   0  154.07    5.06
  -3   6  -1   50.93    2.78
  -3   6  -1   49.87    2.54
   3  -6   1   53.39    4.20
  -3   6  -1   46.92    4.09
   3  -6   1   54.32    4.39
   3  -6   1   53.54    2.90
  -3   6  -2   69.65    3.11
  -3   6  -2   72.75    2.84
   3  -6   2   76.32    4.86
  -3   6  -2   69.63    4.62
  -3   6  -2   76.15    2.99
   3  -6   2   69.84    4.69
   3  -6   3  204.63    5.57
   3  -6   3  185.50    7.40
  -3   6  -3  191.85    5.48
   3  -6   3  193.00    7.37
  -3   6  -3  197.13    7.49
   3  -6   4    1.55    2.08
   3  -6   4    3.28    1.23
   3  -6   4    3.55    1.81
  -3   6  -4    4.04    2.06
  -3   6  -4    1.45    1.26
   3  -6   5   40.79    3.00
   3  -6   5   41.31    3.76
  -3   6  -5   46.15    3.27
  -3   6  -5   43.00    4.03
   3  -6   5   41.90    3.70
   3  -6   6   16.12    2.84
   3  -6   6   19.06    2.41
   3  -6   6   15.95    2.63
  -3   6  -6   15.16    2.82
  -3   6  -6   14.63    2.30
   3  -6   7   61.17    4.07
   3  -6   7   58.45    4.27
  -3   6  -7   62.12    4.29
  -3   6  -7   55.96    4.55
   3  -6   7   65.41    4.74
   3  -6   8   14.57    2.70
   3  -6   8   16.84    2.50
   3  -6   8   14.38    2.45
  -3   6  -8   14.63    2.80
  -3   6  -8   15.29    2.57
   3  -6   9   15.30    2.76
   3  -6   9   12.07    2.55
  -3   6  -9   12.01    2.91
  -3   6  -9   13.91    2.84
   3  -6   9   16.25    2.74
   3  -6  10    3.91    2.03
   3  -6  10    1.99    2.09
   3  -6  10    2.11    1.67
  -3   6 -10    2.13    2.25
  -3   6 -10    1.12    2.28
   3  -6  11   29.89    3.57
   3  -6  11   28.51    3.25
  -3   6 -11   21.84    3.45
  -3   6 -11   28.81    3.99
   3  -6  11   29.49    3.45
   3  -6  12    1.86    2.02
  -3   6 -12   -1.51    2.26
  -3   6 -12    1.91    2.47
   3  -6  12   -0.51    1.87
   3  -6  13   71.73    5.77
  -3   6 -13   70.18    6.03
  -3   6 -13   69.42    5.60
   3  -6  14    2.90    2.26
  -3   6 -14   -0.46    2.56
  -3   6 -14    3.44    3.13
   3  -6  15   38.58    4.67
  -3   6 -15   41.98    5.15
  -3   6 -15   34.84    4.66
   3  -6  16    9.18    3.20
  -3   6 -16    3.63    2.76
  -3   6 -16    2.90    2.97
   3  -6  17   15.44    3.70
  -3   6 -17   18.73    4.05
  -3   6 -17   12.51    3.51
  -3   5  15   22.27    4.31
   3  -5 -14    2.15    3.10
  -3   5  14    8.02    3.56
  -3   5  14    0.95    2.45
   3  -5 -13   -0.53    2.72
  -3   5  13    1.58    2.95
  -3   5  13    0.50    2.65
   3  -5 -12   37.19    4.75
  -3   5  12   36.14    4.71
  -3   5  12   34.20    4.53
  -3   5  11  317.92   11.86
   3  -5 -11  321.04   11.94
  -3   5  11  300.33   11.37
   3  -5 -10   25.21    3.98
  -3   5  10   27.50    3.99
  -3   5  10   26.07    3.70
  -3   5   9  120.78    6.83
  -3   5   9  134.13    5.98
  -3   5   9  132.12    7.18
   3  -5  -9  128.59    7.14
  -3   5   8  173.16    8.02
   3  -5  -8  181.82    8.04
   3  -5  -8  178.42    6.69
  -3   5   8  185.49    6.92
  -3   5   8  173.89    7.86
   3  -5  -7   25.07    3.42
  -3   5   7   27.67    3.47
  -3   5   7   28.10    3.58
   3  -5  -7   25.34    2.81
  -3   5   7   28.60    3.06
   3  -5  -7   28.11    2.65
  -3   5   6  330.88   10.30
   3  -5  -6  344.92    9.27
  -3   5   6  320.82    9.65
  -3   5   6  334.58    9.00
   3  -5  -6  326.42    8.62
   3  -5  -6  334.49    9.88
   3  -5  -5   -0.48    1.49
   3  -5  -5    0.84    1.81
  -3   5   5   -0.22    1.69
  -3   5   5    1.08    2.00
  -3   5   5    0.90    1.52
   3  -5  -5   -1.27    1.80
  -3   5   4  122.81    6.10
   3  -5  -4  111.11    5.37
   3  -5  -4  120.06    5.44
  -3   5   4  116.33    5.40
  -3   5   4  116.48    5.42
   3  -5  -4  118.38    5.44
   3  -5  -3    3.67    1.67
   3  -5  -3   -0.37    1.42
  -3   5   3    0.07    1.46
   3  -5  -3    1.89    1.60
  -3   5   3    4.55    1.80
  -3   5   2   45.60    3.15
   3  -5  -2   45.47    3.64
  -3   5   2   44.62    3.51
   3  -5  -2   43.96    3.54
   3  -5  -2   50.70    3.29
   3  -5  -1    1.97    1.92
   3  -5  -1    1.48    1.16
  -3   5   1   -0.16    1.17
   3  -5  -1    0.12    1.61
  -3   5   1    0.68    1.79
   3  -5   0  179.34    6.82
  -3   5   0  181.37    6.62
  -3   5   0  182.48    5.17
   3  -5   0  163.04    6.51
   3  -5   0  188.85    5.22
   3  -5   1  200.56    4.52
  -3   5  -1  197.09    4.08
   3  -5   1  190.22    7.17
  -3   5  -1  187.15    4.40
  -3   5  -1  194.84    6.95
  -3   5  -1  201.82    4.88
   3  -5   1  184.02    6.96
   3  -5   1  196.97    4.85
   3  -5   2   40.56    2.43
   3  -5   2   40.42    3.58
  -3   5  -2   42.26    2.51
  -3   5  -2   41.58    3.53
  -3   5  -2   43.65    2.10
   3  -5   2   45.21    3.78
   3  -5   3   21.58    3.15
   3  -5   3   17.84    1.97
   3  -5   3   16.02    2.48
  -3   5  -3   18.68    2.05
  -3   5  -3   19.55    2.71
   3  -5   4   22.28    2.95
   3  -5   4   24.24    2.28
   3  -5   4   24.25    2.98
  -3   5  -4   21.30    2.23
  -3   5  -4   18.29    2.70
   3  -5   5  174.92    5.96
   3  -5   5  169.37    6.82
  -3   5  -5  176.84    6.01
   3  -5   5  162.48    6.86
  -3   5  -5  163.42    6.89
   3  -5   6   19.09    2.67
   3  -5   6   15.92    2.47
   3  -5   6   14.50    2.22
  -3   5  -6   10.57    2.56
  -3   5  -6   11.67    2.18
   3  -5   7   21.81    3.10
   3  -5   7   15.38    2.33
  -3   5  -7   11.58    2.70
  -3   5  -7   17.36    2.70
   3  -5   7   17.00    2.56
   3  -5   8   60.58    4.31
   3  -5   8   67.77    4.42
  -3   5  -8   65.41    4.51
  -3   5  -8   64.66    4.97
   3  -5   8   66.58    4.68
   3  -5   9   12.29    2.61
   3  -5   9   10.58    2.31
   3  -5   9   10.39    2.24
  -3   5  -9   10.26    2.50
   3  -5  10   16.09    2.88
   3  -5  10   20.39    2.72
  -3   5 -10   17.27    3.11
   3  -5  10   18.20    2.82
   3  -5  11    1.33    1.80
  -3   5 -11   -2.06    2.15
   3  -5  11    0.03    1.81
   3  -5  12   48.11    4.67
  -3   5 -12   42.67    4.69
   3  -5  12   42.41    3.97
  -3   5 -13    5.95    2.73
   3  -5  13    5.06    2.73
   3  -5  14   23.37    3.97
  -3   5 -14   28.23    4.34
  -3   5 -15    6.10    3.17
   3  -5  15    4.70    2.37
   3  -5  16    7.37    2.71
  -3   5 -16    7.83    3.16
   3  -5  17   27.56    4.42
  -3   5 -17   20.63    4.79
  -3   4  16   -3.65    4.13
   3  -4 -15   18.88    4.23
  -3   4  15   26.53    4.60
  -3   4  15   22.98    4.16
   3  -4 -14   -0.51    3.06
  -3   4  14    4.83    3.29
  -3   4  14    1.87    2.64
   3  -4 -13   11.87    3.54
  -3   4  13    4.59    2.91
  -3   4  13   12.40    3.54
   3  -4 -12    1.98    2.79
  -3   4  12    0.69    2.46
  -3   4  12    2.30    2.74
   3  -4 -11   33.14    4.53
  -3   4  11   24.67    3.71
  -3   4  11   23.06    3.60
   3  -4 -10   11.13    2.79
  -3   4  10   12.10    2.90
  -3   4  10   11.88    2.98
  -3   4   9   53.33    4.64
  -3   4   9   60.93    4.99
   3  -4  -9   56.24    4.84
  -3   4   8   45.04    4.36
   3  -4  -8   45.26    3.34
  -3   4   8   44.27    3.32
  -3   4   8   39.50    4.05
   3  -4  -8   47.14    4.33
  -3   4   7   72.55    5.14
   3  -4  -7   76.66    4.25
  -3   4   7   73.08    4.04
  -3   4   7   77.85    5.15
   3  -4  -7   72.88    3.92
   3  -4  -7   74.61    4.93
  -3   4   6   21.60    2.45
   3  -4  -6   23.66    3.04
  -3   4   6   23.84    3.07
  -3   4   6   25.26    3.33
   3  -4  -6   20.61    2.46
   3  -4  -6   25.14    2.52
  -3   4   5   77.38    5.03
   3  -4  -5   71.30    4.23
  -3   4   5   70.75    3.93
   3  -4  -5   75.23    4.44
  -3   4   5   80.33    4.66
   3  -4  -5   72.14    4.05
   3  -4  -4   15.25    2.17
  -3   4   4   21.35    2.90
   3  -4  -4   20.02    2.60
  -3   4   4   21.75    2.48
  -3   4   4   24.73    2.71
   3  -4  -4   25.18    2.67
  -3   4   3   65.81    4.35
   3  -4  -3   64.61    4.04
  -3   4   3   70.18    4.01
  -3   4   3   74.61    3.98
   3  -4  -3   64.39    3.99
   3  -4  -3   75.39    3.97
   3  -4  -2  323.09    8.61
   3  -4  -2  342.25    8.96
  -3   4   2  343.74    8.39
  -3   4   2  345.81    7.76
   3  -4  -2  352.15    7.81
   3  -4  -1    2.99    1.59
   3  -4  -1    2.05    1.12
  -3   4   1    4.51    1.35
   3  -4  -1    2.19    1.46
  -3   4   1    0.10    1.38
   3  -4   0  345.77    5.35
   3  -4   0  348.15    9.03
  -3   4   0  348.01    5.38
  -3   4   0  346.51    8.64
  -3   4   0  342.35    6.66
   3  -4   0  342.90    8.97
   3  -4   0  353.25    6.74
   3  -4   1    2.26    1.73
   3  -4   1    1.25    0.93
  -3   4  -1    2.48    1.02
   3  -4   1    3.08    1.87
   3  -4   1    1.87    0.79
  -3   4  -1    2.13    1.60
  -3   4  -1    2.48    0.90
   3  -4   2  153.68    4.59
   3  -4   2  162.77    6.30
  -3   4  -2  153.13    4.52
  -3   4  -2  148.25    6.00
  -3   4  -2  163.82    3.67
   3  -4   2  144.49    6.13
   3  -4   3  154.75    4.92
   3  -4   3  139.64    6.08
  -3   4  -3  150.23    4.87
  -3   4  -3  148.79    6.13
   3  -4   3  137.16    6.03
   3  -4   4  156.89    5.35
   3  -4   4  155.34    6.34
  -3   4  -4  159.43    5.42
  -3   4  -4  155.91    6.51
   3  -4   4  161.10    6.58
   3  -4   5  964.90   13.86
   3  -4   5  965.26   15.29
  -3   4  -5  979.31   14.02
   3  -4   5  968.82   15.84
   3  -4   6    0.75    1.74
  -3   4  -6    0.89    1.60
   3  -4   6    2.74    1.63
   3  -4   6   -0.53    1.56
   3  -4   7  154.72    6.34
   3  -4   7  160.27    6.57
  -3   4  -7  154.07    6.40
   3  -4   7  155.88    6.76
  -3   4  -8    9.69    2.43
   3  -4   8    8.43    2.19
   3  -4   8    6.76    2.08
   3  -4   8   10.10    2.29
   3  -4   9  195.95    7.82
   3  -4   9  209.27    7.39
  -3   4  -9  192.35    7.81
   3  -4   9  198.11    7.72
   3  -4  10  114.01    6.36
   3  -4  10  132.39    5.93
  -3   4 -10  135.09    6.90
   3  -4  10  126.06    6.26
   3  -4  11   91.00    5.92
  -3   4 -11   92.41    6.15
   3  -4  11   87.50    5.31
   3  -4  12   12.69    2.81
  -3   4 -12    8.14    2.74
   3  -4  13    5.31    2.52
  -3   4 -13    5.03    2.79
   3  -4  14   41.04    4.71
  -3   4 -14   39.90    5.26
   3  -4  15    1.98    2.51
  -3   4 -15    1.82    2.71
   3  -4  16   33.51    4.67
  -3   4 -16   40.54    5.46
   3  -3 -16   -4.39    3.29
  -3   3  16   -5.95    4.20
  -3   3  16   -3.42    2.58
   3  -3 -16    5.07    3.15
  -3   3  15  130.09    8.52
   3  -3 -15  135.21    8.37
  -3   3  15  136.05    8.58
   3  -3 -15  146.47    8.99
  -3   3  14   88.99    6.94
   3  -3 -14   82.82    6.43
  -3   3  14   88.21    6.89
   3  -3 -14   85.28    6.78
   3  -3 -13   15.26    3.66
  -3   3  13   15.99    3.35
  -3   3  13   13.95    3.47
   3  -3 -13   14.04    3.53
  -3   3  12   70.58    6.02
   3  -3 -12   72.44    5.59
  -3   3  12   74.53    6.08
   3  -3 -12   63.30    5.40
   3  -3 -11    0.02    2.23
  -3   3  11    2.10    2.43
  -3   3  11   -1.40    2.45
   3  -3 -11   -0.25    2.23
   3  -3 -10   13.55    3.16
  -3   3  10   16.37    3.22
  -3   3  10   10.88    2.71
   3  -3 -10   16.44    3.05
   3  -3  -9   24.20    3.41
  -3   3   9   22.11    3.21
  -3   3   9   20.47    3.33
   3  -3  -9   20.18    2.88
  -3   3   8  222.86    8.65
   3  -3  -8  233.65    7.75
   3  -3  -8  231.28    7.00
  -3   3   8  236.73    6.56
  -3   3   8  246.45    8.74
   3  -3  -8  232.14    8.48
  -3   3   7  166.61    7.27
   3  -3  -7  161.08    6.10
   3  -3  -7  159.29    5.88
  -3   3   7  159.79    5.37
  -3   3   7  164.38    6.89
   3  -3  -7  153.45    5.47
   3  -3  -7  161.38    6.79
  -3   3   6   21.50    2.81
   3  -3  -6   19.01    2.89
  -3   3   6   18.99    3.04
   3  -3  -6   21.92    2.41
   3  -3  -6   17.72    2.30
  -3   3   6   19.73    2.10
   3  -3  -6   15.75    2.19
  -3   3   5  140.58    6.31
  -3   3   5  135.72    5.68
   3  -3  -5  149.99    4.51
   3  -3  -5  151.97    5.15
   3  -3  -5  147.64    5.70
  -3   3   5  152.09    5.24
   3  -3  -5  145.27    5.54
   3  -3  -5  152.61    6.02
  -3   3   4  159.86    6.58
   3  -3  -4  159.79    4.81
  -3   3   4  163.08    3.61
   3  -3  -4  146.72    5.75
  -3   3   4  157.17    5.33
  -3   3   4  159.98    5.93
   3  -3  -4  149.82    5.66
   3  -3  -4  160.76    5.88
   3  -3  -3   18.32    2.31
   3  -3  -3   20.25    2.24
  -3   3   3   18.91    2.66
   3  -3  -3   17.59    1.89
  -3   3   3   18.06    2.08
  -3   3   3   19.62    2.16
   3  -3  -3   16.04    2.28
   3  -3  -2   65.10    3.39
   3  -3  -2   66.37    4.01
   3  -3  -2   64.16    3.91
  -3   3   2   63.11    1.72
  -3   3   2   67.15    3.71
  -3   3   2   64.02    3.38
   3  -3  -2   64.68    3.34
   3  -3  -1  114.20    4.56
   3  -3  -1  110.28    2.89
   3  -3  -1  114.17    5.21
   3  -3  -1  114.42    4.18
  -3   3   1  121.87    3.02
  -3   3   1  113.35    4.73
  -3   3   1  119.84    4.23
   3  -3  -1  110.71    5.15
   3  -3   0  316.57    7.65
   3  -3   0  319.93    5.56
   3  -3   0  309.81    8.38
  -3   3   0  319.80    5.58
  -3   3   0  313.79    7.90
  -3   3   0  326.23    6.34
   3  -3   0  306.09    8.29
   3  -3   0  319.69    6.25
   3  -3   1   66.80    2.89
   3  -3   1   67.27    2.70
   3  -3   1   69.62    4.18
  -3   3  -1   60.01    1.66
  -3   3  -1   68.12    2.90
  -3   3  -1   62.83    3.86
   3  -3   1   70.35    4.29
  -3   3  -1   66.38    2.67
   3  -3   2   21.07    2.73
   3  -3   2   22.44    2.03
  -3   3  -2   24.86    2.16
   3  -3   2   19.48    2.53
  -3   3  -2   21.26    1.44
  -3   3  -2   16.84    2.39
   3  -3   2   20.25    1.45
   3  -3   3   87.32    3.88
  -3   3  -3   87.74    2.34
   3  -3   3   88.08    4.77
  -3   3  -3   87.95    3.95
   3  -3   3   84.39    4.71
   3  -3   4  143.03    5.29
   3  -3   4  135.21    5.94
  -3   3  -4  153.57    5.44
   3  -3   4  158.11    6.41
   3  -3   5 1544.47   17.92
   3  -3   5 1579.93   19.36
   3  -3   5 1545.10   19.83
  -3   3  -5 1586.14   18.13
  -3   3  -5 1614.03   12.64
  -3   3  -6    7.71    2.23
   3  -3   6    8.39    2.02
   3  -3   6   10.36    2.21
   3  -3   6   10.54    2.30
   3  -3   7   45.35    3.76
   3  -3   7   46.87    3.60
  -3   3  -7   53.13    4.13
   3  -3   7   44.81    3.75
   3  -3   8  197.69    7.13
   3  -3   8  205.64    7.65
  -3   3  -8  208.85    7.87
   3  -3   8  193.79    7.43
  -3   3  -9   -1.48    2.14
   3  -3   9   -0.70    1.63
   3  -3   9    2.00    1.98
   3  -3   9    2.14    2.01
  -3   3 -10    3.58    2.50
   3  -3  10    1.82    1.42
   3  -3  10    5.90    2.23
   3  -3  10    2.48    1.98
  -3   3 -11    1.48    2.23
   3  -3  11    2.61    1.91
   3  -3  11    0.37    1.66
  -3   3 -12    0.84    2.67
   3  -3  12    1.48    2.31
  -3   3 -13   11.89    3.20
   3  -3  13   14.70    3.23
  -3   3 -14    8.47    3.38
   3  -3  14   11.33    3.25
   3  -3  15    4.50    2.82
  -3   3 -15    0.06    3.15
   3  -3  16    0.72    2.18
  -3   3 -16    6.49    3.34
  -3   2  17    0.01    3.63
   3  -2 -17    1.94    2.77
   3  -2 -16   10.66    3.64
  -3   2  16   12.87    3.64
  -3   2  16   12.12    3.91
   3  -2 -16   13.23    3.69
   3  -2 -15    3.26    2.99
  -3   2  15    4.45    2.76
   3  -2 -15   -2.38    2.60
  -3   2  14   79.80    6.78
   3  -2 -14   71.04    5.91
  -3   2  14   69.40    6.15
   3  -2 -14   71.34    6.21
  -3   2  13  168.24    8.84
   3  -2 -13  173.35    8.43
  -3   2  13  175.17    8.88
   3  -2 -13  184.46    9.20
   3  -2 -12    5.90    2.79
  -3   2  12    4.78    2.31
  -3   2  12    5.43    2.70
   3  -2 -12    3.16    2.49
   3  -2 -11   21.79    3.44
  -3   2  11   25.57    3.62
  -3   2  11   24.70    3.96
   3  -2 -11   26.86    3.58
  -3   2  10   57.78    5.09
   3  -2 -10   51.28    4.38
  -3   2  10   56.82    4.83
   3  -2 -10   58.06    4.88
  -3   2   9   11.52    2.70
   3  -2  -9    9.62    2.63
  -3   2   9    4.41    2.22
   3  -2  -9    9.21    2.18
   3  -2  -9   10.60    1.71
  -3   2   8  234.26    8.59
   3  -2  -8  234.52    6.83
   3  -2  -8  230.61    6.32
   3  -2  -8  233.27    7.50
  -3   2   8  240.32    8.36
   3  -2  -8  243.25    8.45
  -3   2   7  824.49   15.37
   3  -2  -7  845.68   13.02
   3  -2  -7  822.02   13.02
  -3   2   7  847.06   11.05
   3  -2  -7  833.35   12.18
   3  -2  -7  847.61   14.91
  -3   2   7  812.86   14.64
  -3   2   6   39.14    3.79
  -3   2   6   35.19    3.22
   3  -2  -6   37.44    2.91
   3  -2  -6   36.36    2.93
   3  -2  -6   36.36    2.85
   3  -2  -6   38.03    2.51
  -3   2   6   43.56    2.73
   3  -2  -6   40.16    3.52
  -3   2   5   26.26    2.74
  -3   2   5   27.45    3.10
   3  -2  -5   29.82    2.72
   3  -2  -5   30.83    2.44
   3  -2  -5   30.96    2.33
  -3   2   5   31.73    1.70
  -3   2   5   30.27    2.30
   3  -2  -5   27.51    2.57
   3  -2  -5   28.48    2.79
  -3   2   4   -0.40    1.35
   3  -2  -4    0.80    1.38
  -3   2   4    0.60    1.54
   3  -2  -4    0.25    0.95
  -3   2   4    0.75    0.79
   3  -2  -4    1.75    1.53
   3  -2  -4   -0.19    1.04
  -3   2   4   -0.48    1.14
   3  -2  -4    3.28    1.55
  -3   2   3  246.16    7.57
   3  -2  -3  249.51    6.41
  -3   2   3  263.19    5.55
   3  -2  -3  260.98    7.49
   3  -2  -3  250.89    5.12
  -3   2   3  265.27    3.87
  -3   2   3  250.27    6.39
  -3   2   3  256.57    6.79
   3  -2  -3  252.63    7.29
   3  -2  -3  261.14    6.84
   3  -2  -2   27.69    2.36
   3  -2  -2   32.05    3.07
   3  -2  -2   31.97    1.66
  -3   2   2   34.90    1.74
  -3   2   2   29.74    2.42
  -3   2   2   32.37    2.46
   3  -2  -2   25.21    2.64
   3  -2  -2   30.19    2.40
   3  -2  -1   68.86    3.28
   3  -2  -1   73.92    2.75
   3  -2  -1   69.08    3.67
   3  -2  -1   67.41    4.07
  -3   2   1   72.71    2.72
  -3   2   1   75.17    3.76
  -3   2   1   71.03    3.23
   3  -2  -1   75.58    4.20
   3  -2   0  356.01    6.40
   3  -2   0  365.30    8.37
   3  -2   0  362.09    9.02
  -3   2   0  362.51    5.09
  -3   2   0  365.37    6.53
  -3   2   0  362.93    6.71
   3  -2   0  362.08    6.73
   3  -2   0  355.30    8.93
  -3   2   0  352.91    8.12
   3  -2   1   54.67    2.78
   3  -2   1   54.51    3.50
   3  -2   1   47.23    3.56
  -3   2  -1   48.74    1.59
  -3   2  -1   55.87    2.89
  -3   2  -1   57.57    2.59
   3  -2   1   49.78    2.44
   3  -2   1   53.99    3.93
   3  -2   2   56.68    3.07
   3  -2   2   60.09    3.81
   3  -2   2   55.30    3.74
  -3   2  -2   56.97    3.09
  -3   2  -2   57.59    2.39
   3  -2   2   57.15    2.40
   3  -2   2   57.40    4.04
   3  -2   3  195.01    5.91
   3  -2   3  194.84    6.78
  -3   2  -3  195.97    5.90
  -3   2  -3  195.54    5.19
   3  -2   3  193.58    7.00
   3  -2   4  567.32   10.57
   3  -2   4  568.65   11.45
  -3   2  -4  563.10   10.55
  -3   2  -4  559.95    8.34
   3  -2   4  556.53   11.77
   3  -2   5  693.13   13.16
   3  -2   5  677.48   12.64
   3  -2   5  676.09   12.25
  -3   2  -5  665.18    8.67
  -3   2  -5  698.35   12.42
  -3   2  -6   11.60    2.36
   3  -2   6   15.73    2.55
   3  -2   6    9.09    1.99
  -3   2  -7    8.76    2.39
   3  -2   7    1.96    1.71
   3  -2   7    6.92    2.20
   3  -2   7    7.64    2.17
  -3   2  -8    2.87    2.17
   3  -2   8    0.68    1.54
   3  -2   8    2.38    1.84
   3  -2   8    2.24    1.78
   3  -2   9   13.37    2.30
  -3   2  -9   10.34    2.60
   3  -2   9   15.02    2.92
   3  -2  10  197.75    7.09
   3  -2  10  182.39    8.07
  -3   2 -10  193.68    8.48
  -3   2 -11    6.48    3.10
   3  -2  11    1.23    2.20
  -3   2 -12    6.01    2.99
   3  -2  12    9.89    2.77
  -3   2 -13   18.34    3.75
   3  -2  13   19.93    3.56
  -3   2 -14   12.61    3.74
   3  -2  14    8.97    2.85
   3  -2  15   53.72    5.63
  -3   2 -15   53.56    5.94
  -3   2 -16   19.50    4.31
   3  -2  16   23.47    4.08
   3  -1 -17   -5.43    3.33
  -3   1  17    1.78    2.46
  -3   1  17   -1.12    3.50
   3  -1 -17    1.05    2.42
   3  -1 -16   42.07    5.24
  -3   1  16   33.25    5.01
   3  -1 -16   42.50    5.19
  -3   1  16   45.27    5.36
   3  -1 -15    6.45    2.75
  -3   1  15    8.21    2.96
  -3   1  15   -2.37    3.73
   3  -1 -15    4.87    2.53
  -3   1  14   56.66    5.87
   3  -1 -14   41.74    4.68
  -3   1  14   44.30    4.92
   3  -1 -14   47.43    5.08
   3  -1 -13   13.67    3.23
  -3   1  13   14.86    2.97
  -3   1  13   19.02    3.99
   3  -1 -13   14.38    3.15
  -3   1  12   39.03    4.53
   3  -1 -12   38.92    4.21
  -3   1  12   38.75    4.31
   3  -1 -12   41.47    4.52
  -3   1  11  134.51    7.28
   3  -1 -11  132.67    6.60
  -3   1  11  134.68    7.14
   3  -1 -11  139.85    7.32
  -3   1  10   60.76    4.93
   3  -1 -10   63.16    4.48
   3  -1 -10   64.04    4.96
  -3   1  10   59.10    4.65
  -3   1   9  478.87   12.32
   3  -1  -9  489.61    9.51
   3  -1  -9  476.27   10.93
  -3   1   9  481.04   12.22
   3  -1  -9  493.00   12.25
  -3   1   8  740.69   14.75
   3  -1  -8  766.48   12.13
   3  -1  -8  747.07   12.86
  -3   1   8  755.83   14.49
   3  -1  -8  765.22   14.57
  -3   1   7  432.56   11.03
   3  -1  -7  441.44    9.28
   3  -1  -7  441.68    9.31
   3  -1  -7  444.09    8.58
  -3   1   7  442.76    7.14
  -3   1   7  429.60   10.58
   3  -1  -7  439.64   10.63
  -3   1   6   10.80    2.19
   3  -1  -6   12.75    2.33
  -3   1   6   14.76    2.54
  -3   1   6   11.96    1.40
  -3   1   6   13.69    1.34
   3  -1  -6   11.59    1.93
   3  -1  -6   12.47    1.86
   3  -1  -6   16.06    1.95
   3  -1  -6   15.14    2.06
  -3   1   5  153.10    6.24
   3  -1  -5  158.05    5.78
   3  -1  -5  151.52    4.76
  -3   1   5  161.03    4.20
   3  -1  -5  158.35    5.25
  -3   1   5  158.36    4.56
  -3   1   5  153.85    5.87
   3  -1  -5  152.82    5.55
   3  -1  -5  146.57    5.73
  -3   1   4  107.26    5.09
   3  -1  -4  113.55    5.22
   3  -1  -4  108.26    4.85
   3  -1  -4  104.61    3.67
  -3   1   4  106.63    3.64
   3  -1  -4  107.57    4.43
  -3   1   4  110.90    3.95
  -3   1   4   97.58    4.48
   3  -1  -4  108.97    3.25
   3  -1  -4  100.87    4.64
   3  -1  -4  101.48    4.64
  -3   1   3   45.33    3.30
   3  -1  -3   44.35    3.44
   3  -1  -3   43.30    3.31
   3  -1  -3   45.62    2.19
  -3   1   3   46.77    2.65
   3  -1  -3   44.50    2.97
  -3   1   3   44.73    2.65
  -3   1   3   44.84    3.04
   3  -1  -3   43.38    3.24
   3  -1  -3   46.28    3.08
  -3   1   2  420.30    9.21
   3  -1  -2  415.62    9.57
   3  -1  -2  412.53    9.36
   3  -1  -2  420.99    5.37
   3  -1  -2  415.48    8.81
  -3   1   2  417.63    8.11
  -3   1   2  409.64    8.22
   3  -1  -2  412.13    9.31
   3  -1  -2  412.11    8.11
   3  -1  -1  145.98    5.79
   3  -1  -1  139.36    5.63
   3  -1  -1  140.51    4.18
   3  -1  -1  142.26    2.49
   3  -1  -1  147.90    5.41
  -3   1   1  150.78    3.87
   3  -1  -1  140.68    4.64
   3  -1  -1  140.76    5.67
   3  -1   0   61.30    3.88
   3  -1   0   55.20    3.64
   3  -1   0   60.58    2.98
   3  -1   0   58.49    3.59
  -3   1   0   59.34    2.30
   3  -1   0   58.67    2.94
   3  -1   0   58.18    3.84
   3  -1   1   30.67    2.90
   3  -1   1   31.55    2.96
   3  -1   1   32.47    2.45
   3  -1   1   31.87    2.87
  -3   1  -1   30.01    1.49
   3  -1   1   32.54    2.17
   3  -1   1   34.08    3.11
   3  -1   2   20.46    2.57
   3  -1   2   20.12    2.06
   3  -1   2   19.58    2.53
   3  -1   2   17.01    2.32
  -3   1  -2   19.96    1.11
  -3   1  -2   18.98    1.97
   3  -1   2   21.42    2.75
   3  -1   3   63.56    4.02
   3  -1   3   64.10    3.88
   3  -1   3   56.11    3.46
   3  -1   3   65.34    4.16
  -3   1  -3   60.53    3.61
  -3   1  -3   61.64    3.17
   3  -1   3   57.37    3.94
   3  -1   4   23.19    2.56
  -3   1  -4   17.67    2.35
   3  -1   4   18.78    2.39
   3  -1   4   16.20    2.14
   3  -1   4   23.40    2.94
  -3   1  -4   20.61    1.90
   3  -1   4   14.08    2.24
   3  -1   5  171.40    6.48
   3  -1   5  160.54    6.19
  -3   1  -5  164.80    6.42
  -3   1  -5  161.31    4.69
   3  -1   5  162.30    6.53
   3  -1   6  111.26    5.32
   3  -1   6  106.80    5.39
  -3   1  -6  108.79    5.52
   3  -1   7   82.39    4.64
   3  -1   7   75.75    4.82
  -3   1  -7   77.67    4.96
  -3   1  -8   10.50    2.71
   3  -1   8    9.90    2.44
   3  -1   8    8.92    1.95
  -3   1  -9    3.99    2.45
   3  -1   9    6.06    1.94
   3  -1   9    5.23    1.73
   3  -1  10   92.87    6.04
  -3   1 -10   94.64    6.40
   3  -1  11   59.73    5.06
  -3   1 -11   57.39    5.27
  -3   1 -12   20.48    3.90
   3  -1  12   16.16    3.12
  -3   1 -13   -1.27    2.66
   3  -1  13   -0.04    2.30
   3  -1  14   44.95    5.22
  -3   1 -14   45.30    5.33
  -3   1 -15    9.15    3.64
   3  -1  15    8.18    2.73
   3   0 -18   12.03    3.42
   3   0 -17    5.41    3.01
  -3   0  17   16.73    4.06
  -3   0  17    9.70    3.87
   3   0 -17    7.12    2.95
  -3   0  16  110.58    7.90
   3   0 -16  112.53    7.56
  -3   0  16  118.69    7.94
   3   0 -16  113.86    7.83
   3   0 -15    5.13    2.94
  -3   0  15    8.52    3.19
  -3   0  15   -0.24    3.14
   3   0 -15    3.29    2.81
   3   0 -14   83.03    5.98
  -3   0  14   85.35    6.43
  -3   0  14   75.44    6.11
   3   0 -14   79.64    6.24
   3   0 -13    1.67    2.46
  -3   0  13    3.15    2.30
   3   0 -13    3.92    2.21
  -3   0  12  172.01    8.40
   3   0 -12  172.91    7.77
  -3   0  12  163.82    8.14
   3   0 -12  172.55    8.19
  -3   0  11   -1.26    2.06
   3   0 -11   -3.98    2.62
  -3   0  11    0.48    2.35
   3   0 -11   -2.46    1.97
  -3   0  10   73.94    5.33
  -3   0  10   73.29    5.09
   3   0 -10   80.92    5.45
  -3   0   9   12.85    2.58
   3   0  -9   13.80    2.71
  -3   0   9   13.84    2.68
   3   0  -9   13.86    1.91
   3   0  -9   12.75    1.90
   3   0  -8  200.02    6.19
  -3   0   8  195.99    7.58
   3   0  -8  196.56    7.03
   3   0  -8  205.33    6.29
  -3   0   8  203.04    7.63
   3   0  -8  208.35    7.71
  -3   0   7  101.07    5.49
   3   0  -7  106.07    4.63
   3   0  -7   96.43    5.02
  -3   0   7   97.67    3.41
   3   0  -7  103.63    4.52
  -3   0   7  105.58    5.38
   3   0  -7  100.48    5.24
  -3   0   6  644.81   12.56
   3   0  -6  650.54   11.42
   3   0  -6  640.72   12.35
  -3   0   6  662.50    9.02
   3   0  -6  646.37   11.09
  -3   0   6  672.80    8.15
  -3   0   6  626.51   12.20
   3   0  -6  676.86    9.31
   3   0  -6  672.37   12.51
  -3   0   5  108.73    5.11
   3   0  -5  106.66    4.82
   3   0  -5  114.07    5.29
  -3   0   5  109.25    3.89
   3   0  -5  109.46    4.69
  -3   0   5  112.31    3.60
  -3   0   5  111.86    5.10
   3   0  -5  113.83    3.84
   3   0  -5  108.37    4.95
   3   0  -4   19.11    2.46
   3   0  -4   17.70    2.31
  -3   0   4   17.25    2.30
   3   0  -4   16.99    2.42
  -3   0   4   17.22    1.81
  -3   0   4   18.70    1.71
  -3   0   4   16.29    2.10
   3   0  -4   17.43    2.17
   3   0  -4   19.77    1.80
  -3   0   3  266.64    7.28
   3   0  -3  263.39    7.57
   3   0  -3  267.58    7.87
  -3   0   3  279.56    6.62
   3   0  -3  264.33    7.25
  -3   0   3  282.24    6.25
   3   0  -3  272.35    5.99
   3   0  -3  271.20    7.13
  -3   0   2   24.65    2.35
   3   0  -2   27.69    2.74
   3   0  -2   27.09    2.77
  -3   0   2   24.00    2.30
   3   0  -2   23.14    2.44
  -3   0   2   22.28    1.84
   3   0  -2   26.15    2.38
  -3   0   1   31.62    2.56
   3   0  -1   35.65    3.13
   3   0  -1   34.17    3.08
   3   0  -1   32.44    2.34
   3   0  -1   34.20    2.91
  -3   0   1   36.74    2.17
   3   0  -1   35.35    2.58
   3   0   0  180.87    6.40
   3   0   0  180.48    6.43
   3   0   0  178.85    5.41
   3   0   0  183.14    6.33
  -3   0   0  184.40    4.40
   3   0   0  182.77    5.25
  -3   0   0  180.37    5.81
   3   0   1    6.63    2.01
   3   0   1    8.57    1.85
   3   0   1    7.33    1.47
  -3   0  -1    8.60    1.15
   3   0   1    7.93    1.90
  -3   0  -1    9.42    1.68
   3   0   2    1.24    1.65
   3   0   2    0.11    1.41
   3   0   2    1.06    1.21
   3   0   2    0.29    1.47
  -3   0  -2    1.06    0.72
  -3   0  -2    1.89    1.32
   3   0   3    3.84    1.75
   3   0   3    1.84    1.59
   3   0   3    1.52    1.39
   3   0   3    3.09    1.76
  -3   0  -3    4.61    0.94
  -3   0  -3    7.95    1.54
   3   0   4    7.30    1.94
   3   0   4    8.19    1.90
  -3   0  -4   11.08    1.36
   3   0   4    8.73    2.29
  -3   0  -4    6.89    1.40
   3   0   4    7.46    1.97
   3   0   5    1.33    1.62
  -3   0  -5   -0.32    2.06
   3   0   5    0.88    1.26
   3   0   5    0.80    1.83
   3   0   5    1.03    1.03
   3   0   5    2.52    1.78
  -3   0  -5   -0.40    1.23
   3   0   6   78.18    4.61
   3   0   6   73.12    4.02
   3   0   6   68.95    4.59
   3   0   6   79.95    3.65
  -3   0  -6   71.00    4.76
  -3   0  -6   75.23    3.55
   3   0   7   35.55    3.40
   3   0   7   32.25    2.80
  -3   0  -7   23.25    3.24
   3   0   7   26.12    3.19
  -3   0  -8    2.48    2.22
   3   0   8    5.17    2.24
  -3   0  -9    3.51    2.60
   3   0   9    0.43    1.90
  -3   0 -10    0.10    2.43
   3   0  10    0.67    1.78
  -3   0 -11   18.52    3.70
   3   0  11   23.98    3.64
  -3   0 -12    0.83    2.95
   3   0  12   -1.42    2.60
  -3   0 -13    1.13    2.36
   3   0  13    1.56    2.17
  -3   0 -14    3.49    3.21
   3   0  14    4.47    2.72
  -3   0 -15    4.97    3.10
   3   0  15    0.98    2.60
   3   1 -18   16.10    4.23
  -3  -1  18   12.31    3.46
   3   1 -18   12.51    3.68
  -3  -1  17   83.81    6.94
  -3  -1  17   76.95    7.13
   3   1 -17   77.68    6.64
   3   1 -17   73.78    6.52
   3   1 -16   14.28    3.50
  -3  -1  16   18.55    3.77
  -3  -1  16    8.56    3.72
   3   1 -16   24.29    4.27
  -3  -1  15  213.81   10.38
   3   1 -15  224.04    9.86
   3   1 -15  246.31   10.69
  -3  -1  15  228.16   10.39
  -3  -1  14   38.65    4.91
   3   1 -14   42.90    4.59
  -3  -1  14   40.24    4.54
   3   1 -14   40.76    4.49
   3   1 -13   -2.07    2.26
  -3  -1  13   -2.15    2.31
  -3  -1  13   -1.93    2.70
  -3  -1  12   27.89    3.62
  -3  -1  12   34.20    4.20
   3   1 -12   27.69    3.72
  -3  -1  11   48.71    4.57
   3   1 -11   48.02    3.77
  -3  -1  11   43.73    4.33
   3   1 -11   48.53    4.52
  -3  -1  10    6.97    2.27
   3   1 -10    4.92    2.39
  -3  -1  10    5.37    2.71
   3   1 -10    3.92    1.68
   3   1 -10    4.26    1.50
  -3  -1   9    2.57    1.95
   3   1  -9    4.18    2.33
  -3  -1   9   -0.12    2.07
   3   1  -9    2.06    1.55
   3   1  -9    1.94    1.41
   3   1  -9    1.16    1.24
   3   1  -8   44.27    3.25
  -3  -1   8   41.27    3.81
   3   1  -8   40.53    3.50
  -3  -1   8   46.84    2.76
   3   1  -8   42.02    3.22
  -3  -1   8   40.82    3.86
   3   1  -8   45.02    2.93
   3   1  -8   43.50    3.87
  -3  -1   7   11.31    2.32
   3   1  -7   12.46    2.45
   3   1  -7   10.94    1.88
  -3  -1   7    9.12    2.15
   3   1  -7    9.32    2.15
  -3  -1   7   11.37    1.72
   3   1  -7   10.59    1.91
   3   1  -7   11.46    1.69
   3   1  -6  234.05    7.04
  -3  -1   6  229.43    7.37
   3   1  -6  226.45    7.59
  -3  -1   6  231.07    6.01
   3   1  -6  233.55    7.13
   3   1  -6  237.93    6.20
   3   1  -6  234.83    7.63
   3   1  -5    5.23    1.96
  -3  -1   5    0.06    1.69
   3   1  -5    2.59    1.49
  -3  -1   5    1.32    1.06
   3   1  -5    2.46    1.22
   3   1  -5    1.72    1.40
  -3  -1   5    3.00    0.87
   3   1  -5    1.64    1.47
   3   1  -4    0.44    1.54
  -3  -1   4    1.50    1.35
   3   1  -4   -2.31    1.72
  -3  -1   4   -0.29    1.23
  -3  -1   4   -0.83    1.48
   3   1  -4   -0.10    0.90
   3   1  -4    1.14    1.38
   3   1  -4    0.53    1.09
   3   1  -4   -0.35    1.41
   3   1  -3  850.15   13.61
  -3  -1   3  841.70   12.46
   3   1  -3  849.84   14.11
  -3  -1   3  854.56   12.34
   3   1  -3  854.99   13.49
  -3  -1   3  832.97   11.58
   3   1  -3  865.60    9.72
   3   1  -3  860.21   11.68
   3   1  -3  852.31   12.80
   3   1  -2  121.70    5.38
  -3  -1   2  115.51    4.51
   3   1  -2  117.28    5.43
  -3  -1   2  114.03    4.80
   3   1  -2  119.07    5.18
  -3  -1   2  119.72    4.25
   3   1  -2  117.15    3.40
  -3  -1   2  113.26    5.04
   3   1  -2  120.43    4.84
   3   1  -1   35.31    3.27
  -3  -1   1   29.93    2.33
   3   1  -1   27.39    2.93
   3   1  -1   31.15    2.56
   3   1  -1   34.47    2.77
  -3  -1   1   27.84    2.68
   3   1  -1   30.36    2.98
  -3  -1   1   33.46    2.28
   3   1  -1   32.64    1.71
  -3  -1   1   27.74    2.70
   3   1   0   39.60    3.40
  -3  -1   0   35.07    2.42
   3   1   0   29.92    3.06
   3   1   0   36.69    2.81
  -3  -1   0   34.20    2.97
   3   1   0   33.21    3.13
  -3  -1   0   37.18    2.32
   3   1   0   37.48    1.70
  -3  -1   0   32.69    2.84
   3   1   1   15.53    2.21
   3   1   1   15.63    2.11
  -3  -1  -1   17.52    1.71
   3   1   1   14.83    2.33
  -3  -1  -1   21.16    2.53
   3   1   1   19.14    2.66
   3   1   2    8.40    2.04
   3   1   2    4.53    1.55
  -3  -1  -2    5.72    1.18
   3   1   2    6.25    1.86
   3   1   2    5.45    2.18
  -3  -1  -2    7.91    1.85
   3   1   3  179.81    6.78
   3   1   3  167.47    6.23
   3   1   3  168.17    6.33
   3   1   3  166.99    6.70
  -3  -1  -3  179.54    4.71
  -3  -1  -3  164.98    5.56
   3   1   4   77.16    4.34
   3   1   4   69.12    4.37
   3   1   4   70.02    4.50
   3   1   4   75.75    3.80
  -3  -1  -4   78.95    3.25
  -3  -1  -4   66.93    3.71
   3   1   4   76.66    4.71
   3   1   5   45.59    3.36
   3   1   5   41.54    3.61
   3   1   5   43.49    3.80
   3   1   5   47.58    3.11
  -3  -1  -5   49.45    2.79
  -3  -1  -5   51.25    3.35
  -3  -1  -6    7.72    2.39
   3   1   6   10.15    1.83
   3   1   6    9.86    2.23
   3   1   6    8.75    1.70
   3   1   6   11.74    2.48
  -3  -1  -6    6.76    1.65
   3   1   7   86.54    4.43
   3   1   7   83.13    5.44
   3   1   7   84.34    4.35
  -3  -1  -7   82.35    5.59
   3   1   8   80.92    5.68
  -3  -1  -8   83.27    5.90
   3   1   9   43.85    4.41
  -3  -1  -9   38.87    4.29
  -3  -1 -10   35.85    4.30
   3   1  10   35.94    4.13
  -3  -1 -11    8.14    3.31
   3   1  11   14.66    3.24
  -3  -1 -12    5.98    2.84
   3   1  12    8.82    2.72
  -3  -1 -13   35.79    4.92
   3   1  13   40.65    4.89
  -3  -1 -14   -0.49    2.72
   3   1  14    2.95    2.35
   3   2 -18    3.12    2.77
  -3  -2  18    3.96    2.67
  -3  -2  18    3.49    3.33
   3   2 -18    1.36    2.50
  -3  -2  17   54.64    6.04
   3   2 -17   59.93    5.94
  -3  -2  17   64.23    6.08
   3   2 -17   57.38    5.94
   3   2 -16    4.16    3.12
  -3  -2  16    2.57    2.61
  -3  -2  16    2.49    3.50
  -3  -2  15  100.35    7.34
   3   2 -15  103.66    7.15
  -3  -2  15   95.82    6.86
   3   2 -14   24.87    3.85
  -3  -2  14   25.56    3.77
  -3  -2  14   29.07    4.19
  -3  -2  13    9.47    2.56
   3   2 -13    7.17    2.67
  -3  -2  13    3.66    2.95
  -3  -2  12    4.46    2.29
   3   2 -12    5.64    2.62
  -3  -2  12    1.14    2.83
  -3  -2  11    7.96    2.50
   3   2 -11    7.19    2.62
  -3  -2  11   11.90    3.16
   3   2 -11    5.57    1.96
  -3  -2  10   23.06    3.21
   3   2 -10   25.31    3.46
  -3  -2  10   27.93    3.66
   3   2 -10   23.57    2.90
   3   2 -10   26.97    2.82
  -3  -2   9   16.88    2.83
   3   2  -9   18.32    3.11
  -3  -2   9   14.31    2.92
   3   2  -9   15.24    2.43
  -3  -2   9   17.17    2.05
   3   2  -9   16.83    2.16
   3   2  -8    6.19    2.17
  -3  -2   8    7.58    2.34
   3   2  -8    4.99    2.02
  -3  -2   8    3.76    1.91
  -3  -2   8    7.38    1.93
   3   2  -8    6.83    1.76
   3   2  -7    9.19    2.29
  -3  -2   7   11.12    2.49
   3   2  -7   10.93    2.23
  -3  -2   7   13.98    2.03
   3   2  -7   13.76    2.09
   3   2  -7   13.94    2.15
   3   2  -7   10.42    2.05
   3   2  -6    9.84    2.23
  -3  -2   6    8.70    1.89
   3   2  -6    9.54    2.31
  -3  -2   6   11.44    1.84
  -3  -2   6    9.02    1.88
   3   2  -6   10.87    1.80
   3   2  -6    9.91    1.71
   3   2  -6   12.86    2.19
  -3  -2   5  116.50    5.02
   3   2  -5  116.79    5.60
  -3  -2   5  123.39    4.91
   3   2  -5  119.76    5.45
  -3  -2   5  115.84    4.95
   3   2  -5  124.14    4.53
   3   2  -5  118.75    4.78
   3   2  -5  122.74    5.56
  -3  -2   4  101.14    4.42
   3   2  -4   99.86    5.17
  -3  -2   4  104.32    4.61
   3   2  -4  100.89    5.01
  -3  -2   4  105.01    4.54
   3   2  -4  104.64    3.95
  -3  -2   4  101.89    5.16
   3   2  -4  107.89    4.65
   3   2  -4  103.11    4.97
   3   2  -3    5.95    1.83
  -3  -2   3    9.69    1.58
   3   2  -3    8.39    1.97
  -3  -2   3    9.79    1.90
  -3  -2   3    8.22    1.69
   3   2  -3    8.83    1.33
   3   2  -3   10.28    2.15
  -3  -2   3    6.98    1.92
   3   2  -3    8.73    1.73
   3   2  -2    1.08    1.47
  -3  -2   2    0.50    0.99
   3   2  -2    0.72    1.68
  -3  -2   2    0.51    1.44
  -3  -2   2   -0.12    1.14
   3   2  -2    0.85    0.87
  -3  -2   2   -0.59    1.57
   3   2  -2    0.01    1.49
   3   2  -2   -0.14    1.30
  -3  -2   1  173.73    5.03
   3   2  -1  174.63    6.60
  -3  -2   1  176.68    6.38
   3   2  -1  181.42    6.68
  -3  -2   1  179.82    5.46
   3   2  -1  184.71    4.51
  -3  -2   1  175.96    6.27
  -3  -2   0   24.29    1.96
   3   2   0   28.76    2.70
   3   2   0   24.58    2.75
  -3  -2   0   26.75    2.90
  -3  -2   0   27.38    2.23
   3   2   0   26.10    1.79
   3   2   0   21.34    2.60
  -3  -2   0   26.95    2.89
  -3  -2  -1   63.58    2.94
   3   2   1   68.62    4.35
   3   2   1   63.86    4.12
  -3  -2  -1   58.10    4.07
   3   2   1   63.90    4.30
  -3  -2  -1   65.79    3.35
   3   2   1   67.04    2.73
  -3  -2  -1   67.27    4.05
   3   2   2  100.47    5.04
   3   2   2  110.75    5.24
  -3  -2  -2   97.93    5.31
   3   2   2  102.50    5.37
  -3  -2  -2  110.58    4.25
  -3  -2  -2  100.10    4.73
   3   2   3    6.05    1.92
   3   2   3    1.76    1.69
   3   2   3    3.37    1.39
  -3  -2  -3    3.68    1.24
   3   2   3    3.17    1.60
  -3  -2  -3    6.26    1.83
   3   2   4   -0.47    1.50
   3   2   4   -1.97    1.53
   3   2   4    0.79    1.26
  -3  -2  -4    0.40    1.23
   3   2   4    0.78    1.62
   3   2   5  240.65    7.56
   3   2   5  231.39    8.43
   3   2   5  241.58    8.51
   3   2   5  243.31    7.46
  -3  -2  -5  246.17    6.68
  -3  -2  -5  245.61    7.34
   3   2   6   19.67    2.42
   3   2   6   20.00    3.20
   3   2   6   19.05    2.39
   3   2   6   21.44    3.09
  -3  -2  -6   17.45    2.15
  -3  -2  -6   15.23    2.24
   3   2   7   22.17    2.53
  -3  -2  -7   20.33    3.37
   3   2   7   24.73    3.43
   3   2   7   21.65    2.60
  -3  -2  -8   40.03    4.34
   3   2   8   38.87    4.16
   3   2   8   39.15    3.46
  -3  -2  -9   32.62    4.44
   3   2   9   29.12    3.78
  -3  -2 -10   29.98    4.08
   3   2  10   32.11    4.17
  -3  -2 -11    1.05    2.29
   3   2  11   -0.15    2.43
  -3  -2 -12   11.42    3.63
   3   2  12   15.23    3.55
  -3  -2 -13   20.18    4.39
   3   2  13   18.10    3.51
   3   2  14   62.94    6.30
  -3  -2 -14   70.36    6.73
   3   3 -18    2.74    2.77
  -3  -3  18    1.36    2.14
  -3  -3  18    5.08    3.67
   3   3 -17   20.82    3.98
  -3  -3  17   11.37    2.98
  -3  -3  17   21.31    4.40
   3   3 -16    2.67    2.29
  -3  -3  16    5.22    2.73
  -3  -3  16    2.88    3.23
   3   3 -15   16.10    3.41
  -3  -3  15   17.28    3.47
  -3  -3  15   16.05    3.61
  -3  -3  14   16.43    3.33
   3   3 -14   14.28    3.33
  -3  -3  14   12.80    3.31
  -3  -3  13  138.66    7.77
  -3  -3  13  146.93    7.82
   3   3 -13  153.58    7.91
  -3  -3  12  144.66    7.65
   3   3 -12  149.72    6.51
  -3  -3  12  150.40    7.65
   3   3 -12  148.68    6.58
   3   3 -12  158.45    7.88
  -3  -3  11    3.25    2.03
   3   3 -11    3.98    2.56
  -3  -3  11   -1.58    2.72
   3   3 -11    2.95    1.77
   3   3 -11    3.01    1.60
  -3  -3  10   81.88    5.37
   3   3 -10   80.84    4.89
  -3  -3  10   79.43    4.18
  -3  -3  10   76.43    5.39
   3   3 -10   74.71    4.50
   3   3 -10   67.60    5.03
  -3  -3   9  158.91    7.06
   3   3  -9  159.85    6.76
  -3  -3   9  166.17    5.92
   3   3  -9  149.92    6.44
   3   3  -9  167.31    6.44
   3   3  -9  160.56    7.21
   3   3  -8   17.52    2.87
  -3  -3   8   16.88    2.79
   3   3  -8   11.29    2.37
  -3  -3   8   17.95    2.42
  -3  -3   8   13.29    2.42
   3   3  -8   11.68    2.13
   3   3  -8   14.77    2.35
   3   3  -7    1.74    1.85
  -3  -3   7    5.13    2.02
   3   3  -7    0.42    1.56
  -3  -3   7    2.91    1.74
  -3  -3   7   -0.34    1.63
   3   3  -7    2.02    1.55
  -3  -3   7   -0.09    2.33
   3   3  -7   -0.51    1.43
   3   3  -6    9.13    2.42
  -3  -3   6   12.65    2.17
   3   3  -6    7.17    2.18
  -3  -3   6    6.98    1.91
  -3  -3   6    8.87    1.99
   3   3  -6    5.64    1.64
  -3  -3   6    4.84    2.07
   3   3  -6    7.76    1.85
   3   3  -6    8.47    2.03
  -3  -3   5  155.90    5.64
   3   3  -5  159.02    6.71
  -3  -3   5  158.70    5.94
   3   3  -5  159.54    6.50
  -3  -3   5  162.52    6.14
   3   3  -5  155.73    5.40
  -3  -3   5  163.92    6.68
   3   3  -5  163.34    6.03
   3   3  -5  165.26    6.54
  -3  -3   4  127.52    4.89
   3   3  -4  131.01    6.05
  -3  -3   4  128.88    5.53
   3   3  -4  133.16    5.99
  -3  -3   4  127.07    5.28
   3   3  -4  130.65    4.71
  -3  -3   4  128.05    5.85
   3   3  -4  128.02    5.66
   3   3  -4  127.01    5.39
  -3  -3   3 1069.23   12.95
   3   3  -3 1063.52   16.49
  -3  -3   3 1052.56   15.51
   3   3  -3 1067.69   16.52
  -3  -3   3 1069.02   14.52
   3   3  -3 1089.08   12.76
  -3  -3   3 1077.85   16.22
   3   3  -3 1050.64   15.21
   3   3  -3 1079.66   15.61
  -3  -3   2   -0.76    1.20
   3   3  -2   -1.52    1.88
  -3  -3   2    1.28    1.68
  -3  -3   2   -0.84    1.33
   3   3  -2   -0.20    1.02
   3   3  -2   -0.66    1.68
  -3  -3   2    2.76    2.02
   3   3  -2    1.37    1.77
  -3  -3   1    6.84    1.19
   3   3  -1    8.64    2.15
  -3  -3   1    8.58    2.19
  -3  -3   1    9.19    1.80
   3   3  -1    8.56    1.45
   3   3  -1    7.41    1.95
  -3  -3   1   10.28    2.38
  -3  -3   0    3.73    0.98
   3   3   0    4.06    1.82
   3   3   0    2.30    1.68
  -3  -3   0    6.59    2.39
  -3  -3   0    6.01    1.72
   3   3   0    5.49    1.26
   3   3   0    7.43    2.33
   3   3   1    2.15    1.64
   3   3   1    1.72    1.57
  -3  -3  -1   -0.16    1.93
  -3  -3  -1    1.32    1.31
   3   3   1    3.63    1.21
   3   3   1    1.77    1.84
  -3  -3  -1    1.90    2.00
   3   3   2  216.15    7.47
   3   3   2  218.24    7.80
  -3  -3  -2  215.19    7.99
   3   3   2  222.52    7.94
  -3  -3  -2  228.49    6.66
  -3  -3  -2  236.23    7.60
   3   3   3   18.14    2.56
   3   3   3   16.60    2.57
  -3  -3  -3   17.67    2.88
   3   3   3   18.11    2.30
  -3  -3  -3   21.47    2.39
   3   3   3   17.40    2.76
  -3  -3  -3   18.14    2.79
   3   3   4  347.37    9.44
   3   3   4  336.19   10.10
   3   3   4  360.74   10.33
  -3  -3  -4  333.19   10.49
   3   3   4  347.32    9.36
  -3  -3  -4  367.65    8.65
  -3  -3  -4  359.51    9.42
   3   3   5    0.57    1.41
   3   3   5   -0.20    2.03
  -3  -3  -5   -0.44    2.33
   3   3   5    0.00    1.63
   3   3   5   -1.04    1.91
  -3  -3  -5    0.46    1.42
  -3  -3  -5   -0.08    2.03
   3   3   6   10.35    2.05
   3   3   6    9.81    2.56
  -3  -3  -6    3.19    2.25
   3   3   6    8.77    2.26
   3   3   6   11.72    2.62
  -3  -3  -6    7.06    1.91
  -3  -3  -6    7.33    2.21
   3   3   7   98.46    5.88
   3   3   7   93.61    6.11
  -3  -3  -7   93.26    6.21
   3   3   7   99.61    5.50
  -3  -3  -7   99.45    5.31
   3   3   8   49.30    4.69
  -3  -3  -8   52.03    4.93
   3   3   8   58.92    4.46
  -3  -3  -8   54.70    5.17
  -3  -3  -9    9.32    2.89
   3   3   9    8.88    2.79
  -3  -3  -9    6.56    2.72
  -3  -3 -10   42.91    4.74
   3   3  10   40.90    4.65
  -3  -3 -10   38.03    4.45
   3   3  11   58.29    5.54
  -3  -3 -11   56.73    5.41
  -3  -3 -11   60.66    5.91
  -3  -3 -12   12.19    3.50
   3   3  12    6.88    2.98
  -3  -3 -12    2.10    2.86
  -3  -3 -13    2.76    3.09
   3   3  13    5.16    3.04
  -3  -3 -13   -0.44    2.75
   3   4 -18   12.18    3.59
  -3  -4  18   15.37    3.48
  -3  -4  18   20.91    4.98
   3   4 -17    3.94    3.01
  -3  -4  17   -1.69    2.61
  -3  -4  17    1.62    3.73
  -3  -4  16   73.41    6.74
  -3  -4  16   72.91    6.40
   3   4 -16   86.13    6.73
  -3  -4  15   12.40    3.02
   3   4 -15    7.56    2.90
  -3  -4  15   10.48    3.60
  -3  -4  14   51.72    5.34
  -3  -4  14   45.58    4.75
   3   4 -14   50.64    4.55
   3   4 -14   48.16    5.04
  -3  -4  13  163.83    8.29
  -3  -4  13  159.80    8.27
   3   4 -13  160.83    7.32
   3   4 -13  173.94    8.49
  -3  -4  12    7.39    2.35
   3   4 -12    7.71    2.65
  -3  -4  12    8.30    3.07
   3   4 -12    6.61    1.98
  -3  -4  12    6.61    2.68
   3   4 -12    8.66    2.36
  -3  -4  11  157.32    7.47
   3   4 -11  160.85    7.02
  -3  -4  11  168.94    6.45
  -3  -4  11  167.79    7.61
   3   4 -11  167.40    7.47
  -3  -4  11  158.10    7.79
  -3  -4  11  166.48    7.72
   3   4 -11  161.52    7.01
   3   4 -11  163.76    7.80
   3   4 -10    1.38    2.08
  -3  -4  10   -1.57    2.37
   3   4 -10    0.55    1.72
  -3  -4  10   -0.42    2.45
  -3  -4  10    3.54    1.83
  -3  -4  10    2.47    1.98
   3   4 -10    1.95    1.85
   3   4 -10    2.30    1.75
  -3  -4   9  104.14    5.69
   3   4  -9  106.36    5.86
  -3  -4   9  104.97    5.15
  -3  -4   9  119.91    6.16
   3   4  -9  105.21    5.57
  -3  -4   9  107.27    6.13
   3   4  -9  112.93    5.69
   3   4  -9  117.80    6.42
  -3  -4   8  695.88   13.50
   3   4  -8  703.82   14.35
  -3  -4   8  710.25   12.93
  -3  -4   8  706.77   14.17
   3   4  -8  719.24   13.39
  -3  -4   8  711.69   14.69
   3   4  -8  709.60   13.58
   3   4  -8  711.34   14.67
  -3  -4   7   87.48    4.67
   3   4  -7   77.51    4.97
  -3  -4   7   82.81    4.69
  -3  -4   7   88.05    5.02
   3   4  -7   73.99    4.34
  -3  -4   7   78.57    5.20
   3   4  -7   81.03    4.72
   3   4  -7   83.03    5.17
   3   4  -6   17.93    2.89
  -3  -4   6   22.16    2.55
   3   4  -6   15.04    2.70
  -3  -4   6   21.37    2.67
  -3  -4   6   20.61    2.69
   3   4  -6   20.97    2.45
  -3  -4   6   16.92    3.01
   3   4  -6   15.36    2.40
   3   4  -6   18.65    2.87
  -3  -4   5   46.03    3.14
   3   4  -5   34.56    3.46
  -3  -4   5   32.53    3.18
   3   4  -5   37.62    3.54
  -3  -4   5   35.32    3.24
   3   4  -5   36.00    2.90
  -3  -4   5   39.82    3.71
   3   4  -5   34.10    3.28
   3   4  -5   38.61    3.67
  -3  -4   4   93.72    4.07
   3   4  -4   87.74    5.25
  -3  -4   4   95.79    5.10
   3   4  -4   88.07    5.17
  -3  -4   4   93.65    4.87
   3   4  -4   90.64    4.25
  -3  -4   4   93.98    5.32
   3   4  -4   86.18    4.80
  -3  -4   3   46.83    2.78
   3   4  -3   43.70    3.94
  -3  -4   3   48.01    3.84
   3   4  -3   40.84    3.68
  -3  -4   3   45.49    3.52
   3   4  -3   56.28    3.41
  -3  -4   3   53.29    4.31
   3   4  -3   48.54    3.77
   3   4  -2  121.20    6.00
  -3  -4   2  121.42    5.96
   3   4  -2  119.91    5.97
  -3  -4   2  119.66    5.31
   3   4  -2  120.90    4.64
  -3  -4   2  123.55    5.99
   3   4  -2  108.45    5.48
   3   4  -1   17.24    2.76
  -3  -4   1   16.98    2.79
  -3  -4   1   15.86    2.34
   3   4  -1   13.70    1.78
   3   4  -1   14.30    2.53
  -3  -4   1   11.09    2.30
   3   4   0  177.38    7.17
  -3  -4   0  177.39    7.31
   3   4   0  187.13    7.45
  -3  -4   0  193.17    6.60
   3   4   0  190.41    5.77
  -3  -4   0  187.79    7.22
   3   4   1    0.39    1.64
   3   4   1   -0.32    1.58
  -3  -4  -1   -1.88    2.15
  -3  -4  -1    1.04    1.49
   3   4   1   -0.50    1.32
   3   4   1   -1.24    1.86
  -3  -4  -1   -2.55    2.13
   3   4   2    2.43    1.57
   3   4   2    4.23    1.99
  -3  -4  -2    3.53    2.06
   3   4   2    3.82    2.03
  -3  -4  -2    1.54    1.53
   3   4   2    2.56    1.30
   3   4   2    1.17    1.83
  -3  -4  -2    5.34    2.30
   3   4   3   14.36    2.62
   3   4   3   12.33    2.35
  -3  -4  -3   11.76    2.66
   3   4   3   13.17    2.39
  -3  -4  -3   14.36    2.43
   3   4   3   11.99    2.53
  -3  -4  -3   20.13    3.19
   3   4   4    8.16    1.94
   3   4   4    9.82    2.41
  -3  -4  -4    6.83    3.20
   3   4   4    8.71    2.08
  -3  -4  -4    8.45    2.09
   3   4   4    9.05    2.22
  -3  -4  -4    5.64    2.30
   3   4   5   37.59    3.50
   3   4   5   38.27    4.08
   3   4   5   40.18    4.00
  -3  -4  -5   35.35    4.18
   3   4   5   38.74    3.76
  -3  -4  -5   40.23    3.97
  -3  -4  -5   38.23    3.56
   3   4   6    7.69    1.83
   3   4   6    9.29    2.49
  -3  -4  -6    6.13    2.44
   3   4   6   10.02    2.25
   3   4   6   10.87    2.66
  -3  -4  -6    7.70    2.17
  -3  -4  -6   11.08    2.72
   3   4   7    7.95    2.68
  -3  -4  -7    7.25    2.74
   3   4   7   10.02    2.60
   3   4   7    7.26    2.28
  -3  -4  -7    9.25    2.37
  -3  -4  -7    5.76    2.41
   3   4   8    0.73    2.23
  -3  -4  -8   -1.55    2.22
   3   4   8    2.65    1.90
   3   4   9  282.23   11.43
   3   4   9  292.99   10.41
  -3  -4  -9  289.99   11.75
   3   4  10   83.17    6.64
  -3  -4 -10   74.52    6.22
  -3  -4 -10   83.99    6.91
   3   4  11    7.56    2.97
  -3  -4 -11    4.77    2.96
  -3  -4 -12   35.32    5.10
   3   4  12   49.61    5.59
  -3  -4 -12   42.34    5.23
   3   5 -18   11.87    3.50
  -3  -5  18    4.32    2.45
  -3  -5  18    4.46    3.47
   3   5 -17   12.50    3.52
  -3  -5  17   10.83    3.24
  -3  -5  17   18.13    4.67
   3   5 -16    9.66    3.35
  -3  -5  16    2.79    2.53
  -3  -5  16    7.66    3.11
  -3  -5  16    7.04    2.66
  -3  -5  15    7.59    2.83
   3   5 -15    4.84    2.96
  -3  -5  15    1.01    3.09
  -3  -5  15    4.93    2.78
  -3  -5  15    4.49    2.28
   3   5 -15    4.16    2.51
  -3  -5  14    4.30    2.53
   3   5 -14    6.13    2.82
  -3  -5  14    7.94    3.24
  -3  -5  14    6.11    2.69
   3   5 -14    4.18    2.37
  -3  -5  14    5.43    2.32
  -3  -5  13   21.40    3.41
   3   5 -13   19.64    3.25
  -3  -5  13   26.77    4.11
   3   5 -13   26.76    3.28
  -3  -5  13   24.52    3.84
  -3  -5  13   25.04    3.56
   3   5 -13   24.92    3.44
   3   5 -12   -2.24    2.55
  -3  -5  12    0.81    2.58
   3   5 -12    2.01    1.77
  -3  -5  12    3.43    1.98
  -3  -5  12   -0.07    2.32
   3   5 -12    6.02    2.52
  -3  -5  12   -2.23    2.42
  -3  -5  12    0.39    2.32
   3   5 -12    1.41    2.08
   3   5 -11    1.77    2.32
  -3  -5  11    2.31    2.35
   3   5 -11    4.22    2.03
  -3  -5  11    0.76    1.87
  -3  -5  11    2.24    2.05
  -3  -5  11    1.10    2.22
   3   5 -11    3.01    1.90
   3   5 -11    2.44    2.02
  -3  -5  10   67.75    4.90
   3   5 -10   75.05    5.08
  -3  -5  10   64.83    4.41
  -3  -5  10   66.79    5.09
   3   5 -10   65.91    4.81
  -3  -5  10   71.99    5.37
   3   5 -10   71.01    4.96
   3   5 -10   64.29    5.17
   3   5  -9   -2.02    2.60
  -3  -5   9    1.13    1.94
   3   5  -9   -0.92    2.05
  -3  -5   9    3.26    2.27
  -3  -5   9    1.40    2.01
   3   5  -9   -0.19    1.81
  -3  -5   9    0.57    2.26
   3   5  -9    1.22    1.84
  -3  -5   8  151.57    6.35
   3   5  -8  154.76    7.10
  -3  -5   8  155.75    6.73
  -3  -5   8  153.31    6.98
   3   5  -8  145.48    6.46
  -3  -5   8  152.31    7.26
   3   5  -8  152.03    6.82
   3   5  -8  156.04    7.28
  -3  -5   7   45.41    3.44
   3   5  -7   50.43    4.33
  -3  -5   7   42.21    3.70
  -3  -5   7   44.09    4.08
   3   5  -7   43.18    3.61
  -3  -5   7   47.71    4.24
   3   5  -7   46.92    4.03
   3   5  -7   41.88    3.99
  -3  -5   6  335.03    8.26
   3   5  -6  337.50   10.34
  -3  -5   6  319.33    9.38
  -3  -5   6  327.03    9.64
   3   5  -6  319.49    8.78
  -3  -5   6  332.59   10.19
   3   5  -6  324.92    9.63
   3   5  -6  330.91    9.98
  -3  -5   5    5.24    1.72
   3   5  -5    6.25    2.29
  -3  -5   5    4.51    1.94
  -3  -5   5    4.68    2.14
   3   5  -5    3.04    1.57
  -3  -5   5    6.36    2.46
   3   5  -5    3.34    1.84
   3   5  -5    5.91    2.11
   3   5  -4   -0.20    1.93
  -3  -5   4   -1.95    2.19
  -3  -5   4   -1.17    1.75
   3   5  -4    0.98    1.46
  -3  -5   4    2.38    2.43
   3   5  -4   -2.39    2.00
   3   5  -4    1.31    1.79
   3   5  -3  656.88   14.12
  -3  -5   3  673.04   13.99
  -3  -5   3  631.64   13.53
   3   5  -3  633.23   13.99
  -3  -5   3  655.08   12.93
   3   5  -3  681.48   11.89
   3   5  -3  644.69   13.55
   3   5  -2    8.75    2.65
  -3  -5   2    8.40    2.63
  -3  -5   2    8.64    2.10
   3   5  -2    6.53    1.69
  -3  -5   2    5.41    2.17
   3   5  -2   10.97    2.59
   3   5  -2    7.89    2.27
   3   5  -1    5.59    2.22
  -3  -5   1   -0.08    2.01
  -3  -5   1    3.95    1.94
   3   5  -1    2.71    1.32
   3   5  -1    2.59    1.80
  -3  -5   1    0.75    2.40
   3   5   0   43.04    3.92
  -3  -5   0   40.72    4.12
   3   5   0   41.46    3.98
  -3  -5   0   45.36    3.70
   3   5   0   45.79    3.22
  -3  -5   0   44.21    4.17
   3   5   1    0.79    1.95
  -3  -5  -1    3.44    2.63
  -3  -5  -1   -0.59    1.66
   3   5   1   -0.26    1.31
   3   5   1    0.57    1.93
  -3  -5  -1    1.66    2.50
   3   5   2  228.80    8.51
   3   5   2  237.98    8.97
  -3  -5  -2  232.81    9.01
   3   5   2  230.20    8.64
   3   5   2  244.13    8.84
   3   5   2  247.44    7.40
  -3  -5  -2  240.15    8.02
  -3  -5  -2  238.83    8.69
   3   5   3   46.87    4.09
   3   5   3   41.39    4.18
  -3  -5  -3   38.67    4.34
   3   5   3   39.73    4.00
   3   5   3   37.75    3.91
  -3  -5  -3   43.33    3.81
  -3  -5  -3   42.66    4.21
   3   5   4   -2.02    2.00
   3   5   4   -1.09    1.78
  -3  -5  -4   -2.19    2.39
   3   5   4   -0.20    1.75
  -3  -5  -4    2.20    1.82
   3   5   4    0.24    1.74
  -3  -5  -4   -3.21    2.52
   3   5   5    6.01    2.01
   3   5   5    7.23    2.67
  -3  -5  -5    6.51    2.54
   3   5   5    6.80    2.28
  -3  -5  -5    8.01    2.43
   3   5   5    9.34    2.44
  -3  -5  -5    5.26    2.50
   3   5   6    2.92    2.21
  -3  -5  -6    2.27    2.02
   3   5   6    3.42    2.19
   3   5   6    3.24    2.07
  -3  -5  -6    4.25    2.04
  -3  -5  -6    0.09    2.31
   3   5   7  220.43    8.92
   3   5   7  204.43    9.59
  -3  -5  -7  209.81    9.59
   3   5   7  224.68    9.27
  -3  -5  -7  217.15    8.69
  -3  -5  -7  232.00    9.14
   3   5   8  116.23    7.50
  -3  -5  -8  119.11    7.46
   3   5   8  126.84    7.25
   3   5   9   56.24    5.68
  -3  -5  -9   47.70    5.31
   3   5   9   51.29    5.00
  -3  -5  -9   52.60    5.65
   3   5  10   44.62    5.18
  -3  -5 -10   43.70    5.24
  -3  -5 -10   51.32    5.86
  -3  -5 -11    8.82    3.91
   3   5  11   15.11    3.32
  -3  -5 -11   19.49    4.04
  -3  -6  18   82.38    7.33
  -3  -6  18   83.47    7.13
   3   6 -18   82.13    6.99
   3   6 -17   27.35    4.55
  -3  -6  17   23.85    4.17
  -3  -6  17   23.05    4.71
  -3  -6  17   22.39    4.35
  -3  -6  16    1.00    2.00
   3   6 -16   -3.18    2.94
  -3  -6  16    0.74    3.31
  -3  -6  16    0.95    2.79
  -3  -6  16    0.80    2.45
   3   6 -16   -1.47    2.61
  -3  -6  15   63.68    5.93
  -3  -6  15   62.84    5.86
  -3  -6  15   67.12    5.75
  -3  -6  15   52.53    5.48
   3   6 -15   59.13    5.30
   3   6 -15   68.53    6.10
  -3  -6  14   19.26    3.50
   3   6 -14   23.57    4.10
  -3  -6  14   21.68    4.03
  -3  -6  14   21.06    4.00
   3   6 -14   24.26    3.94
  -3  -6  14   20.60    3.53
   3   6 -14   19.35    3.49
  -3  -6  13   38.37    4.52
   3   6 -13   39.94    4.09
  -3  -6  13   39.00    3.92
  -3  -6  13   45.58    4.74
   3   6 -13   33.13    4.21
  -3  -6  13   37.58    4.44
  -3  -6  13   49.26    4.78
   3   6 -13   37.51    4.36
   3   6 -13   44.66    4.86
   3   6 -12   -0.16    2.22
  -3  -6  12    2.79    2.39
   3   6 -12    2.54    2.23
  -3  -6  12    1.56    2.04
  -3  -6  12    0.46    2.43
   3   6 -12    1.02    1.87
   3   6 -12   -0.49    2.10
  -3  -6  12   -0.50    2.39
   3   6 -11   30.67    4.01
  -3  -6  11   29.14    3.79
   3   6 -11   24.94    3.35
  -3  -6  11   27.21    3.39
  -3  -6  11   29.15    3.89
   3   6 -11   25.97    3.69
  -3  -6  11   35.26    4.16
   3   6 -11   25.14    3.43
  -3  -6  10  189.69    7.70
   3   6 -10  176.85    8.00
  -3  -6  10  180.10    7.58
  -3  -6  10  196.72    8.51
   3   6 -10  175.78    7.75
  -3  -6  10  197.09    8.57
   3   6 -10  191.51    8.21
   3   6 -10  193.41    8.58
  -3  -6   9   49.97    4.14
   3   6  -9   55.07    4.69
  -3  -6   9   45.68    4.14
  -3  -6   9   50.86    4.51
   3   6  -9   50.80    4.36
  -3  -6   9   52.25    4.66
   3   6  -9   52.38    4.65
   3   6  -9   49.39    4.72
  -3  -6   8  107.39    5.32
   3   6  -8  110.83    6.33
  -3  -6   8  106.18    5.99
  -3  -6   8  107.66    6.22
   3   6  -8  112.57    5.83
  -3  -6   8  112.58    6.48
   3   6  -8  112.56    6.24
   3   6  -8  106.36    6.26
  -3  -6   7  163.13    6.05
   3   6  -7  163.32    7.50
  -3  -6   7  153.65    7.06
  -3  -6   7  158.74    7.32
   3   6  -7  156.04    6.74
  -3  -6   7  166.36    7.73
   3   6  -7  160.22    7.26
   3   6  -6  122.77    6.64
  -3  -6   6  126.93    6.51
  -3  -6   6  126.74    6.34
   3   6  -6  123.68    5.85
  -3  -6   6  138.00    7.02
   3   6  -6  130.70    6.58
   3   6  -5  299.39   10.06
  -3  -6   5  288.58    9.56
   3   6  -5  286.88    9.90
  -3  -6   5  293.69    9.52
   3   6  -5  289.96    8.66
  -3  -6   5  294.49    9.86
   3   6  -5  306.87    9.92
   3   6  -4  148.33    7.26
  -3  -6   4  129.92    6.63
   3   6  -4  152.02    7.35
  -3  -6   4  153.97    6.87
   3   6  -4  146.74    6.10
  -3  -6   4  134.52    6.98
   3   6  -4  135.95    6.76
   3   6  -3 1111.25   19.13
  -3  -6   3 1095.99   18.72
   3   6  -3 1138.81   19.47
  -3  -6   3 1141.74   18.22
   3   6  -3 1146.60   16.60
  -3  -6   3 1133.21   19.13
   3   6  -3 1113.26   18.80
   3   6  -2  134.12    6.88
  -3  -6   2  126.50    6.77
   3   6  -2  124.29    6.61
  -3  -6   2  126.36    6.27
   3   6  -2  127.55    5.69
  -3  -6   2  124.10    6.79
   3   6  -2  126.11    6.70
   3   6  -1  102.84    6.08
  -3  -6   1  111.84    6.41
   3   6  -1  112.12    6.32
  -3  -6   1  118.56    6.08
   3   6  -1  110.03    5.30
  -3  -6   1  112.92    6.43
   3   6   0   93.37    5.83
  -3  -6   0   87.61    5.90
   3   6   0   90.04    5.70
  -3  -6   0   88.73    5.40
   3   6   0  102.76    5.17
  -3  -6   0   98.18    6.15
   3   6   1   12.40    2.65
  -3  -6  -1    9.14    2.72
   3   6   1    9.75    2.55
  -3  -6  -1   10.38    2.43
   3   6   1   10.73    2.07
   3   6   1   16.42    2.95
  -3  -6  -1   18.07    3.65
   3   6   2    8.56    2.46
  -3  -6  -2    4.82    2.61
   3   6   2    6.59    2.22
  -3  -6  -2   12.16    2.61
   3   6   2    6.75    2.16
  -3  -6  -2    7.23    2.80
   3   6   3   10.99    2.73
  -3  -6  -3    8.96    3.02
   3   6   3    9.61    2.47
  -3  -6  -3    9.97    2.55
   3   6   3    9.64    2.43
  -3  -6  -3    7.69    2.74
   3   6   4  106.80    6.12
   3   6   4  109.85    6.86
   3   6   4   97.29    6.01
  -3  -6  -4   97.45    6.62
   3   6   4   98.53    6.22
  -3  -6  -4   96.32    6.00
  -3  -6  -4  103.84    6.54
   3   6   5    6.31    2.75
   3   6   5    4.92    1.89
  -3  -6  -5    4.55    2.67
   3   6   5    3.88    2.06
  -3  -6  -5    1.99    2.13
   3   6   5    4.48    2.12
  -3  -6  -5    8.09    3.08
   3   6   6   52.87    5.20
   3   6   6   54.61    4.80
  -3  -6  -6   49.54    5.18
   3   6   6   43.05    4.62
  -3  -6  -6   51.45    4.75
  -3  -6  -6   51.13    5.02
   3   6   7    4.05    2.51
  -3  -6  -7    1.52    2.54
   3   6   7    1.75    2.15
   3   6   7    1.94    2.20
  -3  -6  -7    2.17    2.14
  -3  -6  -7    1.02    2.81
   3   6   8   17.17    3.66
  -3  -6  -8   22.23    4.03
   3   6   8   20.30    3.69
  -3  -6  -9   -0.95    3.29
   3   6   9    5.05    2.56
  -3  -6  -9    5.97    3.29
   3   6   9    1.22    2.10
  -3  -6 -10   15.41    3.92
   3   6  10   21.57    4.30
  -3  -6 -10   14.68    3.62
   3   6  10   19.26    3.62
   3   7 -18  169.73    9.51
  -3  -7  17   82.66    7.23
  -3  -7  17   78.15    6.75
  -3  -7  17   75.90    6.67
   3   7 -17   71.32    6.37
   3   7 -17   79.65    6.72
  -3  -7  16   19.97    3.96
   3   7 -16   20.28    4.16
  -3  -7  16   26.62    4.60
  -3  -7  16   23.91    3.91
  -3  -7  16   22.83    4.13
   3   7 -16   17.23    3.45
  -3  -7  15  123.06    7.97
  -3  -7  15  141.30    8.52
   3   7 -15  116.96    7.79
  -3  -7  15  133.78    7.87
  -3  -7  15  124.95    8.03
   3   7 -15  128.43    7.83
   3   7 -15  127.30    8.11
  -3  -7  14  112.56    7.39
  -3  -7  14  114.75    7.62
   3   7 -14  111.42    7.30
  -3  -7  14  110.00    7.51
  -3  -7  14  125.46    7.41
   3   7 -14  109.91    7.15
   3   7 -14  115.10    7.50
   3   7 -13   11.56    3.22
  -3  -7  13    9.28    3.10
   3   7 -13   10.67    2.68
  -3  -7  13   17.02    3.28
  -3  -7  13   11.04    3.32
   3   7 -13   11.58    3.08
  -3  -7  13    9.91    3.10
   3   7 -13    9.20    3.06
  -3  -7  12   51.03    4.88
   3   7 -12   47.76    4.57
  -3  -7  12   47.91    4.55
  -3  -7  12   52.04    5.09
   3   7 -12   51.70    4.92
  -3  -7  12   55.44    5.34
   3   7 -12   59.02    5.39
   3   7 -12   55.23    5.39
   3   7 -11    5.24    3.06
  -3  -7  11    2.23    2.35
   3   7 -11   -1.45    2.16
  -3  -7  11   -0.52    2.08
  -3  -7  11    4.30    2.63
   3   7 -11    0.73    2.19
   3   7 -11    0.45    2.19
  -3  -7  11    3.28    2.76
  -3  -7  10    0.28    1.88
   3   7 -10    1.25    2.02
  -3  -7  10   -2.19    2.57
  -3  -7  10   -2.48    2.60
   3   7 -10    3.50    2.22
   3   7 -10    0.56    2.44
   3   7 -10   -0.25    2.06
  -3  -7  10    0.51    2.46
   3   7  -9   15.42    3.06
   3   7  -9   10.57    2.64
  -3  -7   9   12.48    2.92
  -3  -7   9   15.54    3.17
   3   7  -9   11.15    2.70
  -3  -7   9   17.09    3.38
  -3  -7   8    4.87    2.52
   3   7  -8    7.26    2.51
  -3  -7   8   11.86    3.00
  -3  -7   8   10.31    2.91
   3   7  -8   10.23    2.57
   3   7  -8    6.95    2.46
   3   7  -7   13.05    2.85
  -3  -7   7   15.36    3.21
  -3  -7   7   16.86    3.11
   3   7  -7   14.56    2.63
  -3  -7   7    8.18    2.85
   3   7  -7   13.80    2.90
   3   7  -6    2.14    2.13
  -3  -7   6    3.26    2.34
  -3  -7   6   -0.36    2.14
   3   7  -6   -1.53    1.87
  -3  -7   6   -5.08    3.49
   3   7  -6    0.08    2.16
  -3  -7   5   32.70    3.84
   3   7  -5   37.94    4.26
  -3  -7   5   29.62    3.88
   3   7  -5   36.44    3.96
  -3  -7   5   38.61    4.08
   3   7  -5   35.38    3.49
   3   7  -5   37.98    4.05
   3   7  -4    4.02    2.76
  -3  -7   4    7.27    2.69
  -3  -7   4    7.30    2.69
   3   7  -4    5.58    1.94
  -3  -7   4    8.64    3.16
   3   7  -4    5.69    2.41
   3   7  -4    3.43    2.30
   3   7  -3   16.26    3.39
  -3  -7   3   14.23    2.89
  -3  -7   3   19.55    3.29
   3   7  -3   20.02    2.84
  -3  -7   3   12.16    3.35
   3   7  -3   22.17    3.56
   3   7  -3   12.87    3.00
   3   7  -2   14.03    3.10
  -3  -7   2   10.68    3.13
  -3  -7   2   13.15    2.76
   3   7  -2   11.49    2.41
   3   7  -2   10.05    2.49
   3   7  -2   14.74    3.19
  -3  -7   2   17.82    3.71
   3   7  -1   29.79    3.79
  -3  -7   1   23.48    3.54
   3   7  -1   30.32    3.19
  -3  -7   1   28.03    3.55
  -3  -7   1   40.57    4.76
   3   7  -1   27.60    3.64
   3   7   0    5.11    2.37
  -3  -7   0    6.67    2.71
  -3  -7   0    5.36    2.32
   3   7   0    8.51    2.37
   3   7   0    6.78    2.31
  -3  -7   0   10.43    3.25
   3   7   1   42.54    4.32
  -3  -7  -1   43.42    4.66
   3   7   1   43.52    4.16
   3   7   1   39.04    4.38
  -3  -7  -1   45.11    4.44
   3   7   1   44.87    3.97
  -3  -7  -1   43.03    4.70
   3   7   2   54.46    4.75
  -3  -7  -2   61.16    5.51
   3   7   2   54.07    4.67
   3   7   2   54.86    4.89
  -3  -7  -2   57.46    4.89
  -3  -7  -2   49.36    5.06
   3   7   3   18.66    3.19
  -3  -7  -3   13.17    3.25
   3   7   3   18.46    3.36
  -3  -7  -3   19.39    3.37
   3   7   3   18.89    3.12
  -3  -7  -3   25.44    4.18
   3   7   4   68.44    5.23
   3   7   4   56.54    4.80
  -3  -7  -4   61.35    5.56
   3   7   4   57.55    5.22
  -3  -7  -4   58.80    5.20
  -3  -7  -4   62.51    5.56
  -3  -7  -5    5.71    3.04
   3   7   5    1.77    2.00
  -3  -7  -5    4.89    2.54
   3   7   5    5.77    2.29
  -3  -7  -5    1.98    3.09
  -3  -7  -6   15.32    3.36
   3   7   6   15.92    3.49
  -3  -7  -6   13.99    3.20
  -3  -7  -6    9.38    3.24
   3   7   7    8.41    2.93
  -3  -7  -7    8.67    3.29
   3   7   7   12.27    3.27
  -3  -7  -7   10.46    3.24
  -3  -7  -7   10.85    3.46
   3   7   8   22.17    4.05
  -3  -7  -8   14.05    3.80
   3   7   8   19.10    3.65
  -3  -7  -9   11.71    3.51
   3   7   9   11.03    3.37
  -3  -8  17  104.83    7.89
  -3  -8  17  108.84    7.88
   3   8 -17   97.58    7.43
   3   8 -17  112.01    8.02
  -3  -8  16   37.41    4.96
   3   8 -16   39.44    5.36
  -3  -8  16   44.47    5.42
  -3  -8  16   46.85    5.51
   3   8 -16   41.16    5.26
  -3  -8  16   41.43    4.96
   3   8 -16   32.62    4.66
   3   8 -15   22.13    4.35
  -3  -8  15   24.76    4.30
  -3  -8  15   20.86    4.10
   3   8 -15   20.40    3.84
  -3  -8  15   20.85    3.73
  -3  -8  15   30.45    4.34
   3   8 -15   17.55    3.65
   3   8 -14    8.25    3.20
  -3  -8  14   17.43    3.96
  -3  -8  14    7.19    2.82
  -3  -8  14   11.23    3.71
   3   8 -14   10.06    3.40
  -3  -8  14   12.21    3.59
   3   8 -14    8.25    2.88
  -3  -8  13  152.58    7.99
   3   8 -13  140.07    7.81
  -3  -8  13  139.40    7.66
  -3  -8  13  141.59    8.41
   3   8 -13  138.86    8.07
  -3  -8  13  141.57    8.07
   3   8 -13  139.11    8.23
   3   8 -13  147.45    8.45
  -3  -8  12   41.60    4.47
   3   8 -12   33.50    4.30
  -3  -8  12   37.44    4.54
   3   8 -12   42.12    4.71
  -3  -8  12   32.38    4.17
  -3  -8  12   35.76    4.20
   3   8 -12   33.68    4.37
   3   8 -11    4.80    2.60
  -3  -8  11    2.30    2.48
  -3  -8  11    5.92    3.01
   3   8 -11    1.36    2.19
  -3  -8  11   -3.45    3.56
   3   8 -11    2.39    2.57
   3   8 -10   -0.39    2.22
  -3  -8  10    5.04    2.54
  -3  -8  10    1.88    2.44
   3   8 -10    3.09    2.34
  -3  -8  10   -5.43    3.16
   3   8 -10    1.36    2.51
   3   8  -9   11.35    2.69
  -3  -8   9   12.69    2.92
  -3  -8   9   13.78    3.20
   3   8  -9   13.13    2.73
  -3  -8   9    6.56    2.73
   3   8  -9   10.91    3.17
   3   8  -8   87.42    6.20
  -3  -8   8   82.85    5.94
  -3  -8   8   87.17    6.09
   3   8  -8   85.90    5.68
  -3  -8   8   80.07    6.04
   3   8  -8   88.63    6.24
   3   8  -7   17.95    3.34
  -3  -8   7   14.30    3.36
  -3  -8   7   10.87    2.90
   3   8  -7   13.68    2.60
   3   8  -7   13.74    3.02
  -3  -8   7    8.79    3.19
   3   8  -6    1.40    2.01
  -3  -8   6    6.84    2.96
  -3  -8   6    5.39    2.69
   3   8  -6    6.17    2.41
  -3  -8   6    1.93    2.67
   3   8  -6    3.84    2.57
   3   8  -5   69.84    5.76
  -3  -8   5   50.69    4.93
   3   8  -5   57.37    5.20
  -3  -8   5   62.07    5.20
   3   8  -5   59.92    4.69
  -3  -8   5   55.28    5.08
   3   8  -5   60.55    5.19
   3   8  -4    7.23    2.82
  -3  -8   4    6.99    2.96
  -3  -8   4   10.49    2.86
   3   8  -4    9.34    2.48
  -3  -8   4   11.85    3.27
   3   8  -4    7.51    2.95
   3   8  -4    6.31    2.30
   3   8  -3    1.53    2.46
  -3  -8   3   -0.41    2.27
  -3  -8   3   -0.53    2.32
   3   8  -3   -1.54    1.93
  -3  -8   3    7.63    3.32
   3   8  -3    0.36    1.96
   3   8  -3    1.05    2.30
  -3  -8   2   10.33    3.62
   3   8  -2    2.10    2.61
  -3  -8   2    4.02    2.60
  -3  -8   2    3.06    2.24
   3   8  -2    1.84    1.96
   3   8  -2    1.71    2.57
   3   8  -2    5.55    2.31
   3   8  -1   16.94    3.19
   3   8  -1   17.76    3.48
  -3  -8   1   16.81    3.48
  -3  -8   1   19.44    3.27
   3   8  -1   16.89    2.79
  -3  -8   1   19.76    4.12
  -3  -8   0   10.77    3.34
   3   8   0   10.69    2.88
  -3  -8   0    8.81    2.87
  -3  -8   0    8.03    2.70
   3   8   0   13.50    2.70
   3   8   0    4.83    2.08
   3   8   1   67.75    5.59
  -3  -8  -1   61.57    5.44
   3   8   1   69.09    5.51
   3   8   1   71.07    5.89
  -3  -8  -1   66.10    5.52
   3   8   1   66.50    4.87
  -3  -8  -1   58.01    5.44
   3   8   2    9.41    2.72
  -3  -8  -2    9.76    3.04
   3   8   2    6.26    2.85
  -3  -8  -2   13.33    3.34
   3   8   2    7.74    2.36
  -3  -8  -2    6.78    3.42
   3   8   3   19.57    3.49
  -3  -8  -3   23.21    3.91
   3   8   3   14.20    3.18
  -3  -8  -3   14.82    3.24
   3   8   3   15.25    2.83
  -3  -8  -3   18.40    4.09
   3   8   4   21.73    3.46
  -3  -8  -4   21.75    3.90
   3   8   4   11.14    3.17
  -3  -8  -4   23.84    3.90
   3   8   4   20.40    3.25
  -3  -8  -4   23.95    4.58
  -3  -8  -5    1.95    2.57
   3   8   5   -1.49    2.10
  -3  -8  -5   -0.72    2.57
  -3  -8  -5    2.08    3.59
  -3  -8  -6    8.22    3.06
   3   8   6    4.57    2.60
  -3  -8  -6    3.26    2.63
  -3  -8  -6    9.12    3.80
  -3  -8  -7   15.56    4.08
   3   8   7   17.93    3.80
  -3  -8  -7   17.00    3.70
  -3  -8  -7   24.47    4.64
  -3  -8  -8   88.61    7.35
  -3  -9  17    6.80    3.92
  -3  -9  16    5.09    2.45
  -3  -9  16   11.39    3.51
   3   9 -16   12.70    3.53
   3   9 -16    6.64    2.97
  -3  -9  15   29.77    4.30
  -3  -9  15   36.50    5.05
   3   9 -15   29.60    4.40
  -3  -9  15   29.27    4.38
   3   9 -15   28.62    4.59
   3   9 -14   51.52    5.19
  -3  -9  14   56.37    5.56
  -3  -9  14   69.38    6.47
   3   9 -14   60.48    5.95
  -3  -9  14   52.43    5.33
   3   9 -14   52.43    5.54
   3   9 -13   44.57    4.89
  -3  -9  13   40.54    4.85
  -3  -9  13   43.64    5.19
   3   9 -13   39.34    4.94
  -3  -9  13   26.62    4.19
   3   9 -13   39.84    4.91
   3   9 -12    2.62    2.41
  -3  -9  12    4.77    3.01
  -3  -9  12   -1.75    2.91
   3   9 -12   -0.74    2.10
  -3  -9  12   -5.71    3.72
   3   9 -12    0.67    2.65
   3   9 -11   14.48    3.42
  -3  -9  11   14.93    3.35
  -3  -9  11   12.26    3.45
   3   9 -11   23.39    3.96
  -3  -9  11   14.26    3.27
   3   9 -11   14.38    3.42
   3   9 -10  206.03    9.75
  -3  -9  10  191.06    9.13
  -3  -9  10  209.37    9.73
   3   9 -10  207.36    9.45
  -3  -9  10  195.53    9.43
   3   9 -10  195.18    9.53
   3   9  -9   67.60    5.85
  -3  -9   9   59.64    5.45
  -3  -9   9   68.78    5.97
   3   9  -9   64.76    5.46
  -3  -9   9   63.27    5.77
   3   9  -9   72.31    6.03
   3   9  -8   71.76    6.07
  -3  -9   8   65.57    5.59
  -3  -9   8   65.86    5.86
   3   9  -8   66.54    5.30
  -3  -9   8   72.90    6.04
   3   9  -8   58.52    5.47
   3   9  -7   41.06    4.98
  -3  -9   7   37.15    4.69
  -3  -9   7   39.45    4.78
   3   9  -7   33.46    3.99
  -3  -9   7   28.74    4.25
   3   9  -7   36.98    4.71
   3   9  -6    6.10    2.64
  -3  -9   6    4.58    3.03
  -3  -9   6    0.82    2.20
   3   9  -6    5.87    2.60
  -3  -9   6   -1.50    2.78
   3   9  -6   -1.55    2.77
   3   9  -6    0.16    2.24
   3   9  -5   34.96    4.51
  -3  -9   5   33.47    4.47
  -3  -9   5   38.31    4.64
   3   9  -5   35.43    3.89
  -3  -9   5   33.66    4.74
   3   9  -5   28.29    4.04
   3   9  -5   33.58    4.33
   3   9  -4    7.70    2.84
  -3  -9   4    3.49    2.61
  -3  -9   4   -0.69    2.68
   3   9  -4    2.69    2.05
  -3  -9   4    7.66    3.74
   3   9  -4    5.31    2.60
   3   9  -4    4.89    2.31
   3   9  -3   31.74    4.33
  -3  -9   3   36.32    4.48
   3   9  -3   34.15    4.22
   3   9  -3   38.26    4.18
  -3  -9   3   37.53    4.55
  -3  -9   3   41.56    5.19
   3   9  -3   36.80    4.58
   3   9  -2   13.16    3.46
  -3  -9   2   14.57    3.45
  -3  -9   2   15.41    3.34
   3   9  -2   13.93    2.90
  -3  -9   2    7.57    3.29
   3   9  -2    8.95    2.67
   3   9  -1   26.69    4.15
  -3  -9   1   23.93    4.10
   3   9  -1   33.79    4.04
  -3  -9   1   30.06    4.33
   3   9  -1   25.65    3.92
  -3  -9   1   20.94    3.94
   3   9   0   61.73    5.59
  -3  -9   0   75.34    6.35
   3   9   0   73.15    5.78
  -3  -9   0   88.05    6.57
   3   9   0   85.51    5.87
  -3  -9   0   73.21    6.49
   3   9   1   20.49    3.60
  -3  -9  -1    6.90    2.83
  -3  -9  -1   20.05    3.87
   3   9   1   20.42    3.56
  -3  -9  -1   13.75    3.81
   3   9   2   47.46    4.97
  -3  -9  -2   46.01    5.16
   3   9   2   42.93    4.63
   3   9   2   45.63    5.02
  -3  -9  -2   44.78    5.11
  -3  -9  -2   52.17    5.83
   3   9   3   20.58    3.69
  -3  -9  -3   19.76    3.80
   3   9   3   18.35    3.69
  -3  -9  -3   17.52    3.73
  -3  -9  -3   17.80    4.57
  -3  -9  -4    3.33    3.05
   3   9   4    1.41    2.40
  -3  -9  -4    4.44    2.89
  -3  -9  -4    5.16    3.67
  -3  -9  -5   -1.06    2.98
   3   9   5   -1.43    2.60
  -3  -9  -5    1.10    2.48
  -3  -9  -5    1.14    3.40
  -3  -9  -6   36.23    4.94
  -3  -9  -6   42.35    5.60
  -3 -10  15   -7.46    3.67
  -3 -10  15    0.13    2.76
   3  10 -15    0.66    2.86
   3  10 -14   24.96    4.21
  -3 -10  14   22.72    4.14
  -3 -10  14   25.29    4.34
   3  10 -14   22.63    4.27
  -3 -10  14   19.40    3.86
   3  10 -14   30.63    4.72
   3  10 -13    1.63    2.47
  -3 -10  13    3.69    3.39
  -3 -10  13    2.38    2.75
   3  10 -13   -0.01    2.37
  -3 -10  13   -2.23    3.12
   3  10 -13    1.38    2.79
   3  10 -12    0.09    2.27
  -3 -10  12    3.19    2.64
  -3 -10  12    0.18    2.68
   3  10 -12   -2.92    2.23
  -3 -10  12   -1.42    3.34
   3  10 -12    0.82    2.66
   3  10 -11   17.41    4.02
  -3 -10  11   24.16    4.02
  -3 -10  11   24.98    4.31
   3  10 -11   30.59    4.51
  -3 -10  11   22.46    3.97
   3  10 -11   27.49    4.59
  -3 -10  10    1.24    3.23
   3  10 -10    3.66    2.89
  -3 -10  10   -1.88    2.83
  -3 -10  10    3.86    3.10
   3  10 -10    0.43    2.23
   3  10 -10   -2.12    2.85
   3  10  -9   39.53    4.77
  -3 -10   9   41.97    4.95
  -3 -10   9   50.39    5.54
   3  10  -9   48.18    4.97
  -3 -10   9   44.95    5.41
   3  10  -9   41.58    5.15
   3  10  -8   10.45    3.25
  -3 -10   8    5.81    2.54
  -3 -10   8    5.14    2.80
   3  10  -8    7.82    2.98
  -3 -10   8   13.62    3.80
   3  10  -8    6.74    2.86
   3  10  -7   40.95    5.14
  -3 -10   7   40.23    4.96
   3  10  -7   34.62    4.34
  -3 -10   7   35.34    4.85
  -3 -10   7   39.32    5.37
   3  10  -7   35.57    4.61
   3  10  -6  219.34   10.40
  -3 -10   6  218.43   10.25
   3  10  -6  217.92   10.29
  -3 -10   6  221.33   10.36
   3  10  -6  224.24    9.74
  -3 -10   6  237.43   10.90
   3  10  -6  225.88   10.49
   3  10  -5   18.59    4.08
  -3 -10   5   23.04    4.38
  -3 -10   5   14.68    3.31
   3  10  -5   18.02    3.54
  -3 -10   5   22.18    4.36
   3  10  -5   20.05    3.99
   3  10  -5   17.01    3.40
   3  10  -4   15.62    3.83
  -3 -10   4   14.28    3.64
  -3 -10   4   13.24    3.43
   3  10  -4   17.19    3.40
  -3 -10   4   19.04    4.05
   3  10  -4   14.45    3.35
   3  10  -4   13.65    3.15
   3  10  -3   20.98    4.19
  -3 -10   3   16.32    3.88
  -3 -10   3   12.08    3.19
   3  10  -3   15.01    3.24
  -3 -10   3   11.07    3.89
   3  10  -3   19.03    4.01
   3  10  -3   13.32    3.29
   3  10  -2    3.29    2.91
  -3 -10   2    1.22    2.74
  -3 -10   2    1.17    2.64
   3  10  -2    4.30    2.45
  -3 -10   2    0.74    3.41
   3  10  -2   -0.82    2.49
   3  10  -1   42.05    4.89
   3  10  -1   40.24    4.55
  -3 -10   1   38.45    4.99
   3  10  -1   41.92    4.57
  -3 -10   1   37.40    4.91
  -3 -10   1   39.20    5.39
   3  10   0   23.80    3.99
  -3 -10   0   21.85    4.05
  -3 -10   0   14.50    3.66
   3  10   0   15.53    3.26
   3  10   0   15.88    3.28
  -3 -10   0   15.02    4.21
   3  10   1    0.82    2.49
  -3 -10  -1   -1.80    2.84
  -3 -10  -1   -2.48    2.71
   3  10   1    2.99    2.38
  -3 -10  -1   -2.40    3.63
   3  10   2    5.54    2.66
  -3 -10  -2   -2.68    2.83
   3  10   2    2.33    2.63
  -3 -10  -2    3.08    2.87
  -3 -10  -2   -2.62    3.79
   3  10   3    4.22    2.91
  -3 -10  -3    4.33    2.95
   3  10   3    5.42    2.97
  -3 -10  -3    0.27    2.50
  -3 -10  -3    2.08    3.44
  -3 -10  -4   -2.10    3.06
  -3 -10  -4    6.13    3.33
   3  11 -14    6.35    3.14
  -3 -11  14    3.81    3.08
   3  11 -13    4.99    3.19
  -3 -11  13    5.43    3.02
   3  11 -13    1.71    3.00
  -3 -11  13    5.15    3.47
   3  11 -12   13.02    3.34
  -3 -11  12   14.54    3.64
  -3 -11  12   16.28    4.20
   3  11 -12   17.90    3.81
  -3 -11  12   11.68    3.71
   3  11 -12   17.18    3.87
   3  11 -11   54.33    5.89
  -3 -11  11   46.60    5.42
  -3 -11  11   59.64    6.05
   3  11 -11   49.71    5.31
  -3 -11  11   57.15    6.22
   3  11 -11   52.00    5.93
   3  11 -10    8.26    3.29
  -3 -11  10    9.66    3.29
  -3 -11  10    8.91    3.34
   3  11 -10   13.13    3.22
  -3 -11  10   15.00    4.09
   3  11 -10   11.91    3.76
   3  11  -9    2.16    2.98
  -3 -11   9   -0.70    2.98
  -3 -11   9    2.79    2.93
   3  11  -9    2.80    2.74
  -3 -11   9    5.24    3.56
   3  11  -9   -1.13    2.63
   3  11  -8   11.28    3.77
  -3 -11   8    4.82    2.98
  -3 -11   8   13.42    3.83
   3  11  -8    6.15    2.89
  -3 -11   8   10.18    3.92
   3  11  -8    4.09    2.80
   3  11  -7   45.38    5.44
  -3 -11   7   41.64    5.20
   3  11  -7   43.85    5.20
  -3 -11   7   52.50    5.82
   3  11  -7   46.83    5.11
  -3 -11   7   60.83    6.57
   3  11  -7   47.21    5.52
   3  11  -6  159.74    9.51
  -3 -11   6  154.57    9.18
   3  11  -6  159.43    9.33
  -3 -11   6  159.64    9.37
   3  11  -6  162.60    8.84
  -3 -11   6  169.39    9.75
   3  11  -6  164.91    9.41
   3  11  -5   23.55    4.31
  -3 -11   5   14.79    3.78
  -3 -11   5   11.60    3.76
   3  11  -5   12.85    3.18
  -3 -11   5   14.37    4.07
   3  11  -5   24.33    4.24
   3  11  -5   16.85    3.63
   3  11  -4    0.39    2.46
  -3 -11   4    3.04    2.98
  -3 -11   4   -0.09    2.63
   3  11  -4    4.01    2.51
  -3 -11   4   -5.14    4.15
   3  11  -4    0.24    2.23
   3  11  -4    0.56    2.36
   3  11  -3   17.57    4.04
  -3 -11   3   20.26    4.42
  -3 -11   3   17.87    4.25
   3  11  -3   19.54    3.67
  -3 -11   3   18.81    4.52
   3  11  -3   15.39    3.59
   3  11  -2    4.71    3.08
  -3 -11   2    0.30    2.82
  -3 -11   2    0.93    2.57
   3  11  -2    0.63    2.44
  -3 -11   2   -4.32    3.97
   3  11  -2    1.40    2.10
   3  11  -1   10.10    3.31
  -3 -11   1   11.62    3.78
  -3 -11   1   16.19    4.13
   3  11  -1   12.99    3.36
   3  11  -1    5.70    2.55
  -3 -11   1   15.53    4.22
   3  11   0    3.61    2.79
  -3 -11   0    0.73    2.50
  -3 -11   0   -1.12    2.71
   3  11   0   -0.35    2.07
   3  11   1   25.89    4.10
   3  11   2    3.93    2.85
   3  12 -10   17.83    3.44
   3  12  -9   10.63    3.26
   3  12  -8   76.96    6.53
   3  12  -7   -0.65    2.43
   3  12  -7   -0.64    2.38
   3  12  -6   60.11    6.06
   3  12  -6   74.22    6.41
   3  12  -5   50.76    5.68
   3  12  -5   52.61    5.48
   3  12  -4    6.98    3.06
   3  12  -4    9.38    3.33
   3  12  -3   16.42    3.70
   3  12  -3   10.44    3.33
   3  12  -2   63.38    6.09
   3  12  -2   75.81    6.48
  -4  13   1   -0.55    2.92
   4 -13   0   -3.73    2.99
   4 -13   1    4.41    3.40
   4 -13   2    2.04    3.21
   4 -13   3   12.73    4.13
   4 -13   3    4.56    2.97
  -4  13  -3    6.04    3.22
   4 -13   4    5.49    3.12
   4 -13   4    4.95    2.76
  -4  13  -4    2.62    3.22
   4 -13   5    5.91    3.36
   4 -13   5    7.49    3.43
  -4  13  -5   10.34    3.61
   4 -13   6    2.76    2.95
   4 -13   6   -2.41    2.82
  -4  13  -6    1.68    2.52
   4 -13   7   53.77    6.12
  -4  12   4   93.76    7.41
   4 -12  -4  110.00    7.91
   4 -12  -3   -4.14    2.82
   4 -12  -3    0.92    2.54
  -4  12   3   -3.35    2.60
  -4  12   3    1.37    2.66
   4 -12  -2   37.30    5.04
   4 -12  -2   32.50    4.61
  -4  12   2   30.98    4.55
  -4  12   2   36.08    4.97
   4 -12  -1    2.00    2.72
   4 -12  -1    0.31    2.56
  -4  12   1    1.65    3.11
   4 -12   0    2.08    2.92
   4 -12   0    4.57    2.56
  -4  12   0    5.15    3.32
   4 -12   1   36.75    4.86
   4 -12   1   35.06    4.80
  -4  12  -1   43.84    5.41
   4 -12   2    4.04    3.16
   4 -12   2   -1.70    2.70
  -4  12  -2    3.56    2.64
   4 -12   3   18.80    4.22
   4 -12   3   13.01    3.58
  -4  12  -3   15.99    3.93
   4 -12   4  142.12    8.83
  -4  12  -4  142.38    8.96
   4 -12   4  139.54    8.87
   4 -12   5   16.02    3.89
   4 -12   5   15.39    3.59
  -4  12  -5   18.49    4.13
   4 -12   6   18.09    4.18
  -4  12  -6   22.04    4.57
   4 -12   6   25.07    4.43
   4 -12   7    3.08    3.07
   4 -12   7    3.90    2.74
  -4  12  -7    2.76    3.20
   4 -12   8   10.37    3.63
   4 -12   8    5.03    2.94
  -4  12  -8    6.35    3.38
   4 -12   9   17.70    4.01
   4 -12   9   15.67    3.46
  -4  12  -9   17.56    3.96
   4 -12  10    8.99    3.63
   4 -12  10   10.19    3.42
  -4  12 -10   14.66    3.98
   4 -12  11   -2.00    2.56
   4 -12  11    1.57    2.78
   4 -12  12   14.57    3.18
  -4  11   6   -0.91    2.33
  -4  11   6    2.85    3.16
  -4  11   5    0.44    2.46
  -4  11   5    4.74    3.32
   4 -11  -5    2.49    2.14
   4 -11  -4    4.92    2.52
  -4  11   4    1.31    2.35
  -4  11   4    2.71    3.10
   4 -11  -4    3.55    2.55
   4 -11  -3    0.32    2.45
  -4  11   3   -2.69    2.75
  -4  11   3    1.46    2.82
   4 -11  -3    3.63    2.90
   4 -11  -2   -4.22    2.94
   4 -11  -2   -2.06    2.77
  -4  11   2   -0.19    2.58
  -4  11   2    1.45    2.48
   4 -11  -1   -0.47    2.31
   4 -11  -1   -0.10    2.53
  -4  11   1   -1.51    3.15
   4 -11   0   17.71    3.82
  -4  11   0    9.75    3.52
   4 -11   0   12.36    3.37
   4 -11   1   70.87    6.31
  -4  11  -1   72.77    6.31
   4 -11   1   67.64    6.25
   4 -11   2   13.71    3.87
   4 -11   2    5.16    3.00
  -4  11  -2    8.59    3.56
   4 -11   3  133.35    8.23
  -4  11  -3  142.23    8.54
   4 -11   3  119.55    8.00
   4 -11   4   28.44    4.68
  -4  11  -4   31.65    4.89
   4 -11   4   30.69    4.65
   4 -11   5   55.15    5.66
  -4  11  -5   53.12    5.65
   4 -11   5   45.51    5.35
   4 -11   6    2.36    2.56
   4 -11   6    3.81    2.91
  -4  11  -6   -0.35    2.87
   4 -11   7   11.54    3.75
   4 -11   7    7.06    2.95
  -4  11  -7    8.48    3.38
   4 -11   8   16.06    3.75
   4 -11   8   17.13    3.68
  -4  11  -8   10.09    3.18
   4 -11   9   11.77    3.24
   4 -11   9   17.56    3.58
  -4  11  -9   13.82    3.62
   4 -11  10    7.64    3.47
   4 -11  10    4.11    2.35
  -4  11 -10    3.90    2.94
   4 -11  11    1.88    2.80
   4 -11  11    0.19    2.16
  -4  11 -11   -2.29    3.14
   4 -11  12   15.89    4.05
  -4  11 -12   15.00    3.87
   4 -11  13   13.14    3.39
   4 -10  -8   20.02    4.39
  -4  10   8   17.43    4.21
  -4  10   8   14.45    3.50
  -4  10   7   74.18    6.74
  -4  10   7   78.27    6.47
  -4  10   7   73.37    6.33
   4 -10  -7   68.96    6.24
  -4  10   6   74.00    6.65
   4 -10  -6   74.48    5.96
  -4  10   6   84.25    6.58
  -4  10   6   79.03    6.30
   4 -10  -6   77.04    6.31
  -4  10   5    3.81    3.09
  -4  10   5    3.34    2.36
   4 -10  -5    2.80    2.34
  -4  10   5    2.57    2.51
  -4  10   4   42.17    4.94
  -4  10   4   42.02    5.06
   4 -10  -4   38.13    4.64
   4 -10  -4   38.53    4.65
   4 -10  -3    6.03    2.59
  -4  10   3    6.05    2.81
  -4  10   3    6.74    2.92
   4 -10  -3    7.86    2.86
   4 -10  -2    9.05    2.89
  -4  10   2    7.21    3.04
   4 -10  -2   11.38    3.12
   4 -10  -1   11.34    3.09
   4 -10  -1   13.83    3.16
   4 -10   0   -3.80    2.38
  -4  10   0    1.22    2.75
   4 -10   0    1.03    2.22
   4 -10   1   31.89    4.50
  -4  10  -1   31.50    4.45
   4 -10   1   25.08    3.87
   4 -10   2    5.74    3.02
  -4  10  -2    7.47    2.92
   4 -10   2    9.39    3.12
   4 -10   3   54.67    5.37
   4 -10   3   58.96    5.68
   4 -10   4   88.21    6.84
  -4  10  -4   79.27    6.44
   4 -10   4   69.06    6.19
   4 -10   5   20.50    4.14
   4 -10   5   16.79    3.59
  -4  10  -5   11.57    3.03
   4 -10   6   22.27    3.96
   4 -10   6   15.70    3.39
  -4  10  -6   15.31    3.64
   4 -10   7   12.43    3.47
   4 -10   7   14.07    3.42
  -4  10  -7   15.68    3.79
   4 -10   8    0.21    2.43
   4 -10   8   -3.45    2.48
  -4  10  -8    0.57    2.98
   4 -10   9   57.18    5.73
   4 -10   9   47.93    5.15
  -4  10  -9   45.18    5.29
   4 -10  10   58.05    5.37
  -4  10 -10   42.50    5.39
   4 -10  10   51.45    5.62
   4 -10  11    1.12    2.49
   4 -10  11    1.72    2.14
  -4  10 -11    5.55    2.87
   4 -10  12    3.05    2.80
  -4  10 -12    6.80    2.79
  -4  10 -12    7.86    3.32
   4 -10  13    1.78    2.77
  -4  10 -13    7.46    3.46
  -4  10 -13    5.62    3.27
   4 -10  14   18.66    3.79
  -4  10 -14   14.40    3.56
  -4   9   9  209.52   10.77
  -4   9   9  228.38   11.04
   4  -9  -9  244.85   11.39
   4  -9  -8   -2.76    2.78
  -4   9   8    1.68    2.52
  -4   9   8   -1.23    2.12
   4  -9  -7    6.24    2.75
  -4   9   7    3.48    2.67
  -4   9   7    3.31    2.46
  -4   9   7    4.84    2.59
   4  -9  -6   10.67    3.22
  -4   9   6   14.03    3.80
  -4   9   6   13.39    3.12
   4  -9  -6   11.47    2.97
  -4   9   6   15.19    3.42
   4  -9  -5    2.59    2.07
   4  -9  -5    3.35    2.56
  -4   9   5    6.89    2.95
  -4   9   5    6.44    2.62
   4  -9  -5    0.28    2.17
  -4   9   5    3.56    2.80
   4  -9  -4    5.23    2.50
  -4   9   4    6.11    2.74
  -4   9   4    7.16    2.45
   4  -9  -4    6.16    2.74
  -4   9   4    2.75    2.54
   4  -9  -3   25.44    3.71
  -4   9   3   25.31    3.91
   4  -9  -3   20.94    3.61
  -4   9   3   24.86    3.90
   4  -9  -2   60.73    5.38
  -4   9   2   56.81    5.16
   4  -9  -2   63.65    5.41
   4  -9  -1   16.49    3.59
   4  -9  -1   15.05    2.92
  -4   9   1   16.99    3.49
   4  -9   0   13.49    3.45
   4  -9   0   17.52    3.07
  -4   9   0   25.19    4.10
   4  -9   1    5.02    2.82
   4  -9   1    2.38    2.32
  -4   9  -1    6.48    2.75
   4  -9   2    3.85    2.39
   4  -9   2    3.25    2.38
  -4   9  -2   -0.95    2.39
   4  -9   3    6.52    3.10
   4  -9   3    3.42    2.53
  -4   9  -3    5.10    2.58
   4  -9   4   16.65    3.46
   4  -9   4   13.97    3.18
  -4   9  -4   15.74    3.25
   4  -9   5   -0.58    2.18
   4  -9   5    0.72    2.27
  -4   9  -5    0.85    2.71
   4  -9   6   25.61    3.97
   4  -9   6   28.07    3.99
  -4   9  -6   19.77    3.65
   4  -9   7   16.88    3.40
   4  -9   7   24.47    3.90
  -4   9  -7   16.21    3.57
   4  -9   8   47.15    4.75
  -4   9  -8   48.89    5.39
   4  -9   8   40.74    4.81
   4  -9   9    4.79    3.01
   4  -9   9    8.51    2.64
  -4   9  -9    5.41    2.82
   4  -9  10    8.35    3.07
   4  -9  10    7.79    2.69
  -4   9 -10    8.71    2.94
  -4   9 -10    8.54    3.42
   4  -9  11   11.14    3.44
  -4   9 -11    6.23    2.94
   4  -9  11    8.02    2.63
  -4   9 -11   10.31    2.98
   4  -9  12    3.98    2.55
   4  -9  12    7.47    2.75
  -4   9 -12    2.25    2.57
  -4   9 -12    6.43    3.10
   4  -9  13    2.35    2.49
  -4   9 -13    1.57    2.70
  -4   9 -13   -0.35    2.56
   4  -9  13   -0.02    2.55
   4  -9  14   10.48    3.12
  -4   9 -14   10.79    3.23
  -4   9 -14    4.48    2.82
   4  -8 -10   -1.01    2.38
  -4   8  10   -3.90    3.39
  -4   8  10    1.43    2.44
   4  -8  -9   34.06    4.81
  -4   8   9   23.91    3.74
  -4   8   9   37.85    4.95
   4  -8  -8    3.98    3.05
  -4   8   8    2.47    2.65
  -4   8   8    1.57    2.47
   4  -8  -7   20.51    3.70
  -4   8   7   22.12    4.26
  -4   8   7   20.12    3.60
   4  -8  -7   19.68    3.21
  -4   8   7   23.09    3.59
   4  -8  -6   17.90    3.28
  -4   8   6   19.20    3.65
  -4   8   6   24.15    3.64
   4  -8  -6   13.14    2.92
  -4   8   6   23.16    3.71
   4  -8  -5    0.66    2.00
   4  -8  -5   -1.07    2.00
  -4   8   5   -0.62    2.51
  -4   8   5    1.01    2.04
   4  -8  -5   -1.11    2.28
  -4   8   5    0.31    2.28
  -4   8   4  282.30   11.19
   4  -8  -4  281.56   10.53
  -4   8   4  292.12   10.60
  -4   8   4  288.39    9.82
   4  -8  -4  277.30   10.27
  -4   8   3  133.21    7.74
   4  -8  -3  129.49    7.33
  -4   8   3  132.45    7.28
  -4   8   3  138.00    6.57
   4  -8  -3  129.86    7.23
   4  -8  -2   13.56    3.05
   4  -8  -2   13.32    2.90
  -4   8   2   18.06    3.56
   4  -8  -1    2.47    2.44
   4  -8  -1   -2.21    2.60
  -4   8   1    0.82    2.42
   4  -8   0    2.61    2.30
   4  -8   0    3.95    2.41
  -4   8   0    6.05    2.45
   4  -8   1   21.71    3.51
   4  -8   1   21.61    3.37
  -4   8  -1   27.03    3.76
   4  -8   2   37.99    4.28
  -4   8  -2   43.80    4.53
   4  -8   2   44.66    4.56
   4  -8   3    2.93    2.61
   4  -8   3    0.56    2.38
  -4   8  -3    0.16    2.33
   4  -8   4   11.39    2.75
   4  -8   4   10.64    2.86
  -4   8  -4   10.84    2.70
   4  -8   5   49.39    4.79
  -4   8  -5   46.82    4.80
   4  -8   5   54.67    5.16
   4  -8   6    0.29    2.39
   4  -8   6    0.25    1.95
  -4   8  -6    0.59    2.10
   4  -8   7    1.75    2.37
   4  -8   7    4.47    2.29
  -4   8  -7   -1.67    2.14
   4  -8   8    1.80    2.39
   4  -8   8    5.83    2.49
  -4   8  -8    5.05    2.30
  -4   8  -8    6.66    2.93
   4  -8   9   -1.92    2.21
  -4   8  -9    0.77    2.04
  -4   8  -9   -0.73    2.49
   4  -8   9   -1.69    2.18
   4  -8  10    6.62    2.81
   4  -8  10   11.32    2.83
   4  -8  10    6.74    2.78
  -4   8 -10   10.56    3.01
  -4   8 -10    5.73    2.82
   4  -8  11   -2.74    2.63
   4  -8  11    5.03    2.47
   4  -8  11    0.79    1.89
  -4   8 -11    4.28    2.92
  -4   8 -11    0.42    2.57
   4  -8  12    0.33    2.10
  -4   8 -12    3.63    2.74
  -4   8 -12    0.94    2.57
   4  -8  12    1.31    2.83
   4  -8  13    2.99    2.71
  -4   8 -13    1.49    2.39
  -4   8 -13    1.78    2.93
   4  -8  13    1.80    2.49
   4  -8  14    9.63    2.79
  -4   8 -14   11.01    3.79
  -4   8 -14   11.54    3.50
   4  -8  15   35.47    4.89
   4  -7 -11    2.58    2.77
  -4   7  11    2.94    2.83
  -4   7  11    4.39    3.01
   4  -7 -10    5.87    3.18
  -4   7  10   -0.04    2.86
  -4   7  10    3.83    2.76
   4  -7  -9   27.98    4.50
  -4   7   9   32.26    4.73
  -4   7   9   28.05    4.20
   4  -7  -8   23.85    3.79
  -4   7   8   17.81    3.63
  -4   7   8   23.96    3.90
   4  -7  -7    3.62    2.54
   4  -7  -7    1.53    1.87
  -4   7   7    0.70    2.00
  -4   7   7    1.68    2.35
  -4   7   7   -0.08    2.03
   4  -7  -6   18.76    3.31
  -4   7   6   22.18    3.31
  -4   7   6   17.27    3.49
   4  -7  -6   26.12    3.62
  -4   7   6   18.59    3.13
   4  -7  -5    1.04    1.86
   4  -7  -5    1.39    1.94
  -4   7   5   -1.10    1.91
  -4   7   5   -0.64    2.44
   4  -7  -5    1.41    2.07
  -4   7   5    1.08    2.05
  -4   7   4   83.30    6.16
   4  -7  -4  105.78    6.34
  -4   7   4   98.31    6.01
  -4   7   4  108.43    6.01
   4  -7  -4   91.46    5.89
   4  -7  -4   93.56    5.60
   4  -7  -3   20.81    3.23
  -4   7   3   23.65    3.70
   4  -7  -3   19.41    3.27
  -4   7   3   28.12    3.71
  -4   7   3   29.58    3.28
   4  -7  -2   -1.76    2.22
   4  -7  -2    2.08    1.93
  -4   7   2    0.19    2.01
   4  -7  -1    2.04    2.11
   4  -7  -1    4.37    2.35
  -4   7   1    7.63    2.67
   4  -7   0    4.31    2.56
   4  -7   0    5.32    2.39
  -4   7   0    5.74    2.47
   4  -7   1    1.60    2.33
   4  -7   1   -3.31    2.64
  -4   7  -1   -2.33    2.19
   4  -7   2    0.39    2.16
   4  -7   2   -1.59    2.05
  -4   7  -2   -3.36    2.65
   4  -7   3   35.60    4.00
  -4   7  -3   40.58    4.35
   4  -7   3   34.72    4.05
   4  -7   4   10.32    2.80
   4  -7   4    9.43    2.55
  -4   7  -4    9.39    2.93
   4  -7   5    1.81    2.17
   4  -7   5    1.32    2.11
  -4   7  -5    3.86    2.44
   4  -7   6    1.77    2.24
   4  -7   6    1.95    1.84
  -4   7  -6    5.32    2.63
   4  -7   7   36.11    4.36
   4  -7   7   36.59    4.14
  -4   7  -7   40.17    3.79
  -4   7  -7   33.03    4.24
   4  -7   8    5.97    2.72
   4  -7   8    4.04    1.85
   4  -7   8    9.47    2.68
  -4   7  -8    5.35    2.77
  -4   7  -8    8.07    2.31
   4  -7   9    0.96    2.39
   4  -7   9    3.18    2.14
   4  -7   9    4.24    2.36
  -4   7  -9    6.35    2.92
  -4   7  -9    0.99    1.96
   4  -7  10    0.94    1.76
   4  -7  10    3.18    1.90
  -4   7 -10    3.27    2.16
  -4   7 -10    1.64    2.49
   4  -7  10    0.03    2.31
   4  -7  11    4.97    2.36
   4  -7  11    5.55    2.22
  -4   7 -11    5.01    2.68
  -4   7 -11    3.13    2.68
   4  -7  11    3.65    2.60
   4  -7  12   23.14    3.63
  -4   7 -12   20.15    4.01
  -4   7 -12   29.86    4.50
   4  -7  12   27.27    4.04
   4  -7  13   27.95    4.16
  -4   7 -13   23.43    4.52
  -4   7 -13   30.38    4.53
   4  -7  14    3.98    2.44
  -4   7 -14    4.11    2.70
  -4   7 -14    9.79    3.79
   4  -7  15    5.55    2.58
  -4   7 -15    4.36    2.57
  -4   7 -15   10.12    3.86
   4  -6 -12    1.14    2.77
  -4   6  12    2.29    3.16
  -4   6  12   -1.38    2.85
   4  -6 -11    3.86    2.46
  -4   6  11    2.80    2.65
  -4   6  11    6.26    2.97
   4  -6 -10   31.47    4.51
  -4   6  10   38.42    4.89
  -4   6  10   25.20    4.26
   4  -6  -9   13.56    3.06
  -4   6   9   10.78    3.09
  -4   6   9    6.42    3.03
   4  -6  -8    1.55    2.24
  -4   6   8    0.07    2.20
  -4   6   8   -0.95    2.23
   4  -6  -7   -2.12    2.54
  -4   6   7   -0.10    1.83
  -4   6   7   -1.41    2.32
   4  -6  -7    2.66    2.12
   4  -6  -6   12.92    2.61
   4  -6  -6    9.81    2.37
   4  -6  -6    8.79    2.57
  -4   6   6   11.65    2.76
  -4   6   6   10.06    3.00
  -4   6   6   11.92    2.49
   4  -6  -5    2.10    1.95
   4  -6  -5   -0.37    1.65
   4  -6  -5   -0.06    2.06
  -4   6   5   -0.78    1.77
  -4   6   5    3.11    2.67
  -4   6   5    0.38    1.94
  -4   6   4   51.24    4.87
   4  -6  -4   46.29    4.45
  -4   6   4   56.06    4.56
  -4   6   4   58.99    4.39
   4  -6  -4   51.47    4.41
   4  -6  -4   55.79    4.28
   4  -6  -3    0.15    1.95
   4  -6  -3    1.90    1.79
   4  -6  -3   -1.11    1.92
  -4   6   3   -2.19    1.63
  -4   6   3    0.93    2.40
  -4   6   3    1.65    2.08
   4  -6  -2   -0.12    1.93
  -4   6   2    0.22    1.34
   4  -6  -2    1.50    2.05
  -4   6   2    1.18    1.85
   4  -6  -1  105.27    6.20
  -4   6   1   98.97    5.75
   4  -6  -1  101.79    6.15
   4  -6   0   77.34    5.41
  -4   6   0   67.73    4.85
   4  -6   0   76.66    5.54
   4  -6   1   95.22    6.21
  -4   6  -1  104.28    6.00
   4  -6   1   99.18    6.25
   4  -6   2   34.92    3.99
   4  -6   2   36.47    4.00
  -4   6  -2   34.87    3.88
   4  -6   3   31.70    3.87
  -4   6  -3   29.84    3.67
   4  -6   3   30.24    3.96
   4  -6   4   -0.18    1.95
  -4   6  -4    0.77    2.14
   4  -6   4    0.18    2.04
   4  -6   5   -1.16    2.05
   4  -6   5   -0.37    1.98
  -4   6  -5    0.97    1.96
  -4   6  -5    1.76    1.63
   4  -6   6   -0.85    2.42
   4  -6   6    2.20    1.59
   4  -6   6   -0.48    1.93
  -4   6  -6   -0.25    2.15
  -4   6  -6    3.33    1.83
   4  -6   7   61.66    4.44
   4  -6   7   57.67    5.00
  -4   6  -7   61.65    4.50
  -4   6  -7   56.09    5.10
   4  -6   7   53.56    4.96
   4  -6   8   34.38    3.68
   4  -6   8   36.26    3.99
  -4   6  -8   34.90    3.78
  -4   6  -8   30.64    4.19
   4  -6   8   34.77    4.11
   4  -6   9   -0.49    1.65
   4  -6   9    1.51    2.09
  -4   6  -9   -3.23    2.51
  -4   6  -9    1.74    2.16
   4  -6   9    0.59    2.05
   4  -6  10   28.97    3.72
   4  -6  10   29.37    3.71
  -4   6 -10   32.72    4.56
   4  -6  10   33.57    4.12
  -4   6 -10   29.71    3.84
   4  -6  11    9.66    2.60
   4  -6  11   10.80    2.75
  -4   6 -11    6.27    2.77
  -4   6 -11   13.01    3.10
   4  -6  11    7.08    2.75
   4  -6  12    2.82    2.66
  -4   6 -12   -1.48    2.75
  -4   6 -12    5.13    2.65
   4  -6  12    0.46    2.08
   4  -6  13   36.99    4.66
  -4   6 -13   29.23    4.64
  -4   6 -13   39.88    5.23
   4  -6  14    9.50    3.18
  -4   6 -14    3.83    2.74
  -4   6 -14    6.41    3.02
   4  -6  15    7.74    2.63
  -4   6 -15   -0.11    2.59
  -4   6 -15   10.69    3.65
  -4   5  13  107.52    8.05
  -4   5  13  110.91    7.97
   4  -5 -13  107.78    7.93
   4  -5 -12    3.61    2.59
  -4   5  12    1.00    2.61
  -4   5  12    2.48    2.84
   4  -5 -11   10.07    3.40
  -4   5  11   17.94    3.71
  -4   5  11   12.55    3.33
  -4   5  10   53.57    5.56
  -4   5  10   55.91    5.39
   4  -5 -10   53.55    5.21
   4  -5  -9   20.80    3.52
  -4   5   9   20.86    3.60
  -4   5   9   19.72    3.82
   4  -5  -8   10.21    2.95
  -4   5   8    5.87    2.48
   4  -5  -8    7.92    2.22
   4  -5  -7   -1.31    2.13
  -4   5   7    2.42    1.90
  -4   5   7   -1.83    2.48
   4  -5  -7   -1.08    1.56
  -4   5   6  102.97    6.58
   4  -5  -6  108.38    6.10
  -4   5   6   98.68    5.36
  -4   5   6  110.29    6.21
   4  -5  -6  107.89    5.84
   4  -5  -6   98.83    5.92
  -4   5   5   88.22    6.17
   4  -5  -5   89.28    5.56
  -4   5   5   91.89    5.24
  -4   5   5   92.68    5.48
   4  -5  -5   84.82    5.38
   4  -5  -5   89.29    5.35
  -4   5   4  221.88    9.24
   4  -5  -4  221.31    8.51
  -4   5   4  237.28    8.18
  -4   5   4  236.54    8.11
   4  -5  -4  216.67    8.28
   4  -5  -4  233.05    7.96
   4  -5  -3   -0.34    1.72
   4  -5  -3   -1.86    1.56
  -4   5   3    2.79    1.66
  -4   5   3   -2.19    2.45
  -4   5   3    0.27    1.52
   4  -5  -3    1.44    1.86
   4  -5  -2   16.31    3.01
  -4   5   2   19.32    2.73
  -4   5   2   25.20    2.66
   4  -5  -2   21.53    3.15
   4  -5  -1    0.85    1.79
  -4   5   1   -3.95    2.39
   4  -5  -1    0.08    1.73
   4  -5   0  204.34    8.36
  -4   5   0  211.69    8.08
   4  -5   1   34.77    3.86
  -4   5  -1   32.10    3.52
   4  -5   1   33.41    4.01
   4  -5   2   76.65    5.35
  -4   5  -2   77.58    5.33
   4  -5   2   75.21    5.45
   4  -5   3   29.46    3.69
   4  -5   3   34.01    3.74
  -4   5  -3   33.42    3.78
   4  -5   4   10.93    2.81
  -4   5  -4   10.45    2.64
  -4   5  -4   10.71    2.10
   4  -5   4   10.16    2.62
   4  -5   5  152.32    6.13
   4  -5   5  158.29    7.54
  -4   5  -5  165.27    6.42
  -4   5  -5  152.78    7.56
   4  -5   5  144.35    7.42
   4  -5   6  189.72    7.19
   4  -5   6  181.90    8.13
  -4   5  -6  192.61    7.23
  -4   5  -6  179.19    8.37
   4  -5   6  198.17    8.67
   4  -5   7   56.81    4.26
   4  -5   7   52.16    4.60
  -4   5  -7   51.33    4.28
  -4   5  -7   45.59    4.64
   4  -5   7   50.11    4.76
   4  -5   8   92.79    5.69
   4  -5   8   98.16    6.14
  -4   5  -8  100.63    5.96
  -4   5  -8   91.76    6.39
   4  -5   8   87.47    6.08
   4  -5   9   11.04    2.62
   4  -5   9   10.47    2.62
  -4   5  -9    7.47    3.08
   4  -5   9   10.92    2.74
  -4   5  -9   12.01    3.10
   4  -5  10   33.18    3.88
   4  -5  10   29.10    3.82
  -4   5 -10   27.54    3.96
   4  -5  10   30.90    3.95
   4  -5  11    1.59    2.33
  -4   5 -11   -0.03    2.29
   4  -5  11    1.90    2.15
   4  -5  12    1.51    2.30
  -4   5 -12    5.31    2.98
   4  -5  12   -0.28    2.17
   4  -5  13    7.98    3.15
  -4   5 -13    2.50    2.47
   4  -5  14   10.63    3.25
  -4   5 -14    7.89    3.08
   4  -5  15    4.24    2.59
  -4   4  14    3.43    2.79
  -4   4  14    9.30    3.91
   4  -4 -13    0.47    2.87
  -4   4  13   -1.00    2.67
  -4   4  13    1.35    3.18
  -4   4  12  187.81    9.95
  -4   4  12  184.38    9.72
   4  -4 -12  199.25   10.08
   4  -4 -11    0.28    2.61
  -4   4  11    2.22    2.38
  -4   4  11    1.81    2.68
   4  -4 -10   37.27    4.54
  -4   4  10   34.88    4.41
  -4   4  10   47.72    4.97
   4  -4  -9   29.64    3.98
  -4   4   9   28.86    4.03
  -4   4   9   31.74    4.10
   4  -4  -8   14.04    2.95
  -4   4   8   18.39    3.29
  -4   4   8   16.14    3.42
   4  -4  -8   16.46    2.60
   4  -4  -7    1.06    2.29
  -4   4   7    4.94    2.13
  -4   4   7    2.82    2.52
   4  -4  -7    5.96    2.08
   4  -4  -7    3.15    1.76
   4  -4  -6   -0.96    2.20
  -4   4   6    1.84    1.86
  -4   4   6    0.17    2.28
   4  -4  -6   -0.30    1.78
  -4   4   6   -2.31    1.41
   4  -4  -6   -0.95    1.58
   4  -4  -5    0.06    1.84
  -4   4   5    2.14    1.77
  -4   4   5    1.93    1.95
   4  -4  -5   -1.08    1.82
  -4   4   5    1.78    1.58
   4  -4  -5    0.99    1.71
  -4   4   4   77.36    5.54
   4  -4  -4   76.38    5.16
  -4   4   4   90.80    4.90
  -4   4   4   82.24    4.80
   4  -4  -4   81.11    5.18
   4  -4  -4   89.00    4.98
  -4   4   3   47.53    4.37
   4  -4  -3   58.50    4.52
  -4   4   3   50.80    3.86
  -4   4   3   52.54    3.71
   4  -4  -3   51.08    4.29
   4  -4  -3   55.47    3.85
   4  -4  -2   18.42    2.24
   4  -4  -2   20.98    3.10
  -4   4   2   24.41    2.50
  -4   4   2   21.19    2.76
   4  -4  -2   17.09    2.97
   4  -4  -1  158.49    7.21
  -4   4   1  159.81    6.69
  -4   4   1  165.82    5.64
   4  -4  -1  150.30    7.07
   4  -4   0   84.85    5.53
  -4   4   0   88.95    5.19
   4  -4   0   96.50    5.85
   4  -4   1  167.63    7.56
  -4   4  -1  169.53    7.13
   4  -4   1  165.50    7.46
   4  -4   2   61.45    4.79
  -4   4  -2   63.24    4.72
   4  -4   2   64.59    4.98
  -4   4  -3    2.91    1.54
   4  -4   3    5.05    2.28
  -4   4  -3    1.90    1.76
   4  -4   3    3.55    2.09
  -4   4  -4   -1.76    1.71
   4  -4   4    0.08    1.27
   4  -4   4    0.60    1.74
  -4   4  -4   -1.53    2.13
   4  -4   4    5.05    2.49
  -4   4  -5    4.76    2.02
   4  -4   5    2.52    1.52
   4  -4   5    3.90    2.34
  -4   4  -5    4.49    2.31
   4  -4   5    4.92    2.43
   4  -4   6   40.08    3.62
   4  -4   6   40.83    4.19
  -4   4  -6   42.04    3.75
   4  -4   6   37.10    4.08
   4  -4   7  445.32   11.70
   4  -4   7  468.71   12.67
  -4   4  -7  468.13   12.05
   4  -4   7  428.43   12.64
   4  -4   8   44.05    4.24
   4  -4   8   48.46    4.38
  -4   4  -8   48.20    4.49
   4  -4   8   40.76    4.43
  -4   4  -9    8.73    2.67
   4  -4   9    7.22    2.19
   4  -4   9    8.10    2.46
   4  -4   9    4.61    2.40
  -4   4 -10    4.56    2.57
   4  -4  10    1.66    1.92
   4  -4  10    4.47    2.15
   4  -4  10    3.40    2.46
  -4   4 -11   41.14    4.80
   4  -4  11   36.18    4.23
   4  -4  11   33.00    3.97
  -4   4 -12   11.05    3.64
   4  -4  12   13.26    3.57
  -4   4 -13   -1.17    2.50
   4  -4  13    2.03    2.65
   4  -4  14    6.44    2.90
  -4   4 -14    5.03    3.24
   4  -3 -15   23.36    4.15
   4  -3 -14    3.27    2.82
  -4   3  14    1.89    2.55
  -4   3  14    6.26    3.76
   4  -3 -13    4.14    3.08
  -4   3  13    5.45    3.05
  -4   3  13    6.01    3.13
  -4   3  12   60.21    5.88
  -4   3  12   72.10    6.24
   4  -3 -12   68.09    6.00
  -4   3  11   35.99    4.71
  -4   3  11   40.33    4.83
   4  -3 -11   35.85    4.58
   4  -3 -10    5.66    2.63
  -4   3  10    5.01    2.17
  -4   3  10    4.94    2.71
   4  -3  -9   17.41    3.43
  -4   3   9   16.92    3.01
  -4   3   9   12.37    2.72
   4  -3  -8   23.88    3.55
  -4   3   8   27.22    3.43
  -4   3   8   27.31    3.93
   4  -3  -8   27.67    3.20
  -4   3   7  134.83    7.28
   4  -3  -7  132.90    6.33
  -4   3   7  129.09    6.68
   4  -3  -7  129.02    6.05
   4  -3  -7  132.46    6.75
   4  -3  -6    3.51    1.86
  -4   3   6    2.67    1.81
  -4   3   6    1.29    2.07
   4  -3  -6    5.39    2.13
   4  -3  -6   -0.90    1.57
  -4   3   5  203.58    8.49
   4  -3  -5  208.12    8.01
  -4   3   5  208.55    6.83
  -4   3   5  211.05    7.70
   4  -3  -5  215.85    7.84
   4  -3  -5  209.54    7.69
  -4   3   4  197.37    8.21
   4  -3  -4  194.80    6.67
   4  -3  -4  201.22    7.94
  -4   3   4  195.73    6.74
  -4   3   4  196.04    7.15
   4  -3  -4  183.23    7.51
   4  -3  -4  197.91    7.18
  -4   3   3  250.54    8.99
   4  -3  -3  250.41    7.71
   4  -3  -3  254.27    8.88
  -4   3   3  253.64    7.78
  -4   3   3  253.64    7.73
   4  -3  -3  251.58    8.74
   4  -3  -3  259.52    7.72
  -4   3   2  130.80    6.51
   4  -3  -2  134.88    5.88
   4  -3  -2  137.44    6.69
  -4   3   2  137.25    5.87
  -4   3   2  134.24    5.32
   4  -3  -2  136.26    6.59
   4  -3  -2  140.73    5.46
   4  -3  -1    3.43    1.37
  -4   3   1    1.23    1.33
   4  -3  -1    2.99    1.68
   4  -3  -1    1.61    1.60
  -4   3   1    2.62    1.62
   4  -3  -1    4.21    1.92
  -4   3   0    3.12    1.22
   4  -3   0    2.72    1.94
   4  -3   0    3.16    2.20
  -4   3   0    3.42    1.80
   4  -3   0    7.27    2.35
   4  -3   1  222.22    8.54
  -4   3  -1  220.72    6.13
  -4   3  -1  209.92    7.72
   4  -3   1  208.21    8.28
   4  -3   2   98.92    4.43
   4  -3   2  103.73    5.96
  -4   3  -2  107.33    4.65
  -4   3  -2   95.15    5.48
   4  -3   2  106.13    6.10
  -4   3  -3    1.94    1.50
   4  -3   3    2.51    1.30
   4  -3   3    1.78    2.00
  -4   3  -3    2.60    1.42
   4  -3   3    1.97    2.08
  -4   3  -4    9.41    2.23
   4  -3   4   10.62    1.94
   4  -3   4   11.04    2.59
   4  -3   4   10.13    2.76
   4  -3   5   59.60    4.79
  -4   3  -5   59.62    4.40
   4  -3   5   59.80    4.95
  -4   3  -6   22.10    3.17
   4  -3   6   24.16    3.05
   4  -3   6   18.61    2.95
   4  -3   6   21.43    3.49
   4  -3   7  211.58    8.51
   4  -3   7  194.30    7.95
  -4   3  -7  219.35    8.57
   4  -3   7  211.85    8.94
   4  -3   8   28.06    3.58
   4  -3   8   28.62    3.69
  -4   3  -8   38.73    4.39
   4  -3   8   27.19    3.79
   4  -3   9   45.62    4.28
   4  -3   9   46.56    4.56
  -4   3  -9   41.32    4.43
   4  -3  10    3.54    2.11
  -4   3 -10    1.94    2.74
   4  -3  10    2.45    1.93
  -4   3 -11   23.56    3.96
   4  -3  11   16.21    3.17
  -4   3 -12   23.84    4.44
   4  -3  12   16.51    3.47
  -4   3 -13   42.88    5.36
   4  -3  13   51.35    5.48
  -4   3 -14   39.19    5.25
   4  -3  14   39.65    5.04
   4  -2 -16   24.56    4.31
  -4   2  15   96.12    7.93
   4  -2 -15   85.08    6.68
  -4   2  15  100.92    7.85
   4  -2 -15  102.90    7.99
  -4   2  14  135.04    8.96
   4  -2 -14  148.13    8.33
  -4   2  14  145.29    8.98
   4  -2 -14  139.83    8.81
   4  -2 -13    1.76    2.79
  -4   2  13    1.11    2.48
  -4   2  13    1.06    2.91
   4  -2 -13   -2.07    2.40
   4  -2 -12    7.92    3.10
  -4   2  12    8.84    2.86
  -4   2  12    7.20    3.06
  -4   2  11   61.64    5.70
  -4   2  11   65.54    5.70
   4  -2 -11   62.74    5.54
   4  -2 -10    0.16    2.36
  -4   2  10    2.21    2.11
  -4   2  10    2.34    2.53
   4  -2  -9    2.57    2.59
  -4   2   9    0.40    1.90
  -4   2   9   -3.83    2.99
   4  -2  -9    0.19    1.50
  -4   2   8  167.74    8.07
   4  -2  -8  172.00    7.09
  -4   2   8  173.09    7.81
   4  -2  -8  173.02    7.86
  -4   2   7  398.93   12.00
   4  -2  -7  414.98   10.96
  -4   2   7  402.69   11.44
   4  -2  -7  419.65   11.51
   4  -2  -6    5.64    2.18
  -4   2   6    4.78    1.81
  -4   2   6    4.50    2.45
   4  -2  -6    6.00    1.90
   4  -2  -6    6.31    2.04
  -4   2   5  323.41   10.31
   4  -2  -5  338.24    9.98
   4  -2  -5  326.30    8.71
  -4   2   5  339.60    8.23
  -4   2   5  328.90    9.51
   4  -2  -5  335.23    9.73
   4  -2  -5  342.03    9.60
  -4   2   4  110.01    6.03
   4  -2  -4  119.31    6.08
   4  -2  -4  119.17    5.47
  -4   2   4  116.34    5.01
  -4   2   4  113.65    5.47
   4  -2  -4  100.26    5.61
   4  -2  -4  110.32    5.38
  -4   2   3    1.47    1.32
   4  -2  -3   -0.37    1.46
  -4   2   3    4.62    2.10
   4  -2  -3    2.19    1.91
  -4   2   3    0.29    1.16
   4  -2  -3    1.76    1.65
  -4   2   3    0.99    1.40
   4  -2  -3   -1.83    1.93
  -4   2   2    7.17    1.64
   4  -2  -2    8.25    1.84
  -4   2   2    7.33    2.09
   4  -2  -2    9.10    2.51
   4  -2  -2    8.55    2.12
  -4   2   2    8.08    1.81
   4  -2  -2    8.82    2.12
   4  -2  -1   54.05    4.37
   4  -2  -1   53.74    4.02
  -4   2   1   55.16    3.81
  -4   2   1   59.35    3.47
   4  -2  -1   57.51    3.48
   4  -2  -1   52.64    4.40
   4  -2   0   41.63    4.07
   4  -2   0   40.89    3.58
  -4   2   0   38.54    2.70
  -4   2   0   36.11    3.28
  -4   2   0   40.98    2.79
   4  -2   0   37.22    3.79
   4  -2   1   94.48    5.62
   4  -2   1   94.59    4.33
   4  -2   1   93.18    5.41
  -4   2  -1   90.39    4.26
   4  -2   1  106.48    6.06
   4  -2   2  177.89    7.67
   4  -2   2  178.94    7.50
   4  -2   2  174.91    6.14
  -4   2  -2  183.96    6.33
  -4   2  -2  180.94    6.31
   4  -2   2  174.14    7.65
  -4   2  -3    5.56    1.76
   4  -2   3    5.91    2.21
   4  -2   3    4.60    1.58
  -4   2  -3    4.97    1.58
   4  -2   3    5.94    2.27
  -4   2  -4   -0.39    1.72
   4  -2   4   -0.11    2.07
   4  -2   4   -0.16    1.57
   4  -2   4    0.91    2.05
  -4   2  -5    1.42    1.69
   4  -2   5   -0.47    1.88
   4  -2   5   -1.16    1.73
   4  -2   5    0.16    1.98
   4  -2   6   56.31    4.58
   4  -2   6   55.49    4.32
  -4   2  -6   53.21    4.41
   4  -2   7   -1.66    2.39
  -4   2  -7   -0.57    1.93
   4  -2   7    2.85    1.87
   4  -2   8    9.60    2.40
  -4   2  -8    9.81    2.58
   4  -2   8    9.32    2.60
   4  -2   9   55.48    4.68
   4  -2   9   50.28    4.78
  -4   2  -9   64.15    5.57
  -4   2 -10    5.24    3.05
   4  -2  10    4.75    2.37
  -4   2 -11    9.32    3.21
   4  -2  11   10.12    2.81
   4  -2  12   65.95    5.99
  -4   2 -12   72.46    6.44
  -4   2 -13   10.69    3.62
   4  -2  13   17.32    3.86
  -4   2 -14    0.48    2.95
   4  -2  14    3.87    2.17
   4  -1 -16   36.17    4.76
   4  -1 -15    9.83    3.64
  -4   1  15    9.46    2.86
   4  -1 -15    7.84    3.11
   4  -1 -14    5.47    3.40
  -4   1  14    7.72    3.14
  -4   1  14    7.29    3.83
   4  -1 -14    3.25    2.76
  -4   1  13   51.67    5.82
   4  -1 -13   43.52    5.23
   4  -1 -13   50.61    4.85
  -4   1  13   50.81    5.47
  -4   1  12  168.59    9.00
   4  -1 -12  165.64    7.83
  -4   1  12  154.61    8.48
   4  -1 -12  171.18    8.90
  -4   1  11   64.34    5.74
  -4   1  11   58.62    5.28
   4  -1 -11   55.47    5.21
   4  -1 -10    3.15    2.38
  -4   1  10   -0.13    2.42
  -4   1  10    4.55    2.36
   4  -1  -9   30.97    3.83
   4  -1  -9   39.40    3.59
  -4   1   9   33.38    4.09
  -4   1   9   31.94    3.76
  -4   1   8    0.56    1.89
   4  -1  -8   -1.85    2.48
   4  -1  -8    2.20    1.58
  -4   1   8    0.92    2.27
  -4   1   7  106.74    6.28
   4  -1  -7  114.94    5.86
   4  -1  -7  114.77    5.41
  -4   1   7  117.62    6.27
   4  -1  -7  114.23    6.16
  -4   1   6   21.73    2.82
   4  -1  -6   22.31    3.00
   4  -1  -6   21.40    2.95
  -4   1   6   23.34    3.26
   4  -1  -6   23.62    2.65
  -4   1   5    2.01    1.65
   4  -1  -5   -0.67    2.07
  -4   1   5    2.24    1.73
   4  -1  -5    0.79    1.82
   4  -1  -5    0.43    1.59
  -4   1   4   45.65    3.99
   4  -1  -4   45.70    4.01
   4  -1  -4   51.38    3.88
  -4   1   4   54.10    3.35
  -4   1   4   51.19    3.33
  -4   1   4   53.93    3.91
   4  -1  -4   50.66    3.90
  -4   1   3  195.00    7.48
   4  -1  -3  195.91    7.68
   4  -1  -3  193.06    7.24
  -4   1   3  202.61    6.54
  -4   1   3  197.73    5.90
  -4   1   3  208.81    6.65
  -4   1   3  195.18    6.87
   4  -1  -3  197.61    6.82
  -4   1   2    4.44    1.57
   4  -1  -2    7.06    1.82
   4  -1  -2    6.29    2.20
  -4   1   2    3.76    1.61
   4  -1  -2    7.60    2.09
  -4   1   2    6.77    1.78
   4  -1  -2    6.11    1.96
  -4   1   2    6.44    1.68
  -4   1   1   41.05    3.54
   4  -1  -1   49.41    4.15
   4  -1  -1   46.33    4.30
   4  -1  -1   49.55    3.10
   4  -1  -1   52.05    4.13
  -4   1   1   48.02    3.57
  -4   1   1   48.53    3.23
   4  -1  -1   47.43    3.27
   4  -1   0  439.65   11.58
   4  -1   0  431.24   11.65
   4  -1   0  447.81    9.41
   4  -1   0  421.08   11.11
  -4   1   0  443.01   10.52
   4  -1   0  451.30    9.14
   4  -1   1   25.28    3.15
   4  -1   1   28.78    3.52
   4  -1   1   27.50    2.67
   4  -1   1   28.21    3.38
  -4   1  -1   26.78    2.74
   4  -1   2    0.97    1.84
  -4   1  -2    1.09    1.52
   4  -1   2    1.14    1.37
   4  -1   2    3.78    2.05
  -4   1  -2    0.57    1.38
   4  -1   3    3.78    2.07
  -4   1  -3    3.51    1.93
   4  -1   3    0.47    1.60
   4  -1   3    4.16    2.10
  -4   1  -3    4.45    1.53
   4  -1   4    0.98    2.03
  -4   1  -4   -2.17    2.07
   4  -1   4    1.04    2.16
   4  -1   4    2.75    1.77
  -4   1  -4    2.67    1.68
   4  -1   5   -1.30    2.41
  -4   1  -5    0.88    2.06
   4  -1   5    1.64    1.93
  -4   1  -6    1.54    2.31
   4  -1   6    0.44    1.82
   4  -1   6    1.31    1.98
  -4   1  -7   13.29    2.98
   4  -1   7   12.99    2.79
   4  -1   7   14.00    2.72
  -4   1  -8    2.78    2.38
   4  -1   8   -0.34    2.00
   4  -1   8   -0.38    1.88
  -4   1  -9   43.06    4.61
   4  -1   9   45.50    4.67
  -4   1 -10   -1.68    2.63
   4  -1  10    0.74    1.86
  -4   1 -11    6.12    3.09
   4  -1  11    2.31    2.21
   4  -1  12  103.35    7.39
  -4   1 -12  110.91    7.85
  -4   1 -13   35.36    4.91
   4  -1  13   30.48    4.48
   4   0 -17   33.95    4.75
   4   0 -16   64.80    6.16
  -4   0  15   72.95    6.54
   4   0 -15   86.09    6.58
  -4   0  15   88.31    7.21
   4   0 -15   85.32    7.10
   4   0 -14    9.75    3.45
  -4   0  14   12.55    3.10
  -4   0  14   17.98    4.40
   4   0 -14    8.53    2.82
  -4   0  13   68.85    6.33
   4   0 -13   72.00    5.58
  -4   0  13   59.68    5.81
   4   0 -13   68.77    6.07
   4   0 -12   19.43    3.65
  -4   0  12   19.37    3.33
  -4   0  12   21.57    3.91
   4   0 -12   18.73    3.19
   4   0 -11   28.02    4.01
  -4   0  11   29.04    3.94
  -4   0  11   23.54    3.77
  -4   0  10   98.15    6.54
  -4   0  10   95.14    6.27
   4   0 -10  104.92    6.66
  -4   0   9   19.53    3.32
   4   0  -9   19.35    3.23
  -4   0   9   17.60    3.37
   4   0  -9   21.46    2.82
  -4   0   8   -2.66    2.12
   4   0  -8   -3.21    2.47
  -4   0   8   -2.46    2.72
   4   0  -8   -0.77    1.48
   4   0  -8    0.06    1.60
  -4   0   7   12.23    2.43
   4   0  -7   12.20    2.52
  -4   0   7   12.84    2.58
   4   0  -7   15.32    2.93
   4   0  -7   15.20    2.42
   4   0  -7   13.36    2.42
   4   0  -6   34.66    3.47
  -4   0   6   33.07    3.55
   4   0  -6   34.77    3.88
   4   0  -6   33.10    3.28
  -4   0   6   31.01    3.32
   4   0  -6   34.26    3.65
   4   0  -5   53.24    4.25
  -4   0   5   54.48    4.31
   4   0  -5   56.87    4.69
  -4   0   5   55.88    3.53
   4   0  -5   57.88    4.24
  -4   0   5   50.76    3.57
  -4   0   5   51.34    4.05
   4   0  -5   56.68    4.24
   4   0  -4   70.41    4.92
  -4   0   4   67.33    4.59
   4   0  -4   69.77    5.26
  -4   0   4   69.41    4.02
   4   0  -4   71.43    4.64
  -4   0   4   70.20    3.88
  -4   0   4   72.80    3.79
  -4   0   4   61.09    4.22
   4   0  -4   67.52    4.43
   4   0  -3   15.00    2.28
   4   0  -3   15.99    2.72
  -4   0   3   16.61    2.57
   4   0  -3   15.62    2.93
  -4   0   3   18.12    2.45
  -4   0   3   19.71    2.14
   4   0  -3   13.16    2.44
  -4   0   3   18.55    2.23
   4   0  -2   24.35    2.70
   4   0  -2   23.33    3.28
  -4   0   2   21.93    2.67
   4   0  -2   23.96    3.33
  -4   0   2   22.69    2.58
   4   0  -2   19.87    2.68
   4   0  -1    1.84    2.01
   4   0  -1    3.50    1.63
  -4   0   1    0.17    1.28
   4   0  -1   -1.12    1.91
  -4   0   1    0.06    1.46
   4   0  -1   -1.05    2.01
  -4   0   1   -0.24    1.94
   4   0   0   94.08    5.65
  -4   0   0   92.21    4.74
   4   0   0   98.46    5.71
   4   0   0   93.96    4.69
   4   0   0   93.88    5.53
  -4   0   0   86.78    5.02
  -4   0   0   97.63    5.18
   4   0   1   -0.64    1.69
   4   0   1   -1.70    1.46
   4   0   1    0.55    2.00
  -4   0  -1    0.97    1.61
   4   0   1   -0.40    2.05
   4   0   2   29.63    3.50
   4   0   2   30.08    3.13
   4   0   2   29.58    3.69
  -4   0  -2   24.89    2.79
   4   0   2   29.12    3.64
   4   0   3   52.34    4.50
   4   0   3   50.41    4.22
   4   0   3   50.99    4.05
   4   0   3   52.82    4.55
  -4   0  -3   56.44    3.86
   4   0   4   83.99    5.59
   4   0   4   85.99    5.46
   4   0   4   85.74    5.29
   4   0   4   79.89    5.62
  -4   0  -4   83.98    5.35
  -4   0  -4   79.96    4.36
   4   0   5   20.58    3.02
  -4   0  -5   22.68    3.24
   4   0   5   24.22    3.61
   4   0   5   20.57    3.07
   4   0   5   22.01    3.23
   4   0   6    0.95    1.96
  -4   0  -6    0.38    2.29
   4   0   6   -0.30    1.84
  -4   0  -7   15.78    3.21
   4   0   7   16.21    2.94
  -4   0  -8   -2.33    2.35
   4   0   8   -1.57    2.12
  -4   0  -9    2.05    2.65
   4   0   9    1.85    2.21
  -4   0 -10    0.35    2.78
   4   0  10   -0.32    2.04
  -4   0 -11   23.75    4.29
   4   0  11   25.71    4.03
  -4   0 -12   37.44    5.19
   4   0  12   32.43    4.38
   4   1 -17   -2.63    2.81
   4   1 -16    7.60    3.23
  -4  -1  16    7.31    3.08
  -4  -1  16    8.69    4.13
   4   1 -16    2.98    2.97
  -4  -1  15   46.79    5.55
   4   1 -15   44.49    4.94
  -4  -1  15   52.19    5.62
   4   1 -15   57.93    6.04
   4   1 -14   19.82    4.00
  -4  -1  14   10.54    3.21
  -4  -1  14   11.83    3.92
   4   1 -14   12.95    2.97
  -4  -1  13   41.70    5.21
  -4  -1  13   39.08    4.83
   4   1 -13   46.53    4.57
   4   1 -13   40.43    4.96
   4   1 -12   18.19    3.94
  -4  -1  12   12.38    2.75
  -4  -1  12   19.10    3.83
   4   1 -11   25.24    3.97
  -4  -1  11   25.20    3.93
  -4  -1  11   32.34    4.22
  -4  -1  10   27.91    3.84
   4   1 -10   21.35    3.61
  -4  -1  10   22.71    3.75
   4   1 -10   25.27    3.49
  -4  -1   9    2.93    2.06
   4   1  -9    3.27    2.47
  -4  -1   9   -3.84    2.66
   4   1  -9    1.65    2.17
   4   1  -9    0.19    1.47
  -4  -1   8   47.54    4.43
   4   1  -8   49.06    4.49
   4   1  -8   50.79    4.05
  -4  -1   8   48.69    4.42
   4   1  -8   53.65    4.58
   4   1  -8   53.88    4.28
   4   1  -7  148.25    6.79
  -4  -1   7  144.02    6.90
   4   1  -7  146.98    7.19
   4   1  -7  155.01    6.83
  -4  -1   7  149.96    6.54
  -4  -1   7  143.86    6.87
   4   1  -7  155.23    7.24
  -4  -1   6   -0.25    1.88
   4   1  -6    1.32    2.24
  -4  -1   6   -0.69    2.09
   4   1  -6   -1.17    2.00
  -4  -1   6   -0.78    1.52
  -4  -1   6    0.94    1.55
   4   1  -6   -0.40    1.77
   4   1  -6   -0.08    1.72
   4   1  -5   73.91    5.01
  -4  -1   5   69.53    4.69
   4   1  -5   73.12    5.22
  -4  -1   5   74.49    4.32
   4   1  -5   73.86    4.89
  -4  -1   5   76.04    4.38
   4   1  -5   74.14    4.90
   4   1  -4   17.39    2.64
  -4  -1   4   19.60    2.73
   4   1  -4   14.26    2.98
  -4  -1   4   16.99    2.41
  -4  -1   4   15.51    2.24
   4   1  -4   16.43    2.73
   4   1  -4   17.32    2.87
   4   1  -3  150.17    6.94
  -4  -1   3  148.99    6.24
   4   1  -3  141.04    7.06
  -4  -1   3  155.57    6.38
   4   1  -3  149.57    6.83
  -4  -1   3  164.14    5.75
  -4  -1   3  154.49    6.90
   4   1  -3  154.45    6.43
   4   1  -2   79.46    5.34
  -4  -1   2   84.85    4.61
   4   1  -2   86.21    5.63
  -4  -1   2   74.56    4.72
   4   1  -2   81.07    5.19
  -4  -1   2   85.73    4.02
  -4  -1   2   76.64    4.99
   4   1  -2   82.41    4.75
   4   1  -1  555.69   13.35
  -4  -1   1  553.83   11.13
   4   1  -1  548.07   13.32
  -4  -1   1  541.26   12.28
   4   1  -1  544.30   13.03
  -4  -1   1  560.97   12.48
   4   1   0   91.58    5.75
  -4  -1   0   96.58    4.66
   4   1   0   96.73    5.88
   4   1   0   97.75    5.11
   4   1   0   89.13    5.62
  -4  -1   0   90.53    5.53
  -4  -1   0   97.95    5.42
   4   1   1   86.89    5.71
  -4  -1  -1   77.85    4.12
   4   1   1   83.23    5.39
   4   1   1   90.02    5.09
   4   1   1   80.32    5.49
  -4  -1  -1   82.19    5.33
  -4  -1  -1   82.07    4.88
   4   1   2  134.25    6.94
   4   1   2  139.92    6.89
   4   1   2  126.91    6.17
   4   1   2  135.20    7.06
  -4  -1  -2  128.50    6.67
  -4  -1  -2  137.09    6.04
   4   1   3    6.58    2.24
   4   1   3    3.52    1.58
   4   1   3    5.94    2.57
  -4  -1  -3    0.76    1.96
   4   1   4   25.01    3.26
   4   1   4   28.75    3.47
   4   1   4   30.20    3.80
  -4  -1  -4   23.58    2.75
   4   1   5   40.00    3.96
  -4  -1  -5   34.60    4.12
   4   1   5   32.84    3.70
   4   1   5   31.91    3.87
  -4  -1  -6    0.28    2.15
   4   1   6    1.01    2.03
   4   1   6    2.93    2.08
   4   1   6    0.60    1.74
  -4  -1  -7   30.79    4.17
   4   1   7   33.97    4.13
  -4  -1  -8    5.66    2.64
   4   1   8    4.35    1.89
  -4  -1  -9    7.48    2.99
   4   1   9    8.31    2.96
  -4  -1 -10    8.90    2.94
   4   1  10    7.02    2.78
  -4  -1 -11    1.45    2.95
   4   1  11    4.04    2.54
  -4  -1 -12    4.29    3.09
   4   1  12    3.32    2.55
   4   2 -17   12.19    3.67
   4   2 -16   29.66    4.75
  -4  -2  16   28.60    4.76
  -4  -2  16   29.06    4.84
   4   2 -16   27.54    4.37
   4   2 -15    3.76    3.01
  -4  -2  15   -0.23    2.33
  -4  -2  14  115.96    7.92
  -4  -2  14  115.72    7.73
   4   2 -14  117.00    7.82
   4   2 -13   20.66    3.97
  -4  -2  13   11.54    3.06
  -4  -2  13   10.25    3.37
  -4  -2  12    2.98    2.51
   4   2 -12    6.00    2.89
  -4  -2  12    5.61    3.13
   4   2 -12    2.24    1.93
  -4  -2  11    7.59    2.74
   4   2 -11    7.90    2.92
  -4  -2  11   10.42    3.12
   4   2 -11    7.12    2.37
   4   2 -11   12.91    2.56
  -4  -2  10   59.62    5.13
   4   2 -10   59.40    4.95
   4   2 -10   66.19    4.87
  -4  -2  10   56.26    5.16
   4   2 -10   61.66    5.32
  -4  -2   9   28.76    3.86
   4   2  -9   31.39    4.16
  -4  -2   9   25.64    3.57
   4   2  -9   26.58    3.56
  -4  -2   9   27.43    3.31
   4   2  -9   26.09    3.26
  -4  -2   8   26.83    3.50
  -4  -2   8   30.75    3.71
   4   2  -8   31.27    3.82
   4   2  -8   36.64    3.70
  -4  -2   8   33.71    3.52
   4   2  -8   31.13    4.12
  -4  -2   7  247.34    8.83
   4   2  -7  248.67    9.46
  -4  -2   7  254.83    7.85
   4   2  -7  251.61    8.98
  -4  -2   7  251.48    8.46
   4   2  -7  240.91    9.02
   4   2  -6   18.77    3.02
  -4  -2   6   17.74    2.72
   4   2  -6   19.17    3.21
  -4  -2   6   18.38    2.43
  -4  -2   6   21.46    2.80
   4   2  -6   21.40    3.11
  -4  -2   6   15.54    3.02
   4   2  -6   21.15    2.51
  -4  -2   5   34.26    3.30
   4   2  -5   37.58    4.18
  -4  -2   5   41.52    3.60
   4   2  -5   39.76    3.91
  -4  -2   5   39.44    3.39
  -4  -2   5   37.72    3.86
   4   2  -5   40.36    3.31
   4   2  -5   38.69    3.75
   4   2  -4    5.53    2.16
  -4  -2   4    6.14    1.49
   4   2  -4   11.65    2.88
  -4  -2   4   12.64    2.38
  -4  -2   4   10.21    2.07
   4   2  -4   12.33    2.79
  -4  -2   4    5.49    2.37
  -4  -2   3    0.70    1.35
   4   2  -3    1.43    2.12
  -4  -2   3    3.51    1.99
  -4  -2   3    0.85    1.39
   4   2  -3    3.72    1.98
  -4  -2   3   -1.05    2.43
   4   2  -3    1.67    1.81
  -4  -2   2   22.54    2.45
   4   2  -2   22.92    3.43
  -4  -2   2   22.95    3.11
  -4  -2   2   28.30    2.69
   4   2  -2   24.62    3.27
  -4  -2   2   26.79    3.29
   4   2  -1    1.00    2.10
  -4  -2   1    3.54    2.07
  -4  -2   1    3.87    1.59
   4   2  -1    3.67    1.83
  -4  -2   1    1.69    2.08
   4   2   0    7.96    2.46
  -4  -2   0    6.95    2.33
   4   2   0    5.38    1.97
  -4  -2   0    8.16    2.42
   4   2   1   15.94    2.91
   4   2   1    9.92    2.17
  -4  -2  -1   11.77    2.75
   4   2   1   12.44    2.72
  -4  -2  -1   10.29    2.33
   4   2   2  175.67    7.78
   4   2   2  172.91    7.57
   4   2   2  182.67    8.25
  -4  -2  -2  174.37    8.01
  -4  -2  -2  176.71    7.19
   4   2   3    0.85    1.86
   4   2   3    2.38    2.07
   4   2   3    1.10    1.99
  -4  -2  -3   -1.57    2.00
   4   2   4   24.30    3.34
   4   2   4   20.01    3.36
  -4  -2  -4   21.87    3.61
   4   2   4   18.77    3.34
  -4  -2  -4   27.91    3.44
   4   2   5   44.90    4.17
   4   2   5   44.70    4.48
   4   2   5   54.00    4.95
  -4  -2  -5   46.06    4.93
   4   2   6   64.41    4.77
   4   2   6   66.17    5.51
   4   2   6   53.15    4.84
  -4  -2  -6   57.37    5.27
  -4  -2  -6   59.28    5.32
  -4  -2  -7   11.85    3.40
   4   2   7   12.11    2.85
  -4  -2  -7   11.04    3.03
  -4  -2  -8    8.53    3.27
   4   2   8    6.30    2.39
  -4  -2  -9    2.15    2.74
   4   2   9   -1.03    2.70
  -4  -2 -10    3.11    2.58
   4   2  10    7.27    2.71
  -4  -2 -10    5.36    2.50
  -4  -2 -11   24.09    4.77
   4   2  11   28.62    4.41
  -4  -2 -11   26.12    4.49
   4   3 -16   -0.12    2.54
  -4  -3  16   -0.78    2.80
  -4  -3  16    0.29    3.15
   4   3 -15   25.93    4.47
  -4  -3  15   29.93    4.53
  -4  -3  15   28.53    4.75
   4   3 -14    5.34    3.02
  -4  -3  14    3.15    2.40
  -4  -3  14    0.07    2.81
   4   3 -13   32.34    4.57
  -4  -3  13   22.24    3.94
  -4  -3  13   35.21    4.43
  -4  -3  13   30.41    4.37
  -4  -3  12   36.50    4.39
   4   3 -12   41.43    4.40
   4   3 -12   43.10    4.29
  -4  -3  12   38.36    4.47
  -4  -3  12   40.77    4.66
   4   3 -12   38.16    4.65
  -4  -3  11    1.25    2.21
   4   3 -11    4.03    2.73
  -4  -3  11    5.37    2.84
   4   3 -11    3.31    2.33
  -4  -3  11   -1.95    2.20
   4   3 -11    3.59    2.07
  -4  -3  10   19.49    3.28
   4   3 -10   19.24    3.51
  -4  -3  10   20.84    3.43
   4   3 -10   20.61    3.49
  -4  -3  10   25.23    3.62
  -4  -3  10   20.47    3.55
   4   3 -10   20.91    3.16
   4   3  -9   19.72    3.40
  -4  -3   9   22.49    3.41
   4   3  -9   25.44    3.47
  -4  -3   9   25.62    3.48
  -4  -3   9   21.35    3.41
  -4  -3   9   28.00    3.94
   4   3  -9   23.27    3.26
  -4  -3   8  203.79    8.12
   4   3  -8  200.50    8.70
  -4  -3   8  211.31    7.55
   4   3  -8  205.90    8.53
  -4  -3   8  222.80    8.61
  -4  -3   8  227.60    9.31
   4   3  -8  224.85    7.92
   4   3  -8  211.40    8.85
  -4  -3   7  171.47    7.30
   4   3  -7  171.95    8.04
  -4  -3   7  171.78    6.90
   4   3  -7  175.33    7.92
  -4  -3   7  186.89    7.58
  -4  -3   7  173.08    8.21
   4   3  -7  176.45    7.04
   4   3  -7  169.99    7.79
  -4  -3   6  202.97    7.51
   4   3  -6  201.77    8.68
  -4  -3   6  193.60    7.46
   4   3  -6  202.74    8.44
  -4  -3   6  209.50    7.79
  -4  -3   6  208.03    8.76
   4   3  -6  202.90    7.51
   4   3  -6  210.46    8.45
   4   3  -5    7.60    2.48
  -4  -3   5   12.52    2.16
   4   3  -5    5.09    2.35
  -4  -3   5   13.71    2.55
  -4  -3   5   10.61    2.33
   4   3  -5   10.78    2.67
  -4  -3   5    7.75    2.63
   4   3  -5   10.53    2.25
  -4  -3   4    2.86    1.52
   4   3  -4    3.99    2.00
  -4  -3   4    4.44    2.04
  -4  -3   4    3.46    1.54
   4   3  -4    1.72    2.07
  -4  -3   4    5.53    2.80
   4   3  -4    0.05    1.70
   4   3  -3    5.14    2.54
  -4  -3   3    3.12    2.08
  -4  -3   3    0.38    1.47
   4   3  -3    3.50    2.05
  -4  -3   3    6.40    2.77
   4   3  -2   18.44    3.20
  -4  -3   2   14.44    2.85
  -4  -3   2   16.17    2.40
   4   3  -2   13.86    2.76
  -4  -3   2   20.31    3.51
   4   3  -1   20.02    3.18
  -4  -3   1   16.37    3.01
  -4  -3   1   12.30    2.13
   4   3  -1   10.41    2.59
  -4  -3   1   16.83    3.07
   4   3   0    2.26    2.21
  -4  -3   0   -1.81    2.41
   4   3   0    1.05    1.79
  -4  -3   0   -5.33    2.85
   4   3   1   15.45    2.70
   4   3   1   19.76    3.02
  -4  -3  -1   17.45    3.12
   4   3   1   19.94    3.10
  -4  -3  -1   17.41    2.86
   4   3   2   51.08    4.48
   4   3   2   48.16    4.30
   4   3   2   49.11    4.69
  -4  -3  -2   51.61    4.79
  -4  -3  -2   44.51    4.24
   4   3   3   13.56    2.85
   4   3   3   13.63    2.80
  -4  -3  -3   10.90    2.94
   4   3   3   13.30    3.05
  -4  -3  -3   16.84    3.02
   4   3   4   -0.74    2.00
   4   3   4   -1.11    1.94
  -4  -3  -4   -2.61    2.37
   4   3   4    5.24    2.46
  -4  -3  -4    0.88    2.14
   4   3   5   42.87    4.10
   4   3   5   39.76    4.48
   4   3   5   32.94    4.14
  -4  -3  -5   34.45    4.43
   4   3   6   25.73    3.92
  -4  -3  -6   22.23    4.00
   4   3   6   23.43    3.91
  -4  -3  -7    2.01    2.55
   4   3   7    1.37    2.15
   4   3   7    0.38    2.04
  -4  -3  -7   -1.43    2.71
  -4  -3  -8   26.96    4.42
   4   3   8   33.09    4.49
  -4  -3  -8   29.35    4.61
   4   3   9  109.36    7.67
  -4  -3  -9  101.78    7.68
  -4  -3  -9  106.40    7.87
  -4  -3 -10   -0.60    2.64
   4   3  10   -0.87    2.06
  -4  -3 -10   -2.23    2.73
  -4  -3 -11   20.55    4.21
   4   4 -16   19.83    4.35
  -4  -4  16   24.55    4.21
  -4  -4  16   22.23    4.60
  -4  -4  16   27.13    4.36
  -4  -4  16   23.15    3.99
   4   4 -15    4.80    2.57
  -4  -4  15    3.04    2.47
  -4  -4  15    2.10    3.23
  -4  -4  15    4.80    2.78
  -4  -4  15   -1.12    2.75
  -4  -4  14   17.56    3.60
   4   4 -14   14.55    3.72
  -4  -4  14   18.12    4.15
  -4  -4  14   18.71    3.62
  -4  -4  14   16.73    3.62
  -4  -4  13   17.16    3.44
   4   4 -13   13.48    3.54
  -4  -4  13   12.96    3.77
   4   4 -13   18.18    3.39
  -4  -4  13   19.43    3.69
  -4  -4  13   14.09    3.27
   4   4 -13   15.19    2.91
  -4  -4  12   57.30    5.32
   4   4 -12   67.17    5.48
   4   4 -12   65.41    5.34
  -4  -4  12   59.95    5.55
  -4  -4  12   61.98    5.69
  -4  -4  12   61.03    5.50
   4   4 -12   59.64    5.64
  -4  -4  11  180.68    8.60
   4   4 -11  187.62    8.81
   4   4 -11  180.91    8.55
  -4  -4  11  183.39    8.68
  -4  -4  11  178.70    9.03
  -4  -4  11  189.04    9.24
   4   4 -11  197.90    9.34
   4   4 -10    3.27    2.99
  -4  -4  10   -0.08    2.51
   4   4 -10    0.80    1.97
  -4  -4  10    0.40    2.16
  -4  -4  10   -0.53    3.03
   4   4 -10    1.99    2.19
   4   4  -9    0.61    2.57
  -4  -4   9   -2.04    2.05
   4   4  -9   -2.29    2.42
  -4  -4   9    2.13    2.07
  -4  -4   9    1.31    2.03
  -4  -4   9   -0.48    2.39
   4   4  -9    0.42    1.75
   4   4  -9    0.26    1.78
   4   4  -8    8.69    2.70
  -4  -4   8    7.84    2.42
   4   4  -8    6.78    2.55
  -4  -4   8    7.85    2.40
  -4  -4   8    6.57    2.28
  -4  -4   8    3.56    2.48
   4   4  -8    3.54    2.24
   4   4  -8    7.71    2.21
   4   4  -7    9.32    2.85
  -4  -4   7   12.91    2.62
   4   4  -7    8.07    2.67
  -4  -4   7   10.01    2.35
  -4  -4   7   11.70    2.65
  -4  -4   7    7.99    2.83
   4   4  -7   10.81    2.76
   4   4  -7    7.90    2.30
   4   4  -6   34.16    4.09
  -4  -4   6   36.70    3.76
   4   4  -6   35.66    3.99
  -4  -4   6   36.38    3.73
  -4  -4   6   34.05    4.09
   4   4  -6   38.72    3.81
   4   4  -6   38.56    4.11
   4   4  -5   31.07    4.14
  -4  -4   5   25.63    3.23
  -4  -4   5   36.95    3.62
   4   4  -5   31.56    3.67
  -4  -4   5   33.62    4.09
   4   4  -5   35.50    3.73
   4   4  -4    2.22    2.27
  -4  -4   4    4.16    2.30
  -4  -4   4    7.68    2.39
   4   4  -4    3.93    2.36
  -4  -4   4    9.88    3.09
   4   4  -4    6.59    2.60
   4   4  -3  332.06   11.42
  -4  -4   3  343.08   10.85
   4   4  -3  322.98   11.05
  -4  -4   3  362.07   10.03
  -4  -4   3  336.95   11.05
   4   4  -2    8.42    2.81
  -4  -4   2   16.44    3.69
  -4  -4   2   12.83    2.98
   4   4  -2    5.73    2.59
  -4  -4   2    3.56    2.44
   4   4  -1  237.53    9.56
  -4  -4   1  222.20    9.12
   4   4  -1  232.66    9.47
  -4  -4   1  250.22    8.14
  -4  -4   1  225.59    8.96
   4   4   0   40.92    4.34
  -4  -4   0   41.93    4.41
  -4  -4   0   39.54    3.46
   4   4   0   36.19    4.15
  -4  -4   0   39.50    4.21
   4   4   1    0.55    2.04
  -4  -4  -1    0.48    2.27
   4   4   1    2.65    2.16
  -4  -4  -1    1.82    2.25
   4   4   2   21.40    3.42
  -4  -4  -2   18.88    3.38
   4   4   2   22.24    3.54
  -4  -4  -2   25.33    3.68
   4   4   3   16.06    3.00
   4   4   3   15.54    3.12
  -4  -4  -3   12.52    3.14
   4   4   3   13.90    3.02
  -4  -4  -3   19.10    3.45
   4   4   4   77.90    5.58
   4   4   4   75.98    5.86
   4   4   4   76.13    5.95
  -4  -4  -4   60.03    5.65
  -4  -4  -4   68.88    5.34
   4   4   5   23.09    3.30
   4   4   5   26.74    3.95
  -4  -4  -5   19.98    3.92
   4   4   5   25.68    3.69
  -4  -4  -5   26.66    3.71
   4   4   6   -1.10    2.39
  -4  -4  -6    0.34    2.31
   4   4   6    3.11    2.46
   4   4   7    0.05    1.88
   4   4   7    2.67    2.73
  -4  -4  -7   -3.17    3.03
  -4  -4  -8   11.50    3.34
   4   4   8   15.61    3.57
  -4  -4  -8   12.98    3.63
   4   4   9   95.24    7.43
  -4  -4  -9   94.94    7.57
  -4  -4  -9   97.00    7.64
  -4  -5  16    9.57    4.16
  -4  -5  16    0.95    2.66
  -4  -5  15   93.57    7.23
  -4  -5  15  100.37    7.50
  -4  -5  15   86.55    7.05
  -4  -5  15   86.80    7.01
   4   5 -15   83.61    7.09
  -4  -5  14    4.31    2.58
   4   5 -14    4.37    3.06
  -4  -5  14    1.29    2.96
  -4  -5  14    0.81    2.66
  -4  -5  14   -2.34    2.88
   4   5 -14    4.03    2.75
  -4  -5  13   15.38    3.32
   4   5 -13   16.83    3.77
  -4  -5  13   21.66    4.06
   4   5 -13   17.24    3.34
  -4  -5  13   17.32    3.42
  -4  -5  13   16.82    3.47
   4   5 -13   21.66    3.78
  -4  -5  12    3.90    2.21
   4   5 -12    9.71    3.08
  -4  -5  12    7.30    3.10
   4   5 -12    7.30    2.70
  -4  -5  12    9.82    3.27
  -4  -5  12    4.98    3.08
   4   5 -12    8.30    3.04
   4   5 -11   15.29    3.48
  -4  -5  11    8.15    2.93
   4   5 -11    9.56    2.93
  -4  -5  11   16.29    3.53
  -4  -5  11   10.90    3.09
   4   5 -11   11.18    2.77
   4   5 -11   12.55    3.21
   4   5 -10    4.44    2.79
  -4  -5  10    2.56    2.22
   4   5 -10    2.45    2.07
  -4  -5  10    3.86    2.16
  -4  -5  10    1.18    2.16
  -4  -5  10    3.15    2.75
   4   5 -10    1.63    2.04
   4   5 -10    0.97    2.13
   4   5  -9    1.60    2.50
  -4  -5   9    0.13    2.02
   4   5  -9    0.90    2.26
  -4  -5   9    6.08    2.53
  -4  -5   9    2.37    2.31
  -4  -5   9   -0.21    2.69
   4   5  -9    1.87    1.94
   4   5  -9    1.32    2.19
   4   5  -8    0.16    2.23
   4   5  -8   -0.87    1.91
  -4  -5   8   -0.01    1.92
  -4  -5   8    3.81    2.38
  -4  -5   8    0.78    2.30
   4   5  -8    0.34    2.17
   4   5  -8    0.03    2.01
   4   5  -7   79.59    5.94
  -4  -5   7   82.22    5.60
   4   5  -7   82.18    6.01
  -4  -5   7   83.98    5.63
  -4  -5   7   78.20    5.97
   4   5  -7   76.13    5.34
   4   5  -6   24.34    3.65
  -4  -5   6   17.11    3.02
  -4  -5   6   25.06    3.41
  -4  -5   6   27.30    4.04
   4   5  -6   18.55    3.25
   4   5  -6   20.91    3.13
   4   5  -5   59.67    5.28
  -4  -5   5   53.41    4.67
   4   5  -5   59.86    5.19
  -4  -5   5   60.03    4.74
  -4  -5   5   61.33    5.35
   4   5  -5   57.48    4.86
   4   5  -4  134.01    7.54
  -4  -5   4  130.82    7.06
   4   5  -4  140.87    7.64
  -4  -5   4  146.08    6.96
  -4  -5   4  157.54    7.88
   4   5  -4  142.74    7.25
   4   5  -3  252.03   10.12
  -4  -5   3  256.07    9.94
   4   5  -3  266.47   10.48
  -4  -5   3  269.55    9.19
  -4  -5   3  262.62   10.02
   4   5  -2   19.33    3.48
  -4  -5   2   14.68    3.10
  -4  -5   2   18.22    2.88
   4   5  -2   19.56    3.40
  -4  -5   2   13.35    3.13
   4   5  -1  246.61   10.03
  -4  -5   1  238.80    9.82
   4   5  -1  255.41   10.27
  -4  -5   1  254.13    8.82
  -4  -5   1  247.99    9.78
   4   5   0    8.23    2.56
  -4  -5   0   15.72    3.54
  -4  -5   0    9.99    2.32
   4   5   0   11.78    3.13
  -4  -5   0   11.93    3.07
   4   5   1   34.90    4.12
  -4  -5  -1   38.59    4.56
   4   5   1   30.17    3.96
  -4  -5  -1   38.79    4.63
   4   5   2   40.52    4.53
   4   5   2   34.94    4.24
  -4  -5  -2   31.17    4.15
  -4  -5  -2   40.75    4.55
   4   5   3   10.13    2.67
  -4  -5  -3    5.82    2.73
   4   5   3    8.96    2.73
  -4  -5  -3   14.94    3.25
   4   5   4   12.17    2.87
   4   5   4   10.93    3.14
  -4  -5  -4    7.44    2.88
   4   5   4    7.03    2.71
  -4  -5  -4    7.22    3.03
   4   5   5  134.74    8.21
   4   5   5  135.84    7.90
  -4  -5  -5  129.09    8.31
  -4  -5  -5  151.81    7.92
   4   5   6   56.26    5.78
   4   5   6   60.45    5.51
  -4  -5  -6   53.21    5.83
   4   5   7    5.98    2.91
  -4  -5  -7    1.43    2.33
   4   5   7    2.98    2.56
  -4  -5  -8    3.40    3.13
   4   5   8    4.22    3.17
  -4  -5  -8    0.15    2.43
  -4  -6  16  199.41   10.67
  -4  -6  16  231.62   11.25
  -4  -6  15  261.73   11.75
  -4  -6  15  296.13   12.55
  -4  -6  15  290.27   12.31
  -4  -6  15  279.52   12.58
   4   6 -15  284.80   12.54
  -4  -6  14    0.89    2.35
   4   6 -14   -1.47    2.43
  -4  -6  14    1.35    2.93
  -4  -6  14    2.89    2.86
  -4  -6  14    1.37    3.12
   4   6 -14    0.21    2.38
   4   6 -13   37.60    4.91
  -4  -6  13   39.47    4.77
   4   6 -13   42.19    4.94
   4   6 -13   37.33    4.69
  -4  -6  13   50.34    5.52
  -4  -6  13   39.24    4.94
  -4  -6  13   36.62    4.86
   4   6 -12    8.57    3.29
  -4  -6  12   12.28    3.08
   4   6 -12   14.82    3.30
  -4  -6  12   12.02    3.56
   4   6 -12   10.09    2.86
  -4  -6  12    9.20    3.27
   4   6 -12   10.72    3.02
   4   6 -12   11.25    3.04
   4   6 -11   33.48    4.67
   4   6 -11   32.64    4.32
  -4  -6  11   34.69    4.12
  -4  -6  11   35.57    4.44
  -4  -6  11   35.99    4.73
   4   6 -11   36.83    4.26
   4   6 -11   33.58    4.52
   4   6 -10   -2.01    3.04
   4   6 -10    2.70    2.55
  -4  -6  10   -1.31    2.21
  -4  -6  10    2.81    2.33
  -4  -6  10    3.65    2.69
   4   6 -10   -0.66    2.37
   4   6 -10   -0.36    2.23
   4   6  -9   -0.51    2.23
  -4  -6   9    3.98    2.66
  -4  -6   9    0.94    2.50
  -4  -6   9    2.44    2.81
   4   6  -9    1.58    1.99
   4   6  -9   -2.39    2.27
   4   6  -8   25.59    4.15
  -4  -6   8   31.42    4.07
  -4  -6   8   28.37    3.80
  -4  -6   8   32.92    4.57
   4   6  -8   30.06    3.99
   4   6  -8   24.22    3.99
   4   6  -7    0.84    2.41
  -4  -6   7   -1.23    2.01
  -4  -6   7   -1.47    2.58
  -4  -6   7    6.97    3.52
   4   6  -7    1.77    2.23
   4   6  -7    1.19    2.03
   4   6  -6    5.06    2.44
  -4  -6   6    6.50    2.55
  -4  -6   6    9.32    2.79
  -4  -6   6    5.63    2.97
   4   6  -6    4.69    2.58
   4   6  -6    8.66    2.62
   4   6  -5   64.36    5.54
  -4  -6   5   46.91    4.81
   4   6  -5   63.28    5.56
  -4  -6   5   64.70    5.07
  -4  -6   5   57.94    5.19
   4   6  -5   59.86    5.19
   4   6  -4   13.74    3.13
  -4  -6   4   17.32    3.34
  -4  -6   4   23.72    3.69
   4   6  -4   21.26    3.60
  -4  -6   4   13.22    3.17
   4   6  -4   19.63    3.36
   4   6  -3    3.54    2.53
  -4  -6   3    4.36    2.48
  -4  -6   3    5.35    2.48
   4   6  -3    3.21    2.29
  -4  -6   3   -2.85    3.23
   4   6  -2   46.59    4.84
  -4  -6   2   44.17    4.79
   4   6  -2   44.16    4.66
  -4  -6   2   48.96    4.37
  -4  -6   2   44.50    5.00
   4   6  -1   50.33    5.06
  -4  -6   1   59.99    5.58
   4   6  -1   51.80    4.97
  -4  -6   1   58.20    4.76
  -4  -6   1   50.80    5.23
   4   6   0   87.67    6.31
  -4  -6   0   84.84    6.53
   4   6   0   87.45    6.39
  -4  -6   0   89.02    5.70
  -4  -6   0   86.82    6.45
   4   6   1  136.67    7.88
  -4  -6  -1  139.85    8.21
   4   6   1  134.69    7.89
  -4  -6  -1  139.17    8.02
   4   6   2   29.10    4.04
  -4  -6  -2   24.34    4.13
   4   6   2   29.63    4.26
  -4  -6  -2   30.21    4.41
   4   6   3   14.25    3.15
  -4  -6  -3   17.47    3.73
   4   6   3   19.59    3.50
  -4  -6  -3   23.46    4.06
   4   6   4   -0.17    2.08
  -4  -6  -4   -0.22    2.51
   4   6   4    3.75    2.52
  -4  -6  -4    1.50    2.85
  -4  -6  -5    4.61    2.97
   4   6   5    3.17    2.33
  -4  -6  -5    9.52    3.61
  -4  -6  -6   15.71    3.52
   4   6   6   14.29    3.36
  -4  -6  -7   -2.53    3.01
   4   6   7    3.98    2.76
  -4  -7  16   48.83    5.73
  -4  -7  15   21.86    4.25
  -4  -7  15   28.26    4.58
  -4  -7  14    8.13    2.88
   4   7 -14    7.23    3.31
  -4  -7  14   11.17    3.67
  -4  -7  14   10.85    3.61
   4   7 -13    1.53    2.53
   4   7 -13    2.90    2.49
  -4  -7  13    4.04    2.96
   4   7 -13   -0.10    2.24
  -4  -7  13    0.90    2.83
   4   7 -13   -1.93    2.45
   4   7 -13   -0.99    2.46
   4   7 -12   29.40    4.16
   4   7 -12   35.49    4.82
  -4  -7  12   31.29    4.66
  -4  -7  12   27.92    4.63
   4   7 -12   26.70    4.46
   4   7 -12   31.17    4.49
   4   7 -11  100.23    7.18
  -4  -7  11  101.06    6.62
   4   7 -11  109.42    7.59
  -4  -7  11  115.52    7.68
  -4  -7  11  103.04    7.48
   4   7 -11  106.84    7.10
   4   7 -10    3.59    2.71
  -4  -7  10    2.91    2.41
  -4  -7  10    1.45    2.41
  -4  -7  10    2.80    3.05
   4   7 -10    2.31    2.32
   4   7 -10    3.41    2.69
   4   7  -9   22.89    3.94
  -4  -7   9   25.82    4.08
  -4  -7   9   17.76    3.76
  -4  -7   9   24.88    4.28
   4   7  -9   19.68    3.72
   4   7  -9   25.14    4.19
   4   7  -8   99.52    7.16
  -4  -7   8  106.04    6.89
   4   7  -8   96.30    6.99
  -4  -7   8  109.81    7.14
  -4  -7   8  100.91    7.01
   4   7  -8   98.51    6.61
   4   7  -7   18.76    3.62
  -4  -7   7   18.26    3.38
  -4  -7   7   17.36    3.34
  -4  -7   7   11.12    3.28
   4   7  -7   16.01    3.50
   4   7  -7   14.06    3.29
   4   7  -6    1.88    2.68
  -4  -7   6    2.51    2.41
  -4  -7   6    0.62    2.29
  -4  -7   6   -1.55    3.68
   4   7  -6    2.74    2.28
   4   7  -6    2.44    2.30
   4   7  -5    9.45    2.84
  -4  -7   5    8.68    2.80
  -4  -7   5   12.34    2.89
  -4  -7   5    5.95    2.92
   4   7  -5   11.34    3.24
   4   7  -5   12.75    3.18
   4   7  -4    0.15    2.35
  -4  -7   4   -1.98    2.94
  -4  -7   4    0.19    2.23
   4   7  -4    1.95    2.39
  -4  -7   4   -0.53    3.33
   4   7  -4   -0.40    2.10
   4   7  -3    9.79    3.06
  -4  -7   3    5.58    2.31
  -4  -7   3    6.51    2.51
   4   7  -3   12.55    3.29
  -4  -7   3   10.44    3.48
   4   7  -2   19.99    3.51
  -4  -7   2   17.58    3.52
  -4  -7   2   20.88    3.37
   4   7  -2   14.38    3.22
  -4  -7   2   21.54    3.98
   4   7  -1    3.70    2.46
  -4  -7   1    3.36    2.88
  -4  -7   1    3.86    2.20
   4   7  -1    2.48    2.47
  -4  -7   1   11.42    3.99
   4   7   0    2.77    2.46
  -4  -7   0    1.66    2.39
  -4  -7   0    2.15    2.02
   4   7   0   -2.37    2.51
  -4  -7   0    0.64    3.09
   4   7   1    7.35    2.75
  -4  -7  -1   16.99    3.98
  -4  -7  -1   10.82    2.95
   4   7   1   12.67    3.19
  -4  -7  -1    9.39    3.31
   4   7   2   11.08    2.85
  -4  -7  -2   10.65    3.49
   4   7   2    9.81    3.04
  -4  -7  -2    6.44    3.38
   4   7   3   16.65    3.40
  -4  -7  -3   15.30    3.91
   4   7   3   13.25    3.27
  -4  -7  -3   16.47    3.88
   4   7   4  158.23    8.93
  -4  -7  -4  145.75    9.23
  -4  -7  -4  147.74    8.74
  -4  -7  -5    3.11    2.96
   4   7   5   -0.19    1.91
  -4  -7  -5    3.15    3.14
   4   8 -14   56.03    5.70
   4   8 -14   53.38    5.64
  -4  -8  14   64.31    6.54
   4   8 -14   54.57    5.61
   4   8 -13   82.21    6.66
   4   8 -13   80.90    6.84
  -4  -8  13   92.21    7.25
  -4  -8  13   91.93    7.37
   4   8 -13   85.76    6.87
   4   8 -12   -0.49    2.41
  -4  -8  12   -3.43    2.92
  -4  -8  12    0.26    2.48
  -4  -8  12   -3.06    3.14
   4   8 -12   -1.02    2.56
   4   8 -12    6.38    2.79
   4   8 -11  147.79    8.95
  -4  -8  11  134.65    7.94
   4   8 -11  145.19    8.93
  -4  -8  11  156.10    9.06
  -4  -8  11  153.20    9.01
   4   8 -11  143.31    8.56
   4   8 -10    6.03    2.88
  -4  -8  10    3.04    2.73
  -4  -8  10    4.63    2.63
  -4  -8  10   -2.38    3.79
   4   8 -10    5.20    2.94
   4   8  -9   36.39    4.72
  -4  -8   9   39.84    5.04
   4   8  -9   39.33    4.92
  -4  -8   9   41.60    5.02
  -4  -8   9   32.42    4.46
   4   8  -9   40.36    4.80
   4   8  -8   72.18    6.36
  -4  -8   8   69.66    6.10
   4   8  -8   77.19    6.69
  -4  -8   8   71.58    6.02
  -4  -8   8   68.61    6.19
   4   8  -8   73.04    6.22
   4   8  -7   -0.67    2.62
  -4  -8   7    2.63    2.33
  -4  -8   7   -1.09    2.57
  -4  -8   7   -2.69    3.41
   4   8  -7    3.54    3.06
   4   8  -7   -0.97    2.46
   4   8  -6    9.42    3.27
  -4  -8   6   13.28    3.29
  -4  -8   6    7.46    2.73
  -4  -8   6    6.70    2.97
   4   8  -6    9.21    3.11
   4   8  -6    8.37    2.99
   4   8  -5    1.66    2.98
  -4  -8   5   -2.12    2.77
  -4  -8   5    3.80    2.91
  -4  -8   5   -2.46    3.25
   4   8  -5   -2.97    2.77
   4   8  -5    0.70    2.55
   4   8  -4   23.10    4.13
  -4  -8   4   23.24    4.03
  -4  -8   4   22.08    3.57
   4   8  -4   30.27    4.28
  -4  -8   4   30.61    4.85
   4   8  -3   -0.33    2.59
  -4  -8   3   -1.33    2.37
  -4  -8   3    1.76    2.29
   4   8  -3   -2.56    2.49
  -4  -8   3    3.84    3.25
   4   8  -2    0.85    2.57
  -4  -8   2    0.36    2.35
  -4  -8   2    0.04    2.33
   4   8  -2    2.65    2.55
  -4  -8   2    0.64    2.85
   4   8  -1    0.66    2.30
  -4  -8   1   -0.04    2.58
  -4  -8   1    1.79    2.56
   4   8  -1    0.56    2.45
  -4  -8   1    7.11    3.71
   4   8   0   15.10    3.64
  -4  -8   0   14.69    3.98
  -4  -8   0   15.68    3.76
   4   8   0   19.33    3.62
  -4  -8   0   19.87    4.20
   4   8   1    3.44    2.69
  -4  -8  -1    1.51    3.13
  -4  -8  -1    4.51    2.86
   4   8   1    6.74    2.91
  -4  -8  -1    0.08    3.33
   4   8   2    1.14    2.59
  -4  -8  -2   -3.83    3.05
   4   8   2   -1.31    2.61
  -4  -8  -2   -1.22    3.34
   4   8   3    1.16    2.14
  -4  -8  -3    1.96    2.78
   4   8   3   -0.32    2.36
  -4  -8  -3    5.16    3.65
   4   8   4    5.84    2.67
  -4  -8  -4    1.03    3.28
   4   9 -13    5.83    2.88
  -4  -9  13    4.52    2.55
   4   9 -12   98.67    7.57
  -4  -9  12   99.11    7.32
   4   9 -12  113.36    8.06
   4   9 -11   -1.74    3.15
  -4  -9  11   -0.02    2.59
  -4  -9  11    0.59    2.92
  -4  -9  11    2.33    3.00
   4   9 -11    2.48    2.73
   4   9 -11   -1.88    2.62
   4   9 -10   22.43    4.37
  -4  -9  10   19.43    3.88
  -4  -9  10   29.61    4.60
  -4  -9  10   15.77    4.30
   4   9 -10   27.26    4.41
   4   9 -10   28.63    4.47
   4   9  -9    7.78    3.36
  -4  -9   9    2.28    2.95
  -4  -9   9    3.35    2.93
  -4  -9   9    0.48    3.02
   4   9  -9   -0.69    2.66
   4   9  -9    4.22    3.19
   4   9  -8    5.53    3.18
  -4  -9   8    8.00    3.58
  -4  -9   8    2.92    2.88
  -4  -9   8   -4.97    4.10
   4   9  -8    2.22    2.12
   4   9  -8    1.47    2.64
   4   9  -7   -2.00    2.82
  -4  -9   7    0.57    2.45
  -4  -9   7   -0.80    2.62
  -4  -9   7    1.00    3.42
   4   9  -7    2.19    2.66
   4   9  -7   -0.38    2.70
   4   9  -6   51.44    5.64
  -4  -9   6   65.29    6.22
   4   9  -6   51.77    5.68
  -4  -9   6   62.89    5.95
  -4  -9   6   55.67    6.47
   4   9  -6   53.84    5.80
   4   9  -5    0.64    2.43
  -4  -9   5    4.33    2.99
  -4  -9   5    5.21    3.06
  -4  -9   5    5.08    3.75
   4   9  -5    1.12    2.41
   4   9  -5   -0.08    2.51
   4   9  -4   19.77    4.23
  -4  -9   4   25.16    4.24
  -4  -9   4   20.02    3.66
   4   9  -4   21.32    4.12
  -4  -9   4   28.87    4.95
   4   9  -3   40.64    5.21
  -4  -9   3   41.50    5.10
   4   9  -3   48.69    5.36
  -4  -9   3   42.01    5.11
  -4  -9   3   49.40    6.21
   4   9  -2    3.70    3.10
  -4  -9   2    3.14    3.06
  -4  -9   2    4.05    2.62
   4   9  -2    7.10    2.91
  -4  -9   2   13.72    4.14
   4   9  -1    0.06    2.27
  -4  -9   1   -2.59    3.16
  -4  -9   1    0.46    2.71
   4   9  -1   -1.03    2.39
  -4  -9   1   -5.14    3.93
   4   9   0   -0.50    2.80
  -4  -9   0   -0.63    2.70
  -4  -9   0    7.72    3.41
   4   9   0   -0.42    2.56
  -4  -9   0   -0.53    3.53
   4   9   1    0.28    2.76
  -4  -9  -1    4.29    3.00
   4   9   1    2.93    2.12
   4   9   2   -1.00    2.54
   4   9   2   -0.42    2.67
  -4 -10   8   18.62    3.95
  -4 -10   7   16.32    3.85
  -4 -10   6   67.59    6.29
  -4 -10   5   19.75    3.91
  -4 -10   4  261.99   11.93
  -4 -10   3   18.20    3.78
  -4 -10   2    7.73    3.55
   5 -11  -2    3.04    2.37
   5 -11  -1    1.89    2.77
  -5  11   1   -3.58    3.43
   5 -11   0    1.17    2.36
  -5  11   0   -6.39    3.97
   5 -11   1    5.22    2.54
  -5  11  -1    5.16    3.29
   5 -11   2    4.05    2.88
  -5  11  -2    7.82    3.14
   5 -11   3   14.15    3.65
   5 -11   3   13.26    3.40
  -5  11  -3   16.44    4.25
   5 -11   4   29.77    4.98
  -5  11  -4   33.03    4.77
  -5  11  -5   71.10    6.79
   5 -10  -5    4.43    2.95
   5 -10  -4    0.49    2.46
  -5  10   4    9.33    3.19
   5 -10  -3   -1.06    2.98
   5 -10  -3    4.42    2.93
  -5  10   3    0.80    2.89
  -5  10   3    2.10    3.02
   5 -10  -2    1.67    2.53
  -5  10   2   -0.18    2.69
   5 -10  -2   -1.15    2.92
  -5  10   2   -2.08    2.83
   5 -10  -1    5.00    2.90
   5 -10  -1    1.88    2.37
  -5  10   1   -1.59    3.19
   5 -10   0   -1.90    2.55
   5 -10   0   -1.57    2.40
  -5  10   0   -0.01    2.84
   5 -10   1    1.10    2.71
   5 -10   1   -1.01    2.37
  -5  10  -1    3.23    3.36
   5 -10   2   -1.18    2.35
   5 -10   2    1.29    2.83
  -5  10  -2    5.68    3.57
   5 -10   3   28.40    4.70
   5 -10   3   22.98    4.16
  -5  10  -3   23.00    4.05
   5 -10   4   14.61    3.68
   5 -10   4   18.31    4.07
  -5  10  -4   18.09    4.14
   5 -10   5   -1.73    2.94
   5 -10   5    4.85    3.19
  -5  10  -5   -4.31    3.30
   5 -10   6    3.77    2.86
   5 -10   6   10.81    3.65
  -5  10  -6    5.09    2.94
   5 -10   7    9.53    3.71
  -5  10  -7    6.67    3.20
   5 -10   7    5.44    2.77
   5 -10   8   -2.06    3.26
   5 -10   8   -2.89    2.78
  -5  10  -8    0.34    3.30
   5 -10   9   24.52    4.39
   5  -9  -6   -0.69    2.55
  -5   9   5    4.95    2.88
   5  -9  -5    3.86    2.81
   5  -9  -4   -0.06    2.50
   5  -9  -4   -1.17    2.53
  -5   9   4    4.30    3.09
  -5   9   4   -1.93    2.76
   5  -9  -3   21.07    4.11
   5  -9  -3   12.74    3.29
  -5   9   3   12.04    3.98
  -5   9   3   14.42    3.44
  -5   9   2   52.46    5.72
   5  -9  -2   55.11    5.85
  -5   9   2   53.39    5.49
   5  -9  -2   53.46    5.46
   5  -9  -1   56.53    5.87
  -5   9   1   73.15    6.46
   5  -9  -1   66.91    6.22
   5  -9   0  115.96    8.10
  -5   9   0  132.79    8.26
   5  -9   0  117.00    7.89
   5  -9   1   22.01    4.15
   5  -9   1   24.73    4.19
  -5   9  -1   19.22    3.78
   5  -9   2    3.34    2.97
   5  -9   2    1.97    2.21
  -5   9  -2    3.73    2.64
   5  -9   3   11.09    3.49
   5  -9   3    7.68    3.20
  -5   9  -3    2.62    2.70
   5  -9   4    2.17    2.92
  -5   9  -4   -3.40    3.13
   5  -9   4   -0.61    2.82
   5  -9   5   16.32    3.59
  -5   9  -5    7.47    3.07
   5  -9   5   11.38    3.45
   5  -9   6   19.04    3.84
   5  -9   6   16.10    3.71
  -5   9  -6   11.20    3.67
   5  -9   7   13.15    3.51
   5  -9   7   18.22    3.63
  -5   9  -7   10.76    3.30
   5  -9   8   12.76    3.86
   5  -9   8    4.25    3.03
  -5   9  -8    6.26    3.15
   5  -9   9   11.91    3.72
  -5   9  -9   10.93    3.56
   5  -9   9   20.56    4.13
   5  -9  10   -2.58    2.78
   5  -9  10   -2.35    2.98
   5  -9  11   -1.99    2.29
  -5   8   7   15.65    4.29
  -5   8   6    8.88    3.44
   5  -8  -6    9.21    2.83
  -5   8   5    3.52    2.75
   5  -8  -5    2.09    2.35
   5  -8  -4   -0.79    1.95
  -5   8   4   -0.36    2.88
  -5   8   4   -1.90    2.67
   5  -8  -4   -0.05    2.04
   5  -8  -3    7.99    3.13
  -5   8   3    6.51    2.99
  -5   8   3   12.24    3.52
   5  -8  -3    3.79    2.69
  -5   8   2   74.15    6.46
   5  -8  -2   81.13    6.46
  -5   8   2   91.11    6.71
   5  -8  -2   77.38    6.37
   5  -8  -1    9.54    3.01
  -5   8   1   12.47    3.35
   5  -8  -1    8.17    2.78
   5  -8   0    4.19    2.73
  -5   8   0   -0.03    2.52
   5  -8   0    1.67    2.13
   5  -8   1   48.79    5.47
  -5   8  -1   46.96    5.05
   5  -8   1   42.79    5.00
   5  -8   2  111.05    7.58
  -5   8  -2  110.42    7.43
   5  -8   2  112.58    7.71
   5  -8   3   92.34    7.08
  -5   8  -3   84.94    6.76
   5  -8   3   89.54    7.01
   5  -8   4   15.05    3.54
   5  -8   4   20.27    3.98
  -5   8  -4   21.08    3.83
   5  -8   5    2.34    2.38
   5  -8   5    1.58    2.50
  -5   8  -5    1.74    2.73
   5  -8   6    8.24    2.73
  -5   8  -6    4.43    3.12
   5  -8   6    8.20    3.05
   5  -8   7    5.30    3.11
  -5   8  -7    1.84    2.45
   5  -8   7    1.13    2.71
   5  -8   8    0.19    2.27
  -5   8  -8    1.52    2.67
   5  -8   8    4.63    3.10
   5  -8   9    0.08    2.13
  -5   8  -9   -3.55    2.62
   5  -8   9    0.29    2.45
   5  -8  10    6.08    3.01
  -5   8 -10    5.73    2.92
   5  -8  10    4.83    2.99
   5  -8  11    0.94    2.79
   5  -8  11   -0.57    2.48
   5  -7  -9   14.81    3.42
  -5   7   9   10.86    3.37
  -5   7   8   41.34    5.55
  -5   7   8   44.66    4.89
  -5   7   7   -3.09    3.02
   5  -7  -7    0.57    2.15
  -5   7   6    4.94    2.93
   5  -7  -6    0.15    2.20
  -5   7   5    6.88    3.21
   5  -7  -5   11.66    3.28
   5  -7  -5    8.61    2.83
  -5   7   4   20.72    4.01
   5  -7  -4   14.25    3.12
  -5   7   4   19.17    3.40
   5  -7  -4   16.88    3.33
  -5   7   3   30.36    4.39
   5  -7  -3   43.82    5.05
  -5   7   3   39.48    4.41
   5  -7  -3   38.74    4.66
  -5   7   2   68.09    5.96
   5  -7  -2   69.95    5.95
  -5   7   2   65.39    5.41
   5  -7  -2   72.19    6.01
   5  -7  -1    0.03    2.24
  -5   7   1    1.64    2.18
   5  -7  -1   -0.30    2.43
   5  -7   0   -2.56    2.51
  -5   7   0   -2.04    2.82
   5  -7   0    0.52    2.03
   5  -7   1    1.27    2.48
  -5   7  -1   -4.33    3.10
   5  -7   1   -2.72    2.55
   5  -7   2   35.40    4.50
  -5   7  -2   30.19    4.21
   5  -7   2   37.08    4.90
   5  -7   3    0.60    2.25
  -5   7  -3    1.47    2.46
   5  -7   3   -0.94    2.32
   5  -7   4   -0.55    2.13
  -5   7  -4    1.29    2.43
   5  -7   4    0.59    2.78
   5  -7   5    3.33    2.78
  -5   7  -5   -0.39    2.26
   5  -7   5   -1.63    2.67
   5  -7   6   30.86    4.37
  -5   7  -6   46.18    5.14
   5  -7   6   34.59    4.86
   5  -7   7   38.28    4.74
  -5   7  -7   38.31    5.05
   5  -7   7   38.82    4.84
   5  -7   8   47.53    5.08
  -5   7  -8   39.48    5.29
   5  -7   8   42.17    5.17
   5  -7   9    9.47    3.12
  -5   7  -9    7.61    3.29
   5  -7   9    9.36    3.16
   5  -7  10    3.13    2.98
  -5   7 -10    5.47    3.25
   5  -7  10    0.09    2.70
   5  -7  11    7.25    3.30
  -5   7 -12   -7.13    3.31
   5  -7  12    2.07    2.70
  -5   6  10   84.07    6.88
   5  -6 -10   88.60    7.08
   5  -6  -9    0.84    2.80
  -5   6   9    5.08    2.86
  -5   6   9    0.50    2.98
   5  -6  -8   18.22    3.59
  -5   6   8   16.84    3.49
  -5   6   8   16.31    3.79
  -5   6   7   -1.75    2.18
   5  -6  -7   -0.66    2.01
  -5   6   6   -1.30    2.37
   5  -6  -6   -3.45    2.38
  -5   6   5    3.17    2.72
   5  -6  -5    4.59    2.13
   5  -6  -5    5.11    2.42
  -5   6   4    3.91    2.80
   5  -6  -4    5.38    2.66
  -5   6   4    8.13    2.45
   5  -6  -4    8.67    2.75
  -5   6   3    1.74    2.71
   5  -6  -3    4.80    2.23
  -5   6   3    2.79    2.23
   5  -6  -3    3.09    2.32
  -5   6   2   -3.14    2.53
   5  -6  -2    2.77    2.65
  -5   6   2   -2.99    2.54
   5  -6  -2    0.07    2.29
   5  -6  -1    4.03    2.50
  -5   6   1   -2.08    2.61
   5  -6  -1    2.41    2.37
   5  -6   0    2.70    2.19
  -5   6   0   -0.97    2.46
   5  -6   0   -3.06    2.71
   5  -6   1   54.60    5.36
  -5   6  -1   48.78    4.87
   5  -6   1   53.40    5.43
   5  -6   2   20.18    3.48
  -5   6  -2   16.64    3.47
   5  -6   2   15.25    3.24
   5  -6   3   10.52    2.72
  -5   6  -3   17.58    3.39
   5  -6   3   16.99    3.64
   5  -6   4    8.97    2.85
  -5   6  -4   10.45    3.11
   5  -6   4    9.12    3.26
   5  -6   5  132.66    8.01
  -5   6  -5  120.16    7.79
   5  -6   5  136.39    8.35
   5  -6   6    4.29    2.62
  -5   6  -6    4.90    2.74
   5  -6   6    5.22    2.91
   5  -6   7    7.95    3.01
  -5   6  -7    4.02    2.85
   5  -6   7    6.27    2.84
   5  -6   8   24.68    3.94
  -5   6  -8   18.47    3.87
   5  -6   8   26.89    4.46
   5  -6   9    3.47    2.57
  -5   6  -9    4.53    2.96
   5  -6   9    3.11    2.71
   5  -6  10    8.01    2.95
  -5   6 -10    5.79    2.94
  -5   6 -10   13.30    3.50
   5  -6  10    8.32    3.19
  -5   6 -11    3.91    2.58
  -5   6 -11    5.67    2.45
   5  -6  11    9.64    3.25
   5  -6  12   -0.72    2.35
   5  -6  12    0.54    2.56
  -5   6 -12    2.44    3.04
   5  -5 -11   -0.36    2.28
  -5   5  11   -2.25    2.53
  -5   5  10   48.31    5.65
  -5   5  10   50.99    5.44
   5  -5 -10   63.75    6.10
   5  -5  -9   11.48    3.38
  -5   5   9    8.95    3.01
  -5   5   9    3.89    3.03
  -5   5   8   36.50    5.00
  -5   5   8   45.06    4.92
   5  -5  -8   46.89    5.12
  -5   5   7  115.20    7.89
   5  -5  -7  118.22    7.20
  -5   5   7  122.15    7.24
   5  -5  -7  120.03    7.08
  -5   5   6   25.46    3.50
  -5   5   6   25.59    4.32
   5  -5  -6   20.21    3.74
   5  -5  -6   27.80    3.70
  -5   5   5    2.62    2.69
   5  -5  -5    1.37    2.32
   5  -5  -5    2.04    2.16
  -5   5   4   10.13    3.19
   5  -5  -4    7.68    2.45
   5  -5  -4    7.13    2.70
  -5   5   3   -0.82    2.42
   5  -5  -3    0.97    2.29
  -5   5   3   -2.23    2.22
   5  -5  -3   -2.87    2.54
  -5   5   2    8.25    2.56
   5  -5  -2   11.62    3.23
  -5   5   2    7.89    2.37
   5  -5  -2    8.03    2.66
   5  -5  -1   -0.11    2.26
  -5   5   1   -1.43    2.23
   5  -5  -1    0.14    2.38
   5  -5   0   39.45    4.47
  -5   5   0   38.88    4.23
   5  -5   0   40.87    4.79
   5  -5   1    8.29    3.02
  -5   5  -1    6.73    2.72
   5  -5   1    3.48    2.59
   5  -5   2   23.01    3.62
  -5   5  -2   18.68    3.40
   5  -5   2   18.83    3.69
   5  -5   3   21.18    3.81
  -5   5  -3   19.91    3.46
   5  -5   3   17.83    3.75
   5  -5   4   -1.05    2.50
  -5   5  -4    2.29    2.38
   5  -5   4    5.18    2.94
   5  -5   5    9.58    3.23
  -5   5  -5    5.22    2.60
   5  -5   5    4.16    2.96
   5  -5   6    0.12    2.00
  -5   5  -6    4.33    2.95
   5  -5   6    0.20    2.52
   5  -5   7   -2.60    2.55
  -5   5  -7   -0.94    2.62
   5  -5   7    1.67    2.24
   5  -5   8   81.72    6.42
  -5   5  -8   82.23    6.89
   5  -5   8   76.95    6.55
   5  -5   9   21.39    3.88
  -5   5  -9   21.03    4.23
   5  -5   9   23.53    4.36
  -5   5  -9   18.93    3.62
   5  -5  10  120.85    7.83
   5  -5  10  113.16    7.35
  -5   5 -10  101.30    7.24
  -5   5 -10   94.89    7.67
   5  -5  10  114.25    7.89
   5  -5  11   14.66    3.44
  -5   5 -11   10.75    3.52
  -5   5 -11    9.13    3.27
   5  -5  12   -0.72    2.27
  -5   5 -12   -0.43    2.72
   5  -4 -11    4.16    2.57
  -5   4  11    7.11    3.09
  -5   4  11    2.31    3.10
   5  -4 -10   25.50    4.17
  -5   4  10   28.58    4.32
  -5   4  10   20.19    4.05
   5  -4  -9    0.94    2.31
  -5   4   9    2.85    2.44
  -5   4   9   -4.63    3.68
  -5   4   8   45.34    5.30
   5  -4  -8   47.54    4.59
  -5   4   8   48.07    4.84
   5  -4  -8   45.99    4.86
   5  -4  -7   21.62    3.41
  -5   4   7   21.75    3.53
  -5   4   7   23.98    4.17
   5  -4  -7   12.97    2.97
   5  -4  -6   13.19    3.03
  -5   4   6   19.36    3.17
  -5   4   6   15.12    3.62
   5  -4  -6   18.44    3.45
   5  -4  -6   11.47    2.83
  -5   4   5  168.20    8.85
   5  -4  -5  173.16    8.52
  -5   4   5  175.67    7.80
   5  -4  -5  162.54    8.06
  -5   4   4   22.09    3.88
   5  -4  -4   30.38    4.02
   5  -4  -4   20.38    3.44
  -5   4   3   11.95    3.18
   5  -4  -3   12.22    2.94
  -5   4   3   10.35    2.40
   5  -4  -3   12.64    3.01
  -5   4   2  133.66    7.66
   5  -4  -2  147.35    8.00
  -5   4   2  138.99    6.89
   5  -4  -2  131.17    7.65
  -5   4   1    4.27    2.11
   5  -4  -1    7.36    2.69
  -5   4   1    8.55    2.52
   5  -4  -1    5.91    2.42
   5  -4   0   12.83    2.98
  -5   4   0   13.06    2.87
   5  -4   0   14.01    3.26
   5  -4   1   79.12    6.08
  -5   4  -1   64.56    5.23
   5  -4   1   72.20    6.04
   5  -4   2    4.33    2.72
  -5   4  -2   -0.69    1.81
   5  -4   2    2.05    2.51
   5  -4   3    5.38    2.53
  -5   4  -3    4.50    2.49
   5  -4   3    9.20    3.09
   5  -4   4   18.26    3.46
  -5   4  -4   20.97    3.64
   5  -4   4   17.89    3.52
   5  -4   5    3.28    2.53
  -5   4  -5    4.04    2.61
   5  -4   5    9.20    2.89
   5  -4   6   -2.90    2.49
  -5   4  -6   -1.70    2.60
   5  -4   6    0.30    2.47
  -5   4  -7   -1.42    2.38
   5  -4   7    4.14    2.31
  -5   4  -7    2.29    2.58
   5  -4   7    3.94    2.92
   5  -4   8   83.23    6.38
  -5   4  -8   93.13    6.42
  -5   4  -8   81.21    6.83
   5  -4   9   82.54    6.46
   5  -4   9   83.09    6.20
  -5   4  -9   84.11    6.32
   5  -4  10   -0.30    2.53
  -5   4 -10    6.36    2.78
   5  -4  10    4.12    2.74
  -5   4 -11    8.64    3.17
   5  -4  11    3.03    2.71
  -5   4 -12    6.56    3.13
   5  -4  12   11.91    3.50
   5  -3 -12    3.04    3.00
  -5   3  12    5.94    3.16
   5  -3 -11   -1.23    2.55
  -5   3  11    1.59    2.37
  -5   3  11   -4.85    3.47
   5  -3 -10    3.37    2.62
  -5   3  10    1.74    2.25
  -5   3  10   -3.32    3.17
   5  -3  -9    3.26    2.80
  -5   3   9    5.37    2.76
   5  -3  -8   -0.18    2.18
  -5   3   8    0.58    1.82
  -5   3   8   -2.35    3.12
   5  -3  -8   -1.42    2.14
   5  -3  -7    1.27    2.27
  -5   3   7    3.16    2.19
  -5   3   7    6.40    2.91
   5  -3  -7    0.78    1.90
   5  -3  -6    4.46    2.40
  -5   3   6    3.23    1.69
  -5   3   6    5.48    2.77
   5  -3  -6    4.39    2.21
  -5   3   5  130.69    7.69
   5  -3  -5  143.76    7.76
  -5   3   5  150.53    7.21
  -5   3   4  121.20    7.36
   5  -3  -4  127.73    7.28
   5  -3  -4  133.95    7.43
  -5   3   3  111.13    6.86
   5  -3  -3  106.54    6.84
   5  -3  -3  112.00    6.22
  -5   3   3  106.12    5.77
   5  -3  -3  100.11    6.61
  -5   3   2   33.41    4.01
   5  -3  -2   36.50    3.86
   5  -3  -2   28.90    4.03
  -5   3   2   35.60    3.61
   5  -3  -2   33.48    4.19
  -5   3   1    4.04    2.25
   5  -3  -1    1.96    2.35
  -5   3   1    2.61    1.59
   5  -3  -1   -0.61    2.47
   5  -3   0    1.22    1.89
  -5   3   0    0.67    1.81
   5  -3   0    0.28    2.44
   5  -3   1    1.53    2.57
  -5   3  -1   -0.32    1.81
  -5   3  -1   -1.13    1.94
   5  -3   1    3.98    2.46
   5  -3   2   11.26    3.36
  -5   3  -2    9.97    2.43
   5  -3   2   14.01    3.26
   5  -3   3   22.04    3.81
  -5   3  -3   15.55    3.12
   5  -3   3   24.63    3.94
   5  -3   4   65.59    5.63
  -5   3  -4   59.71    5.51
   5  -3   4   71.62    5.97
   5  -3   5   31.85    4.21
  -5   3  -6    1.50    2.03
   5  -3   6    0.87    2.10
   5  -3   7    3.52    2.30
  -5   3  -7    4.22    2.15
   5  -3   7    7.15    2.63
   5  -3   8    3.82    2.20
  -5   3  -8    3.02    2.36
   5  -3   8    8.59    2.52
  -5   3  -9   -1.31    2.86
   5  -3   9    3.27    2.54
   5  -3   9    3.61    2.52
  -5   3 -10   -0.15    2.63
   5  -3  10    1.61    2.13
  -5   3 -11    4.64    3.36
   5  -3  11    4.85    2.74
   5  -2 -12    4.75    3.09
  -5   2  12    4.35    2.60
  -5   2  12    3.06    2.94
   5  -2 -11   15.47    3.74
  -5   2  11   18.77    3.71
  -5   2  11   12.69    3.57
   5  -2 -10   -0.14    2.61
  -5   2  10   -0.61    1.94
  -5   2  10   -2.42    2.85
  -5   2   9   35.10    4.65
  -5   2   9   48.74    4.96
   5  -2  -9   49.34    5.19
   5  -2  -8   20.45    3.55
  -5   2   8   27.69    3.82
   5  -2  -8   26.46    3.74
  -5   2   8   19.79    3.52
   5  -2  -7   11.84    2.74
  -5   2   7    8.29    2.66
   5  -2  -7   11.00    2.88
  -5   2   7   11.29    3.01
   5  -2  -6   10.42    2.80
  -5   2   6    4.08    1.96
   5  -2  -6    1.93    2.25
  -5   2   6    4.80    2.73
  -5   2   5  193.93    9.06
   5  -2  -5  191.84    8.86
   5  -2  -5  198.94    8.12
  -5   2   5  194.70    8.09
   5  -2  -5  187.09    7.95
  -5   2   4    5.38    1.89
   5  -2  -4    6.79    2.64
  -5   2   4   11.80    3.08
   5  -2  -4    8.17    2.42
   5  -2  -3   -2.22    2.67
  -5   2   3   -1.71    1.95
   5  -2  -3    0.41    1.82
   5  -2  -2   13.23    3.09
  -5   2   2   12.81    2.69
   5  -2  -2   10.94    2.62
  -5   2   2    9.59    2.07
   5  -2  -1    1.09    2.27
  -5   2   1    4.15    2.26
  -5   2   1    5.67    2.01
   5  -2  -1    4.63    2.20
  -5   2   1    0.58    1.61
  -5   2   0   57.24    4.74
   5  -2   0   58.90    5.32
   5  -2   0   62.60    5.26
  -5   2   0   56.15    4.57
  -5   2   0   54.61    4.38
   5  -2   1    6.46    2.77
   5  -2   1    7.34    2.42
  -5   2  -1    5.48    2.07
  -5   2  -1    2.69    1.89
   5  -2   2   44.94    4.87
  -5   2  -2   43.75    4.39
   5  -2   3   34.03    4.29
   5  -2   4   55.40    5.24
  -5   2  -4   54.99    4.58
   5  -2   5   13.62    3.52
  -5   2  -5   14.14    2.87
   5  -2   5   11.22    2.55
   5  -2   6   39.95    4.62
   5  -2   6   44.69    4.40
  -5   2  -6   48.91    4.72
   5  -2   7   47.11    5.06
   5  -2   7   40.39    4.43
  -5   2  -7   42.08    4.71
   5  -2   8   36.68    4.42
  -5   2  -8   38.75    4.72
   5  -2   8   34.56    4.50
   5  -2   9   22.58    4.09
  -5   2  -9   26.91    4.58
   5  -2   9   18.63    3.50
  -5   2 -10    8.02    3.12
   5  -2  10    8.05    2.71
  -5   2 -11   -1.48    2.74
   5  -2  11    3.00    2.42
   5  -1 -13   -1.10    2.69
  -5   1  13   -0.49    2.25
  -5   1  12  124.85    8.61
  -5   1  12  126.71    8.23
   5  -1 -12  125.37    8.25
  -5   1  11  112.06    7.88
  -5   1  11  108.15    7.46
   5  -1 -11  118.99    7.84
   5  -1 -10    1.38    2.72
  -5   1  10    0.62    2.00
  -5   1  10   -3.97    2.99
   5  -1  -9   79.38    5.72
  -5   1   9   72.36    6.17
  -5   1   9   81.89    6.20
   5  -1  -9   73.82    6.12
   5  -1  -8   43.59    4.43
  -5   1   8   35.64    4.50
  -5   1   8   40.96    4.44
   5  -1  -8   45.30    4.79
   5  -1  -7   13.13    2.86
  -5   1   7    9.84    2.76
  -5   1   7    7.26    2.62
   5  -1  -7   10.87    2.96
   5  -1  -6   93.24    6.32
  -5   1   6  103.70    6.75
   5  -1  -6  104.47    6.13
  -5   1   6  106.11    6.34
   5  -1  -6  118.97    6.74
   5  -1  -5    9.73    2.62
   5  -1  -5   10.65    2.43
  -5   1   5   10.12    2.37
  -5   1   5   13.07    2.86
   5  -1  -5   10.07    2.55
   5  -1  -4   10.97    2.95
   5  -1  -4   14.59    2.74
  -5   1   4   12.27    2.50
  -5   1   4   11.66    2.72
   5  -1  -4   15.34    3.07
  -5   1   3    0.53    1.49
   5  -1  -3    1.61    2.26
  -5   1   3   -0.09    1.89
   5  -1  -3   -0.44    1.72
   5  -1  -2   26.43    3.93
  -5   1   2   19.03    3.12
  -5   1   2   19.43    2.89
   5  -1  -2   22.64    3.51
  -5   1   2   18.86    3.25
  -5   1   2   22.46    2.98
   5  -1  -1   -0.85    2.24
  -5   1   1    0.42    1.85
  -5   1   1    0.32    1.77
   5  -1  -1   -0.18    2.09
  -5   1   1   -2.07    2.37
  -5   1   1    2.49    1.72
   5  -1   0   47.54    4.91
  -5   1   0   35.80    3.63
   5  -1   0   40.78    4.35
  -5   1   0   45.18    4.22
  -5   1   0   53.87    4.59
  -5   1   0   44.81    4.12
   5  -1   1   25.93    3.80
  -5   1  -1   27.39    3.27
  -5   1  -1   29.82    3.68
   5  -1   1   27.97    4.09
  -5   1  -1   30.85    3.46
   5  -1   2    3.46    2.43
   5  -1   2    4.63    2.77
  -5   1  -3   10.40    2.59
   5  -1   3   10.28    3.06
   5  -1   3   10.46    2.79
  -5   1  -4   16.62    3.05
   5  -1   4   16.85    2.94
   5  -1   4   19.62    3.67
  -5   1  -5    5.74    2.42
   5  -1   5    6.57    2.27
   5  -1   5   10.53    3.04
  -5   1  -6   12.49    3.05
   5  -1   6   13.01    2.98
   5  -1   6   11.97    3.44
   5  -1   7   67.12    5.60
  -5   1  -7   72.07    6.11
   5  -1   7   68.36    6.04
  -5   1  -8    0.64    2.46
   5  -1   8    0.75    2.03
  -5   1  -9    3.10    2.59
   5  -1   9    7.56    2.70
  -5   1 -10    7.34    3.34
   5  -1  10    2.43    2.40
   5   0 -13   21.77    4.20
  -5   0  13   23.23    4.33
  -5   0  13   25.90    4.84
   5   0 -12   41.71    5.37
  -5   0  12   45.38    5.72
  -5   0  12   52.02    5.65
   5   0 -11   12.25    3.79
  -5   0  11    2.39    2.18
  -5   0  11    8.98    3.47
   5   0 -10    0.84    2.41
  -5   0  10   -1.68    1.86
  -5   0  10    0.92    2.74
   5   0  -9    5.49    2.31
   5   0  -9    1.62    2.51
  -5   0   9    2.52    2.38
  -5   0   9    1.01    2.60
   5   0  -8   17.19    3.55
  -5   0   8   13.41    3.00
  -5   0   8   16.51    3.46
   5   0  -8   16.70    3.15
   5   0  -7   71.73    5.64
  -5   0   7   61.67    5.30
   5   0  -7   66.48    5.13
  -5   0   7   68.79    5.34
   5   0  -7   62.47    5.26
   5   0  -6  145.66    7.76
  -5   0   6  139.28    7.51
   5   0  -6  147.08    7.49
  -5   0   6  142.95    7.28
   5   0  -6  152.02    7.49
   5   0  -5  141.59    7.75
  -5   0   5  148.08    7.57
   5   0  -5  144.88    7.48
  -5   0   5  149.91    7.30
   5   0  -5  161.04    7.61
  -5   0   4    0.25    1.51
   5   0  -4   -0.32    1.86
   5   0  -4    1.99    2.66
  -5   0   4    1.77    2.04
   5   0  -4   -0.58    1.88
  -5   0   4   -2.71    2.58
   5   0  -4    0.53    2.36
  -5   0   3    0.90    1.51
   5   0  -3    2.07    2.58
  -5   0   3    2.05    1.82
  -5   0   3    0.35    1.63
   5   0  -3    1.14    2.15
  -5   0   3   -2.37    2.52
   5   0  -3   -0.75    2.29
   5   0  -2   45.15    4.81
  -5   0   2   43.63    4.07
   5   0  -2   38.48    4.62
   5   0  -2   38.30    4.26
  -5   0   2   42.89    3.91
  -5   0   2   37.36    4.09
   5   0  -1   19.42    3.59
  -5   0   1   13.80    2.59
  -5   0   1   16.16    2.90
   5   0  -1   22.82    3.53
  -5   0   1   21.21    3.35
   5   0  -1   16.20    3.38
   5   0   0   22.04    3.65
  -5   0   0   17.77    3.01
   5   0   0   27.35    3.94
  -5   0   0   29.70    3.66
   5   0   0   29.71    4.27
   5   0   1    5.45    2.72
  -5   0  -1    5.52    2.08
  -5   0  -1    5.90    2.45
   5   0   1    9.63    2.94
  -5   0  -1    8.67    2.43
   5   0   1   12.15    3.21
  -5   0  -2    8.46    2.33
  -5   0  -2    7.91    2.59
   5   0   2    7.61    2.82
   5   0   2    6.23    2.99
  -5   0  -3   11.36    2.62
   5   0   3   10.24    2.57
  -5   0  -3   13.29    3.17
   5   0   3    8.44    2.76
   5   0   3   15.73    3.64
  -5   0  -4   15.11    3.28
   5   0   4   13.84    3.59
   5   0   4   11.60    2.82
   5   0   4   18.01    3.89
  -5   0  -5    1.71    2.09
   5   0   5    2.89    2.26
  -5   0  -6   -0.45    2.39
   5   0   6    0.46    2.29
  -5   0  -7   10.17    3.07
   5   0   7   10.65    3.05
  -5   0  -8   -0.46    2.29
   5   0   8    0.61    2.24
  -5   0  -9    7.20    3.26
   5   0   9    1.46    2.37
  -5  -1  13   51.13    6.10
  -5  -1  13   48.95    5.59
   5   1 -13   56.02    5.95
   5   1 -12   10.84    3.38
  -5  -1  12   12.35    2.94
  -5  -1  12   16.96    4.28
  -5  -1  12   14.28    3.14
  -5  -1  11   72.90    6.47
  -5  -1  11   72.35    5.87
  -5  -1  11   77.35    6.54
   5   1 -11   64.24    6.04
   5   1 -10   22.52    3.92
  -5  -1  10   26.11    4.08
  -5  -1  10   26.73    4.52
  -5  -1  10   20.51    3.31
  -5  -1   9   47.22    5.02
  -5  -1   9   54.19    4.67
  -5  -1   9   44.27    4.80
   5   1  -9   47.58    5.08
  -5  -1   8   14.29    2.99
   5   1  -8   19.20    3.50
  -5  -1   8   13.88    3.16
   5   1  -8   16.76    3.49
   5   1  -8   14.39    2.82
  -5  -1   7    3.72    2.03
   5   1  -7    3.64    2.70
  -5  -1   7    3.06    2.17
   5   1  -7    4.99    2.66
   5   1  -7    2.42    2.07
  -5  -1   7    4.93    3.00
  -5  -1   6    0.91    2.02
   5   1  -6   -0.30    2.25
  -5  -1   6   -4.23    2.59
   5   1  -6    1.13    2.64
   5   1  -6   -0.24    2.07
  -5  -1   6    2.82    2.51
  -5  -1   5  166.25    7.79
   5   1  -5  174.75    9.00
   5   1  -5  163.61    8.27
  -5  -1   5  176.05    8.01
  -5  -1   5  164.61    8.48
   5   1  -5  190.09    8.36
  -5  -1   4   33.16    3.71
   5   1  -4   39.82    4.82
   5   1  -4   34.75    4.21
  -5  -1   4   36.05    3.73
  -5  -1   4   32.53    3.80
  -5  -1   4   34.17    4.12
   5   1  -4   34.31    3.81
   5   1  -4   39.60    4.71
   5   1  -3  147.64    8.22
   5   1  -3  140.79    7.73
  -5  -1   3  147.14    7.22
  -5  -1   3  138.99    7.60
   5   1  -3  157.28    8.35
   5   1  -2   -2.20    2.53
  -5  -1   2   -2.04    1.73
   5   1  -2    0.86    2.22
  -5  -1   2    0.65    2.16
   5   1  -2    1.94    2.62
   5   1  -1   13.54    3.37
  -5  -1   1   11.74    2.75
   5   1  -1   12.44    3.02
  -5  -1   1   17.38    3.23
   5   1   0   49.03    5.04
   5   1   0   50.96    5.10
  -5  -1   0   50.93    4.81
  -5  -1   0   54.35    4.76
   5   1   1   17.20    3.55
  -5  -1  -1    9.33    2.77
   5   1   1   14.88    3.21
  -5  -1  -1   20.47    3.27
   5   1   2    3.40    2.38
   5   1   2   -0.63    1.83
  -5  -1  -2    0.20    2.42
   5   1   2    2.35    2.63
  -5  -1  -2   -3.12    2.77
  -5  -1  -3    4.00    2.30
   5   1   3    4.58    2.38
   5   1   3    7.23    2.67
  -5  -1  -3    6.40    2.61
   5   1   3    8.42    3.30
  -5  -1  -4   20.21    3.55
   5   1   4   17.32    3.45
   5   1   4   20.51    3.40
  -5  -1  -4   17.14    3.57
   5   1   4   15.68    3.64
   5   1   5  117.35    7.27
   5   1   5  103.02    7.32
   5   1   5  102.19    6.90
  -5  -1  -5   99.50    7.16
  -5  -1  -5   97.03    6.78
  -5  -1  -6   37.77    4.66
   5   1   6   40.15    4.72
  -5  -1  -6   36.14    4.70
  -5  -1  -7   36.10    4.84
   5   1   7   40.56    4.89
  -5  -1  -7   33.11    4.96
  -5  -1  -8   -5.06    3.26
   5   1   8    2.14    2.82
  -5  -1  -8   -3.07    3.25
   5   1   9   36.98    4.81
  -5  -2  14   29.28    4.45
   5   2 -13   19.91    3.95
  -5  -2  13   25.97    4.39
  -5  -2  13   27.22    4.58
  -5  -2  13   24.60    3.99
   5   2 -12   33.08    4.75
  -5  -2  12   27.66    4.22
  -5  -2  12   41.88    5.36
  -5  -2  12   30.82    4.18
   5   2 -11   28.55    4.57
  -5  -2  11   25.09    4.05
  -5  -2  11   22.93    4.21
   5   2 -11   23.51    4.08
  -5  -2  11   26.21    3.90
  -5  -2  11   25.11    4.55
  -5  -2  10   29.22    4.34
   5   2 -10   29.84    4.50
  -5  -2  10   27.39    4.21
   5   2 -10   21.85    4.04
  -5  -2  10   27.48    3.77
  -5  -2  10   34.98    4.82
   5   2  -9   39.24    4.85
  -5  -2   9   41.94    4.57
   5   2  -9   42.26    4.95
   5   2  -9   40.23    4.45
  -5  -2   9   52.72    4.71
  -5  -2   9   35.62    4.27
  -5  -2   9   44.45    5.25
  -5  -2   8    1.21    2.20
   5   2  -8   -0.51    2.34
  -5  -2   8    2.49    2.49
   5   2  -8    2.57    2.75
   5   2  -8    2.95    2.21
  -5  -2   8    3.02    2.82
  -5  -2   7   67.09    5.41
   5   2  -7   68.97    6.21
   5   2  -7   76.47    5.85
  -5  -2   7   76.00    6.15
  -5  -2   7   69.73    5.62
   5   2  -7   61.25    5.39
   5   2  -6   18.39    3.42
  -5  -2   6   20.26    3.26
   5   2  -6   17.95    3.79
   5   2  -6   25.91    4.09
  -5  -2   6   18.22    3.24
  -5  -2   6   22.09    4.02
   5   2  -5  133.13    8.04
  -5  -2   5  134.41    6.90
   5   2  -5  143.56    7.91
  -5  -2   5  132.70    7.88
   5   2  -5  134.32    7.31
   5   2  -4   15.16    3.48
  -5  -2   4   16.13    2.99
   5   2  -4   13.20    3.00
  -5  -2   4   15.46    3.34
   5   2  -3   70.35    6.07
  -5  -2   3   69.71    5.30
   5   2  -3   64.51    5.54
  -5  -2   3   75.21    5.87
   5   2  -2   12.73    3.36
  -5  -2   2   12.77    2.99
   5   2  -2    9.56    2.81
  -5  -2   2   12.79    3.23
   5   2  -1   -0.59    2.15
  -5  -2   1    2.91    2.05
   5   2  -1    3.63    2.31
  -5  -2   1    3.56    2.52
   5   2   0   36.06    4.52
  -5  -2   0   25.04    3.71
   5   2   0   31.98    4.46
  -5  -2   0   25.45    3.76
   5   2   1    1.44    2.38
  -5  -2  -1   -0.72    2.38
   5   2   1    2.14    2.44
  -5  -2  -1   -5.15    2.97
   5   2   2   14.86    3.39
   5   2   2   10.74    2.87
  -5  -2  -2    8.84    2.71
   5   2   2   18.35    3.74
  -5  -2  -2   12.83    2.85
   5   2   3    0.63    2.26
   5   2   3    1.29    2.30
  -5  -2  -3    4.39    2.62
   5   2   3    1.63    2.32
   5   2   4   50.54    5.02
   5   2   4   55.14    5.32
   5   2   4   56.89    5.68
  -5  -2  -4   46.84    5.41
  -5  -2  -5   30.38    4.55
   5   2   5   33.01    4.34
   5   2   5   30.18    4.44
  -5  -2  -5   22.89    4.22
   5   2   5   34.68    4.78
  -5  -2  -6   25.42    4.41
   5   2   6   18.80    3.70
  -5  -2  -6   23.91    4.12
  -5  -2  -7    0.88    2.40
   5   2   7    1.19    2.07
  -5  -2  -7   -4.80    3.32
   5   2   8    0.11    2.17
  -5  -3  14    4.46    2.55
  -5  -3  13   20.12    4.00
  -5  -3  13   11.06    3.76
  -5  -3  13   18.44    3.96
   5   3 -12    3.56    3.08
  -5  -3  12    5.51    2.59
  -5  -3  12    0.37    3.22
   5   3 -12    9.26    2.86
  -5  -3  12    6.33    2.87
  -5  -3  12    5.83    3.34
  -5  -3  11    1.10    2.36
   5   3 -11   -4.19    3.23
  -5  -3  11    2.00    3.00
   5   3 -11    1.84    2.22
  -5  -3  11   -0.31    2.05
   5   3 -11   -0.33    1.83
  -5  -3  11   -3.87    3.30
  -5  -3  10   -0.21    2.41
   5   3 -10    1.88    2.76
  -5  -3  10    6.02    3.00
   5   3 -10    2.08    2.72
  -5  -3  10   -0.33    2.01
   5   3 -10    1.12    2.46
  -5  -3  10   -1.75    3.09
  -5  -3   9    5.10    2.56
   5   3  -9    2.84    2.82
  -5  -3   9    3.67    2.62
   5   3  -9    3.92    2.37
  -5  -3   9    0.49    2.08
   5   3  -9    4.00    2.67
  -5  -3   9   -0.01    2.91
   5   3  -8  103.65    7.47
   5   3  -8  102.48    6.96
  -5  -3   8  120.20    6.82
  -5  -3   8   97.87    6.91
  -5  -3   8  115.44    7.66
   5   3  -8  103.40    7.04
   5   3  -7   27.12    4.09
   5   3  -7   23.51    3.99
   5   3  -7   23.23    3.63
  -5  -3   7   17.40    3.58
   5   3  -6   14.90    3.57
  -5  -3   6    6.75    2.29
   5   3  -6   10.00    3.15
  -5  -3   6   10.76    3.28
   5   3  -5   -0.29    2.26
  -5  -3   5   -1.91    2.26
   5   3  -5   -1.19    2.32
  -5  -3   5    1.50    2.62
   5   3  -4   -0.39    2.70
  -5  -3   4    4.07    2.41
   5   3  -4    1.31    1.94
  -5  -3   4    3.42    2.91
   5   3  -3   10.59    3.26
  -5  -3   3   17.05    3.49
   5   3  -3    8.16    2.67
  -5  -3   3   15.50    3.52
   5   3  -2   -0.01    2.42
  -5  -3   2   -1.79    2.14
   5   3  -2    0.73    2.06
  -5  -3   2    5.55    2.83
   5   3  -1   89.73    6.81
   5   3  -1   87.67    6.78
  -5  -3   1   82.77    6.34
  -5  -3   1   77.77    5.86
   5   3   0   82.57    6.40
   5   3   0   79.99    6.43
  -5  -3   0   79.78    6.26
  -5  -3   0   74.45    5.83
   5   3   1   47.27    5.26
   5   3   1   43.62    4.97
  -5  -3  -1   45.51    5.05
  -5  -3  -1   50.84    5.10
   5   3   2   24.02    4.08
  -5  -3  -2   15.36    3.55
   5   3   2   25.33    4.11
  -5  -3  -2   16.98    3.40
   5   3   3    0.50    2.34
  -5  -3  -3   -3.83    3.12
   5   3   3    1.09    2.55
   5   3   4    7.46    2.77
   5   3   4    0.58    2.30
  -5  -3  -4    6.03    3.19
   5   3   4    5.09    2.81
  -5  -3  -5   29.47    4.60
   5   3   5   26.32    4.16
  -5  -3  -5   23.72    4.41
   5   3   5   23.90    4.16
  -5  -3  -6   28.84    4.59
   5   3   6   38.05    4.93
   5   3   6   33.13    4.67
  -5  -3  -6   22.15    4.22
  -5  -4  13   56.14    5.91
   5   4 -13   56.60    5.76
  -5  -4  13   72.22    6.26
  -5  -4  12   68.69    6.34
   5   4 -12   73.99    6.44
   5   4 -12   68.83    6.22
  -5  -4  12   76.31    6.46
  -5  -4  12   72.89    6.73
  -5  -4  12   67.35    6.45
   5   4 -12   76.34    6.87
   5   4 -11   31.92    4.67
   5   4 -11   37.72    4.98
  -5  -4  11   41.42    5.01
  -5  -4  11   42.07    5.22
   5   4 -11   34.52    4.48
  -5  -4  11   33.47    4.73
   5   4 -10   41.68    5.14
   5   4 -10   43.63    5.01
  -5  -4  10   48.09    4.90
  -5  -4  10   43.06    5.32
  -5  -4  10   43.37    4.98
   5   4 -10   47.55    5.41
   5   4  -9    4.01    2.79
   5   4  -9    2.36    3.07
  -5  -4   9   -0.75    2.39
  -5  -4   9    2.53    2.39
   5   4  -9    1.22    2.30
  -5  -4   9   -2.26    3.25
   5   4  -8    0.86    2.54
  -5  -4   8    1.76    2.44
   5   4  -8   -1.55    2.28
  -5  -4   8    1.92    2.65
   5   4  -8   -1.86    2.54
   5   4  -7   13.86    3.43
  -5  -4   7   22.67    3.59
   5   4  -7   26.76    4.30
  -5  -4   7   23.68    4.28
   5   4  -6   28.86    4.70
  -5  -4   6   26.44    3.69
   5   4  -6   26.28    3.94
  -5  -4   6   23.94    4.23
   5   4  -5    3.48    2.51
  -5  -4   5    2.16    2.25
   5   4  -5    5.80    2.95
  -5  -4   5   -1.39    2.56
   5   4  -4   36.80    4.91
  -5  -4   4   34.64    4.38
   5   4  -4   30.41    4.46
  -5  -4   4   38.26    4.94
   5   4  -3   20.41    4.13
  -5  -4   3   24.45    3.96
   5   4  -3   20.07    3.88
  -5  -4   3   17.76    3.69
   5   4  -2   -0.53    2.48
  -5  -4   2    4.37    2.74
   5   4  -2   -1.25    2.56
  -5  -4   2   -3.19    3.25
   5   4  -1  153.93    8.94
   5   4  -1  156.34    8.97
  -5  -4   1  150.80    8.62
  -5  -4   1  159.36    8.63
   5   4   0  229.50   10.69
   5   4   0  225.50   10.75
  -5  -4   0  230.58   10.65
  -5  -4   0  204.65    9.72
   5   4   1  119.77    7.91
   5   4   1  123.86    8.09
  -5  -4  -1  110.36    7.64
  -5  -4  -1  129.94    7.76
   5   4   2   -1.42    2.49
  -5  -4  -2    1.58    2.81
   5   4   2    0.20    2.64
  -5  -4  -2    4.77    2.89
   5   4   3    1.39    2.28
  -5  -4  -3    0.47    2.63
   5   4   3    4.07    2.87
   5   4   4   -0.57    2.02
  -5  -4  -4   -0.61    2.67
   5   4   4    1.03    2.71
   5   4   5    0.61    2.39
   5   4   5   -3.10    2.77
   5   5 -13  130.50    8.53
   5   5 -13  127.71    8.32
   5   5 -12   76.69    6.80
   5   5 -12   79.64    6.80
  -5  -5  12   73.01    6.26
   5   5 -11   62.74    6.14
   5   5 -11   66.75    6.30
  -5  -5  11   58.21    5.62
  -5  -5  11   78.00    7.18
  -5  -5  11   60.26    6.06
   5   5 -11   67.84    6.53
   5   5 -10    3.87    3.08
  -5  -5  10    1.52    2.60
   5   5 -10    9.71    3.47
  -5  -5  10    8.13    3.52
   5   5 -10    4.01    3.29
   5   5  -9   -1.16    2.52
  -5  -5   9   -2.71    2.49
   5   5  -9    1.06    2.49
  -5  -5   9   -3.33    2.68
   5   5  -8   27.70    4.50
  -5  -5   8   34.15    4.25
  -5  -5   8   35.11    4.31
   5   5  -8   29.10    4.50
  -5  -5   8   38.99    5.21
   5   5  -7   16.44    3.80
  -5  -5   7   15.20    3.36
   5   5  -7   15.56    3.69
  -5  -5   7   21.06    4.35
   5   5  -6   23.66    4.58
  -5  -5   6   22.42    3.80
   5   5  -6   19.71    4.05
  -5  -5   6   26.25    4.49
   5   5  -5   18.98    3.75
  -5  -5   5   11.18    3.01
   5   5  -5   18.78    3.67
  -5  -5   5   25.95    4.47
   5   5  -4   23.49    4.33
  -5  -5   4   20.07    3.54
   5   5  -4   23.47    4.19
  -5  -5   4   20.35    3.80
   5   5  -3    9.40    3.40
  -5  -5   3   10.43    3.03
   5   5  -3    4.37    2.79
  -5  -5   3    3.90    2.95
   5   5  -2   34.23    4.70
  -5  -5   2   48.29    5.29
   5   5  -2   44.56    5.04
  -5  -5   2   43.20    4.98
   5   5  -1    2.16    2.26
  -5  -5   1    1.87    2.77
   5   5  -1   -1.34    2.57
  -5  -5   1   -1.56    2.91
   5   5   0   -0.21    2.59
  -5  -5   0    0.99    2.48
   5   5   0   -1.41    2.86
  -5  -5   0    1.17    3.05
   5   5   1    1.15    2.44
  -5  -5  -1    4.35    2.99
   5   5   1    4.40    2.79
  -5  -5  -1    6.46    3.33
   5   5   2    8.54    2.85
  -5  -5  -2    8.82    3.10
   5   5   2    9.04    3.14
  -5  -5  -2   17.46    4.18
   5   5   3    1.24    2.44
  -5  -5  -3    0.80    2.21
   5   5   3    1.74    2.32
   5   6 -11   35.00    4.86
  -5  -6  11   45.12    5.35
   5   6 -11   39.06    5.21
   5   6 -10   32.25    5.00
  -5  -6  10   28.79    4.36
   5   6 -10   24.44    4.32
   5   6  -9    7.85    3.25
  -5  -6   9   12.96    3.29
   5   6  -9   13.87    3.64
   5   6  -8    8.34    3.24
  -5  -6   8   12.33    3.28
  -5  -6   8   10.21    2.84
   5   6  -8   13.74    3.55
  -5  -6   8   18.89    4.51
   5   6  -7    0.41    2.88
  -5  -6   7    6.85    2.98
  -5  -6   7    0.85    2.25
   5   6  -7    9.63    3.63
  -5  -6   7   -5.22    3.86
   5   6  -6   78.76    6.95
  -5  -6   6   81.97    6.47
   5   6  -6   87.34    7.07
  -5  -6   6   83.28    6.80
   5   6  -5    1.44    2.86
  -5  -6   5   -2.84    2.47
   5   6  -5   -0.18    2.19
  -5  -6   5   -3.87    3.83
   5   6  -4    4.60    2.91
  -5  -6   4    3.33    2.87
   5   6  -4    9.74    3.18
  -5  -6   4   -0.25    3.32
   5   6  -3   23.43    4.50
  -5  -6   3   18.20    3.72
   5   6  -3   15.77    3.47
  -5  -6   3   20.73    4.27
   5   6  -2   21.16    4.18
  -5  -6   2   13.51    3.50
   5   6  -2   15.99    3.74
  -5  -6   2   23.53    4.53
   5   6  -1   14.70    3.45
  -5  -6   1   18.28    3.68
   5   6  -1   16.54    3.87
  -5  -6   1   19.14    4.35
   5   6   0   -2.10    3.15
  -5  -6   0    6.15    3.36
   5   6   0   -0.59    2.52
  -5  -6   0    4.41    3.38
   5   6   1   -0.37    2.69
   5   6   1   -1.37    2.63
  -5  -6  -1    6.59    3.58
   5   6   2    3.95    2.83
  -5  -6  -2   -0.62    3.64
   5   6   3   -2.25    2.69
  -5  -7  10   -1.48    2.94
  -5  -7   9   18.67    3.76
  -5  -7   9   14.26    3.45
  -5  -7   8   52.76    5.68
  -5  -7   8   52.56    5.34
   5   7  -8   53.33    5.54
  -5  -7   7    0.35    2.75
  -5  -7   7   -0.94    2.48
  -5  -7   6   -1.30    2.20
  -5  -7   6   -3.23    3.22
  -5  -7   5    5.40    2.74
  -5  -7   5    5.94    3.66
  -5  -7   4    4.45    3.18
  -5  -7   4    3.60    3.33
  -5  -7   3   -2.53    2.61
  -5  -7   3    0.19    2.99
  -5  -7   2    4.48    3.35
  -5  -7   1   25.44    5.05
  -5  -8   7    7.39    3.16
  -6   8   1   26.10    4.42
  -6   8   0   24.76    4.19
  -6   8  -1    7.28    3.12
  -6   8  -2   12.92    3.51
   6  -7  -4   11.94    3.33
   6  -7  -3   -1.40    2.37
   6  -7  -2   -3.34    3.11
  -6   7   1    5.16    2.82
  -6   7   1   -0.10    2.62
   6  -7  -1    2.81    2.49
  -6   7   0   11.86    3.28
   6  -7   0   13.86    3.49
  -6   7  -1   17.85    3.48
   6  -7   1   11.24    3.43
  -6   7  -2    0.02    2.75
  -6   7  -3    8.50    2.86
  -6   7  -4    6.33    2.99
   6  -6  -6    1.05    2.42
   6  -6  -5    9.11    3.06
   6  -6  -4   48.09    5.67
   6  -6  -4   40.56    5.06
  -6   6   3   11.21    3.46
   6  -6  -3   13.85    3.97
   6  -6  -3   22.51    4.09
  -6   6   2    5.59    3.28
   6  -6  -2    6.91    3.22
   6  -6  -2    1.97    2.89
  -6   6   1    5.89    3.10
   6  -6  -1    3.45    2.81
  -6   6   1    1.73    2.30
   6  -6  -1    4.62    3.14
  -6   6   0    1.52    2.43
   6  -6   0    1.41    2.59
  -6   6   0    2.78    2.38
   6  -6   0    7.58    3.34
   6  -6   1    2.65    2.70
  -6   6  -1   -1.16    2.69
   6  -6   1    4.56    3.44
   6  -6   2    2.89    2.49
  -6   6  -2    6.95    2.97
   6  -6   2    8.26    3.74
   6  -6   3    8.12    3.09
  -6   6  -3    7.46    3.10
   6  -6   3   11.30    3.51
  -6   6  -4   12.37    3.77
  -6   6  -5    2.98    2.64
   6  -5  -7   -3.24    2.64
   6  -5  -6    0.41    2.42
  -6   5   5   11.82    3.74
   6  -5  -5   10.50    3.21
   6  -5  -4   38.24    4.88
  -6   5   4   43.53    5.46
   6  -5  -4   41.01    5.17
  -6   5   3    6.39    2.96
   6  -5  -3    7.74    3.17
   6  -5  -3    5.31    2.98
  -6   5   2  183.31    9.98
   6  -5  -2  195.37   10.43
   6  -5  -2  185.35   10.00
  -6   5   1   19.85    4.05
   6  -5  -1   22.01    4.39
   6  -5  -1   29.35    4.81
  -6   5   0    6.72    2.65
   6  -5   0   14.43    3.61
  -6   5   0   12.24    3.24
   6  -5   0   14.54    3.70
  -6   5  -1    1.31    2.73
   6  -5   1    2.53    2.83
  -6   5  -1    5.08    2.69
   6  -5   1    3.39    3.15
   6  -5   2    6.53    2.93
  -6   5  -2    6.48    2.73
   6  -5   2    6.17    3.04
   6  -5   3    1.28    2.78
  -6   5  -3    2.99    2.73
   6  -5   3    5.67    3.41
   6  -5   4   -0.40    2.68
  -6   5  -4   -0.16    2.55
   6  -5   4    3.69    2.95
   6  -5   5    6.33    2.89
  -6   5  -5    9.60    3.49
   6  -4  -7    5.77    2.90
   6  -4  -6    7.18    2.81
  -6   4   6    6.75    3.19
  -6   4   5    4.36    2.96
   6  -4  -5   -0.12    2.43
  -6   4   4   23.78    4.18
   6  -4  -4   21.70    4.18
  -6   4   3  154.70    9.17
   6  -4  -3  174.54    9.69
  -6   4   2    4.97    2.92
   6  -4  -2    8.07    3.15
  -6   4   1   20.57    3.87
   6  -4  -1   18.15    4.05
  -6   4   0   29.59    4.50
   6  -4   0   30.39    4.76
  -6   4   0   31.10    4.12
   6  -4   1    2.00    2.66
  -6   4  -1   -4.18    2.74
  -6   4  -1    0.56    1.95
   6  -4   2    0.25    2.87
  -6   4  -2    1.21    2.29
   6  -4   3   13.02    3.67
  -6   4  -3    8.81    3.16
   6  -4   4    1.03    2.61
  -6   4  -4    3.89    2.68
   6  -4   5    1.39    2.60
  -6   4  -5   -2.26    2.76
   6  -3  -7    6.53    3.02
  -6   3   7    0.69    2.88
   6  -3  -6    3.05    2.70
  -6   3   6    3.10    2.53
   6  -3  -5    5.17    2.57
  -6   3   5   14.56    3.78
   6  -3  -4   12.89    3.66
  -6   3   4   13.30    3.31
  -6   3   3   61.63    5.89
   6  -3  -3   52.32    5.59
   6  -3  -2    6.48    3.00
  -6   3   2    6.75    2.68
   6  -3  -1    8.29    3.35
  -6   3   1    7.67    2.94
   6  -3   0   -0.04    2.80
  -6   3   0    0.38    2.43
  -6   3   0    6.92    2.63
   6  -3   1   44.57    5.56
  -6   3  -1   44.21    4.95
  -6   3  -1   47.07    5.03
   6  -3   2   88.93    7.21
  -6   3  -2   79.64    6.19
  -6   3  -2   88.71    6.79
   6  -3   3    6.02    3.10
  -6   3  -3    2.08    2.17
   6  -3   4    1.50    2.66
  -6   3  -4    2.90    2.64
  -6   3  -5   15.20    3.77
   6  -3   5   18.31    4.00
  -6   2   8    9.29    3.04
   6  -2  -8    6.41    3.12
  -6   2   7   -0.28    3.33
   6  -2  -7   14.95    3.60
  -6   2   6    3.43    2.74
   6  -2  -6    8.09    3.23
  -6   2   5    1.69    2.78
   6  -2  -5    1.89    2.57
  -6   2   4   15.47    3.61
   6  -2  -4   19.09    4.12
  -6   2   3   26.12    4.19
   6  -2  -3   24.53    3.93
  -6   2   3   20.76    3.60
   6  -2  -3   26.00    4.32
  -6   2   2    9.42    2.84
   6  -2  -2    3.18    2.47
  -6   2   2    4.18    2.37
   6  -2  -2    8.21    3.29
  -6   2   1    0.98    2.36
   6  -2  -1    2.10    3.01
   6  -2   0    2.58    2.50
  -6   2  -1    4.88    2.32
  -6   2  -1   -0.16    2.03
   6  -2   1    6.09    3.26
  -6   2  -2    1.01    1.98
  -6   2  -2   -1.25    1.95
   6  -2   2    1.35    2.96
  -6   2  -3    1.79    2.51
  -6   2  -3   -4.13    2.65
   6  -2   3   -0.82    2.55
  -6   2  -4    0.29    2.29
   6  -2   4    6.61    3.48
  -6   2  -4    3.53    2.48
  -6   2  -5   -2.31    2.76
  -6   1   9   -0.47    2.55
  -6   1   8   -1.98    2.95
   6  -1  -8    1.44    2.59
  -6   1   7   -3.24    3.22
   6  -1  -7    1.18    2.69
  -6   1   6   -5.02    3.50
  -6   1   6    1.01    3.04
  -6   1   5   -0.56    2.22
   6  -1  -5    4.56    2.64
  -6   1   5   -2.58    3.09
  -6   1   4   -0.33    2.00
   6  -1  -4   -0.52    2.31
  -6   1   4    0.48    2.58
   6  -1  -4    0.96    2.73
   6  -1  -3    2.12    2.13
  -6   1   3   -1.80    2.82
   6  -1  -3   -1.74    2.87
   6  -1  -2    7.79    3.09
  -6   1   2    4.15    2.72
   6  -1  -2    8.95    3.40
   6  -1  -1    8.26    3.02
   6  -1  -1    8.29    3.10
  -6   1   0   -4.14    2.82
   6  -1   0    4.80    3.06
   6  -1   0    2.15    2.88
   6  -1   1    1.82    2.61
  -6   1  -1   -2.18    2.54
   6  -1   1    0.06    2.67
  -6   1  -1   -2.07    2.42
  -6   1  -2   17.32    3.35
   6  -1   2   17.02    4.02
  -6   1  -2   23.31    3.75
   6  -1   3    3.46    3.22
  -6   1  -3    1.69    2.12
  -6   1  -4   10.66    3.28
  -6   0   9   31.31    4.40
  -6   0   9   38.84    5.30
   6   0  -9   46.83    5.44
  -6   0   8   19.46    3.50
  -6   0   8   11.61    3.42
  -6   0   7   11.27    3.29
  -6   0   7   16.81    3.97
  -6   0   6    0.69    2.48
   6   0  -6    2.00    2.64
  -6   0   6    0.70    2.66
   6   0  -5    0.45    2.45
  -6   0   5    4.45    2.99
   6   0  -4   40.43    4.96
  -6   0   4   32.20    4.29
   6   0  -3   63.18    6.01
  -6   0   3   62.98    5.90
   6   0  -3   74.89    6.76
   6   0  -2    1.10    2.59
  -6   0   2    1.72    2.60
  -6   0   1   28.78    4.06
   6   0  -1   33.92    4.63
  -6   0   1   34.65    4.57
   6   0   0  101.08    7.67
  -6   0   0   91.96    6.75
   6   0   1   53.43    5.96
  -6   0  -1   55.15    5.57
   6   0   2    5.91    3.08
  -6   0  -2    8.99    3.25
  -6   0  -3    0.93    2.51
   6   1  -9   33.31    4.60
  -6  -1   9   30.08    4.55
  -6  -1   9   23.40    4.37
   6   1  -8   -3.76    2.88
  -6  -1   8   -2.51    2.58
  -6  -1   7    1.09    2.15
   6   1  -7    4.99    3.09
  -6  -1   7   -1.99    3.43
   6   1  -6    6.10    2.86
  -6  -1   6    5.16    2.93
   6   1  -5   11.31    3.13
  -6  -1   5    7.56    3.13
   6   1  -4   19.16    3.70
  -6  -1   4   22.23    4.21
   6   1  -3  133.93    8.66
  -6  -1   3  136.20    8.37
  -6  -1   2    9.28    3.03
   6   1  -2    4.08    2.49
  -6  -1   2    6.03    3.00
  -6  -1   1    7.76    2.90
   6   1  -1    7.27    3.12
  -6  -1   1    8.18    3.12
  -6  -1   0    2.08    2.21
   6   1   0    3.04    2.76
  -6  -1  -1    0.88    2.29
   6   1   1    5.49    3.48
  -6  -1  -2    2.16    2.73
   6   2  -8   33.38    4.54
  -6  -2   8   26.62    4.13
   6   2  -8   31.40    4.53
  -6  -2   7   -0.79    1.80
   6   2  -7   -0.38    1.99
   6   2  -6    4.65    2.71
  -6  -2   6    6.04    3.33
   6   2  -5    2.25    2.69
  -6  -2   5    6.55    3.44
   6   2  -4    7.62    2.94
  -6  -2   4    6.12    2.95
   6   2  -3    7.64    3.56
   6   2  -3   12.73    3.85
  -6  -2   3    9.76    3.49
   6   2  -2   19.27    4.42
  -6  -2   2   19.95    3.69
   6   2  -2   15.40    3.74
  -6  -2   2   22.13    4.15
   6   2  -1    7.72    3.27
  -6  -2   1   12.37    3.28
   6   2   0    5.66    3.31
  -6  -2   0    3.14    2.85
  -6  -2  -1    0.22    2.27
  -6  -3   7   14.62    3.52
  -6  -3   6   -1.32    2.05
  -6  -3   4   19.21    4.30
  -6  -3   3   38.28    4.91
  -6  -3   3   29.03    4.66
  -6  -3   2   17.35    3.76
  -6  -3   2    6.89    3.14
  -6  -3   1    1.15    2.62
  -6  -3   1   -0.76    2.99
   0   0   0    0.00    0.00
;
_shelx_hkl_checksum              71364
#END Tags that were not found in dictionaries
loop_
_space_group_symop_operation_xyz
'x, y, z'
'-x, -y, -z'
loop_
_atom_site_label
_atom_site_type_symbol
_atom_site_fract_x
_atom_site_fract_y
_atom_site_fract_z
_atom_site_U_iso_or_equiv
_atom_site_adp_type
_atom_site_occupancy
_atom_site_site_symmetry_order
_atom_site_calc_flag
_atom_site_refinement_flags_posn
_atom_site_refinement_flags_adp
_atom_site_refinement_flags_occupancy
O6 O 0.67011(18) 0.41467(8) 0.23892(6) 0.01623(15) Uani 1 1 d . . .
O7 O 0.7543(3) 0.53223(12) 0.45205(8) 0.0407(3) Uani 1 1 d D . .
H4 H 0.280(5) -0.364(2) 0.1126(15) 0.049 Uiso 1 1 d . U .
H6A H 0.625(5) 0.332(2) 0.2172(15) 0.049 Uiso 1 1 d . U .
H6B H 0.686(5) 0.440(2) 0.3020(16) 0.049 Uiso 1 1 d . U .
H7A H 0.795(5) 0.6174(15) 0.4660(15) 0.049 Uiso 1 1 d D U .
H7B H 0.593(7) 0.512(4) 0.480(3) 0.049 Uiso 0.5 1 d D U P
H7C H 0.923(7) 0.524(4) 0.483(3) 0.049 Uiso 0.5 1 d D U P
H3A H -0.154(5) -0.347(2) -0.0287(17) 0.061 Uiso 1 1 d . U .
H3B H -0.370(5) -0.288(2) 0.0568(16) 0.061 Uiso 1 1 d . U .
H5A H 0.020(5) 0.461(2) 0.1787(16) 0.061 Uiso 1 1 d . U .
H5B H 0.331(5) 0.469(2) 0.1836(17) 0.061 Uiso 1 1 d . U .
H1 H 0.562(5) 0.134(2) 0.0652(17) 0.061 Uiso 1 1 d . U .
C1 C 0.1557(2) 0.01951(10) 0.22425(7) 0.01333(18) Uani 1 1 d . . .
C2 C 0.0464(2) -0.12092(10) 0.20671(7) 0.01151(17) Uani 1 1 d . . .
C3 C -0.1141(2) -0.15776(10) 0.27812(8) 0.01388(18) Uani 1 1 d . . .
C4 C -0.1804(3) -0.06043(11) 0.36330(8) 0.0182(2) Uani 1 1 d . . .
C5 C -0.0770(3) 0.07717(11) 0.37930(8) 0.0200(2) Uani 1 1 d . . .
C6 C 0.0940(3) 0.11576(10) 0.31011(8) 0.0181(2) Uani 1 1 d . . .
B1 B 0.3249(3) 0.02859(11) 0.13063(8) 0.01258(19) Uani 1 1 d . . .
B2 B 0.1284(2) -0.20775(11) 0.09590(8) 0.01100(19) Uani 1 1 d . . .
O1 O 0.48543(19) 0.14383(7) 0.12066(6) 0.01720(16) Uani 1 1 d . . .
O2 O 0.29225(16) -0.09946(7) 0.05990(5) 0.01227(14) Uani 1 1 d . . .
O3 O -0.16619(16) -0.28138(8) 0.02809(6) 0.01449(15) Uani 1 1 d . . .
O4 O 0.33395(16) -0.30346(7) 0.09064(6) 0.01428(15) Uani 1 1 d . . .
O5 O 0.17891(18) 0.47622(7) 0.14817(6) 0.01458(15) Uani 1 1 d . . .
F1 F -0.21765(15) -0.29082(6) 0.26711(5) 0.01918(14) Uani 1 1 d . . .
F2 F -0.34622(18) -0.09797(7) 0.43040(5) 0.02822(18) Uani 1 1 d . . .
F3 F -0.1437(2) 0.17205(7) 0.46183(6) 0.03206(19) Uani 1 1 d . . .
F4 F 0.19395(19) 0.25175(7) 0.32982(6) 0.02901(18) Uani 1 1 d . . .
loop_
_atom_site_aniso_label
_atom_site_aniso_U_11
_atom_site_aniso_U_22
_atom_site_aniso_U_33
_atom_site_aniso_U_23
_atom_site_aniso_U_13
_atom_site_aniso_U_12
O6 0.0189(4) 0.0123(3) 0.0166(4) 0.0044(3) 0.0035(3) 0.0009(3)
O7 0.0452(6) 0.0361(6) 0.0239(5) -0.0041(4) 0.0076(4) -0.0104(5)
C1 0.0149(4) 0.0118(4) 0.0119(4) 0.0027(3) 0.0045(3) 0.0007(3)
C2 0.0111(4) 0.0119(4) 0.0111(4) 0.0040(3) 0.0024(3) 0.0007(3)
C3 0.0149(4) 0.0121(4) 0.0143(4) 0.0053(3) 0.0033(3) -0.0003(3)
C4 0.0205(5) 0.0205(5) 0.0129(4) 0.0058(4) 0.0078(4) 0.0001(4)
C5 0.0268(5) 0.0164(5) 0.0128(5) -0.0005(4) 0.0100(4) 0.0017(4)
C6 0.0234(5) 0.0119(4) 0.0164(5) 0.0023(4) 0.0076(4) -0.0002(4)
B1 0.0148(5) 0.0115(4) 0.0116(5) 0.0043(4) 0.0041(4) 0.0017(4)
B2 0.0109(4) 0.0107(4) 0.0115(4) 0.0039(4) 0.0034(3) 0.0014(3)
O1 0.0258(4) 0.0109(3) 0.0136(3) 0.0033(3) 0.0085(3) -0.0001(3)
O2 0.0156(3) 0.0097(3) 0.0117(3) 0.0038(2) 0.0059(2) 0.0012(2)
O3 0.0094(3) 0.0168(3) 0.0135(3) 0.0003(3) 0.0029(2) 0.0016(2)
O4 0.0112(3) 0.0139(3) 0.0215(4) 0.0095(3) 0.0067(3) 0.0039(2)
O5 0.0139(3) 0.0150(3) 0.0150(3) 0.0053(3) 0.0035(3) 0.0023(3)
F1 0.0246(3) 0.0132(3) 0.0196(3) 0.0072(2) 0.0074(2) -0.0013(2)
F2 0.0373(4) 0.0266(4) 0.0193(3) 0.0070(3) 0.0191(3) -0.0012(3)
F3 0.0480(5) 0.0200(3) 0.0215(4) -0.0029(3) 0.0229(3) 0.0021(3)
F4 0.0462(5) 0.0105(3) 0.0255(4) 0.0003(3) 0.0187(3) -0.0009(3)
loop_
_atom_type_symbol
_atom_type_description
_atom_type_scat_dispersion_real
_atom_type_scat_dispersion_imag
_atom_type_scat_source
C C 0.0033 0.0016 'International Tables Vol C Tables 4.2.6.8 and 6.1.1.4'
H H 0.0000 0.0000 'International Tables Vol C Tables 4.2.6.8 and 6.1.1.4'
B B 0.0013 0.0007 'International Tables Vol C Tables 4.2.6.8 and 6.1.1.4'
O O 0.0106 0.0060 'International Tables Vol C Tables 4.2.6.8 and 6.1.1.4'
F F 0.0171 0.0103 'International Tables Vol C Tables 4.2.6.8 and 6.1.1.4'
loop_
_geom_angle_atom_site_label_1
_geom_angle_atom_site_label_2
_geom_angle_atom_site_label_3
_geom_angle
H6A O6 H6B 107.9(19)
H7A O7 H7B 108(3)
H7A O7 H7C 98(3)
H7B O7 H7C 112(4)
C6 C1 C2 119.76(9)
C6 C1 B1 133.65(9)
C2 C1 B1 106.55(8)
C3 C2 C1 118.48(9)
C3 C2 B2 133.05(8)
C1 C2 B2 108.35(8)
F1 C3 C2 121.35(9)
F1 C3 C4 117.21(8)
C2 C3 C4 121.43(9)
F2 C4 C3 120.70(9)
F2 C4 C5 119.51(9)
C3 C4 C5 119.80(9)
F3 C5 C6 120.72(9)
F3 C5 C4 119.82(9)
C6 C5 C4 119.46(9)
F4 C6 C1 121.71(9)
F4 C6 C5 117.28(9)
C1 C6 C5 121.01(9)
O1 B1 O2 124.23(9)
O1 B1 C1 125.93(9)
O2 B1 C1 109.82(8)
O4 B2 O2 106.68(7)
O4 B2 O3 109.00(8)
O2 B2 O3 110.28(8)
O4 B2 C2 118.39(8)
O2 B2 C2 103.03(7)
O3 B2 C2 109.16(8)
B1 O1 H1 115.8(14)
B1 O2 B2 112.06(7)
B2 O3 H3A 117.7(14)
B2 O3 H3B 120.5(12)
H3A O3 H3B 116.6(18)
B2 O4 H4 116.9(14)
H5A O5 H5B 105(2)
loop_
_geom_bond_atom_site_label_1
_geom_bond_atom_site_label_2
_geom_bond_distance
O6 H6A 0.81(2)
O6 H6B 0.83(2)
O7 H7A 0.840(15)
O7 H7B 0.865(18)
O7 H7C 0.866(18)
C1 C6 1.3783(14)
C1 C2 1.4133(13)
C1 B1 1.5715(14)
C2 C3 1.3794(13)
C2 B2 1.6276(14)
C3 F1 1.3561(11)
C3 C4 1.3856(14)
C4 F2 1.3438(11)
C4 C5 1.3857(15)
C5 F3 1.3498(12)
C5 C6 1.3853(14)
C6 F4 1.3583(12)
B1 O1 1.3532(12)
B1 O2 1.3719(13)
B2 O4 1.4543(13)
B2 O2 1.4909(12)
B2 O3 1.4919(13)
O1 H1 0.85(2)
O3 H3A 0.88(2)
O3 H3B 1.01(2)
O4 H4 0.80(2)
O5 H5A 0.86(2)
O5 H5B 0.84(2)
loop_
_geom_torsion_atom_site_label_1
_geom_torsion_atom_site_label_2
_geom_torsion_atom_site_label_3
_geom_torsion_atom_site_label_4
_geom_torsion
C6 C1 C2 C3 -1.52(15)
B1 C1 C2 C3 -179.68(9)
C6 C1 C2 B2 175.14(9)
B1 C1 C2 B2 -3.02(11)
C1 C2 C3 F1 -178.19(9)
B2 C2 C3 F1 6.15(17)
C1 C2 C3 C4 2.80(15)
B2 C2 C3 C4 -172.86(10)
F1 C3 C4 F2 -1.35(16)
C2 C3 C4 F2 177.70(10)
F1 C3 C4 C5 179.14(10)
C2 C3 C4 C5 -1.81(17)
F2 C4 C5 F3 -0.06(17)
C3 C4 C5 F3 179.45(10)
F2 C4 C5 C6 179.97(11)
C3 C4 C5 C6 -0.51(18)
C2 C1 C6 F4 -179.85(10)
B1 C1 C6 F4 -2.3(2)
C2 C1 C6 C5 -0.74(17)
B1 C1 C6 C5 176.82(11)
F3 C5 C6 F4 0.95(18)
C4 C5 C6 F4 -179.09(10)
F3 C5 C6 C1 -178.19(11)
C4 C5 C6 C1 1.77(18)
C6 C1 B1 O1 8.0(2)
C2 C1 B1 O1 -174.22(10)
C6 C1 B1 O2 -173.32(11)
C2 C1 B1 O2 4.48(12)
C3 C2 B2 O4 -65.78(14)
C1 C2 B2 O4 118.23(9)
C3 C2 B2 O2 176.83(10)
C1 C2 B2 O2 0.85(10)
C3 C2 B2 O3 59.63(14)
C1 C2 B2 O3 -116.35(9)
O1 B1 O2 B2 174.69(10)
C1 B1 O2 B2 -4.04(11)
O4 B2 O2 B1 -123.29(9)
O3 B2 O2 B1 118.48(9)
C2 B2 O2 B1 2.08(10)
