#------------------------------------------------------------------------------
#$Date: 2016-03-21 14:47:05 +0200 (Mon, 21 Mar 2016) $
#$Revision: 178723 $
#$URL: svn://www.crystallography.net/cod/cif/4/08/34/4083410.cif $
#------------------------------------------------------------------------------
#
# This file is available in the Crystallography Open Database (COD),
# http://www.crystallography.net/
#
# All data on this site have been placed in the public domain by the
# contributors.
#
data_4083410
loop_
_publ_author_name
'Stringer, Bradley D.'
'Quan, Linh M.'
'Barnard, Peter J.'
'Wilson, David J. D.'
'Hogan, Conor F.'
_publ_section_title
;
 Iridium Complexes of N-Heterocyclic Carbene Ligands: Investigation
 into the Energetic Requirements for Efficient Electrogenerated
 Chemiluminescence
;
_journal_issue                   18
_journal_name_full               Organometallics
_journal_page_first              4860
_journal_paper_doi               10.1021/om500076w
_journal_volume                  33
_journal_year                    2014
_chemical_formula_moiety         'C10 H9 Cl2 N2, I'
_chemical_formula_sum            'C10 H9 Cl2 I N2'
_chemical_formula_weight         354.99
_chemical_name_systematic
;
 ?
;
_space_group_crystal_system      triclinic
_space_group_IT_number           2
_space_group_name_Hall           '-P 1'
_space_group_name_H-M_alt        'P -1'
_symmetry_space_group_name_Hall  '-P 1'
_symmetry_space_group_name_H-M   'P -1'
_atom_sites_solution_hydrogens   geom
_atom_sites_solution_primary     iterative
_audit_creation_date             2014-01-21
_audit_creation_method
;
Olex2 1.2
(compiled 2013.12.10 svn.r2850 for OlexSys, GUI svn.r4736)
;
_cell_angle_alpha                108.128(4)
_cell_angle_beta                 90.188(4)
_cell_angle_gamma                112.214(4)
_cell_formula_units_Z            2
_cell_length_a                   7.8792(4)
_cell_length_b                   8.0025(3)
_cell_length_c                   11.2111(5)
_cell_measurement_reflns_used    5002
_cell_measurement_temperature    172.9(2)
_cell_measurement_theta_max      30.4125
_cell_measurement_theta_min      2.9014
_cell_volume                     616.05(5)
_computing_cell_refinement
;
CrysAlisPro, Agilent Technologies,
Version 1.171.35.19 (release 27-10-2011 CrysAlis171 .NET)
(compiled Oct 27 2011,15:02:11)
;
_computing_data_collection
;
CrysAlisPro, Agilent Technologies,
Version 1.171.35.19 (release 27-10-2011 CrysAlis171 .NET)
(compiled Oct 27 2011,15:02:11)
;
_computing_data_reduction
;
CrysAlisPro, Agilent Technologies,
Version 1.171.35.19 (release 27-10-2011 CrysAlis171 .NET)
(compiled Oct 27 2011,15:02:11)
;
_computing_molecular_graphics    'Olex2 (Dolomanov et al., 2009)'
_computing_publication_material  'Olex2 (Dolomanov et al., 2009)'
_computing_structure_refinement  'ShelXL (Sheldrick, 2008)'
_computing_structure_solution
;
Superflip (Palatinus & Chapuis, 2007;Palatinus & van der Lee, 2008;
Palatinus et al., 2012)
;
_diffrn_ambient_temperature      173
_diffrn_detector_area_resol_mean 10.3281
_diffrn_measured_fraction_theta_full 0.998
_diffrn_measured_fraction_theta_max 0.999
_diffrn_measurement_device_type  'Xcalibur, Atlas, Gemini'
_diffrn_measurement_method       '\w scans'
_diffrn_radiation_type           MoK\a
_diffrn_radiation_wavelength     0.71073
_diffrn_reflns_av_R_equivalents  0.0116
_diffrn_reflns_av_unetI/netI     0.0153
_diffrn_reflns_Laue_measured_fraction_full 0.998
_diffrn_reflns_Laue_measured_fraction_max 0.999
_diffrn_reflns_limit_h_max       9
_diffrn_reflns_limit_h_min       -9
_diffrn_reflns_limit_k_max       9
_diffrn_reflns_limit_k_min       -9
_diffrn_reflns_limit_l_max       14
_diffrn_reflns_limit_l_min       -12
_diffrn_reflns_number            5518
_diffrn_reflns_point_group_measured_fraction_full 0.998
_diffrn_reflns_point_group_measured_fraction_max 0.999
_diffrn_reflns_theta_full        25.242
_diffrn_reflns_theta_max         26.365
_diffrn_reflns_theta_min         2.907
_diffrn_source                   'Enhance (Mo) X-ray Source'
_exptl_absorpt_coefficient_mu    3.002
_exptl_absorpt_correction_T_max  1.00000
_exptl_absorpt_correction_T_min  0.62265
_exptl_absorpt_correction_type   multi-scan
_exptl_absorpt_process_details
;
CrysAlisPro, Agilent Technologies,
Version 1.171.35.19 (release 27-10-2011 CrysAlis171 .NET)
(compiled Oct 27 2011,15:02:11)
Empirical absorption correction using spherical harmonics,
 implemented in SCALE3 ABSPACK scaling algorithm.
;
_exptl_crystal_colour            'clear colourless'
_exptl_crystal_colour_lustre     clear
_exptl_crystal_colour_primary    colourless
_exptl_crystal_density_diffrn    1.914
_exptl_crystal_description       block
_exptl_crystal_F_000             340
_exptl_crystal_size_max          0.2
_exptl_crystal_size_mid          0.2
_exptl_crystal_size_min          0.1
_refine_diff_density_max         0.410
_refine_diff_density_min         -0.787
_refine_diff_density_rms         0.146
_refine_ls_extinction_method     none
_refine_ls_goodness_of_fit_ref   1.169
_refine_ls_hydrogen_treatment    mixed
_refine_ls_matrix_type           full
_refine_ls_number_parameters     137
_refine_ls_number_reflns         2513
_refine_ls_number_restraints     0
_refine_ls_restrained_S_all      1.169
_refine_ls_R_factor_all          0.0184
_refine_ls_R_factor_gt           0.0177
_refine_ls_shift/su_max          0.000
_refine_ls_shift/su_mean         0.000
_refine_ls_structure_factor_coef Fsqd
_refine_ls_weighting_details
;
 w=1/[\s^2^(Fo^2^)+(0.0257P)^2^+0.1865P]
 where P=(Fo^2^+2Fc^2^)/3
;
_refine_ls_weighting_scheme      calc
_refine_ls_wR_factor_gt          0.0465
_refine_ls_wR_factor_ref         0.0468
_reflns_Friedel_coverage         0.000
_reflns_number_gt                2438
_reflns_number_total             2513
_reflns_threshold_expression     'I > 2\s(I)'
_cod_data_source_file            om500076w_si_001.cif
_cod_data_source_block           9
_cod_original_cell_volume        616.04(5)
_cod_database_code               4083410
#BEGIN Tags that were not found in dictionaries:
_shelxl_version_number           2013-2
_shelx_space_group_comment
;
The symmetry employed for this shelxl refinement is uniquely defined
by the following loop, which should always be used as a source of
symmetry information in preference to the above space-group names.
They are only intended as comments.
;
_olex2_refinement_description
;
1. Fixed Uiso
 At 1.2 times of:
  All C(H) groups
 At 1.5 times of:
  All C(H,H,H) groups
2.a Aromatic/amide H refined with riding coordinates:
 C1(H1), C2(H2), C3(H3), C5(H5), C6(H6), C8(H8)
2.b Idealised Me refined as rotating group:
 C10(H10A,H10B,H10C)
;
_shelx_res_file
;
TITL PJB182 in P-1
CELL 0.71073 7.879234 8.002467 11.211091 108.128 90.1884 112.2137
ZERR 2 0.000353 0.000271 0.000496 0.0035 0.0036 0.0038
LATT 1

SFAC C H N I Cl
UNIT 20 18 4 2 4

L.S. 4 0 0
PLAN  20
TEMP -100.15
fmap 2 53
acta
SHEL 20 0.8
REM <HKL>C:/Users/PBarnard/Dropbox/PJB%20Dropbox/PJBpapers/Linh%20Ir%20carbene
REM %20paper/Crystals/PJB182/PJB182.hkl</HKL>

WGHT    0.025700    0.186500
FVAR       6.40850
CL1   5    0.296854   -0.157930    0.594061    11.00000    0.04540    0.02789 =
         0.03033    0.01136    0.01235    0.02438
CL2   5    0.236985    0.386885    0.437399    11.00000    0.04156    0.02828 =
         0.02158    0.01261    0.00520    0.01526
N1    3    0.207752    0.056245    0.844416    11.00000    0.02014    0.01908 =
         0.02058    0.00906    0.00584    0.00726
N2    3    0.294221    0.058497    1.027680    11.00000    0.02475    0.02138 =
         0.01857    0.00750    0.00524    0.01042
C1    1    0.319848    0.164371    0.953433    11.00000    0.02308    0.01886 =
         0.02068    0.00645    0.00673    0.00909
AFIX  43
H1    2    0.403498    0.294548    0.974310    11.00000   -1.20000
AFIX   0
C2    1    0.106048   -0.123974    0.850864    11.00000    0.02214    0.01945 =
         0.02777    0.01055    0.00396    0.00452
AFIX  43
H2    2    0.015135   -0.228887    0.786603    11.00000   -1.20000
AFIX   0
C3    1    0.160053   -0.122498    0.964867    11.00000    0.02393    0.02132 =
         0.02913    0.01181    0.00663    0.00754
AFIX  43
H3    2    0.114721   -0.226205    0.996540    11.00000   -1.20000
AFIX   0
C4    1    0.201082    0.125284    0.741750    11.00000    0.01981    0.02236 =
         0.02052    0.00966    0.00486    0.00812
C5    1    0.159490    0.284183    0.762754    11.00000    0.03116    0.02796 =
         0.02187    0.00985    0.01154    0.01550
AFIX  43
H5    2    0.125648    0.338947    0.842141    11.00000   -1.20000
AFIX   0
C6    1    0.166945    0.364038    0.668429    11.00000    0.03503    0.02547 =
         0.02796    0.01160    0.00854    0.01784
AFIX  43
H6    2    0.138553    0.473321    0.682323    11.00000   -1.20000
AFIX   0
C7    1    0.216415    0.281649    0.553980    11.00000    0.02505    0.02298 =
         0.01835    0.00910    0.00159    0.00759
C8    1    0.253045    0.118901    0.529557    11.00000    0.02287    0.02639 =
         0.01864    0.00671    0.00535    0.01066
AFIX  43
H8    2    0.283065    0.062132    0.449165    11.00000   -1.20000
AFIX   0
C9    1    0.245146    0.040780    0.624050    11.00000    0.01981    0.01949 =
         0.02311    0.00557    0.00414    0.00941
C10   1    0.391468    0.127139    1.156381    11.00000    0.03962    0.03361 =
         0.02041    0.00737    0.00079    0.01633
AFIX 137
H10A  2    0.523837    0.198317    1.157043    11.00000   -1.50000
H10B  2    0.373826    0.017424    1.183782    11.00000   -1.50000
H10C  2    0.341707    0.211531    1.214294    11.00000   -1.50000
AFIX   0

I2    4    0.269628    0.591500    0.166834    11.00000    0.02247    0.02398 =
         0.03012    0.01335    0.00660    0.00769
HKLF 4

REM  PJB182 in P-1
REM R1 =  0.0177 for    2438 Fo > 4sig(Fo)  and  0.0184 for all    2513 data
REM    137 parameters refined using      0 restraints

END

WGHT      0.0257      0.1865

REM Highest difference peak  0.410,  deepest hole -0.787,  1-sigma level  0.146
Q1    1   0.4358  0.2624  1.1836  11.00000  0.05    0.41
Q2    1   0.4824  0.0774  1.1590  11.00000  0.05    0.32
Q3    1   0.4519 -0.0361  1.2966  11.00000  0.05    0.31
Q4    1   0.4887 -0.1160  1.1624  11.00000  0.05    0.29
Q5    1   0.0431  0.3148  0.9058  11.00000  0.05    0.28
Q6    1   0.0398  0.0143  0.5590  11.00000  0.05    0.28
Q7    1  -0.0302 -0.1357  0.9764  11.00000  0.05    0.27
Q8    1   0.4787  0.5197  0.3870  11.00000  0.05    0.27
Q9    1   0.5235  0.6879  0.2576  11.00000  0.05    0.27
Q10   1   0.4535 -0.1117  0.4118  11.00000  0.05    0.27
Q11   1  -0.1202 -0.2896  0.9911  11.00000  0.05    0.27
Q12   1   0.4819  0.0153  0.4603  11.00000  0.05    0.27
Q13   1   0.4318  0.7765  0.1619  11.00000  0.05    0.27
Q14   1  -0.0035 -0.2442  1.0452  11.00000  0.05    0.26
Q15   1   0.0066 -0.4595  0.8806  11.00000  0.05    0.26
Q16   1   0.4640  0.2067  0.8615  11.00000  0.05    0.26
Q17   1   0.4675  0.7783  0.2383  11.00000  0.05    0.26
Q18   1  -0.0954 -0.2673  0.9205  11.00000  0.05    0.26
Q19   1   0.0275  0.0542  0.5194  11.00000  0.05    0.26
Q20   1   0.5396  0.2053  0.9387  11.00000  0.05    0.26
;
_shelx_res_checksum              32303
_shelx_hkl_file
;
   0   0   2 2650.70 106.702   3
   0   0   3 378486. 1553.00   3
   0   0   4 89355.5 877.463   3
   0   0   5 226843. 1572.09   3
   0   0   6 99714.7 1159.51   3
   0   0  -6 98136.3 1146.84   3
   0   0   7 134371. 1184.54   2
   0   0  -7 135111. 1462.90   3
   0   0   7 134405. 1465.26   3
   0   0   8 48183.9 941.689   3
   0   0   8 46711.7 755.131   2
   0   0  -8 47322.3 934.726   3
   0   0   9 65116.1 960.712   2
   0   0  10 47626.3 876.899   2
   0   0  10 46075.8 1152.72   1
   0   0  11 1875.08 261.760   1
   0   0  11 1871.92 190.866   2
   0   0  12 30131.3 783.255   2
   0   0  12 30422.5 1048.86   1
   0   0  13 3987.16 404.688   1
   0   0  13 4168.29 308.116   2
   0   0  14 4541.16 447.978   1
   0   0  15 13785.2 792.046   1
   0  -1  15 18084.9 898.619   1
   0  -1  14 1667.26 276.963   1
   0  -1  14 1842.49 234.214   2
   0  -1  13 9104.75 590.828   1
   0  -1  13 9454.40 481.522   2
   0  -1  12 16286.7 600.668   2
   0  -1  11 2614.24 234.529   2
   0  -1  10 76069.1 1351.00   3
   0  -1  10 76383.9 1149.83   2
   0  -1   9 812.402 147.851   3
   0  -1   8 57241.6 1023.95   3
   0   1  -8 58336.9 1030.72   3
   0  -1   7 115763. 1346.35   3
   0  -1   6 65762.5 926.197   3
   0  -1   5 13413.9 381.540   3
   0  -1   4 45230.6 623.905   3
   0   1  -4 44907.0 292.965   6
   0  -1   3 510734. 1779.10   3
   0   1  -3 492320. 1071.97   6
   0  -1   2 3085.21 113.936   3
   0  -1   1 102651. 474.954   3
   0  -1   0 20449.7 216.725   5
   0   1   1 61515.8 575.978   1
   0   1   2 333452. 1084.01   6
   0  -1  -2 330034. 1231.33   3
   0   1   3 38363.5 634.468   1
   0  -1  -3 39165.6 519.881   3
   0   1   3 40000.2 383.859   6
   0   1   3 40101.6 352.034   2
   0  -1  -4 8215.23 273.723   3
   0   1   4 8644.52 199.391   2
   0   1   4 8514.86 337.235   1
   0   1   5 61294.4 987.903   1
   0  -1  -5 61823.4 838.312   3
   0  -1  -6 58393.1 892.841   3
   0   1   6 56788.9 1033.47   1
   0   1   6 58591.0 674.302   2
   0   1   7 3176.76 269.364   1
   0  -1  -7 3427.45 239.808   3
   0   1   7 3391.35 181.059   2
   0   1   8 46979.0 1074.74   1
   0   1   8 47334.7 725.530   2
   0   1   9 17490.9 473.309   2
   0   1   9 16428.5 681.927   1
   0   1  10 2486.59 195.670   2
   0   1  10 2550.42 290.824   1
   0   1  11 32010.6 722.377   2
   0   1  11 31099.0 1044.86   1
   0   1  12 16193.3 781.649   1
   0   1  13 1023.15 229.651   1
   0   1  14 1817.77 304.988   1
   0  -2  15 275.558 124.341   2
   0  -2  14 2882.15 298.875   2
   0  -2  13 58301.8 1239.47   2
   0  -2  12 604.148 136.544   2
   0  -2  12 524.755 150.909   3
   0  -2  11 1197.17 200.279   3
   0  -2  11 1238.65 169.883   2
   0  -2  10 47745.4 1068.25   3
   0  -2   9 24915.2 721.101   3
   0   2  -8 103907. 1372.77   3
   0  -2   8 101258. 1354.10   3
   0  -2   7 118796. 1356.02   3
   0  -2   6 184923. 1563.78   3
   0   2  -6 189175. 910.211   6
   0   2  -5 222692. 1032.85   6
   0  -2   5 223676. 1555.09   3
   0  -2   4 233152. 1395.43   3
   0   2  -4 235925. 1110.28   6
   0  -2   3 32471.3 358.282   4
   0  -2   3 31466.6 448.114   3
   0   2  -3 31833.9 316.756   4
   0  -2   2 159552. 786.176   4
   0  -2   2 164973. 856.504   3
   0   2  -1 409660. 1685.04   1
   0   2  -1 418365. 1199.90   3
   0  -2   0 38674.3 427.626   5
   0   2   0 38400.6 538.499   1
   0   2   1 115901. 868.919   6
   0   2   1 114477. 1013.73   1
   0   2   2 260921. 1680.22   1
   0   2   2 261125. 1327.28   6
   0  -2  -2 259180. 1161.11   3
   0   2   3 40516.7 737.298   1
   0   2   3 40671.8 529.441   6
   0  -2  -3 39427.3 540.222   3
   0  -2  -3 40865.5 748.582   1
   0   2   4 20855.4 265.688   2
   0  -2  -4 21182.7 449.727   3
   0   2   4 22278.9 596.356   1
   0   2   4 21282.9 387.512   6
   0   2   5 210711. 990.239   2
   0  -2  -5 207636. 1560.73   3
   0   2   6 9256.00 238.454   2
   0  -2  -6 9442.46 369.814   3
   0   2   6 9450.92 453.645   1
   0   2   7 13325.1 319.032   2
   0  -2  -7 13506.5 478.481   3
   0   2   7 13457.1 571.097   1
   0   2   8 86399.2 1537.76   1
   0   2   8 91590.5 907.724   2
   0   2   9 6327.86 262.739   2
   0   2   9 6848.32 463.846   1
   0   2  10 3908.72 220.178   2
   0   2  10 3343.24 346.866   1
   0   2  11 15847.0 769.804   1
   0   2  12 8096.87 585.490   1
   0   2  13 11876.1 729.938   1
   0  -3  15 5258.28 426.296   2
   0  -3  14 882.520 183.588   2
   0  -3  13 24394.1 821.576   2
   0  -3  13 24619.5 916.874   3
   0  -3  12 4558.55 345.388   2
   0  -3  12 4315.87 373.094   3
   0  -3  11 56168.4 1232.36   3
   0  -3  10 60597.3 1202.27   3
   0  -3   9 6566.95 374.254   3
   0   3  -8 85233.0 918.254   4
   0   3  -8 85269.9 755.522   6
   0  -3   8 84642.8 1248.81   3
   0   3  -8 87827.1 1265.82   3
   0   3  -7 59803.1 667.136   4
   0  -3   7 59405.6 972.181   3
   0   3  -7 60234.1 976.602   3
   0   3  -7 58881.1 666.760   6
   0  -3   6 9011.36 347.891   3
   0   3  -6 9327.44 226.939   4
   0   3  -6 10079.1 367.712   3
   0   3  -6 9560.88 274.329   6
   0   3  -5 293850. 1806.31   3
   0  -3   5 294151. 1787.69   3
   0   3  -5 295088. 1558.24   6
   0  -3   4 75683.9 817.613   3
   0  -3   4 76379.9 674.564   4
   0   3  -4 75713.5 811.635   6
   0  -3   3 10721.1 252.042   4
   0   3  -3 10622.0 277.423   3
   0  -3   3 10565.7 269.541   3
   0   3  -2 256908. 1222.64   3
   0  -3   2 261305. 1152.74   3
   0  -3   1 155312. 773.802   3
   0   3  -1 152880. 1276.00   1
   0  -3   0 149.767 43.1036   5
   0  -3   0 506.243 48.8113   3
   0   3   1 120793. 1090.06   6
   0  -3  -1 118440. 1034.46   5
   0   3   1 119136. 1239.76   1
   0  -3  -2 97522.6 758.027   3
   0   3   2 101378. 1223.12   1
   0   3   2 100541. 1006.05   6
   0  -3  -3 38741.8 560.004   3
   0  -3  -3 42525.5 851.531   1
   0   3   3 41027.0 837.650   1
   0   3   3 40061.8 639.730   6
   0  -3  -4 41971.2 653.271   3
   0   3   4 43607.3 915.353   1
   0   3   4 42474.7 663.586   6
   0   3   5 151428. 1270.61   6
   0   3   5 154418. 1839.12   1
   0   3   6 10160.6 501.087   1
   0  -3  -6 10499.9 399.230   3
   0   3   7 26261.2 853.990   1
   0  -3  -7 27003.6 688.625   3
   0   3   8 7340.09 185.121   2
   0   3   8 6982.98 468.720   1
   0   3   9 5558.20 443.575   1
   0   3  10 54999.8 1430.38   1
   0   3  11 72.9581 128.919   1
   0   3  12 1387.06 273.961   1
   0  -4  15 4343.07 402.950   2
   0  -4  14 13404.5 664.754   2
   0  -4  13 7267.12 468.199   2
   0  -4  13 7520.37 517.621   3
   0  -4  12 17139.3 732.754   3
   0  -4  11 16612.5 675.387   3
   0  -4  10 481.775 125.135   3
   0   4 -10 788.787 82.7512   4
   0  -4   9 51890.5 1054.90   3
   0   4  -9 52410.8 722.613   6
   0   4  -9 52995.2 593.396   4
   0  -4   8 135279. 1589.44   3
   0   4  -8 134722. 1583.48   3
   0   4  -8 131783. 1183.28   6
   0   4  -7 2752.89 120.833   4
   0  -4   7 2708.61 213.340   3
   0   4  -7 2565.33 207.714   3
   0   4  -7 2646.06 175.024   6
   0  -4   6 20631.2 532.549   3
   0   4  -6 21102.5 490.014   6
   0   4  -6 20892.8 535.620   3
   0   4  -5 172792. 1415.64   6
   0   4  -5 168016. 1415.12   3
   0  -4   5 172518. 1398.42   3
   0  -4   5 171022. 1172.35   4
   0  -4   4 12147.2 338.643   3
   0   4  -4 11658.5 378.326   6
   0   4  -4 12066.5 344.974   3
   0  -4   4 12662.1 324.796   4
   0  -4   3 52072.1 685.394   4
   0  -4   3 52450.4 620.793   3
   0   4  -3 53967.7 594.624   5
   0   4  -3 52409.3 669.293   3
   0   4  -2 188885. 1093.65   5
   0  -4   2 189076. 1042.94   3
   0  -4   1 10010.6 214.812   3
   0   4  -1 9530.72 379.550   1
   0  -4   0 293420. 1723.94   5
   0   4   0 292541. 2141.09   1
   0  -4   0 291672. 1195.56   3
   0   4   1 24350.5 574.485   6
   0   4   1 24378.2 644.665   1
   0  -4  -1 24676.0 540.360   5
   0  -4  -2 94184.4 1149.84   5
   0   4   2 95063.9 1336.36   1
   0   4   2 95512.8 1148.20   6
   0  -4  -2 94409.8 1342.29   1
   0  -4  -2 94396.8 775.468   3
   0   4   3 96842.0 1162.74   6
   0   4   3 98654.8 1437.35   1
   0  -4  -3 96265.4 907.064   3
   0   4   4 35518.4 913.613   1
   0   4   4 34048.1 692.878   6
   0  -4  -4 33222.6 596.109   3
   0  -4  -5 508.404 88.7107   3
   0   4   5 586.216 104.403   6
   0   4   5 694.789 158.491   1
   0   4   6 18627.5 737.600   1
   0  -4  -6 17311.0 519.924   3
   0  -4  -7 103145. 1366.10   3
   0   4   7 101563. 1800.59   1
   0   4   8 90.4288 119.067   1
   0   4   9 4475.67 424.213   1
   0   4  10 20590.2 929.138   1
   0   4  11 795.737 215.696   1
   0  -5  14 9655.51 591.081   2
   0  -5  14 9687.28 620.591   3
   0  -5  13 86.6556 116.398   3
   0  -5  12 46390.1 1206.39   3
   0  -5  11 39266.2 1046.32   3
   0  -5  10 2700.12 269.332   3
   0   5  -9 20400.1 534.653   6
   0  -5   9 21111.9 683.132   3
   0  -5   8 161081. 1770.91   3
   0   5  -8 164139. 1795.33   3
   0   5  -8 158886. 1518.63   6
   0   5  -7 37109.2 802.670   3
   0   5  -7 36250.0 738.913   6
   0  -5   7 36593.0 789.035   3
   0   5  -6 71526.5 1029.46   3
   0  -5   6 74230.5 1031.96   3
   0  -5   6 75980.7 879.491   4
   0   5  -6 73990.9 1053.51   6
   0  -5   6 71039.7 1158.03   1
   0  -5   5 117514. 1471.74   1
   0  -5   5 117263. 1182.96   3
   0   5  -5 115384. 1223.74   3
   0   5  -5 119342. 1357.08   6
   0  -5   5 116817. 1116.91   4
   0   5  -4 1303.90 125.150   3
   0  -5   4 1103.10 146.751   1
   0   5  -4 1333.34 106.249   5
   0  -5   4 1305.67 126.444   4
   0   5  -4 1538.42 167.828   6
   0  -5   4 1326.58 119.982   3
   0  -5   3 214647. 1979.38   1
   0   5  -3 213263. 1453.55   3
   0  -5   3 213728. 1305.09   3
   0   5  -3 217330. 1264.01   5
   0  -5   2 15836.8 309.283   3
   0   5  -1 11714.7 480.763   1
   0   5  -1 11774.2 448.316   6
   0  -5   1 11844.8 239.498   3
   0  -5   0 97408.9 1134.28   5
   0  -5   0 96623.9 1401.61   1
   0   5   0 97512.3 1291.12   6
   0   5   0 96789.8 1406.91   1
   0  -5   0 96289.6 683.649   3
   0  -5  -1 45224.3 475.267   3
   0  -5  -1 47042.2 829.508   5
   0   5   1 48028.5 909.432   6
   0  -5  -1 45783.2 553.994   3
   0   5   1 48015.5 1018.78   1
   0  -5  -1 45644.0 551.617   2
   0   5   2 7613.54 370.683   6
   0  -5  -2 7856.61 371.534   5
   0   5   2 7946.89 440.816   1
   0  -5  -2 7650.04 224.456   3
   0  -5  -3 14582.2 352.319   3
   0  -5  -3 16049.4 561.681   5
   0   5   3 15236.7 523.520   6
   0   5   3 15174.6 628.090   1
   0   5   4 112807. 1778.88   1
   0   5   4 108702. 1403.16   6
   0  -5  -4 109192. 1083.72   3
   0   5   5 4098.73 367.798   1
   0  -5  -5 3249.83 210.610   3
   0   5   6 15007.5 717.787   1
   0   5   7 7725.61 540.910   1
   0   5   8 829.627 209.662   1
   0   5   9 12160.2 730.574   1
   0   5  10 2310.27 337.316   1
   0  -6  14 1037.32 222.413   3
   0  -6  13 26045.0 967.359   3
   0  -6  12 2946.65 319.615   3
   0  -6  11 19357.8 746.219   3
   0   6 -10 70747.6 1116.09   6
   0  -6  10 71561.1 1359.66   3
   0   6  -9 23689.9 653.399   6
   0  -6   9 23459.8 735.003   3
   0  -6   8-25.8898 78.0962   3
   0   6  -8-32.8260 69.2429   6
   0   6  -7 43601.7 890.450   3
   0   6  -7 42625.9 891.886   6
   0  -6   7 42516.0 870.559   3
   0  -6   6 162124. 1474.93   4
   0   6  -6 161964. 1756.82   6
   0   6  -6 158362. 1595.42   3
   0  -6   6 161469. 1558.45   3
   0   6  -5 33273.7 807.354   6
   0  -6   5 32892.0 679.686   4
   0   6  -5 32953.6 686.596   3
   0  -6   5 33309.7 648.849   3
   0   6  -5 33222.2 530.500   5
   0   6  -4 10438.8 460.404   6
   0  -6   4 10562.9 401.081   4
   0  -6   4 11116.8 340.017   3
   0   6  -4 11146.9 376.389   3
   0   6  -3 121054. 1566.89   6
   0  -6   3 122361. 982.435   3
   0  -6   3 119497. 1416.41   4
   0   6  -2 140.587 98.9441   6
   0  -6   2 42.5170 27.1040   3
   0   6  -1 63147.3 1242.00   1
   0  -6   1 62115.6 510.718   3
   0   6  -1 65134.6 1168.41   6
   0   6   0 57843.9 1107.45   6
   0  -6   0 55116.4 427.537   3
   0   6   0 57906.3 1224.32   1
   0  -6   0 55261.1 438.436   3
   0  -6  -1 4445.08 152.496   2
   0  -6  -1 4445.30 144.026   3
   0   6   1 4632.46 364.996   1
   0  -6  -1 4321.29 180.689   2
   0  -6  -1 4263.24 130.573   3
   0   6   1 4676.69 326.324   6
   0  -6  -1 4327.79 285.975   5
   0  -6  -2 48798.3 519.241   3
   0   6   2 50678.5 1055.22   6
   0   6   2 49603.2 1201.87   1
   0  -6  -2 50257.6 1006.70   5
   0   6   3 56160.8 1124.14   6
   0  -6  -3 58527.9 662.451   3
   0   6   3 59239.0 1357.14   1
   0   6   4 1587.17 202.719   6
   0   6   4 1746.65 257.238   1
   0   6   5 47402.3 1311.22   1
   0   6   6 14064.7 745.984   1
   0   6   7 2434.39 334.984   1
   0   6   8 14573.7 816.959   1
   0  -7  14 2702.70 343.131   3
   0  -7  13 54539.7 1425.85   3
   0  -7  12 4937.68 416.427   3
   0  -7  11 1121.37 199.044   3
   0  -7  10 45226.2 1095.43   3
   0   7 -10 44602.8 995.227   6
   0  -7   9 39025.5 962.157   3
   0   7  -9 38142.9 933.033   6
   0  -7   8 6962.42 385.550   3
   0   7  -8 7103.21 405.783   6
   0   7  -7 38602.5 612.076   5
   0   7  -7 36764.8 928.189   6
   0   7  -7 39195.8 869.895   3
   0  -7   7 38850.0 774.436   4
   0  -7   7 37840.3 830.861   3
   0  -7   6 12661.3 444.084   3
   0   7  -6 12806.6 330.397   5
   0   7  -6 12187.1 542.225   6
   0  -7   6 12921.4 468.894   4
   0   7  -6 12721.0 469.531   3
   0   7  -5 3024.81 278.322   6
   0  -7   5 2665.83 223.403   4
   0  -7   5 2894.19 195.783   3
   0  -7   4 48302.9 688.875   3
   0   7  -4 47900.6 1083.52   6
   0  -7   4 46319.1 955.623   4
   0  -7   3 53933.2 1081.14   4
   0   7  -3 54198.0 1160.35   6
   0  -7   3 54016.3 615.665   3
   0  -7   2 4959.13 142.985   3
   0   7  -2 5424.23 379.922   6
   0   7  -1 34356.6 943.137   6
   0   7   0 40941.6 1033.11   6
   0   7   0 42258.8 1157.82   1
   0  -7   0 41545.0 601.341   2
   0   7   1 6516.41 476.804   1
   0   7   1 5885.69 400.669   6
   0  -7  -1 5581.55 153.778   2
   0   7   2 22930.4 788.142   6
   0   7   2 25914.4 963.727   1
   0   7   3 6741.60 513.073   1
   0   7   3 6359.37 426.120   6
   0   7   4 1207.43 246.355   1
   0   7   5 22280.8 981.794   1
   0   7   6 1183.13 256.656   1
   0  -8  13 11520.0 661.984   3
   0  -8  12 70.5352 96.8627   3
   0  -8  11 18370.2 753.267   3
   0   8 -10 19385.9 724.698   6
   0  -8  10 19352.5 729.720   3
   0   8  -9 173.020 119.921   6
   0  -8   9 184.329 90.7633   3
   0   8  -8 25139.9 836.404   6
   0  -8   8 24379.6 712.130   3
   0   8  -7 26397.4 864.421   6
   0  -8   7 26618.1 686.634   3
   0  -8   7 28394.9 737.643   4
   0   8  -6 4616.70 370.008   6
   0  -8   6 4228.92 252.051   3
   0  -8   6 4302.28 305.982   4
   0  -8   5 26368.5 773.226   4
   0   8  -5 26339.3 876.691   6
   0  -8   5 26572.5 544.747   3
   0   8  -4 22902.2 822.519   6
   0  -8   4 23349.9 761.732   4
   0  -8   3 2785.02 283.146   4
   0   8  -3 2871.28 307.205   6
   0  -8   2 42230.3 1101.10   4
   0  -8   2 41939.2 792.616   2
   0   8  -2 42304.2 1135.94   6
   0   8  -1 39375.1 1105.14   6
   0  -8   1 40943.8 703.390   2
   0   8   0 1327.38 219.990   6
   0   8   0 1264.98 238.192   1
   0   8   1 6309.05 457.841   6
   0   8   1 6524.01 525.450   1
   0   8   2 37647.9 1263.22   1
   0   8   2 35497.7 1072.80   6
   0   8   3 1866.62 311.562   1
   0   9  -9 804.544 186.076   6
   0   9  -8 63367.9 1462.57   6
   0   9  -7 1638.30 253.060   6
   0   9  -6 265.286 143.929   6
   0  -9   5 55009.6 1245.53   4
   0   9  -5 54687.8 1388.45   6
   0  -9   4 9446.82 450.044   2
   0  -9   4 9909.66 552.611   4
   0   9  -4 9592.46 589.853   6
   0  -9   3 8159.91 523.356   4
   0   9  -3 7819.47 534.643   6
   0  -9   2 14169.5 707.982   4
   0   9  -2 14894.4 738.861   6
   0   9  -1 19660.2 855.232   6
   0  -9   1 17773.1 814.044   4
   0   9   0 20768.4 881.862   6
   0 -10   9 728.786 183.104   2
   0 -10   8 17297.0 759.542   2
   0 -10   7 1220.74 205.691   2
   0 -10   3 25016.3 986.148   4
   0 -10   2 3185.17 371.181   4
   0 -10   1 300.842 156.591   4
   1 -10   1 26689.9 1069.78   4
   1 -10   2 754.830 202.658   4
   1 -10   3 1503.69 253.852   4
   1 -10   4 27500.8 1006.24   4
   1 -10   5 4230.91 389.982   4
   1 -10   6 12266.0 582.495   2
   1 -10   7 19060.8 766.841   2
   1 -10   8 1126.38 208.715   2
   1 -10   9 6278.26 479.881   2
   1  -9  -2 12534.8 737.609   4
   1  -9  -1 2517.11 340.228   4
   1  -9   0 21320.6 919.623   4
   1  -9   1 8943.82 576.319   4
   1  -9   2 417.486 154.235   4
   1  -9   3 21818.5 625.298   2
   1  -9   3 21224.0 825.267   4
   1  -9   4 16858.9 592.881   2
   1  -9   4 16910.6 717.097   4
   1  -9   5 7039.83 410.918   2
   1  -9   5 6764.13 445.387   4
   1  -9   6 18817.2 726.003   4
   1  -9   6 17762.3 685.146   2
   1  -9   7 33447.7 941.099   4
   1  -9   7 33501.7 976.910   2
   1  -9   8 3423.22 334.175   2
   1  -9   9 17231.4 759.197   2
   1  -9  10 10346.5 618.522   2
   1  -9  11 1312.26 247.939   2
  -1   8   5 1574.97 287.508   1
  -1   8   4 3250.59 383.197   1
  -1   8   3 31407.0 1126.13   1
  -1   8   2 1403.83 247.010   1
  -1   8   1 6013.80 476.937   1
   1  -8   0 18486.6 779.090   4
   1  -8   1 2763.80 304.943   4
   1  -8   1 2781.00 179.857   2
   1  -8   2 41841.9 773.755   2
  -1   8  -2 42333.7 1095.21   6
   1  -8   2 41635.9 1082.93   4
   1  -8   3 23306.3 786.156   4
  -1   8  -3 24712.0 835.594   6
   1  -8   3 24859.0 651.936   2
   1  -8   4 47093.6 949.823   2
  -1   8  -4 47027.3 1137.82   6
   1  -8   4 45807.8 1064.31   4
   1  -8   5 28822.5 786.412   2
   1  -8   5 27899.7 815.016   4
  -1   8  -5 29630.3 893.685   6
   1  -8   6 32473.0 876.543   4
   1  -8   6 33122.1 882.935   2
   1  -8   7 297.804 118.716   2
   1  -8   7 544.912 127.665   4
   1  -8   8 7853.82 478.312   2
   1  -8   9 87457.6 1623.60   2
   1  -8  10 4649.26 403.712   2
   1  -8  11 720.382 184.473   2
   1  -8  12 41855.2 1263.30   2
  -1   7   7 4511.17 448.066   1
  -1   7   6 15487.4 793.515   1
  -1   7   5 17909.4 827.941   1
  -1   7   4 13009.9 689.154   1
  -1   7   3 17360.5 767.532   1
  -1   7   2 4088.09 368.477   1
  -1   7   1 99056.4 1715.33   1
   1  -7  -1 97125.8 1335.31   5
   1  -7   0 7859.34 251.134   2
   1  -7   0 7630.89 354.216   5
  -1   7   0 7659.91 439.518   6
   1  -7   1 13030.0 375.000   2
   1  -7   1 13366.5 580.551   4
  -1   7  -1 13716.8 576.884   6
   1  -7   2 117025. 1242.97   2
   1  -7   2 114116. 1615.51   4
   1  -7   3 8175.26 356.450   2
   1  -7   3 7792.40 410.244   4
  -1   7  -3 8106.82 437.482   6
   1  -7   4 6194.08 356.480   4
   1  -7   4 5761.81 321.118   2
  -1   7  -4 5802.35 370.355   6
  -1   7  -5 125041. 1666.67   6
   1  -7   5 123703. 1146.24   3
  -1   7  -5 125146. 1227.00   3
   1  -7   5 121853. 1542.70   4
  -1   7  -6 84925.3 1359.97   6
  -1   7  -6 87994.9 1124.40   3
   1  -7   6 85458.6 1078.78   3
   1  -7   6 88365.5 1307.81   4
   1  -7   7 33444.5 799.467   4
   1  -7   7 33638.5 751.691   3
  -1   7  -7 33283.2 752.571   3
   1  -7   8 14774.7 543.512   3
  -1   7  -8 15288.8 547.690   3
   1  -7   9 41478.2 971.719   3
   1  -7  10 6095.32 430.322   2
   1  -7  10 5423.93 380.647   3
   1  -7  11 31271.1 1011.33   2
   1  -7  12 4561.50 409.730   2
   1  -7  13 36.1644 111.819   2
  -1   6   9 3640.75 404.248   1
  -1   6   8 21455.7 927.074   1
  -1   6   7 3720.77 379.942   1
  -1   6   6 1109.58 213.998   1
  -1   6   5 12918.3 652.179   1
   1  -6  -4 33846.7 491.818   3
  -1   6   4 31721.2 973.795   1
   1  -6  -3 98.0643 23.5991   3
  -1   6   3 131.957 108.294   1
  -1   6   2 2300.25 250.601   1
   1  -6  -2 2234.63 203.644   5
   1  -6  -1 104050. 1245.72   5
   1  -6  -1 103833. 669.062   2
  -1   6   1 105988. 1449.77   6
  -1   6   1 105026. 1593.54   1
   1  -6   0 617.328 96.9243   5
  -1   6   0 536.299 123.909   6
  -1   6  -1 71494.8 1171.78   6
   1  -6   1 74929.9 1209.19   4
   1  -6   1 74135.7 847.990   2
   1  -6   2 62434.9 1063.76   4
  -1   6  -2 62486.8 1091.87   6
   1  -6   2 64274.9 861.666   2
   1  -6   3 40545.7 824.825   4
  -1   6  -3 42196.8 885.899   6
  -1   6  -4 157587. 1205.40   3
   1  -6   4 157968. 1154.78   3
  -1   6  -4 154749. 1691.11   6
  -1   6  -5 21788.3 501.215   3
   1  -6   5 20960.1 588.298   4
   1  -6   5 21699.4 493.442   3
  -1   6  -5 21764.9 627.347   6
   1  -6   6 553.037 105.485   4
   1  -6   6 415.021 87.6866   3
  -1   6  -6 90.5505 57.6118   3
  -1   6  -6 173.629 95.5596   6
  -1   6  -6 62.5449 23.3742   5
   1  -6   7 50316.4 914.732   3
  -1   6  -7 51051.0 919.309   3
  -1   6  -8 63080.1 1087.25   3
   1  -6   8 62026.8 1102.36   3
   1  -6   9 23.6779 71.6538   3
   1  -6  10 21483.6 737.707   3
   1  -6  10 21072.9 758.168   2
   1  -6  11 43189.3 1123.92   2
   1  -6  11 42178.0 1092.66   3
   1  -6  12 956.758 198.445   2
   1  -6  13 9864.68 590.097   2
   1  -6  14 18418.4 829.770   2
  -1   5  10 245.700 137.444   1
  -1   5   9 2021.74 292.353   1
  -1   5   8 20456.5 841.403   1
  -1   5   7 30093.6 977.696   1
   1  -5  -6 20508.6 541.202   3
  -1   5   6 20358.1 769.882   1
  -1   5   5 843.164 170.309   1
   1  -5  -5 747.057 99.3801   3
   1  -5  -4 88886.8 883.275   3
  -1   5   4 87598.7 1445.85   1
  -1   5   3 28203.6 792.546   1
   1  -5  -3 25997.5 399.950   3
  -1   5   2 120232. 1553.07   1
   1  -5  -2 120895. 1606.30   1
   1  -5  -1 53654.5 463.645   2
   1  -5  -1 54521.1 1046.25   1
  -1   5   1 54160.4 926.215   6
  -1   5   1 55419.8 1024.31   1
   1  -5  -1 54688.6 812.497   5
   1  -5   0 3608.13 190.044   5
   1  -5   0 3592.42 150.948   2
  -1   5   0 3595.60 259.853   1
  -1   5   0 3528.48 241.165   6
   1  -5   0 3406.84 258.299   1
   1  -5   1 192643. 1238.14   5
   1  -5   1 194182. 1260.97   2
   1  -5   2 41693.6 772.792   4
   1  -5   3 14512.4 443.119   4
   1  -5   3 14909.5 297.192   3
  -1   5  -3 14392.8 309.242   3
   1  -5   4 135506. 1340.39   4
  -1   5  -4 138145. 1406.16   6
   1  -5   4 137438. 1075.99   3
  -1   5  -5 33216.6 603.197   3
   1  -5   5 33723.7 681.987   4
   1  -5   5 33447.3 606.585   3
  -1   5  -5 34765.9 705.746   6
  -1   5  -6 1873.61 169.980   6
  -1   5  -6 1644.34 156.537   3
  -1   5  -7 130183. 1452.39   3
   1  -5   7 131146. 1457.47   3
  -1   5  -7 131982. 1152.95   4
   1  -5   8 12679.0 491.867   3
  -1   5  -8 12506.0 484.537   3
  -1   5  -8 12794.3 364.179   4
   1  -5   9 109.254 81.0870   3
  -1   5  -9 183.480 58.9256   4
  -1   5 -10 69628.3 900.704   4
   1  -5  10 68855.3 1296.90   2
   1  -5  10 67884.7 1291.65   3
   1  -5  11 20827.2 746.600   2
   1  -5  11 20638.1 755.069   3
   1  -5  12 16848.4 701.733   2
   1  -5  13 4461.47 385.474   2
   1  -5  14 23896.8 911.587   2
  -1   4  12 2167.92 311.101   1
  -1   4  11 10986.3 661.198   1
  -1   4  10 799.626 196.098   1
  -1   4   9 14398.6 700.303   1
  -1   4   8 7762.56 488.909   1
  -1   4   7 70.7043 89.8787   1
   1  -4  -7 94.8287 68.7769   3
   1  -4  -6 53011.6 875.097   3
  -1   4   6 52594.7 1132.42   1
   1  -4  -5 105072. 1117.14   3
  -1   4   5 105954. 1528.59   1
   1  -4  -4 4475.28 206.362   3
  -1   4   4 4632.49 308.776   1
   1  -4  -4 4599.89 318.489   1
  -1   4   3 94263.3 1286.21   1
   1  -4  -3 93469.8 793.600   3
   1  -4  -3 96175.0 1345.84   1
   1  -4  -2 75957.6 1137.27   1
   1  -4  -2 75860.2 555.401   3
  -1   4   1 2741.07 192.063   6
   1  -4  -1 2695.46 95.7361   2
  -1   4   1 2567.42 200.774   1
   1  -4  -1 2676.53 206.075   1
   1  -4  -1 2645.04 186.807   6
   1  -4   0 283112. 1845.87   6
  -1   4   0 280500. 1957.64   1
   1  -4   0 285959. 1200.65   2
   1  -4   1 68910.7 687.139   2
   1  -4   1 69400.1 905.036   4
   1  -4   1 69228.7 589.979   5
   1  -4   2 216.882 62.5440   4
  -1   4  -2 138.740 27.8426   3
   1  -4   2 169.650 29.3628   3
  -1   4  -3 107403. 816.986   3
   1  -4   3 106626. 810.712   3
   1  -4   3 108914. 1069.85   4
   1  -4   3 109386. 1091.76   6
  -1   4  -4 343388. 1727.20   3
  -1   4  -4 352351. 1975.57   6
   1  -4   4 346501. 1962.93   4
  -1   4  -4 350032. 1765.45   4
   1  -4   4 354736. 1740.55   3
  -1   4  -5 18933.7 455.745   3
  -1   4  -5 19136.9 414.607   4
  -1   4  -5 18924.7 448.610   6
   1  -4   5 19076.3 454.930   3
   1  -4   6 32078.1 652.291   3
  -1   4  -6 32127.4 547.468   4
  -1   4  -6 31605.2 644.169   3
  -1   4  -7 123404. 1138.99   4
  -1   4  -7 123204. 1391.83   3
   1  -4   7 123390. 1399.85   3
   1  -4   8 938.077 143.070   3
  -1   4  -8 1062.54 120.199   4
  -1   4  -9 118776. 1296.46   4
   1  -4   9 114230. 1556.31   3
   1  -4  10 21781.5 727.012   3
  -1   4 -10 22428.5 614.365   4
   1  -4  10 21703.3 695.513   2
   1  -4  11 14881.5 606.981   2
  -1   4 -11 16203.8 551.129   4
   1  -4  12 63913.6 1319.79   2
   1  -4  13 7207.96 465.602   2
   1  -4  14 4426.11 386.797   2
   1  -4  15 11105.4 626.465   2
  -1   3  13 482.225 174.035   1
  -1   3  12 6915.61 526.312   1
  -1   3  11 2116.56 286.311   1
  -1   3  10 3599.16 352.307   1
  -1   3   9 24193.2 837.846   1
  -1   3   8 23783.2 338.854   2
  -1   3   8 24217.6 793.899   1
   1  -3  -7 4419.78 277.888   3
  -1   3   7 4245.53 124.356   2
  -1   3   6 70051.8 1191.48   1
   1  -3  -6 70790.1 1007.56   3
   1  -3  -5 233.529 64.1258   3
  -1   3   5 243.223 91.6442   1
   1  -3  -4 4787.99 211.817   3
   1  -3  -4 5105.71 301.389   1
  -1   3   4 5264.00 292.143   1
   1  -3  -3 274811. 2014.91   1
   1  -3  -3 275436. 1358.44   3
   1  -3  -3 277998. 1647.68   6
   1  -3  -2 37975.2 689.055   1
   1  -3  -2 38418.6 608.323   6
  -1   3   2 38083.5 666.643   1
   1  -3  -2 38423.5 410.656   3
   1  -3  -1 80001.3 458.113   2
  -1   3   1 80885.6 919.794   1
   1  -3  -1 79100.7 394.764   3
   1  -3  -1 80397.0 861.083   6
   1  -3  -1 78110.3 929.924   1
   1  -3   0 38779.0 391.943   2
  -1   3   0 38747.7 612.822   1
   1  -3   0 38135.1 580.342   6
   1  -3   1 236759. 1423.32   6
   1  -3   1 239090. 1447.47   4
   1  -3   1 236002. 782.251   5
   1  -3   1 240567. 1145.23   2
   1  -3   2 195864. 1271.34   6
   1  -3   2 194631. 1263.23   4
  -1   3  -2 193467. 875.926   3
   1  -3   2 193075. 885.980   3
  -1   3  -3 58335.8 659.574   4
   1  -3   3 58213.7 715.391   4
  -1   3  -3 57226.1 600.234   3
   1  -3   3 58039.5 608.026   3
   1  -3   3 57491.9 678.261   6
  -1   3  -4 64663.0 742.639   3
   1  -3   4 65730.9 708.360   6
   1  -3   4 66185.3 753.329   3
  -1   3  -4 64299.5 720.494   4
  -1   3  -5 112989. 1103.11   3
  -1   3  -5 113606. 1030.63   4
   1  -3   5 114463. 1116.51   3
  -1   3  -6 174584. 1523.46   3
   1  -3   6 173927. 1520.59   3
  -1   3  -6 171747. 1397.36   4
   1  -3   7 7019.86 335.353   3
  -1   3  -7 7084.33 333.863   3
   1  -3   8 1703.22 176.855   2
  -1   3  -8 1340.22 164.690   3
   1  -3   8 1373.04 170.038   3
   1  -3   9 124594. 1616.23   3
   1  -3   9 126039. 1513.46   2
   1  -3  10 619.634 133.277   2
   1  -3  11 8678.40 450.138   2
   1  -3  12 26716.0 819.070   2
   1  -3  13 13234.1 605.935   2
   1  -3  14 16063.6 702.843   2
   1  -3  15 5145.67 419.401   2
  -1   2  13 15514.5 770.613   1
  -1   2  12 6970.33 498.562   1
  -1   2  11 422.736 148.802   1
  -1   2  10 15949.3 437.950   2
  -1   2  10 15466.4 672.942   1
  -1   2   9 89303.8 1523.94   1
  -1   2   9 90851.9 976.136   2
  -1   2   8 17410.2 630.411   1
  -1   2   8 17454.3 395.285   2
  -1   2   7 18787.6 610.867   1
   1  -2  -7 18072.1 547.456   3
  -1   2   7 17563.9 540.834   3
  -1   2   7 17073.2 357.750   2
  -1   2   6 170029. 1539.81   3
  -1   2   6 173290. 1013.50   2
  -1   2   6 169730. 1710.90   1
   1  -2  -6 173138. 1545.95   3
   1  -2  -5 541.658 65.8216   6
  -1   2   5 605.484 106.327   1
   1  -2  -5 601.382 89.3933   3
  -1   2   5 747.425 101.080   3
   1  -2  -4 149385. 1016.25   6
   1  -2  -4 148877. 1150.15   3
  -1   2   4 148448. 1341.15   1
   1  -2  -3 110887. 866.538   6
  -1   2   3 110914. 856.780   3
  -1   2   3 109431. 1035.86   1
   1  -2  -3 108465. 851.821   3
  -1   2   3 108849. 596.813   2
   1  -2  -2 38609.4 503.759   6
  -1   2   2 37788.0 550.163   1
   1  -2  -2 38526.6 575.386   1
  -1   2   2 38757.0 412.299   3
   1  -2  -2 37183.9 404.060   3
  -1   2   1 532976. 1867.45   1
   1  -2  -1 559452. 1165.06   3
  -1   2   1 565660. 1068.06   2
   1  -2  -1 581023. 1891.86   6
   1  -2   0 85377.2 716.234   6
  -1   2   0 86768.4 721.479   1
   1  -2   0 85670.1 519.276   2
   1  -2   1 59035.4 510.085   2
   1  -2   1 59136.6 577.550   6
  -1   2  -1 60394.7 598.176   4
  -1   2  -1 59577.7 375.487   3
   1  -2   2 244783. 1185.59   2
   1  -2   2 237343. 1273.25   4
   1  -2   2 242796. 1141.46   6
  -1   2  -2 239763. 1218.37   4
   1  -2   3 345575. 1501.29   3
   1  -2   3 344476. 1562.66   2
   1  -2   3 343992. 1316.34   6
   1  -2   4 55003.8 688.122   2
   1  -2   4 55597.5 696.830   3
   1  -2   4 55578.2 505.825   6
   1  -2   5 3787.47 125.232   6
   1  -2   5 3778.91 198.009   2
   1  -2   5 3692.08 204.132   3
   1  -2   6 269119. 1894.82   3
   1  -2   6 267661. 1764.07   2
   1  -2   7 10095.7 370.039   2
   1  -2   7 10506.5 410.035   3
   1  -2   8 48193.4 850.813   2
  -1   2  -8 49304.4 947.238   3
   1  -2   9 103508. 1324.94   2
   1  -2  10 3245.68 256.852   2
   1  -2  11 48650.4 1015.20   2
   1  -2  12 8190.94 446.787   2
   1  -2  13-150.091 129.234   2
   1  -2  14 17149.4 703.230   2
   1  -2  15 3643.18 347.125   2
   1  -2  15 3690.08 428.331   1
  -1   1  14 2060.99 288.169   1
  -1   1  13 4784.52 419.069   1
  -1   1  12 10436.6 584.459   1
  -1   1  12 9718.14 422.518   2
  -1   1  11 30853.3 710.536   2
  -1   1  11 32966.3 985.893   1
  -1   1  10 6243.54 306.365   2
  -1   1  10 6451.53 406.747   3
  -1   1   9 32206.8 837.817   3
  -1   1   9 32385.6 642.239   2
  -1   1   9 34010.2 899.065   1
  -1   1   8 62322.4 1084.63   3
  -1   1   8 63547.7 1136.97   1
  -1   1   7 89340.0 1259.18   1
  -1   1   7 91143.1 1213.66   3
   1  -1  -7 92978.6 1225.64   3
   1  -1  -6 11459.6 394.787   3
   1  -1  -6 11114.8 216.724   6
  -1   1   6 10998.1 389.465   3
  -1   1   6 11023.2 410.816   1
   1  -1  -5 2624.06 173.430   3
  -1   1   5 2835.49 189.654   1
   1  -1  -5 2893.82 114.442   6
  -1   1   5 2645.60 174.445   3
   1  -1  -4 542979. 2194.71   3
  -1   1   4 551106. 2200.93   3
  -1   1   3 21464.0 375.634   3
   1  -1  -3 20995.3 374.184   3
  -1   1   3 21695.8 387.218   1
   1  -1  -2 54033.8 499.225   3
  -1   1   2 56249.9 507.931   3
  -1   1   2 56177.5 506.625   1
   1  -1  -2 55589.9 536.046   1
   1  -1  -1 398633. 1105.59   1
   1  -1  -1 437702. 1188.96   3
   1  -1   0 606.106 46.1323   2
   1  -1   1 185777. 830.115   2
   1  -1   2 241882. 1081.91   2
   1  -1   3 153314. 977.209   2
   1  -1   4 77033.5 768.505   2
   1  -1   5 182877. 1292.80   2
   1  -1   6 37883.4 637.499   2
   1  -1   7 46642.5 756.653   2
  -1   1  -8 103856. 1390.15   3
   1  -1   8 103111. 1199.95   2
   1  -1   9 37237.8 771.993   2
   1  -1  10 72915.2 1142.92   2
   1  -1  11 21471.1 660.515   2
   1  -1  12 5802.86 367.265   2
   1  -1  13 1705.27 218.690   2
   1  -1  13 1580.98 273.133   1
   1  -1  14 15961.6 660.873   2
   1  -1  14 15432.6 840.946   1
  -1   0  14 24334.4 958.707   1
  -1   0  13 1254.32 226.137   1
  -1   0  13 1294.49 184.924   2
  -1   0  12 8733.79 430.575   2
  -1   0  12 9225.84 542.440   1
  -1   0  12 9265.45 542.762   3
  -1   0  11 37421.0 828.222   2
  -1   0  11 37691.8 1026.59   3
  -1   0  11 38271.7 1028.52   1
  -1   0  10 27359.1 821.560   3
  -1   0  10 27190.5 828.133   1
  -1   0   9 1213.84 172.908   3
   1   0  -8 49916.4 963.476   3
  -1   0   8 48608.1 950.117   3
   1   0  -7 133955. 1464.71   3
  -1   0   7 132526. 1454.30   3
  -1   0   6 15336.2 453.099   3
   1   0  -6 15549.3 459.929   3
  -1   0   5 164950. 1345.90   3
  -1   0   4 149290. 1148.67   3
  -1   0   3 258.535 49.5812   3
  -1   0   2 311348. 1277.88   3
  -1   0   1 21323.6 236.592   4
  -1   0  -2 349969. 1236.38   2
   1   0   2 359477. 1276.90   2
   1   0   3 15846.4 297.911   2
  -1   0  -3 15484.8 289.467   2
   1   0   4 241652. 1284.90   2
   1   0   5 61087.9 710.398   2
  -1   0  -5 60335.9 850.701   3
   1   0   6 2395.87 69.5152   6
  -1   0  -6 2572.85 197.618   3
  -1   0  -7 146093. 1570.87   3
   1   0   7 144006. 1279.76   2
   1   0   8 24718.4 570.228   2
   1   0   9 12852.2 617.842   1
   1   0   9 12997.1 447.047   2
   1   0  10 11556.6 616.677   1
   1   0  10 11878.3 453.856   2
   1   0  11 29441.4 1049.04   1
   1   0  11 30403.8 765.326   2
   1   0  12 13836.1 755.693   1
   1   0  12 13550.4 538.891   2
   1   0  13 1373.83 270.316   1
   1   0  14 14476.6 834.294   1
  -1  -1  14 16668.1 677.411   2
  -1  -1  14 16252.7 765.013   1
  -1  -1  13 2771.16 311.104   1
  -1  -1  13 2902.18 277.197   2
  -1  -1  13 2820.60 327.489   3
  -1  -1  12 18368.7 754.988   3
  -1  -1  11 42537.2 1080.64   3
  -1  -1  10 46443.2 1062.40   3
  -1  -1   9 67486.8 1203.65   3
  -1  -1   8 92312.4 1311.63   3
   1   1  -8 92599.4 1312.48   3
  -1  -1   7 6479.16 324.706   3
  -1  -1   6 100215. 1167.43   3
  -1  -1   5 182024. 1434.50   3
  -1  -1   4 95381.2 944.147   3
  -1  -1   3 251662. 1396.03   3
  -1  -1   2 158994. 1009.01   3
  -1  -1   1 138271. 903.535   3
   1   1  -1 138898. 786.365   1
   1   1   0 1067.86 84.6031   1
   1   1   1 642671. 2312.56   1
  -1  -1  -1 628139. 1845.13   2
  -1  -1  -2 1718.00 90.1463   2
  -1  -1  -2 2319.01 141.698   5
   1   1   2 2271.56 164.616   1
   1   1   2 1897.68 104.928   2
  -1  -1  -3 4767.70 152.734   2
   1   1   3 4765.96 165.400   2
   1   1   3 4598.60 256.274   1
  -1  -1  -4 498683. 2290.46   3
   1   1   4 488985. 1787.95   2
   1   1   5 1742.51 101.759   6
  -1  -1  -5 1495.75 144.346   3
   1   1   5 2009.68 130.210   2
   1   1   5 1597.67 188.145   1
   1   1   6 28348.0 798.911   1
   1   1   6 28146.7 388.739   6
  -1  -1  -6 28788.1 667.887   3
   1   1   6 28028.5 507.346   2
  -1  -1  -7 46742.6 911.772   3
   1   1   7 44420.7 1073.28   1
   1   1   7 44995.3 698.466   2
   1   1   8 41078.6 712.568   2
   1   1   8 40538.1 1084.26   1
   1   1   9 53752.7 874.846   2
   1   1   9 54502.7 1322.02   1
   1   1  10 6416.13 487.301   1
   1   1  10 6375.15 320.568   2
   1   1  11 17415.0 836.109   1
   1   1  11 17236.7 550.149   2
   1   1  12 7012.63 558.254   1
   1   1  13 9411.89 665.272   1
  -1  -2  15 5451.85 423.257   2
  -1  -2  14 14828.4 656.395   2
  -1  -2  14 15171.9 767.782   3
  -1  -2  13 4635.05 415.176   3
  -1  -2  12 13918.7 659.305   3
  -1  -2  11 44405.2 1101.58   3
  -1  -2  10 25987.1 801.290   3
   1   2  -9 125697. 740.867   6
  -1  -2   9 131357. 1677.44   3
   1   2  -8 9969.93 238.041   6
   1   2  -8 9813.54 425.812   3
  -1  -2   8 8949.59 414.383   3
  -1  -2   7 13001.0 458.742   3
  -1  -2   6 262805. 1906.26   3
  -1  -2   5 378.215 75.4411   3
  -1  -2   4 1371.06 122.626   3
  -1  -2   3 314120. 1614.17   3
  -1  -2   3 301480. 1533.68   1
  -1  -2   2 237698. 1325.28   3
   1   2  -2 229761. 1374.03   3
  -1  -2   1 126499. 969.828   3
   1   2  -1 127327. 1022.48   5
  -1  -2   0 116230. 1005.12   5
   1   2   0 116705. 1072.16   1
   1   2   1 361181. 2067.26   1
  -1  -2  -1 354988. 1558.56   2
  -1  -2  -2 59623.7 809.629   5
  -1  -2  -2 60261.9 559.267   2
   1   2   2 60347.3 926.492   1
  -1  -2  -3 136467. 791.014   2
   1   2   3 140113. 969.715   2
   1   2   3 139087. 1525.05   1
   1   2   4 13974.5 527.339   1
  -1  -2  -4 12964.7 387.802   3
   1   2   4 14217.0 323.270   2
   1   2   4 13401.0 347.050   6
  -1  -2  -4 13051.2 253.276   2
   1   2   5 9314.60 460.402   1
   1   2   5 8849.88 282.893   6
   1   2   5 9587.96 279.760   2
  -1  -2  -5 8917.62 351.105   3
   1   2   6 158882. 1178.70   6
  -1  -2  -6 162570. 1621.77   3
   1   2   6 162162. 1194.12   2
   1   2   7 14865.5 358.801   6
   1   2   7 14489.6 645.617   1
  -1  -2  -7 15417.7 534.667   3
   1   2   7 15170.6 390.430   2
   1   2   8 935.313 107.886   2
   1   2   8 1226.24 218.943   1
   1   2   9 47571.6 1302.41   1
   1   2   9 49883.7 790.344   2
   1   2  10 6323.48 508.268   1
   1   2  11 3558.98 405.299   1
   1   2  12 7044.68 581.306   1
  -1  -3  15 6305.83 472.785   2
  -1  -3  14 9285.44 607.300   3
  -1  -3  13 17834.4 798.621   3
  -1  -3  12 40234.6 1126.53   3
  -1  -3  11-53.6949 105.821   3
   1   3 -10 3211.80 146.957   4
   1   3 -10 3234.14 154.735   6
  -1  -3  10 3125.28 286.090   3
   1   3  -9 120571. 1003.37   6
  -1  -3   9 121262. 1628.04   3
   1   3  -8 2190.44 147.753   6
  -1  -3   8 2305.86 216.680   3
  -1  -3   7 24696.5 645.139   3
   1   3  -7 26304.8 669.550   3
   1   3  -6 122178. 1342.63   3
  -1  -3   6 121907. 1330.45   3
  -1  -3   5 112289. 1186.35   3
   1   3  -5 111445. 1194.20   3
  -1  -3   4 179816. 802.618   4
  -1  -3   4 188841. 1432.31   3
  -1  -3   4 188617. 1467.63   1
   1   3  -4 182732. 1445.42   3
   1   3  -3 52425.4 744.519   3
  -1  -3   3 51791.6 701.629   3
  -1  -3   3 52057.4 755.653   1
  -1  -3   2 76987.3 808.625   3
   1   3  -2 76533.5 955.911   1
   1   3  -2 76325.5 869.563   5
   1   3  -1 157994. 1229.33   5
  -1  -3   1 154166. 1162.36   3
   1   3  -1 154361. 1384.78   1
   1   3   0 87501.9 1099.72   1
  -1  -3   0 87942.5 996.929   5
  -1  -3  -1 6916.09 234.905   2
   1   3   1 7090.77 336.976   1
  -1  -3  -1 6797.33 287.956   5
   1   3   2 66907.4 1105.29   1
  -1  -3  -2 66972.5 646.386   2
  -1  -3  -2 67671.7 965.121   5
  -1  -3  -3 207238. 954.769   2
   1   3   3 211660. 2069.69   1
  -1  -3  -3 214971. 1852.50   5
   1   3   3 210513. 1604.68   6
   1   3   4 1318.91 134.975   6
  -1  -3  -4 1438.70 140.077   3
  -1  -3  -4 1467.02 192.030   1
   1   3   4 1500.78 203.749   1
  -1  -3  -4 1535.51 174.686   5
  -1  -3  -5 5088.50 275.535   3
   1   3   5 5018.72 366.981   1
   1   3   5 4478.45 241.543   6
  -1  -3  -6 42380.2 849.496   3
   1   3   6 40645.2 713.260   6
   1   3   6 41011.4 1094.99   1
   1   3   7 330.251 121.511   1
   1   3   7 578.357 93.7613   6
   1   3   8 30323.7 471.335   2
   1   3   8 27949.8 1006.23   1
   1   3   9 20474.9 904.640   1
   1   3  10 1214.41 250.709   1
   1   3  11 1355.06 270.522   1
  -1  -4  15 11608.0 649.493   2
  -1  -4  14 16446.3 809.526   3
  -1  -4  13 4065.40 390.177   3
  -1  -4  12 49962.7 1261.58   3
   1   4 -11 31583.5 567.991   6
  -1  -4  11 31788.3 954.683   3
   1   4 -10 38628.1 670.727   6
  -1  -4  10 38132.3 991.487   3
   1   4  -9 44800.0 741.383   6
  -1  -4   9 46158.0 1016.66   3
   1   4  -8 5936.98 280.271   6
  -1  -4   8 5621.26 339.150   3
   1   4  -7 179073. 1788.04   3
  -1  -4   7 176394. 1753.48   3
   1   4  -7 174702. 1517.67   6
  -1  -4   6 33419.2 717.886   3
   1   4  -6 33778.9 735.649   3
  -1  -4   6 33310.2 721.242   1
  -1  -4   5 194.265 70.7257   3
  -1  -4   5 110.047 32.2191   4
  -1  -4   5 81.3136 48.4680   1
   1   4  -4 274479. 1915.97   3
  -1  -4   4 276008. 1406.85   4
  -1  -4   3 55439.6 759.986   3
  -1  -4   3 56066.5 909.749   1
   1   4  -3 54878.6 801.913   5
   1   4  -3 55984.3 836.639   3
   1   4  -2 22270.2 498.612   5
   1   4  -2 22047.2 597.434   1
  -1  -4   2 22423.5 465.332   3
  -1  -4   1 125365. 1116.41   3
   1   4  -1 126476. 1469.89   1
   1   4  -1 126979. 1217.20   5
   1   4   0 164161. 1731.85   1
   1   4   0 165608. 1583.00   6
  -1  -4   0 162775. 1325.92   3
   1   4   1 17230.3 588.964   1
  -1  -4  -1 16211.4 389.625   2
  -1  -4  -1 16144.6 502.186   5
   1   4   1 17646.7 524.281   6
   1   4   2 99519.2 1266.02   6
  -1  -4  -2 101960. 1308.72   5
  -1  -4  -2 104102. 1497.01   1
  -1  -4  -2 101976. 838.504   2
   1   4   2 101331. 1505.39   1
   1   4   3 33615.4 917.589   1
   1   4   3 32706.3 721.929   6
  -1  -4  -3 33605.2 804.405   5
  -1  -4  -3 32330.5 604.552   3
  -1  -4  -3 31980.3 344.759   2
  -1  -4  -4 14563.4 442.168   3
   1   4   4 14501.9 489.158   6
   1   4   4 15658.6 663.704   1
   1   4   5 57840.5 976.090   6
   1   4   5 59187.5 1345.11   1
  -1  -4  -5 58801.6 953.666   3
  -1  -4  -6 34492.3 779.280   3
   1   4   6 34112.4 747.998   6
   1   4   6 35042.2 1086.02   1
   1   4   7 4413.57 273.556   6
   1   4   7 4920.25 436.896   1
   1   4   8 7218.73 548.523   1
   1   4   9 7896.39 592.450   1
   1   4  10 498.838 189.958   1
  -1  -5  14 24024.2 983.852   3
  -1  -5  13 8863.40 576.661   3
  -1  -5  12 5563.09 431.743   3
   1   5 -11 25845.8 618.208   6
  -1  -5  11 25956.9 878.204   3
   1   5 -10 52116.1 903.632   6
  -1  -5  10 53329.0 1193.27   3
  -1  -5   9 763.357 151.298   3
   1   5  -9 847.529 127.748   6
   1   5  -8 17282.3 535.827   6
  -1  -5   8 17014.8 594.613   3
   1   5  -7 67459.8 1137.80   3
   1   5  -7 64236.5 1045.72   6
  -1  -5   7 64850.4 1098.95   3
   1   5  -6 286.542 92.9227   3
  -1  -5   6 262.293 87.4545   1
  -1  -5   6 266.341 85.5558   3
  -1  -5   6 490.399 64.7692   4
   1   5  -6 223.296 79.1630   6
  -1  -5   5 76052.3 1043.00   3
   1   5  -5 76165.5 1112.37   3
   1   5  -5 74995.9 1155.26   6
  -1  -5   5 76340.2 829.761   4
  -1  -5   5 78872.4 1217.23   1
  -1  -5   4 131651. 1573.59   1
   1   5  -4 130660. 1531.28   6
   1   5  -4 129649. 1300.74   5
  -1  -5   4 131123. 1191.40   4
   1   5  -4 130531. 1410.78   3
  -1  -5   4 131864. 1302.79   3
  -1  -5   3 522.317 89.4354   3
  -1  -5   3 571.666 119.312   1
   1   5  -3 462.391 84.4935   5
  -1  -5   2 29449.0 564.257   3
   1   5  -2 29276.7 740.796   6
   1   5  -2 28291.1 766.887   1
  -1  -5   2 31028.4 785.878   1
   1   5  -1 123279. 1651.37   1
  -1  -5   1 125024. 1145.75   3
   1   5  -1 124364. 1543.96   6
   1   5   0 3583.62 298.654   1
  -1  -5   0 3511.34 203.648   3
   1   5   0 3920.60 282.702   6
   1   5   1 81605.8 1435.10   1
  -1  -5  -1 79788.8 1022.93   3
  -1  -5  -1 81757.8 1251.53   5
   1   5   1 80431.8 1250.84   6
  -1  -5  -1 80836.1 939.246   2
   1   5   2 40593.0 1053.50   1
   1   5   2 40253.3 896.775   6
  -1  -5  -2 41801.0 928.824   5
  -1  -5  -2 41302.7 530.062   2
   1   5   3 6139.99 359.499   6
   1   5   3 5954.13 428.452   1
  -1  -5  -3 5958.90 267.668   3
   1   5   4 86681.0 1683.23   1
   1   5   4 84388.5 1319.95   6
  -1  -5  -4 85832.2 1083.94   3
  -1  -5  -5 1226.29 143.553   3
   1   5   5 1346.15 176.247   6
   1   5   5 1716.46 259.394   1
   1   5   6 10418.2 647.768   1
   1   5   6 10205.2 465.883   6
   1   5   7 17261.0 865.945   1
   1   5   8 15424.5 845.314   1
   1   5   9 457.338 183.530   1
  -1  -6  14 15387.8 802.354   3
  -1  -6  13 6187.72 490.078   3
  -1  -6  12 4144.50 381.406   3
   1   6 -12 4481.22 288.990   6
  -1  -6  11 47209.9 1211.90   3
   1   6 -11 46506.7 942.744   6
   1   6 -10 7538.04 391.299   6
  -1  -6  10 7252.63 456.656   3
   1   6  -9 4145.72 296.431   6
  -1  -6   9 3712.84 312.626   3
   1   6  -8 66190.9 1179.42   6
  -1  -6   8 66412.3 1201.49   3
   1   6  -7 58665.0 1113.16   6
   1   6  -7 62270.5 1146.63   3
  -1  -6   7 59878.1 1080.76   3
   1   6  -6 7551.05 409.927   6
   1   6  -6 8172.44 401.207   3
  -1  -6   6 8323.67 304.125   4
  -1  -6   6 7789.59 369.910   3
  -1  -6   5 25489.0 624.920   3
   1   6  -5 24145.3 729.473   6
   1   6  -5 26098.5 693.279   3
   1   6  -5 24330.6 594.986   5
  -1  -6   5 25435.6 573.240   4
  -1  -6   4 65153.7 941.360   3
   1   6  -4 66709.1 961.429   5
  -1  -6   4 64939.0 993.352   4
   1   6  -4 65447.4 1201.10   6
  -1  -6   3 65571.2 879.180   3
   1   6  -3 64446.3 1208.03   6
   1   6  -2 87739.1 1505.83   1
   1   6  -2 89609.7 1424.90   6
  -1  -6   2 87541.6 959.894   3
   1   6  -1 24124.0 751.347   6
  -1  -6   1 24488.0 504.143   3
   1   6  -1 24563.4 824.350   1
   1   6   0 349.397 127.873   1
  -1  -6   0 56.4393 43.4027   3
  -1  -6   0 420.467 86.4670   2
   1   6   0 236.005 102.857   6
   1   6   1 84082.3 1612.79   1
  -1  -6  -1 81928.0 991.338   3
   1   6   1 83193.3 1420.00   6
  -1  -6  -1 87102.4 982.355   2
   1   6   2 702.378 153.293   6
   1   6   2 525.418 159.858   1
  -1  -6  -2 517.037 95.7577   3
  -1  -6  -2 667.256 60.7957   2
   1   6   3 711.788 185.952   1
   1   6   3 577.263 135.581   6
   1   6   4 11749.0 679.055   1
   1   6   4 11427.9 536.497   6
   1   6   5 14248.4 772.583   1
   1   6   5 13907.0 595.597   6
   1   6   6 7502.18 589.011   1
   1   6   7 6663.97 570.740   1
  -1  -7  13 293.371 151.627   3
  -1  -7  12 11691.3 643.238   3
   1   7 -12 12478.2 538.421   6
   1   7 -11 19777.4 685.440   6
  -1  -7  11 20032.2 807.793   3
   1   7 -10 5372.07 368.623   6
  -1  -7  10 5732.05 413.884   3
  -1  -7   9 56898.2 1215.35   3
   1   7  -9 55113.0 1171.37   6
  -1  -7   8 8413.72 443.201   3
   1   7  -8 8164.96 459.296   6
  -1  -7   7 9327.84 434.852   3
  -1  -7   7 9214.83 340.467   4
   1   7  -7 8413.53 367.637   5
   1   7  -7 8596.08 475.764   6
   1   7  -6 90934.5 1160.36   5
  -1  -7   6 92476.8 1185.07   4
  -1  -7   6 91945.4 1277.11   3
   1   7  -6 91656.2 1546.70   6
  -1  -7   5 91038.4 1263.01   4
   1   7  -5 91706.3 1562.72   6
  -1  -7   5 93689.9 1202.18   3
   1   7  -5 94238.4 1170.20   5
  -1  -7   4 4942.66 259.302   3
  -1  -7   4 5046.56 325.251   4
   1   7  -4 4969.52 372.580   6
   1   7  -3 5302.65 389.916   6
  -1  -7   3 5286.36 248.287   3
  -1  -7   2 73528.4 861.056   3
   1   7  -2 72153.6 1415.97   6
  -1  -7   1 16022.9 379.442   3
   1   7  -1 15616.9 668.537   6
   1   7  -1 16405.4 747.046   1
   1   7   0 15238.0 663.257   6
  -1  -7   0 14621.9 355.022   3
   1   7   1 42294.5 1115.45   6
   1   7   1 44521.2 1298.49   1
   1   7   2 869.504 182.302   6
   1   7   2 599.947 180.500   1
   1   7   3 23134.3 829.020   6
   1   7   3 23325.8 995.540   1
   1   7   4 11427.3 590.796   6
   1   7   4 11628.2 732.294   1
   1   7   5 5267.67 514.999   1
  -1  -8  13 628.696 179.785   3
   1   8 -12 37023.5 1018.14   6
  -1  -8  12 36592.0 1146.38   3
   1   8 -11 527.813 143.322   6
  -1  -8  11 365.183 132.017   3
  -1  -8  10 198.276 97.9717   3
   1   8 -10 342.136 126.375   6
   1   8  -9 60678.5 1355.86   6
  -1  -8   9 63163.3 1285.68   3
   1   8  -8 5092.07 401.094   6
  -1  -8   8 5480.81 362.488   3
   1   8  -7 11513.2 601.887   6
  -1  -8   7 11668.3 487.402   3
  -1  -8   6 27703.4 738.235   4
   1   8  -6 26460.1 915.909   6
  -1  -8   6 26791.4 684.589   3
   1   8  -5 9236.07 547.005   6
  -1  -8   5 9329.62 456.451   4
  -1  -8   4 28847.3 852.645   4
   1   8  -4 28193.8 957.258   6
  -1  -8   3 15598.7 658.566   4
   1   8  -3 16385.8 733.641   6
   1   8  -2 10112.3 586.901   6
   1   8  -1 5841.37 448.928   6
   1   8   0 24009.0 911.447   6
   1   8   0 24357.5 1018.69   1
   1   8   1 4772.26 474.748   1
   1   8   1 4774.48 420.351   6
   1   8   2 3884.43 442.238   1
   1   8   2 3694.59 371.375   6
   1   8   3 15604.5 749.472   6
   1   9 -11 667.076 167.572   6
   1   9 -10 15836.8 749.293   6
   1   9  -9 8087.80 540.120   6
   1   9  -8 338.435 144.995   6
   1   9  -7 24875.0 959.672   6
   1   9  -6 11434.3 652.174   6
   1   9  -5 15.1539 121.257   6
   1   9  -4 17805.1 823.937   6
  -1  -9   4 17797.2 743.595   4
  -1  -9   3 18874.0 801.854   4
   1   9  -3 19317.2 864.689   6
  -1  -9   2 713.549 181.556   4
   1   9  -2 485.256 167.389   6
   2 -11   3 11436.5 723.465   4
   2 -11   4 116.451 124.890   4
   2 -10   0 9368.66 653.421   4
   2 -10   1 6395.45 526.937   4
   2 -10   2 5907.38 500.858   4
   2 -10   3 35784.8 1186.01   4
   2 -10   4 10844.2 642.045   4
   2 -10   5 6717.69 496.996   4
   2 -10   5 6834.20 412.834   2
   2 -10   6 12127.8 655.465   4
   2 -10   6 12024.3 578.404   2
   2 -10   7 1147.27 201.962   2
   2 -10   8 42215.1 1180.95   2
   2 -10   9 203.528 135.062   2
   2  -9  -2 19031.9 907.661   4
   2  -9  -1 2491.78 330.813   4
   2  -9   0 20486.9 882.395   4
   2  -9   1 31199.5 1055.29   4
   2  -9   2 13296.8 677.675   4
   2  -9   3 212.603 81.4915   2
   2  -9   3 34.8029 92.4678   4
   2  -9   4 9693.14 552.757   4
   2  -9   4 9797.95 454.406   2
   2  -9   5 60213.5 1358.81   4
   2  -9   5 62735.6 1210.82   2
   2  -9   6 591.395 144.796   4
   2  -9   6 861.920 167.115   2
   2  -9   7 3857.42 335.352   2
   2  -9   7 4106.23 352.242   4
   2  -9   8 37244.1 1073.70   2
   2  -9   9 338.658 129.899   2
   2  -9  10 7963.39 539.772   2
   2  -9  11 13712.2 727.172   2
  -2   8   6 526.946 186.744   1
  -2   8   5 32120.3 1129.41   1
  -2   8   4-6.20733 95.9206   1
  -2   8   3-1.51458 112.750   1
   2  -8  -3 170.427 134.150   4
   2  -8  -2 57222.4 1443.36   4
   2  -8  -1 9863.14 587.693   4
   2  -8   0 6614.15 465.032   4
   2  -8   0 6380.23 241.339   2
   2  -8   1 56390.0 823.393   2
   2  -8   1 56250.2 1298.70   4
   2  -8   2 37347.3 739.504   2
   2  -8   2 36434.6 1010.93   4
   2  -8   3 19580.5 578.323   2
   2  -8   3 19087.6 717.047   4
   2  -8   4 39290.7 864.060   2
   2  -8   4 38020.6 997.566   4
   2  -8   5 17280.6 610.055   2
   2  -8   5 16713.7 656.551   4
   2  -8   6 9751.98 502.235   4
   2  -8   6 9687.48 480.469   2
   2  -8   7 61698.6 1259.15   4
   2  -8   7 61277.7 1259.45   2
   2  -8   8 28439.2 903.305   2
   2  -8   9 2392.70 285.830   2
   2  -8  10 30668.7 1003.59   2
   2  -8  11 22263.9 884.690   2
   2  -8  12 2538.69 323.869   2
  -2   7   8 10100.1 646.271   1
  -2   7   7 229.103 149.142   1
  -2   7   6 581.754 181.457   1
  -2   7   5 24505.3 913.109   1
  -2   7   4 728.322 171.905   1
  -2   7   3 18670.7 746.611   1
   2  -7  -2 20561.0 608.484   5
  -2   7   2 20688.1 767.554   1
   2  -7  -1 4857.37 274.237   5
   2  -7  -1 4208.97 149.126   2
   2  -7  -1 4473.20 363.545   4
   2  -7   0 39898.0 699.329   5
   2  -7   0 39515.2 1027.24   4
   2  -7   0 41316.3 610.086   2
   2  -7   1 32391.8 601.972   2
   2  -7   1 32169.4 889.037   4
   2  -7   2 171.392 97.0626   4
   2  -7   2 118.882 56.9015   2
   2  -7   3 37134.5 752.215   2
   2  -7   3 34966.1 879.958   4
  -2   7  -4 22050.2 393.584   3
   2  -7   4 22521.4 621.017   2
   2  -7   4 21334.2 684.622   4
   2  -7   5 4209.50 287.739   2
   2  -7   5 4131.84 308.149   4
  -2   7  -5 4302.48 210.325   3
  -2   7  -6 30524.2 635.959   3
   2  -7   6 30941.3 810.245   2
   2  -7   6 29428.7 816.259   4
  -2   7  -7 25355.2 636.331   3
   2  -7   7 26203.7 781.173   2
  -2   7  -8 2437.06 217.520   3
   2  -7   8 2336.09 252.854   2
   2  -7   9 38703.5 1038.78   2
   2  -7  10 32703.9 984.649   2
   2  -7  11 4100.64 373.068   2
   2  -7  12 3493.86 358.211   2
   2  -7  13 41314.7 1237.56   2
  -2   6  10 3743.86 395.370   1
  -2   6   9 4794.09 430.408   1
  -2   6   8 6578.66 485.561   1
  -2   6   7 13164.6 654.756   1
  -2   6   6 42414.4 1132.63   1
  -2   6   5 33353.7 958.290   1
   2  -6  -4 26687.1 402.297   3
  -2   6   4 27117.0 842.234   1
  -2   6   3 47578.1 1076.86   1
  -2   6   2 26909.5 780.027   1
  -2   6   1 50236.6 1030.64   1
   2  -6  -1 49805.3 1071.15   4
   2  -6  -1 51358.4 572.882   2
   2  -6   0 99912.0 989.871   5
   2  -6   0 101753. 1479.95   4
   2  -6   0 101724. 918.938   2
   2  -6   1 35731.9 506.322   5
   2  -6   1 34520.1 587.295   2
   2  -6   1 34395.0 832.152   4
   2  -6   2 6748.46 361.946   4
   2  -6   2 7107.66 291.313   2
   2  -6   3 241023. 2096.30   4
  -2   6  -3 239140. 1086.17   3
   2  -6   3 239792. 1805.58   2
   2  -6   4 7692.95 375.088   6
  -2   6  -4 7104.98 240.426   3
   2  -6   4 7117.77 334.874   2
   2  -6   4 7428.77 374.682   4
  -2   6  -5 12673.6 373.474   3
   2  -6   5 13415.1 482.202   2
   2  -6   5 12366.8 487.873   4
  -2   6  -6 236348. 1778.49   3
   2  -6   6 241639. 2131.79   2
  -2   6  -7 29663.9 693.035   3
  -2   6  -7 30205.5 672.427   4
  -2   6  -7 27736.5 301.739   5
   2  -6   7 29947.9 791.032   2
  -2   6  -8 41366.0 787.714   4
   2  -6   8 41190.3 966.573   2
  -2   6  -8 41200.3 881.987   3
   2  -6   9 40961.6 1011.01   2
  -2   6  -9 41623.7 795.408   4
   2  -6  10 78668.5 1453.87   2
  -2   6 -10 75973.9 1104.27   4
   2  -6  11 29937.3 936.730   2
   2  -6  12 10622.7 585.310   2
   2  -6  13 13719.3 689.136   2
   2  -6  14 1461.76 249.979   2
  -2   5  11 27.4318 98.6015   1
  -2   5  10 3402.40 356.152   1
  -2   5   9 20127.0 808.940   1
  -2   5   8 1353.74 218.117   1
  -2   5   7 18353.1 711.114   1
   2  -5  -6 10001.1 377.759   3
  -2   5   6 10120.1 502.661   1
  -2   5   5 968.808 170.165   1
   2  -5  -5 925.268 109.801   3
   2  -5  -4 133116. 1066.60   3
  -2   5   4 132807. 1648.49   1
   2  -5  -3 15411.8 509.116   6
   2  -5  -3 15805.1 582.928   1
   2  -5  -3 14680.5 291.722   3
  -2   5   3 15934.8 550.974   1
   2  -5  -2 5093.38 293.437   6
  -2   5   2 4908.38 302.077   1
   2  -5  -2 5379.09 329.960   1
   2  -5  -1 19269.9 598.577   1
   2  -5  -1 17467.3 531.917   6
  -2   5   1 17625.3 550.574   1
   2  -5  -1 18091.4 339.763   2
   2  -5  -1 17547.8 569.295   4
   2  -5   0 136812. 1011.92   2
   2  -5   0 139352. 1569.13   1
   2  -5   0 140514. 1474.50   6
   2  -5   0 139265. 1550.79   4
   2  -5   1 27291.9 641.021   6
   2  -5   1 26697.4 488.903   2
   2  -5   1 26220.2 361.661   5
   2  -5   1 27252.6 689.774   1
   2  -5   1 25988.9 651.906   4
   2  -5   2 13497.9 448.630   6
  -2   5  -2 12637.3 198.694   3
   2  -5   2 13405.2 486.639   1
   2  -5   2 13010.8 452.689   4
   2  -5   2 13478.7 373.242   2
  -2   5  -3 128248. 874.087   3
   2  -5   3 128955. 1236.35   2
   2  -5   3 127205. 1366.67   6
   2  -5   3 126391. 1405.28   4
   2  -5   4 707.918 106.138   6
   2  -5   4 738.242 118.687   4
  -2   5  -4 722.161 105.500   4
   2  -5   4 1002.21 122.555   2
  -2   5  -5 212801. 1534.28   3
  -2   5  -5 212964. 1697.00   4
   2  -5   5 215553. 1810.94   2
   2  -5   5 215132. 1742.29   6
   2  -5   6 33081.3 749.128   2
   2  -5   6 32431.6 664.975   6
  -2   5  -6 32681.5 381.453   5
  -2   5  -6 32599.2 667.599   3
  -2   5  -6 32723.4 665.146   4
  -2   5  -7 24127.8 628.109   3
   2  -5   7 24494.1 680.516   2
  -2   5  -7 24023.5 589.596   4
  -2   5  -8 108540. 1308.00   4
  -2   5  -8 111391. 1446.62   3
   2  -5   8 107327. 1492.39   2
  -2   5  -9 3819.21 258.457   4
   2  -5   9 3614.51 294.209   2
  -2   5 -10 3099.17 248.606   4
   2  -5  10 3059.50 282.497   2
   2  -5  11 27126.2 856.300   2
   2  -5  12 35365.1 1011.35   2
   2  -5  13 1589.47 241.325   2
   2  -5  14 7293.38 508.356   2
  -2   4  12 4410.97 409.421   1
  -2   4  11 3484.44 349.226   1
  -2   4  10 31040.1 978.591   1
  -2   4   9 615.398 149.952   1
  -2   4   8 1417.52 198.505   1
   2  -4  -7 107488. 1366.31   3
  -2   4   7 104572. 1546.25   1
   2  -4  -6 3971.13 244.769   3
  -2   4   6 3846.28 286.167   1
   2  -4  -5 34452.3 646.602   3
   2  -4  -5 35916.8 877.591   1
   2  -4  -5 33295.2 683.237   6
  -2   4   5 34338.1 790.160   1
   2  -4  -4 12456.0 412.080   6
  -2   4   4 12257.5 445.635   1
   2  -4  -4 12706.7 348.561   3
   2  -4  -3 101947. 1310.80   1
  -2   4   3 99696.5 806.472   3
  -2   4   3 100764. 1208.98   1
   2  -4  -3 101955. 1162.91   6
   2  -4  -3 99465.7 842.348   3
   2  -4  -2 197975. 1595.55   6
   2  -4  -2 191489. 976.886   3
  -2   4   2 194806. 1613.86   1
   2  -4  -2 193354. 1698.50   1
  -2   4   2 195484. 887.267   3
   2  -4  -1 49482.1 829.430   1
   2  -4  -1 50298.6 559.873   2
   2  -4  -1 49525.6 789.812   6
  -2   4   1 49776.4 793.007   1
   2  -4   0 170420. 1087.43   2
   2  -4   0 173575. 1521.07   1
   2  -4   1 70690.1 747.352   2
   2  -4   1 71692.3 967.414   4
   2  -4   1 72172.0 926.388   6
   2  -4   1 72203.1 989.374   1
  -2   4  -1 68705.9 392.346   3
   2  -4   2 362770. 1817.58   2
  -2   4  -2 367579. 2093.43   4
   2  -4   2 361624. 2059.11   6
  -2   4  -2 364555. 1288.60   3
   2  -4   3 8793.34 317.613   6
   2  -4   3 8643.64 302.809   2
  -2   4  -3 8617.53 322.216   4
   2  -4   3 8451.00 340.732   4
  -2   4  -3 8675.67 246.277   3
   2  -4   4 2146.75 159.398   6
  -2   4  -4 2452.38 151.931   3
   2  -4   4 2123.09 165.975   2
  -2   4  -4 2296.35 170.876   4
   2  -4   4 2233.41 183.726   4
   2  -4   5 221296. 1726.68   2
   2  -4   5 219488. 1543.17   6
  -2   4  -5 218789. 1029.55   5
  -2   4  -5 219125. 1582.99   3
  -2   4  -5 220051. 1691.66   4
   2  -4   6 4305.17 211.854   6
  -2   4  -6 4477.25 257.839   4
   2  -4   6 4318.17 264.053   2
  -2   4  -6 4692.30 256.553   3
  -2   4  -7 57560.2 975.539   4
   2  -4   7 56929.5 741.832   6
   2  -4   7 57351.7 988.925   2
  -2   4  -7 58841.9 980.626   3
   2  -4   8 139454. 1603.93   2
  -2   4  -8 139543. 1622.21   4
  -2   4  -8 143213. 1634.79   3
  -2   4  -9 28205.7 777.194   4
   2  -4   9 28861.8 768.818   2
   2  -4  10 4469.21 325.473   2
  -2   4 -10 5494.99 366.577   4
   2  -4  11 32551.5 895.704   2
  -2   4 -11 33226.2 936.455   4
   2  -4  12 5631.88 400.608   2
   2  -4  13 15362.8 682.257   2
   2  -4  14 11842.9 631.087   2
   2  -4  15 4890.80 427.864   2
  -2   3  12 11634.7 616.156   1
  -2   3  11 2634.54 286.533   1
  -2   3  10 58596.4 1260.28   1
  -2   3   9 6752.83 231.086   2
  -2   3   9 6060.60 388.368   1
  -2   3   8 31263.3 469.029   2
  -2   3   8 31292.6 786.859   3
  -2   3   8 31057.1 812.609   1
  -2   3   8 32352.6 576.879   2
   2  -3  -7 27848.0 692.652   3
   2  -3  -7 27468.7 547.147   6
  -2   3   7 28449.9 728.000   1
  -2   3   7 28860.9 513.326   2
  -2   3   7 28357.1 696.504   3
   2  -3  -6 11280.4 407.353   3
   2  -3  -6 11349.4 352.899   6
  -2   3   6 11786.1 442.282   1
  -2   3   6 11448.2 305.205   2
  -2   3   6 10966.6 397.160   3
   2  -3  -5 170525. 1441.71   3
  -2   3   5 171889. 1572.85   1
   2  -3  -5 170432. 1359.37   6
  -2   3   5 169092. 1076.67   2
  -2   3   5 172568. 1417.49   3
  -2   3   4 42900.6 724.981   1
   2  -3  -4 43591.6 657.249   3
   2  -3  -4 42343.4 672.687   6
   2  -3  -4 45202.2 810.508   1
  -2   3   4 43720.1 489.801   2
  -2   3   4 43287.7 635.529   3
  -2   3   3 6036.40 165.419   2
  -2   3   3 5990.57 254.509   1
   2  -3  -3 6025.46 248.625   6
  -2   3   3 6238.34 210.234   3
   2  -3  -3 5856.79 213.772   3
   2  -3  -2 146149. 928.686   3
   2  -3  -2 143166. 1195.70   6
  -2   3   2 142831. 795.158   2
   2  -3  -2 141333. 1220.72   1
  -2   3   2 145180. 1160.55   1
  -2   3   2 145934. 856.518   3
  -2   3   1 274885. 1162.66   2
   2  -3  -1 273113. 1326.74   2
   2  -3   0 275.224 58.3833   1
  -2   3   0 335.248 51.7568   2
   2  -3   0 449.904 61.2084   2
   2  -3   1 167733. 1095.02   2
  -2   3  -1 167426. 1088.32   2
   2  -3   2 143034. 552.645   5
   2  -3   2 146421. 1095.06   2
   2  -3   2 144077. 1288.75   4
  -2   3  -2 146667. 1231.49   4
   2  -3   3 907.491 100.981   2
  -2   3  -3 667.622 76.8215   3
  -2   3  -3 539.949 84.6263   4
   2  -3   3 854.114 109.382   4
   2  -3   4 121248. 1146.85   2
  -2   3  -4 121292. 808.550   5
   2  -3   4 122071. 1008.01   6
  -2   3  -4 118811. 1227.51   4
  -2   3  -4 120518. 1084.52   3
   2  -3   5 242142. 1729.96   2
  -2   3  -5 242996. 1716.75   3
   2  -3   5 242500. 1387.42   6
  -2   3  -5 237670. 1871.72   4
   2  -3   6 672.652 114.009   2
   2  -3   6 616.873 72.6684   6
  -2   3  -6 539.508 94.6332   3
  -2   3  -7 47825.1 893.667   3
   2  -3   7 47264.2 853.084   2
   2  -3   8 71542.8 1110.89   2
   2  -3   9 7237.52 376.687   2
   2  -3  10 35104.5 866.781   2
   2  -3  11 24009.3 750.416   2
   2  -3  12 1920.82 238.709   2
   2  -3  13 26274.7 864.752   2
   2  -3  14 7.70075 99.5237   2
   2  -3  15 4736.85 409.380   2
  -2   2  12 6723.29 452.818   1
  -2   2  11 13270.6 439.925   2
  -2   2  11 12545.1 607.050   3
  -2   2  11 12880.2 588.601   1
  -2   2  10 1834.04 161.596   2
  -2   2  10 2422.07 260.880   3
  -2   2  10 1917.24 224.215   1
  -2   2   9 6540.13 390.035   3
  -2   2   9 7059.91 386.888   1
   2  -2  -8 65052.6 711.381   6
  -2   2   8 64148.4 1115.41   3
  -2   2   8 64317.3 1082.09   1
   2  -2  -7 640.990 79.0559   6
  -2   2   7 594.906 111.348   1
   2  -2  -7 457.336 100.105   3
  -2   2   7 397.981 93.9522   3
   2  -2  -6 69767.2 1001.36   3
   2  -2  -6 69275.4 758.549   6
  -2   2   6 69511.2 993.183   3
  -2   2   6 70752.6 968.763   1
   2  -2  -5 151068. 1351.01   3
  -2   2   5 151125. 1283.61   1
  -2   2   5 149792. 1315.18   3
   2  -2  -4 7210.20 272.553   3
  -2   2   4 7260.42 253.540   1
  -2   2   4 7195.63 263.301   3
  -2   2   3 33753.5 507.479   3
   2  -2  -3 33701.3 523.881   3
  -2   2   3 34355.3 484.939   1
   2  -2  -3 35403.2 545.784   1
  -2   2   3 34346.0 524.870   2
   2  -2  -2 162420. 1054.74   3
  -2   2   2 159388. 1079.91   2
  -2   2   2 161418. 955.088   1
   2  -2  -2 159137. 1015.01   1
  -2   2   1 12992.4 269.710   3
   2  -2  -1 12998.8 308.725   2
  -2   2   1 13345.8 293.615   2
   2  -2  -1 12498.5 266.531   1
  -2   2   0 304039. 1613.67   4
   2  -2   0 296820. 1413.34   2
  -2   2  -1 472740. 2062.17   4
   2  -2   1 453467. 1762.66   2
   2  -2   2 36306.5 414.312   5
  -2   2  -2 37292.2 623.660   4
   2  -2   3 178282. 1253.24   2
  -2   2  -3 177309. 1018.84   5
   2  -2   4 132874. 1148.65   2
  -2   2  -4 128093. 981.100   5
   2  -2   5 52529.1 774.268   2
   2  -2   6 285826. 1925.59   2
   2  -2   7 62607.3 950.889   2
   2  -2   7 60815.5 509.591   6
   2  -2   8 6199.71 321.849   2
   2  -2   9 37188.6 821.057   2
   2  -2  10 79327.9 1273.43   2
   2  -2  11 20.5379 82.7026   2
   2  -2  12 811.697 161.233   2
   2  -2  13 39707.4 1043.27   2
   2  -2  14 574.109 155.933   2
   2  -2  15 9055.81 548.187   2
  -2   1  13 546.595 148.284   1
  -2   1  12 34489.3 968.280   1
  -2   1  12 33930.5 804.469   2
  -2   1  12 33040.6 1041.71   3
  -2   1  11 27752.9 825.533   1
  -2   1  11 27325.1 889.185   3
  -2   1  10 394.320 112.664   1
  -2   1  10 249.166 104.747   3
  -2   1   9 51011.7 982.383   1
  -2   1   9 52517.0 1077.18   3
   2  -1  -9 49332.2 476.778   6
  -2   1   8 71884.1 1086.31   1
  -2   1   8 72577.2 1187.62   3
   2  -1  -7 292.959 77.8097   3
  -2   1   7 123.196 71.2038   3
  -2   1   7 207.274 72.5054   1
  -2   1   6 65708.5 852.628   1
   2  -1  -6 66401.2 986.978   3
  -2   1   6 65876.1 970.827   3
  -2   1   5 107944. 1145.04   3
   2  -1  -5 106742. 1156.60   3
  -2   1   5 106806. 955.116   1
  -2   1   4 21169.9 466.252   3
  -2   1   4 22404.1 366.048   1
  -2   1   3 141362. 1097.82   3
   2  -1  -3 139943. 1116.34   3
   2  -1  -3 139829. 1026.13   4
  -2   1   3 140266. 705.012   1
   2  -1  -2 587452. 2147.95   3
  -2   1   2 599619. 1078.26   1
  -2   1   1 118832. 939.025   3
   2  -1  -1 116871. 975.508   2
  -2   1   1 118280. 904.139   4
  -2   1   0 178422. 1193.36   4
   2  -1   0 179329. 1183.35   2
   2  -1   1 37870.3 530.560   2
   2  -1   2 10301.7 273.632   5
  -2   1  -2 10396.4 271.447   5
   2  -1   2 10315.5 281.119   2
   2  -1   3 455821. 1965.96   2
  -2   1  -3 448009. 1908.60   5
  -2   1  -4 98790.5 960.592   2
   2  -1   4 101336. 983.058   2
  -2   1  -4 98183.1 984.325   5
  -2   1  -5 231.901 61.4540   2
   2  -1   5 315.603 69.8495   2
   2  -1   6 29000.1 603.077   2
  -2   1  -7 140809. 1583.41   3
   2  -1   7 139543. 1396.16   2
   2  -1   8 28335.5 671.437   2
   2  -1   9 2196.72 207.464   2
   2  -1  10 51734.6 1011.85   2
   2  -1  11 2273.80 232.102   2
   2  -1  12 26241.3 799.901   2
   2  -1  12 27147.3 1066.29   1
   2  -1  13 4744.60 478.708   1
   2  -1  13 4925.26 366.319   2
   2  -1  14 2186.17 347.353   1
  -2   0  14-138.681 127.729   3
  -2   0  13 7804.64 477.138   1
  -2   0  13 8169.05 546.910   3
  -2   0  12 24811.5 895.280   3
  -2   0  12 25255.9 813.601   1
  -2   0  11 4.29306 78.9442   1
  -2   0  11-91.0359 115.248   3
  -2   0  10 42787.4 944.633   1
  -2   0  10 43880.0 1055.23   3
  -2   0   9 15825.1 532.695   1
  -2   0   9 15835.4 598.324   3
  -2   0   8 22649.3 666.529   3
   2   0  -7 202512. 1863.02   3
  -2   0   7 202503. 1845.27   3
  -2   0   6 39765.4 764.285   3
   2   0  -6 41156.7 782.482   3
  -2   0   5 50138.7 798.727   3
   2   0  -4 102594. 764.361   4
  -2   0   4 101451. 1066.04   3
  -2   0   3 355434. 1866.98   3
   2   0  -3 347383. 1351.71   4
  -2   0   2 98060.4 942.992   3
  -2   0   2 96713.1 716.972   4
   2   0  -2 99186.6 745.679   4
  -2   0   1 100754. 959.350   3
   2   0  -1 100662. 551.668   1
   2   0   0 914710. 2315.07   1
   2   0   0 999999. 3029.12   2
   2   0   1 133288. 1079.51   2
  -2   0  -2 85821.4 886.725   5
  -2   0  -2 86281.2 834.817   2
   2   0   2 87249.6 864.386   2
  -2   0  -3 118563. 994.909   2
  -2   0  -3 120017. 1115.99   5
   2   0   3 116182. 1014.66   2
  -2   0  -4 16984.4 390.842   2
  -2   0  -4 17272.7 463.245   5
   2   0   4 17490.7 410.152   2
  -2   0  -5 217428. 1470.29   2
  -2   0  -5 222930. 1781.99   3
   2   0   5 221798. 1542.58   2
   2   0   6 57881.0 835.670   2
  -2   0  -6 56789.3 971.615   3
   2   0   7 16677.9 478.583   2
  -2   0  -7 16884.8 565.567   3
   2   0   8 60532.5 962.290   2
   2   0   8 57646.3 1302.92   1
   2   0   9 70185.9 1523.22   1
   2   0   9 71278.9 1110.47   2
   2   0  10 10879.4 640.416   1
   2   0  10 12299.4 489.602   2
   2   0  11 17658.2 858.577   1
   2   0  11 19081.0 640.183   2
   2   0  12 16489.2 618.986   2
   2   0  12 19064.6 932.448   1
   2   0  13-124.690 160.002   1
  -2  -1  15 18958.7 763.701   2
  -2  -1  14 3734.03 398.590   3
  -2  -1  13 17960.6 717.528   1
  -2  -1  13 16842.2 782.387   3
  -2  -1  12 1706.01 244.584   3
  -2  -1  11 7.55039 98.9012   3
  -2  -1  10 125190. 1783.93   3
  -2  -1   9 6590.00 390.869   3
  -2  -1   8 20312.6 634.087   3
   2   1  -7 138346. 1565.40   3
   2   1  -7 135724. 900.914   4
  -2  -1   7 137590. 1539.52   3
   2   1  -6 118864. 736.167   4
  -2  -1   6 117648. 1337.79   3
   2   1  -5 62444.7 472.159   4
  -2  -1   5 62704.2 921.912   3
  -2  -1   4 98185.3 1083.60   3
  -2  -1   3 341836. 1249.74   1
  -2  -1   3 335800. 1918.20   3
  -2  -1   2 42119.5 668.223   3
  -2  -1   2 40686.9 456.486   1
   2   1  -2 41707.8 475.820   1
  -2  -1   1 377064. 1554.33   1
  -2  -1   1 377508. 2032.25   3
  -2  -1   0 22841.0 483.016   2
   2   1   0 24358.1 464.970   1
   2   1   1 961.137 114.110   1
  -2  -1  -1 410.514 73.4118   2
  -2  -1  -1 696.243 95.3954   5
   2   1   1 242.912 63.6431   2
  -2  -1  -2 157345. 1339.31   5
   2   1   2 154242. 1482.94   1
  -2  -1  -2 156097. 1181.51   2
   2   1   2 156673. 1285.52   2
  -2  -1  -3 51352.8 661.745   2
  -2  -1  -3 51652.0 824.018   5
   2   1   3 51836.6 728.991   2
   2   1   3 52693.9 948.367   1
  -2  -1  -4 2090.50 136.932   2
   2   1   4 1886.63 145.916   2
  -2  -1  -4 2300.21 191.800   5
   2   1   4 2044.94 210.088   1
  -2  -1  -5 87134.2 909.990   2
   2   1   5 90334.6 1003.73   2
  -2  -1  -5 92179.8 1259.75   5
   2   1   5 87297.4 1418.68   1
   2   1   6 61197.6 864.812   2
  -2  -1  -6 62669.8 1052.33   3
   2   1   7 2371.20 140.939   6
   2   1   7 2345.74 183.572   2
   2   1   7 2579.51 291.413   1
   2   1   8 42673.2 541.949   6
   2   1   8 44192.0 1205.15   1
   2   1   8 42440.5 798.458   2
   2   1   9 10390.1 624.136   1
   2   1   9 10495.8 419.720   2
   2   1  10 1896.31 289.810   1
   2   1  10 1900.13 195.922   2
   2   1  11 18711.5 916.323   1
   2   1  12 7823.03 619.668   1
  -2  -2  14 2481.43 330.109   3
  -2  -2  13 52917.8 1386.22   3
  -2  -2  12 214.598 121.288   3
   2   2 -11 1215.13 99.7885   4
   2   2 -11 1302.46 84.4163   6
  -2  -2  11 1389.19 218.353   3
  -2  -2  10 19662.1 711.430   3
   2   2 -10 19382.2 342.432   4
  -2  -2   9 18847.9 660.476   3
   2   2  -9 20117.9 292.541   4
  -2  -2   8 165935. 1834.95   3
  -2  -2   7 77827.9 1188.89   3
   2   2  -7 78607.7 1188.96   3
  -2  -2   6 43032.5 834.442   3
  -2  -2   5 147630. 1463.85   3
  -2  -2   5 144549. 1122.22   1
  -2  -2   4 114136. 965.693   1
  -2  -2   4 113161. 1219.01   3
  -2  -2   3 730.254 79.1390   1
  -2  -2   3 750.875 104.659   3
  -2  -2   2 96139.7 916.306   1
  -2  -2   2 97030.5 1083.42   3
   2   2  -2 95761.3 950.465   1
   2   2  -1 109703. 1075.79   1
  -2  -2   1 110424. 1175.80   3
  -2  -2   1 108501. 1040.34   1
   2   2   0 457.690 88.1952   1
  -2  -2   0 510.601 83.9281   2
  -2  -2  -1 118545. 1265.52   5
  -2  -2  -1 115995. 1137.50   2
  -2  -2  -2 165417. 1548.32   5
  -2  -2  -2 163681. 1283.51   2
   2   2   2 164314. 1696.49   1
   2   2   3 8419.12 314.844   2
  -2  -2  -3 8145.22 272.071   2
   2   2   3 7898.52 405.696   1
  -2  -2  -3 8111.75 360.191   5
   2   2   4 19187.2 669.952   1
  -2  -2  -4 19738.9 409.723   2
   2   2   4 19933.8 493.490   2
  -2  -2  -5 133005. 1073.72   2
   2   2   5 131134. 1846.58   1
  -2  -2  -5 132968. 1484.36   3
   2   2   5 135050. 1326.78   2
   2   2   6 7279.62 469.275   1
   2   2   6 7217.07 293.125   6
   2   2   6 7982.01 327.634   2
  -2  -2  -6 7983.39 390.782   3
   2   2   7 19741.6 809.639   1
   2   2   7 20040.1 476.288   6
   2   2   7 20931.5 546.369   2
   2   2   8 40900.2 1226.21   1
   2   2   8 41638.6 664.177   6
   2   2   8 43129.5 811.152   2
   2   2   9 462.870 172.777   1
   2   2   9 380.210 98.4975   2
   2   2  10 18548.7 905.116   1
   2   2  11 5756.73 536.955   1
  -2  -3  14 6322.25 511.384   3
  -2  -3  13 11529.9 656.512   3
  -2  -3  12 13519.7 674.107   3
  -2  -3  11 69699.2 1437.63   3
   2   3 -11 71063.1 821.952   6
  -2  -3  10 47554.4 1115.53   3
  -2  -3   9 9805.87 484.989   3
  -2  -3   8 115263. 1564.22   3
  -2  -3   7 28151.6 732.811   3
   2   3  -7 29245.0 752.854   3
  -2  -3   6 47869.3 908.921   3
   2   3  -6 50632.1 939.389   3
  -2  -3   6 49216.9 779.402   1
  -2  -3   5 281614. 2094.37   3
  -2  -3   5 281685. 1821.81   1
  -2  -3   4 18211.3 461.798   1
   2   3  -4 18311.2 533.551   3
  -2  -3   3 1906.64 165.461   3
  -2  -3   3 1165.58 122.232   1
  -2  -3   2 346571. 2084.67   1
  -2  -3   2 343209. 2175.79   3
   2   3  -2 341450. 2160.71   1
   2   3  -2 349743. 2251.43   5
   2   3  -1 86145.4 1132.75   1
  -2  -3   1 85090.9 1096.30   3
   2   3  -1 83146.9 1094.56   5
  -2  -3   1 85229.0 1081.09   1
   2   3   0 17444.6 542.627   1
  -2  -3   0 17132.3 466.286   2
   2   3   0 17235.1 514.058   5
  -2  -3  -1 86080.3 1191.28   5
  -2  -3  -1 83759.4 1023.50   2
  -2  -3  -2 95756.9 1290.93   5
  -2  -3  -2 95487.0 1392.69   1
   2   3   2 93304.4 1412.15   1
  -2  -3  -2 91196.3 1005.77   2
  -2  -3  -3 68780.7 1139.10   5
  -2  -3  -3 69562.3 1260.09   1
   2   3   3 67871.1 1278.18   1
  -2  -3  -3 68025.2 794.540   2
  -2  -3  -4 63803.8 717.155   2
   2   3   4 62005.8 1304.71   1
   2   3   5 81280.6 1117.46   6
  -2  -3  -5 80959.3 788.114   2
   2   3   5 81443.0 1572.42   1
  -2  -3  -5 82249.7 1213.02   3
   2   3   6 7942.63 349.746   6
   2   3   6 7970.19 525.626   1
   2   3   7 34472.7 720.064   6
   2   3   7 35159.8 1147.98   1
   2   3   8 3395.41 225.428   6
   2   3   8 3767.14 409.566   1
   2   3   9 1859.90 314.113   1
   2   3  10 39633.1 1394.05   1
  -2  -4  14 12664.5 727.809   3
  -2  -4  13 4755.31 431.258   3
  -2  -4  12 24864.2 923.746   3
   2   4 -11 13770.8 437.774   6
  -2  -4  11 14727.0 672.653   3
   2   4 -10 1091.32 134.181   6
  -2  -4  10 1290.67 199.485   3
  -2  -4   9 28673.1 844.179   3
  -2  -4   8 81932.2 1345.95   3
  -2  -4   8 84504.4 1197.33   1
  -2  -4   7 4352.01 303.198   3
  -2  -4   7 4604.05 278.218   1
  -2  -4   6 12405.4 477.604   3
   2   4  -6 12249.9 487.907   3
  -2  -4   6 13110.4 453.633   1
   2   4  -5 94862.4 1322.24   3
  -2  -4   5 96141.1 1216.39   1
  -2  -4   5 94288.3 1258.21   3
  -2  -4   5 92893.1 673.348   4
   2   4  -4 1753.88 182.187   3
  -2  -4   4 1686.83 168.070   1
  -2  -4   4 1949.47 180.829   3
   2   4  -3 57181.4 974.448   5
  -2  -4   3 55067.7 905.192   3
  -2  -4   3 56343.3 954.791   1
  -2  -4   2 52115.6 880.235   3
   2   4  -2 49649.5 888.109   5
  -2  -4   2 50786.4 928.094   1
   2   4  -2 51598.0 973.273   1
  -2  -4   1 3571.29 239.684   3
   2   4  -1 3694.66 249.038   5
  -2  -4   1 4091.11 274.746   1
   2   4  -1 4140.18 286.996   1
  -2  -4   0 168251. 1679.05   3
  -2  -4   0 168514. 1560.98   2
   2   4   0 169313. 1901.68   1
   2   4   1 5483.24 366.197   1
  -2  -4  -1 5635.51 280.291   2
  -2  -4  -2 18018.0 460.828   2
   2   4   2 18236.0 694.674   1
  -2  -4  -2 18694.7 627.841   5
   2   4   3 56594.8 1032.73   6
   2   4   3 56902.5 1284.19   1
  -2  -4  -3 56800.3 724.531   2
  -2  -4  -4 25356.7 423.260   2
   2   4   4 24904.0 690.625   6
   2   4   4 25501.2 904.197   1
   2   4   5 6283.43 350.119   6
   2   4   5 6590.52 488.963   1
  -2  -4  -5 6719.54 355.610   3
   2   4   6 11297.5 666.064   1
   2   4   6 12340.6 493.443   6
   2   4   7 36589.6 835.393   6
   2   4   7 35983.4 1224.09   1
   2   4   8 1888.51 194.384   6
   2   4   8 1678.77 294.422   1
   2   4   9 7357.66 607.199   1
  -2  -5  13 8449.61 582.894   3
   2   5 -12 30672.4 719.074   6
  -2  -5  12 30154.9 1032.53   3
  -2  -5  11 21809.2 833.046   3
   2   5 -11 21742.5 624.563   6
   2   5 -10 38743.9 857.068   6
  -2  -5  10 38930.0 1053.64   3
   2   5  -9 41401.3 893.648   6
  -2  -5   9 39954.3 1021.03   3
  -2  -5   8 81651.7 1390.39   3
  -2  -5   7 52786.6 1062.95   3
  -2  -5   6 88125.8 688.017   4
  -2  -5   6 87783.5 1311.07   3
   2   5  -6 89048.9 1385.24   3
  -2  -5   5 24148.4 467.216   4
  -2  -5   5 23290.5 652.480   3
   2   5  -5 23706.8 702.231   3
  -2  -5   4 3580.69 250.775   3
   2   5  -4 3375.36 251.538   5
  -2  -5   3 218281. 1887.26   3
   2   5  -3 212492. 1936.66   5
   2   5  -2 5638.25 326.985   5
   2   5  -2 6463.93 390.474   1
  -2  -5   2 5733.49 306.488   3
  -2  -5   1 3551.64 247.801   3
   2   5  -1 3642.64 308.236   1
  -2  -5   0 90480.8 1215.64   2
  -2  -5   0 90753.5 1264.78   3
   2   5   0 93652.2 1575.24   1
   2   5   1 54207.3 1250.02   1
  -2  -5  -1 54717.7 894.903   2
  -2  -5  -1 52586.7 999.042   3
   2   5   1 52461.5 1081.73   6
   2   5   2 19707.8 789.900   1
  -2  -5  -2 19986.4 487.888   2
   2   5   2 18942.0 663.780   6
  -2  -5  -3 27469.3 473.342   2
   2   5   3 28004.8 986.281   1
   2   5   3 26009.0 779.365   6
   2   5   4 47663.8 1339.59   1
   2   5   4 47343.1 1050.45   6
   2   5   5 11954.4 705.572   1
   2   5   5 11739.1 529.812   6
   2   5   6 22027.1 993.756   1
   2   5   6 21479.9 713.153   6
   2   5   7 4132.47 461.861   1
   2   5   7 4326.04 321.630   6
  -2  -6  13 28343.2 1071.94   3
   2   6 -12 2280.14 227.166   6
  -2  -6  12 2404.33 309.190   3
   2   6 -11 11502.9 514.672   6
  -2  -6  11 11162.7 614.718   3
   2   6 -10 43454.7 1006.37   6
  -2  -6  10 45713.2 1162.36   3
  -2  -6   9 18511.1 716.802   3
   2   6  -9 18908.5 672.087   6
  -2  -6   8 6055.66 392.739   3
   2   6  -8 5538.55 370.872   6
  -2  -6   7 24878.6 753.217   3
   2   6  -7 23363.9 756.348   6
  -2  -6   6 82153.9 1314.05   3
   2   6  -6 81245.0 1416.89   6
   2   6  -6 83869.6 1329.58   5
  -2  -6   6 85291.1 916.380   4
  -2  -6   5 13169.7 506.343   3
   2   6  -5 12481.6 503.533   5
  -2  -6   5 13273.5 420.671   4
   2   6  -5 13030.5 570.407   6
  -2  -6   4 10556.7 437.555   3
   2   6  -4 10446.6 451.869   5
   2   6  -4 10322.0 509.224   6
  -2  -6   3 50953.2 932.472   3
   2   6  -3 51507.6 1145.74   6
   2   6  -3 50471.6 989.560   5
   2   6  -2 553.935 144.045   6
  -2  -6   2 445.962 95.8213   3
   2   6  -2 419.996 140.529   1
   2   6  -1 39248.9 1015.28   6
  -2  -6   1 40396.4 881.114   2
   2   6  -1 41761.9 1138.31   1
  -2  -6   1 39878.2 818.994   3
  -2  -6   0 26482.7 694.808   2
  -2  -6   0 25790.2 672.796   3
   2   6   0 26082.3 841.319   6
   2   6   0 27349.5 953.302   1
   2   6   1 683.988 157.867   6
   2   6   1 719.629 187.227   1
  -2  -6  -1 897.748 140.286   3
  -2  -6  -2 29915.5 774.683   3
   2   6   2 31194.5 932.761   6
   2   6   3 27110.1 1051.49   1
   2   6   3 26302.6 861.147   6
   2   6   4 736.667 199.003   1
   2   6   4 402.647 139.243   6
   2   6   5 25228.9 858.209   6
   2   6   5 26841.7 1117.92   1
   2   6   6 613.483 152.448   6
   2   6   6 380.490 195.745   1
  -2  -7  13 37873.7 1250.56   3
   2   7 -12 1543.84 213.564   6
  -2  -7  12 1396.88 245.048   3
   2   7 -11 9360.01 506.818   6
  -2  -7  11 9005.83 561.948   3
  -2  -7  10 30129.9 974.581   3
   2   7 -10 28776.8 904.551   6
   2   7  -9 7059.27 457.332   6
  -2  -7   9 7738.86 475.796   3
   2   7  -8 14911.8 657.073   6
   2   7  -8 15995.3 615.749   5
  -2  -7   8 15314.6 633.890   3
  -2  -7   7 36005.1 923.152   3
   2   7  -7 34783.1 1005.42   6
   2   7  -7 36252.3 889.648   5
  -2  -7   6 1949.61 212.158   3
   2   7  -6 2120.32 262.142   6
   2   7  -6 2338.14 225.412   5
  -2  -7   6 2236.14 181.551   4
  -2  -7   5 8559.78 414.657   3
   2   7  -5 8252.38 500.770   6
   2   7  -5 8684.76 427.871   5
  -2  -7   5 8971.99 400.720   4
   2   7  -4 49336.4 1216.49   6
  -2  -7   4 50008.4 951.954   3
   2   7  -3 27382.6 919.173   6
  -2  -7   3 27633.5 684.760   3
  -2  -7   2 24793.6 624.223   3
   2   7  -2 25671.1 889.760   6
  -2  -7   1 26776.4 645.648   3
   2   7  -1 27351.0 1012.58   1
   2   7  -1 26299.3 908.048   6
   2   7   0 11288.9 604.108   6
   2   7   0 12281.7 707.593   1
   2   7   1 13041.9 654.211   6
   2   7   1 13847.4 769.567   1
   2   7   2 28136.9 963.408   6
   2   7   2 30468.4 1167.95   1
   2   7   3 771.504 218.496   1
   2   7   3 867.494 195.293   6
   2   7   4 2766.94 319.789   6
   2   7   5 13855.1 682.377   6
  -2  -8  12 571.572 176.410   3
  -2  -8  11 16437.3 767.003   3
   2   8 -11 16177.3 724.832   6
   2   8 -10 20222.7 821.604   6
  -2  -8  10 20420.5 813.479   3
   2   8  -9 103.317 106.220   6
  -2  -8   9 76.0960 90.7439   3
   2   8  -8 18522.6 798.989   6
  -2  -8   8 19118.8 706.825   3
   2   8  -7 11798.0 643.870   6
  -2  -8   7 12521.8 544.343   3
   2   8  -6 3211.99 347.295   6
   2   8  -5 33438.9 1087.73   6
  -2  -8   4 17968.2 686.668   4
   2   8  -4 17577.5 794.275   6
   2   8  -3 420.013 160.359   6
   2   8  -2 23050.8 921.362   6
   2   8  -1 25264.6 973.421   6
   2   8  -1 30309.5 1160.82   1
   2   8   0 3037.21 353.865   6
   2   8   0 3312.07 409.166   1
   2   8   1 1078.10 224.904   6
   2   8   2 13810.8 733.261   6
   3 -11   3 67.8533 124.954   4
   3 -11   4 23040.5 1015.21   4
   3 -11   5 1997.55 309.518   4
   3 -11   8 7430.98 516.794   2
   3 -10   0 3361.32 401.919   4
   3 -10   1 23634.3 1005.49   4
   3 -10   2 332.147 138.526   4
   3 -10   3 11693.1 686.476   4
   3 -10   4 30297.6 1082.70   4
   3 -10   5 2370.61 255.168   2
   3 -10   5 1963.02 288.957   4
   3 -10   6 21936.5 787.525   2
   3 -10   6 21589.6 908.216   4
   3 -10   7 14989.2 679.538   2
   3 -10   7 15468.9 758.247   4
   3 -10   8-4.27082 121.114   2
   3 -10   9 7931.69 545.594   2
   3 -10  10 32677.6 1121.12   2
   3  -9  -3 4639.75 469.727   4
   3  -9  -2 6201.04 522.455   4
   3  -9  -1 10273.2 648.054   4
   3  -9   0 38176.2 1200.51   4
   3  -9   1 6514.02 491.479   4
   3  -9   2 412.085 97.8351   2
   3  -9   2 243.928 112.066   4
   3  -9   3 21125.2 637.891   2
   3  -9   3 19979.4 826.039   4
   3  -9   4 12884.7 527.077   2
   3  -9   4 12238.1 636.021   4
   3  -9   5 33343.1 897.880   2
   3  -9   5 32969.1 1041.95   4
   3  -9   6 14749.0 695.422   4
   3  -9   6 16035.3 647.075   2
   3  -9   7 25674.1 852.919   2
   3  -9   7 25330.3 914.379   4
   3  -9   8 8635.30 520.397   2
   3  -9   9 32555.3 1046.76   2
   3  -9  10 2393.53 309.349   2
   3  -9  11 588.667 180.740   2
  -3   8   7 10653.1 656.760   1
  -3   8   6 9022.37 593.779   1
   3  -8  -5 126.042 146.651   4
  -3   8   5 19.5380 100.163   1
   3  -8  -4 5015.03 467.464   4
   3  -8  -3 49980.1 1394.56   4
   3  -8  -2 238.485 131.474   4
   3  -8  -1 11265.7 623.881   4
   3  -8   0 13194.5 649.680   4
   3  -8   0 13323.0 401.361   2
   3  -8   1 3950.79 353.321   4
   3  -8   1 3898.69 236.605   2
   3  -8   2 88001.6 1183.96   2
   3  -8   2 85179.3 1568.55   4
   3  -8   3 22166.4 629.142   2
   3  -8   3 21243.8 780.907   4
   3  -8   4 27631.7 739.535   2
   3  -8   4 27060.1 878.313   4
   3  -8   5 44930.1 987.105   2
   3  -8   5 44113.8 1125.32   4
   3  -8   6 34149.7 902.786   2
   3  -8   6 33454.8 983.686   4
   3  -8   7 4281.12 343.563   2
   3  -8   8 4919.52 382.138   2
   3  -8   9 71825.1 1485.87   2
   3  -8  10 14211.0 689.779   2
   3  -8  11 3494.17 364.101   2
   3  -8  12 24917.7 972.469   2
  -3   7   8 11721.1 653.670   1
  -3   7   7 3049.52 331.988   1
   3  -7  -7 3437.99 399.362   4
   3  -7  -6 15152.7 780.958   4
  -3   7   6 13684.3 669.561   1
   3  -7  -5 23233.1 935.614   4
  -3   7   5 24324.1 851.300   1
   3  -7  -4 15087.0 734.231   4
  -3   7   4 14318.0 641.460   1
   3  -7  -3 4924.78 407.641   4
  -3   7   3 4441.04 352.757   1
   3  -7  -2 5366.68 409.954   4
   3  -7  -1 124579. 1879.10   4
   3  -7  -1 127746. 1104.48   2
   3  -7   0 141.941 96.0154   4
   3  -7   0 232.118 49.1539   5
   3  -7   0-20.0883 63.9377   2
   3  -7   1 603.151 99.9259   2
   3  -7   1 727.265 72.5597   5
   3  -7   2 131695. 1388.72   2
   3  -7   2 132171. 1789.02   4
   3  -7   3 10599.6 415.951   2
   3  -7   3 10201.3 499.098   4
  -3   7  -4 47693.0 580.631   3
   3  -7   4 47367.8 921.679   2
   3  -7   4 48925.8 1103.05   4
  -3   7  -5 78267.3 902.439   3
   3  -7   5 79208.5 1246.98   2
   3  -7   5 79512.2 1411.74   4
  -3   7  -6 34635.5 683.735   3
   3  -7   6 36028.8 876.510   2
   3  -7   6 34091.8 942.465   4
  -3   7  -7 51015.3 912.834   3
   3  -7   7 49294.6 1076.06   2
  -3   7  -7 50639.5 998.043   4
   3  -7   8 27806.8 840.979   2
  -3   7  -8 27007.1 734.734   4
   3  -7   9 18307.8 715.484   2
   3  -7  10 7573.53 481.925   2
   3  -7  11 35412.4 1068.09   2
   3  -7  12 1651.52 259.171   2
   3  -7  13 1953.01 289.461   2
  -3   6   9 3195.98 332.487   1
  -3   6   8 20744.1 798.902   1
  -3   6   7 1877.43 240.672   1
  -3   6   6 1638.14 216.751   1
   3  -6  -5 10769.9 581.536   4
  -3   6   5 10803.9 520.513   1
   3  -6  -4 67686.3 1400.52   4
  -3   6   4 64947.5 1208.84   1
   3  -6  -3 3610.14 322.374   4
  -3   6   3 3575.69 285.967   1
   3  -6  -2 15974.5 632.537   4
   3  -6  -1 83124.9 1364.47   1
   3  -6  -1 82443.6 918.870   2
   3  -6   0 513.083 116.551   1
   3  -6   0 396.683 73.4852   2
   3  -6   0 443.995 110.603   4
   3  -6   1 108627. 1529.58   1
   3  -6   1 108429. 1145.42   2
   3  -6   1 108293. 1505.09   4
   3  -6   2 22596.6 550.642   2
  -3   6  -2 20856.6 237.427   3
   3  -6   2 22139.2 677.093   4
  -3   6  -3 5182.24 179.877   3
   3  -6   3 5121.22 333.637   4
   3  -6   3 4969.19 277.931   2
   3  -6   3 5112.00 334.916   1
   3  -6   4 172381. 1666.26   2
   3  -6   4 169290. 1918.49   4
  -3   6  -4 171965. 1240.68   3
  -3   6  -5 15786.3 538.196   4
   3  -6   5 15573.1 593.564   4
  -3   6  -5 15402.0 422.758   3
   3  -6   5 15209.2 524.015   2
   3  -6   5 15936.7 534.687   6
  -3   6  -6 1382.83 167.606   4
   3  -6   6 1180.37 163.525   2
   3  -6   6 1352.29 161.753   6
  -3   6  -6 1461.51 151.372   3
  -3   6  -7 28919.4 737.444   4
   3  -6   7 28836.4 784.922   2
   3  -6   7 28746.9 709.308   6
  -3   6  -7 28950.9 698.990   3
   3  -6   8 43999.1 1016.95   2
   3  -6   8 44373.9 861.391   6
  -3   6  -8 46260.6 591.564   5
  -3   6  -8 44357.2 941.845   4
   3  -6   9 626.882 148.040   2
  -3   6  -9 783.944 99.3035   5
  -3   6  -9 731.761 134.136   4
   3  -6  10 32578.4 949.760   2
   3  -6  11 21867.3 805.383   2
   3  -6  12 763.851 184.120   2
   3  -6  13 11868.9 645.803   2
  -3   5  10 69.7493 94.0812   1
  -3   5   9 10306.9 538.085   1
  -3   5   8 15280.6 631.301   1
  -3   5   7 33314.2 882.804   1
   3  -5  -6 24596.3 613.182   3
  -3   5   6 24667.2 723.088   1
   3  -5  -5 7317.60 420.055   1
   3  -5  -5 6578.99 293.503   3
  -3   5   5 6375.40 357.522   1
   3  -5  -4 55985.4 772.540   3
   3  -5  -4 56866.5 991.133   6
   3  -5  -4 56043.7 1154.20   4
  -3   5   4 55817.3 998.812   1
  -3   5   4 56923.7 707.408   3
  -3   5   3 54111.1 956.210   1
   3  -5  -3 54844.2 966.521   6
   3  -5  -3 56837.5 1121.00   4
  -3   5   3 55489.7 595.813   3
   3  -5  -3 56516.3 1049.79   1
   3  -5  -2 153540. 1594.50   6
   3  -5  -2 150298. 1746.85   4
   3  -5  -2 152685. 1665.18   1
   3  -5  -2 153681. 1164.55   2
  -3   5   2 153612. 800.761   3
   3  -5  -1 13333.2 508.341   4
   3  -5  -1 13429.9 483.697   1
   3  -5  -1 12407.3 451.001   6
   3  -5  -1 13420.1 375.943   2
  -3   5   1 12110.1 174.114   3
   3  -5   0 41236.4 836.171   1
  -3   5   0 38871.8 295.266   3
   3  -5   0 40657.5 800.443   6
   3  -5   0 40472.4 863.009   4
   3  -5   0 42181.7 667.765   2
   3  -5   1 157120. 1685.03   4
   3  -5   1 160865. 1575.68   6
  -3   5  -1 160995. 882.302   3
  -3   5  -1 157270. 770.463   3
   3  -5   1 162348. 1671.57   1
   3  -5   1 161444. 1339.96   2
   3  -5   2 33713.6 640.166   2
   3  -5   2 34082.6 782.778   4
   3  -5   2 32218.8 751.628   1
   3  -5   2 32991.1 706.604   6
  -3   5  -2 33431.5 437.172   3
   3  -5   3 39022.6 724.011   2
   3  -5   3 38431.2 763.638   6
   3  -5   3 39452.4 861.765   4
  -3   5  -3 40047.5 815.545   4
  -3   5  -3 38496.6 556.585   3
   3  -5   4 98951.0 1206.73   2
   3  -5   4 96563.7 1202.99   6
   3  -5   4 96522.2 1382.24   4
  -3   5  -4 95390.4 991.502   3
  -3   5  -4 97022.7 1270.07   4
   3  -5   5 2163.03 196.379   2
   3  -5   5 2554.75 195.437   6
  -3   5  -5 2488.34 213.785   4
  -3   5  -5 2210.52 171.988   3
   3  -5   6 3327.30 253.583   2
   3  -5   6 3449.80 225.242   6
  -3   5  -6 3240.69 246.859   4
  -3   5  -6 3438.73 231.298   3
   3  -5   7 176958. 1851.23   2
  -3   5  -7 176515. 1236.76   5
   3  -5   7 174919. 1562.19   6
  -3   5  -7 178173. 1885.14   4
  -3   5  -7 179812. 1759.84   3
   3  -5   8 4524.63 320.123   2
   3  -5   8 3895.58 231.688   6
  -3   5  -8 4177.13 219.546   5
  -3   5  -8 3849.51 294.710   4
   3  -5   9 3300.10 285.738   2
   3  -5   9 2930.95 194.304   6
  -3   5  -9 3396.70 291.272   4
  -3   5  -9 3002.68 206.690   5
  -3   5 -10 58873.8 1244.76   4
  -3   5 -10 57203.7 975.529   5
   3  -5  11 14167.0 630.998   2
   3  -5  12 27454.4 905.300   2
   3  -5  13 1571.30 246.976   2
   3  -5  14 13028.7 685.828   2
  -3   4  10-66.6599 83.3338   1
  -3   4   9 20697.9 695.302   1
  -3   4   9 19803.5 679.778   3
  -3   4   8 10841.8 481.439   1
  -3   4   8 10359.4 460.941   3
  -3   4   7 5723.63 333.778   1
   3  -4  -7 6304.00 345.467   3
   3  -4  -7 5736.68 296.651   6
  -3   4   7 6103.05 205.064   2
  -3   4   7 5651.84 318.464   3
  -3   4   6 52394.7 936.150   1
   3  -4  -6 52261.8 918.564   3
   3  -4  -6 51124.5 879.352   6
  -3   4   6 51478.2 585.672   2
  -3   4   6 50656.8 866.867   3
   3  -4  -5 96469.6 1334.13   1
   3  -4  -5 94515.4 1138.55   3
   3  -4  -5 93298.7 1162.24   6
  -3   4   5 92665.1 779.317   2
  -3   4   5 92309.3 1074.04   3
  -3   4   5 92479.3 1179.62   1
   3  -4  -4 2312.44 168.001   3
   3  -4  -4 2314.90 190.980   6
   3  -4  -4 3077.21 228.047   1
   3  -4  -4 2368.17 225.020   4
  -3   4   4 2372.37 184.955   1
  -3   4   4 2373.27 158.296   3
  -3   4   4 2369.91 128.039   2
  -3   4   3 162905. 1052.39   2
  -3   4   3 162939. 1145.44   3
   3  -4  -3 165820. 1724.68   4
   3  -4  -3 158317. 1263.93   3
   3  -4  -3 160411. 1497.17   6
  -3   4   3 158228. 1393.57   1
   3  -4  -3 161007. 1533.93   1
   3  -4  -2 17992.1 493.716   1
  -3   4   2 18219.4 342.333   3
   3  -4  -2 18473.3 427.967   2
   3  -4  -2 18201.9 498.022   6
  -3   4   2 17622.9 357.306   2
   3  -4  -1 590.802 94.6248   1
  -3   4   1 745.079 84.1682   2
   3  -4  -1 622.755 91.5631   2
  -3   4   0 244850. 1476.70   2
  -3   4   0 248112. 1260.95   3
   3  -4   0 244785. 1588.91   2
   3  -4   0 243857. 1787.40   1
  -3   4  -1 47193.5 842.191   4
  -3   4  -1 44637.5 664.702   2
   3  -4   1 46432.7 700.373   2
   3  -4   2 20440.2 481.182   2
  -3   4  -2 19951.6 471.822   2
   3  -4   2 20083.8 573.053   4
   3  -4   3 90677.8 1061.90   2
  -3   4  -3 90223.2 1051.59   2
  -3   4  -3 89438.3 1166.41   4
   3  -4   3 90154.5 1245.36   4
   3  -4   4 266871. 1915.68   2
  -3   4  -4 266999. 2106.59   4
  -3   4  -4 267251. 1719.79   3
   3  -4   5 35097.2 729.451   2
  -3   4  -5 35976.7 530.369   5
  -3   4  -5 35366.2 804.006   4
  -3   4  -5 35410.7 679.427   3
  -3   4  -6 46481.8 661.570   5
  -3   4  -6 47280.2 980.379   4
   3  -4   6 47170.0 888.127   2
   3  -4   6 45993.5 731.900   6
  -3   4  -6 47746.7 856.684   3
   3  -4   7 52088.8 971.549   2
   3  -4   7 52308.6 765.283   6
  -3   4  -7 53345.4 790.879   5
  -3   4  -7 54528.3 1102.47   4
  -3   4  -7 53793.4 987.988   3
  -3   4  -8 148.209 61.6079   5
   3  -4   8 253.118 63.0836   6
   3  -4   8 230.061 87.9943   2
  -3   4  -8 247.161 102.146   4
   3  -4   9 154736. 1825.66   2
   3  -4   9 153181. 1179.84   6
  -3   4  -9 157259. 1612.91   5
  -3   4  -9 157792. 2079.23   4
   3  -4  10 5012.58 354.691   2
   3  -4  11 1921.96 242.284   2
   3  -4  12 43396.2 1118.16   2
   3  -4  13 7692.49 496.112   2
   3  -4  14 232.815 135.207   2
  -3   3  11 6327.77 400.628   1
  -3   3  11 6187.20 438.202   3
  -3   3  10 8633.99 444.735   1
  -3   3  10 8596.74 482.238   3
  -3   3   9 26429.4 724.272   1
  -3   3   9 25236.8 775.740   3
  -3   3   8 6844.96 348.158   1
   3  -3  -8 7659.39 309.793   6
  -3   3   8 7454.81 334.291   2
  -3   3   8 6881.96 381.671   3
   3  -3  -7 11618.4 465.188   3
  -3   3   7 11682.1 422.801   1
   3  -3  -7 11181.6 378.114   6
  -3   3   7 11269.6 452.464   3
  -3   3   7 11792.7 403.738   2
  -3   3   6 118001. 1241.63   1
   3  -3  -6 121018. 1402.55   3
   3  -3  -6 116859. 1203.05   6
  -3   3   6 119869. 1264.15   2
  -3   3   6 118613. 1344.21   3
  -3   3   5 1512.67 133.957   1
   3  -3  -5 1572.44 151.206   3
   3  -3  -5 1392.31 162.368   4
  -3   3   5 1463.67 137.317   2
  -3   3   5 1298.06 134.864   3
  -3   3   4 15425.0 411.366   3
   3  -3  -4 15167.6 434.652   3
   3  -3  -4 15467.1 493.772   4
  -3   3   4 15785.0 424.198   2
   3  -3  -4 15195.7 426.021   1
  -3   3   4 15252.1 380.039   1
   3  -3  -3 188161. 1377.02   1
  -3   3   3 189986. 1324.31   3
   3  -3  -3 192099. 1443.08   3
  -3   3   3 190706. 1268.11   1
  -3   3   3 188347. 1407.85   2
  -3   3   2 20150.6 413.093   3
   3  -3  -2 20019.6 425.171   1
  -3   3   2 20358.2 445.456   2
  -3   3   1 147896. 1173.98   2
  -3   3   1 149604. 1123.80   3
   3  -3  -1 149704. 1282.82   2
   3  -3  -1 145896. 1124.53   1
  -3   3   0 3479.78 183.218   2
  -3   3   0 3818.20 225.183   4
   3  -3   0 3781.48 200.955   2
  -3   3  -1 170192. 1510.85   4
  -3   3  -1 171835. 1309.49   2
   3  -3   1 174724. 1344.97   2
   3  -3   2 243986. 1297.80   5
  -3   3  -2 240693. 1859.68   4
   3  -3   2 242767. 1626.89   2
   3  -3   3 85439.6 1008.70   2
   3  -3   3 86243.0 764.110   5
   3  -3   4 9198.16 348.226   2
  -3   3  -4 9350.22 288.168   5
  -3   3  -4 8944.31 401.814   4
   3  -3   5 41188.4 767.958   2
  -3   3  -5 40732.9 896.968   4
  -3   3  -5 39258.1 621.435   5
  -3   3  -5 40204.7 754.385   3
   3  -3   6 167489. 1633.72   2
  -3   3  -6 165740. 1407.21   5
  -3   3  -6 166900. 1656.68   3
   3  -3   7 77.7411 67.6852   2
  -3   3  -7 119.589 68.8515   3
  -3   3  -7 20.6679 45.0387   5
   3  -3   8 2872.18 244.585   2
   3  -3   8 2803.92 150.516   6
  -3   3  -8 2792.28 220.131   5
   3  -3   9 83573.7 1321.51   2
   3  -3   9 82397.4 721.395   6
   3  -3  10 220.855 96.3969   2
   3  -3  11 18687.1 697.834   2
   3  -3  12 17788.3 706.962   2
   3  -3  13 7206.15 476.976   2
   3  -3  14 13060.8 659.414   2
   3  -3  15 2685.37 324.400   2
   3  -2 -13 20190.5 770.106   4
  -3   2  13 19229.6 851.618   3
  -3   2  12 7040.28 498.280   3
  -3   2  11 3086.05 263.039   1
  -3   2  11 2964.20 304.631   3
  -3   2  10 19424.3 609.212   1
  -3   2  10 18382.7 709.568   3
   3  -2  -9 90791.9 941.346   6
  -3   2   9 90437.2 1225.95   1
  -3   2   9 88472.5 1456.29   3
   3  -2  -8 47427.9 701.116   6
  -3   2   8 48862.8 829.168   1
  -3   2   8 49809.3 1012.07   3
   3  -2  -7 18134.0 579.614   3
  -3   2   7 17987.4 457.562   1
  -3   2   7 18466.5 576.843   3
  -3   2   6 93764.1 1213.83   3
   3  -2  -6 94197.6 1255.19   3
  -3   2   6 93681.3 947.179   1
   3  -2  -6 94011.8 1175.85   4
  -3   2   5 5084.63 266.476   3
  -3   2   5 4839.68 259.800   2
  -3   2   5 4829.62 189.793   1
   3  -2  -5 4912.81 268.621   3
   3  -2  -5 5013.97 263.979   4
  -3   2   4 297011. 1887.61   3
   3  -2  -4 290829. 1942.72   3
   3  -2  -4 299103. 1922.17   4
  -3   2   4 292153. 1291.31   1
  -3   2   3 31273.4 580.103   3
   3  -2  -3 30961.5 605.170   3
   3  -2  -3 31292.1 420.453   1
   3  -2  -3 30186.4 595.855   4
  -3   2   3 30085.5 627.872   2
  -3   2   3 30879.0 374.161   1
  -3   2   2 8002.99 288.440   3
   3  -2  -2 8156.10 197.904   1
  -3   2   2 8189.72 308.465   4
  -3   2   2 7971.30 317.191   2
  -3   2   1 443277. 2233.46   4
  -3   2   1 441590. 2154.87   3
   3  -2   0 95128.0 1039.56   2
  -3   2   0 91148.1 1044.86   4
  -3   2  -1 712.295 103.714   4
   3  -2   1 483.758 86.0797   2
  -3   2  -2 167205. 1576.12   4
   3  -2   2 165413. 1237.52   5
   3  -2   2 166718. 1352.88   2
   3  -2   3 178366. 1301.46   5
   3  -2   3 176676. 1438.47   2
   3  -2   4 80717.8 1016.26   2
  -3   2  -4 80003.3 926.847   5
   3  -2   5 34865.9 698.116   2
  -3   2  -5 34882.8 691.274   2
  -3   2  -5 34335.5 648.617   5
  -3   2  -6 170076. 1577.91   2
   3  -2   6 167870. 1606.42   2
  -3   2  -6 171175. 1563.23   5
   3  -2   7 11066.5 434.459   2
  -3   2  -7 11138.3 431.797   5
  -3   2  -7 10641.0 459.870   3
   3  -2   8 59740.4 1054.09   2
  -3   2  -8 63093.8 1091.66   5
   3  -2   9 42476.2 931.386   2
   3  -2   9 41299.1 424.987   6
   3  -2  10 1676.32 208.219   2
   3  -2  11 28238.6 838.233   2
   3  -2  12 4098.10 340.022   2
   3  -2  13 1217.62 211.355   2
   3  -2  14 14452.2 689.217   2
  -3   1  13 1758.60 270.657   3
   3  -1 -12 9317.23 459.860   4
  -3   1  12 8725.87 549.359   3
  -3   1  12 10141.1 471.578   1
  -3   1  11 52499.6 1006.84   1
  -3   1  11 50263.7 1234.05   3
  -3   1  10 13465.3 476.718   1
  -3   1  10 12607.3 588.702   3
  -3   1   9 7405.23 326.458   1
  -3   1   9 7683.02 431.440   3
  -3   1   8 48773.6 755.452   1
   3  -1  -8 48746.1 841.690   4
  -3   1   8 46753.2 993.511   3
  -3   1   7 103443. 1373.87   3
  -3   1   7 105532. 984.683   1
   3  -1  -7 102646. 1383.87   3
   3  -1  -7 103063. 1162.28   4
  -3   1   6 604.461 109.859   3
   3  -1  -6 362.053 88.8509   3
   3  -1  -6 397.629 78.7509   4
  -3   1   6 586.751 68.4651   1
  -3   1   5 26198.9 617.184   3
   3  -1  -5 25722.0 621.722   3
   3  -1  -5 26155.7 524.517   4
  -3   1   5 26179.5 340.128   1
  -3   1   4 307327. 2007.85   3
   3  -1  -4 305418. 1729.31   4
  -3   1   3 35804.7 662.222   3
   3  -1  -3 35672.8 677.041   3
  -3   1   3 36432.0 694.003   2
  -3   1   3 36711.6 588.834   4
   3  -1  -3 36403.7 595.579   4
  -3   1   2 107926. 1135.52   3
  -3   1   2 105899. 1013.77   4
   3  -1  -2 109904. 1055.50   4
  -3   1   1 195062. 1443.84   4
   3  -1  -1 195129. 1577.78   2
  -3   1   0 4705.89 240.802   4
   3  -1   0 5171.42 260.210   2
   3  -1   1 155024. 1369.78   2
   3  -1   2 194545. 1525.35   2
   3  -1   2 191030. 1478.01   5
  -3   1  -3 12795.2 390.906   2
  -3   1  -3 12804.9 392.421   5
   3  -1   3 13034.4 396.608   5
   3  -1   3 12692.9 395.893   2
  -3   1  -4 88608.4 1038.87   2
  -3   1  -4 88305.8 1058.86   5
   3  -1   4 88952.5 1064.42   2
  -3   1  -5 142348. 1378.06   2
  -3   1  -5 147216. 1473.21   5
   3  -1   5 143905. 1419.66   2
  -3   1  -6 7030.22 318.296   2
  -3   1  -6 6757.67 340.544   5
  -3   1  -6 6603.90 350.662   3
   3  -1   6 6758.86 323.132   2
  -3   1  -7 99809.2 1374.47   5
   3  -1   7 96635.1 1274.45   2
   3  -1   8 55221.5 1014.85   2
   3  -1   9 6184.03 364.094   2
   3  -1  10 59955.2 1161.31   2
   3  -1  11 10820.8 676.092   1
   3  -1  11 11612.5 536.312   2
   3  -1  12 580.808 141.191   2
   3  -1  12 585.887 203.169   1
   3  -1  13 1363.93 278.303   1
   3  -1  13 1474.77 222.720   2
  -3   0  14 23012.9 980.508   3
  -3   0  13 2165.28 299.818   3
  -3   0  12 1172.19 216.677   3
   3   0 -12 1433.12 166.981   4
  -3   0  12 1411.50 179.519   1
   3   0 -11 34138.0 738.965   4
  -3   0  11 35788.6 812.578   1
  -3   0  11 34257.6 1028.03   3
  -3   0  10 21334.4 590.076   1
   3   0 -10 21094.4 546.939   4
  -3   0  10 20291.6 739.039   3
  -3   0   9 20367.8 523.350   1
   3   0  -9 20177.3 505.353   4
  -3   0   9 20774.9 709.365   3
  -3   0   8 65179.6 1184.37   3
  -3   0   8 67809.0 861.160   1
   3   0  -8 67099.3 854.469   4
  -3   0   7 81964.6 1251.70   3
   3   0  -7 82932.5 1264.53   3
   3   0  -7 82157.7 886.926   4
  -3   0   6 15724.7 525.930   3
   3   0  -6 15833.0 524.920   3
   3   0  -6 15738.3 373.331   4
  -3   0   5 158575. 1571.03   3
   3   0  -5 162114. 1145.46   4
  -3   0   4 38755.1 755.195   3
   3   0  -4 39509.2 571.298   4
  -3   0   3 10559.0 385.248   3
  -3   0   3 10534.6 288.437   4
   3   0  -2 151991. 687.587   1
  -3   0   2 150365. 1184.59   4
   3   0  -1 54101.3 566.681   1
  -3   0   1 54753.9 886.335   3
   3   0   0 11226.8 399.776   2
   3   0   0 11651.7 319.086   1
   3   0   1 148842. 1300.67   1
   3   0   1 152053. 1442.78   2
  -3   0  -1 150939. 1417.82   2
   3   0   2 181382. 1600.54   1
   3   0   2 186333. 1570.35   2
  -3   0  -2 186102. 1537.27   2
  -3   0  -3 10239.4 357.403   2
  -3   0  -3 10490.0 387.172   5
   3   0   3 10834.1 387.689   2
  -3   0  -4 161791. 1420.55   2
  -3   0  -4 160294. 1564.12   5
   3   0   4 160591. 1486.82   2
  -3   0  -5 5288.58 265.358   2
  -3   0  -5 5322.88 306.192   5
   3   0   5 5514.44 287.637   2
  -3   0  -6 1599.56 154.479   2
  -3   0  -6 1522.99 180.192   5
   3   0   6 1470.68 207.632   1
   3   0   6 1437.17 159.170   2
   3   0   7 89989.8 1622.26   1
   3   0   7 93550.6 1254.68   2
   3   0   8 13919.7 684.245   1
   3   0   8 14758.2 524.663   2
   3   0   9 20708.4 364.731   6
   3   0   9 21483.6 889.261   1
   3   0   9 20731.5 651.782   2
   3   0  10 796.693 149.616   2
   3   0  10 736.376 206.614   1
   3   0  11 21227.4 985.735   1
   3   0  11 21688.4 723.711   2
   3   0  12 9128.28 676.628   1
  -3  -1  14 15078.3 796.372   3
  -3  -1  13 1237.26 239.075   3
  -3  -1  12 35882.3 865.999   1
  -3  -1  12 35870.4 1114.30   3
   3   1 -11 48378.6 722.259   4
  -3  -1  11 46779.9 1193.04   3
   3   1 -10 6471.59 250.264   4
  -3  -1  10 6355.55 424.165   3
   3   1  -9 70394.5 759.227   4
  -3  -1   9 68255.4 1296.33   3
  -3  -1   8 47494.4 1026.31   3
   3   1  -8 47365.0 575.991   4
   3   1  -7 100.744 73.3851   3
  -3  -1   7 12.0849 78.4457   3
  -3  -1   6 145813. 1639.75   3
  -3  -1   5 97424.4 1275.89   3
  -3  -1   5 97538.9 712.484   1
  -3  -1   4 48627.6 879.301   3
  -3  -1   4 48561.3 490.530   1
  -3  -1   4 48129.5 526.790   4
  -3  -1   3 212488. 1798.08   3
  -3  -1   3 211539. 1297.70   4
  -3  -1   3 209386. 1084.56   1
   3   1  -2 121274. 940.804   1
  -3  -1   2 123356. 927.253   1
  -3  -1   1 32883.4 548.713   1
  -3  -1   1 32730.3 727.968   3
   3   1  -1 32471.5 551.116   1
  -3  -1   0 28164.7 647.811   2
  -3  -1   0 27666.7 556.469   1
   3   1   0 28206.2 576.193   1
   3   1   1 484486. 2655.44   1
  -3  -1  -1 510888. 2725.10   2
   3   1   2 79465.3 1092.74   2
   3   1   2 79021.5 1163.92   1
  -3  -1  -2 77371.0 1029.16   2
  -3  -1  -3 47524.1 894.549   5
   3   1   3 49372.7 1004.06   1
   3   1   3 49230.4 868.063   2
  -3  -1  -3 48070.0 791.506   2
  -3  -1  -4 262780. 1829.38   2
   3   1   4 261071. 2002.00   2
   3   1   4 266824. 2483.40   1
   3   1   5 461.676 147.513   1
   3   1   5 249.923 86.7287   2
   3   1   6 44203.5 1148.61   1
  -3  -1  -6 44250.0 772.900   2
   3   1   6 43790.8 865.076   2
   3   1   7 13558.8 497.670   2
   3   1   7 13634.2 676.067   1
   3   1   8 9260.11 589.125   1
   3   1   8 9155.22 424.272   2
   3   1   9 48891.4 1007.48   2
   3   1   9 46817.6 1395.64   1
   3   1   9 48412.6 669.885   6
   3   1  10 7873.64 599.132   1
   3   1  10 7812.55 420.654   2
   3   1  11 4140.16 458.089   1
  -3  -2  14 10823.9 681.356   3
  -3  -2  13 14220.2 745.070   3
  -3  -2  12 13626.1 692.488   3
  -3  -2  11 16627.4 719.940   3
  -3  -2  10 33496.6 971.228   3
  -3  -2   9 86886.9 1489.21   3
  -3  -2   8 192.636 98.6710   3
  -3  -2   7 4549.08 318.262   3
  -3  -2   7 4573.58 213.535   1
  -3  -2   6 219626. 2068.66   3
   3   2  -6 222397. 2074.92   3
  -3  -2   6 220797. 1391.12   1
  -3  -2   5 2314.71 142.135   1
  -3  -2   5 2503.86 222.329   3
   3   2  -5 2132.60 203.859   3
  -3  -2   4 23481.9 635.297   3
  -3  -2   4 23355.6 452.965   1
   3   2  -4 23914.6 653.949   3
  -3  -2   4 24342.3 394.680   4
  -3  -2   3 147799. 1585.61   3
  -3  -2   3 149318. 1191.37   1
   3   2  -3 152629. 1264.16   1
  -3  -2   2 109246. 1084.56   1
  -3  -2   2 111346. 1395.77   3
   3   2  -2 112029. 1132.09   1
   3   2  -1 158885. 1445.02   1
  -3  -2   1 156401. 1668.87   3
  -3  -2   1 153138. 1561.23   2
  -3  -2   1 156143. 1390.40   1
   3   2   0 133608. 1441.37   1
  -3  -2   0 136912. 1419.08   1
   3   2   1 94876.1 1313.27   1
  -3  -2  -1 95960.7 1224.97   2
  -3  -2  -1 96696.3 1281.45   1
  -3  -2  -2 40185.6 771.451   2
   3   2   2 41125.9 924.057   1
  -3  -2  -3 89662.7 1335.39   5
  -3  -2  -3 91849.4 1117.39   2
   3   2   3 91346.3 1467.36   1
  -3  -2  -4 277.030 73.4004   2
   3   2   4 207.550 104.944   1
   3   2   4 351.196 94.1155   2
   3   2   5 10064.5 553.637   1
  -3  -2  -5 10243.6 361.180   2
   3   2   5 10386.2 429.162   2
   3   2   6 97826.1 1804.25   1
   3   2   6 99151.5 1335.92   2
   3   2   7 10568.9 631.213   1
   3   2   7 10767.8 454.035   2
   3   2   8 1400.93 146.893   6
   3   2   8 1415.64 173.923   2
   3   2   8 1589.23 280.149   1
   3   2   9 21264.5 978.526   1
   3   2  10 2010.13 330.689   1
  -3  -3  13 17810.7 838.408   3
  -3  -3  12 42096.4 1219.91   3
  -3  -3  11 6955.58 480.190   3
  -3  -3  10 6612.89 442.683   3
  -3  -3   9 84602.4 1496.51   3
  -3  -3   9 87911.2 1123.27   1
  -3  -3   8 109.600 98.4553   3
  -3  -3   8 264.033 72.7314   1
  -3  -3   7 50680.0 1064.74   3
  -3  -3   7 50322.4 794.355   1
  -3  -3   6 56569.8 826.238   1
  -3  -3   6 55619.8 1073.68   3
   3   3  -6 57551.6 1113.72   3
  -3  -3   5 35013.4 834.359   3
  -3  -3   5 35054.8 653.105   1
   3   3  -5 35562.6 859.327   3
  -3  -3   5 35165.9 393.886   4
  -3  -3   4 213158. 2003.52   3
  -3  -3   4 220640. 1673.13   1
  -3  -3   3 46798.5 931.650   3
  -3  -3   3 46051.6 788.945   1
   3   3  -3 48600.7 845.591   1
  -3  -3   2 12729.6 494.341   3
   3   3  -2 12202.1 493.496   5
   3   3  -2 12204.4 443.838   1
  -3  -3   2 12593.5 429.836   1
   3   3  -1 87605.4 1237.34   1
  -3  -3   1 89567.2 1195.39   1
  -3  -3   1 86667.3 1301.52   3
   3   3  -1 84433.9 1282.62   5
  -3  -3   1 85786.0 1233.12   2
  -3  -3   0 70948.0 1118.21   2
   3   3   0 71821.4 1192.03   1
   3   3   0 73257.1 1193.63   5
  -3  -3  -1 2286.24 224.248   1
   3   3   1 2242.22 234.056   1
   3   3   1 2236.40 223.782   5
  -3  -3  -1 2270.05 201.647   2
   3   3   2 52877.1 1149.13   1
  -3  -3  -2 54481.6 927.654   2
   3   3   3 78630.8 1476.75   1
  -3  -3  -3 76159.3 1040.90   2
   3   3   4 225.008 127.431   1
  -3  -3  -4 383.852 81.2515   2
  -3  -3  -5 12440.5 390.015   2
   3   3   5 12388.5 662.034   1
   3   3   6 26907.8 711.878   6
   3   3   6 27367.0 1022.30   1
   3   3   7 677.574 192.729   1
   3   3   7 348.281 95.2496   6
   3   3   8 16685.7 546.211   6
   3   3   8 17063.4 889.899   1
   3   3   9 10027.7 711.748   1
  -3  -4  13 2096.68 312.112   3
  -3  -4  12 23686.6 934.835   3
  -3  -4  11 29456.8 995.411   3
  -3  -4  10 32532.0 1000.57   3
  -3  -4   9 6471.21 431.391   3
  -3  -4   9 7422.84 358.821   1
  -3  -4   8 18646.7 694.181   3
  -3  -4   8 19633.0 569.425   1
  -3  -4   7 159626. 1594.54   1
  -3  -4   7 154754. 1918.18   3
  -3  -4   6 18868.1 650.235   3
  -3  -4   6 19532.2 560.242   1
  -3  -4   5 14541.3 563.041   3
  -3  -4   5 14392.5 486.538   1
  -3  -4   4 126989. 1613.31   3
  -3  -4   4 129427. 1466.61   1
  -3  -4   3 5202.43 331.771   3
   3   4  -3 5394.30 344.125   5
   3   4  -3 5722.59 340.989   1
  -3  -4   3 5806.30 320.872   1
  -3  -4   2 42815.0 902.577   1
  -3  -4   2 42057.8 939.222   3
   3   4  -2 41902.5 933.933   5
   3   4  -2 43421.3 955.847   1
  -3  -4   1 116697. 1575.18   3
   3   4  -1 116324. 1575.91   5
  -3  -4   1 117712. 1507.78   2
   3   4  -1 117850. 1621.97   1
  -3  -4   0 39788.7 881.920   2
  -3  -4   0 39590.5 942.705   3
   3   4   0 39698.5 983.885   1
   3   4   0 38822.2 923.358   5
   3   4   1 30499.7 910.845   1
  -3  -4  -1 30553.2 745.972   2
   3   4   2 75117.2 1508.71   1
  -3  -4  -2 75481.1 1121.61   2
   3   4   3 13659.8 678.050   1
  -3  -4  -3 13747.2 443.566   2
  -3  -4  -4 16499.7 452.968   2
   3   4   4 16711.9 783.610   1
   3   4   5 23359.4 967.119   1
   3   4   5 23109.1 726.933   6
   3   4   6 12105.8 531.657   6
   3   4   6 12865.5 748.819   1
   3   4   7 12950.9 545.512   6
   3   4   7 13637.0 805.507   1
   3   4   8 8890.24 679.185   1
  -3  -5  13 10869.4 680.159   3
   3   5 -12 167.693 78.7496   6
  -3  -5  12-7.44012 104.866   3
   3   5 -11 29485.1 806.684   6
  -3  -5  11 28673.3 1008.50   3
  -3  -5  10 30291.8 985.770   3
  -3  -5   9 288.204 123.657   3
  -3  -5   8 19434.3 731.676   3
  -3  -5   7 30323.5 886.600   3
  -3  -5   6 7376.34 428.252   3
  -3  -5   6 7622.25 205.567   4
  -3  -5   5 73772.0 1300.80   3
   3   5  -4 82897.3 1391.26   5
  -3  -5   4 81502.5 1354.05   3
  -3  -5   3 1644.90 195.549   3
   3   5  -3 1380.05 189.878   5
   3   5  -3 1844.64 225.340   1
  -3  -5   2 19116.5 648.149   3
   3   5  -2 18744.1 662.571   5
   3   5  -2 19196.5 716.090   1
  -3  -5   1 48594.0 1048.43   3
   3   5  -1 49783.5 1084.43   5
  -3  -5   1 50255.1 1041.37   2
   3   5  -1 50156.0 1185.17   1
  -3  -5   0 8079.76 439.056   3
  -3  -5   0 8454.81 425.730   2
   3   5   0 8418.55 510.214   1
   3   5   1 57632.9 1376.05   1
  -3  -5  -1 56737.6 1187.28   3
   3   5   2 5836.19 461.911   1
   3   5   3 526.393 138.925   6
   3   5   3 618.870 186.927   1
   3   5   4 53213.3 1502.17   1
   3   5   4 51531.8 1200.57   6
   3   5   5 2675.63 374.437   1
   3   5   5 2544.48 272.178   6
   3   5   6 2164.49 345.005   1
   3   5   6 2040.91 246.227   6
   3   6 -12 5771.99 387.092   6
  -3  -6  12 5808.30 485.958   3
   3   6 -11 30696.2 905.795   6
  -3  -6  11 30454.9 1058.82   3
   3   6 -10 1330.31 207.506   6
  -3  -6  10 1552.47 244.624   3
  -3  -6   9 11478.1 602.629   3
   3   6  -9 10868.6 550.514   6
  -3  -6   8 44105.4 1125.80   3
  -3  -6   7 31733.4 931.452   3
  -3  -6   6 26753.2 825.928   3
   3   6  -6 27371.7 853.735   5
  -3  -6   6 28228.6 526.309   4
  -3  -6   5 20852.9 710.407   3
   3   6  -5 21136.6 734.984   5
  -3  -6   4 12776.1 550.458   3
   3   6  -4 12565.1 559.800   5
  -3  -6   3 40823.6 966.785   3
   3   6  -3 40725.9 1017.52   5
  -3  -6   2 62065.6 1184.77   3
   3   6  -2 65825.4 1465.83   1
  -3  -6   1 1985.55 223.042   3
   3   6  -1 1575.49 244.655   1
  -3  -6   0 1385.09 190.257   3
   3   6   0 1193.13 203.378   6
   3   6   0 1470.29 246.539   1
   3   6   1 45665.5 1194.91   6
  -3  -6  -1 44623.4 1046.89   3
   3   6   1 48111.1 1375.21   1
   3   6   2 638.113 169.464   6
   3   6   2 532.358 192.703   1
  -3  -6  -2 496.228 131.179   3
   3   6   3 3535.19 415.974   1
   3   6   3 3262.95 328.207   6
   3   6   4 5682.29 532.381   1
   3   6   4 5494.29 431.947   6
   3   6   5 8299.22 526.868   6
   3   6   6 11152.6 606.996   6
  -3  -7  12 23002.5 972.210   3
   3   7 -11 9975.04 562.449   6
  -3  -7  11 10000.5 619.608   3
   3   7 -10 1798.92 250.966   6
  -3  -7  10 1883.25 271.555   3
   3   7  -9 54877.7 1343.00   6
  -3  -7   9 53417.9 1323.94   3
  -3  -7   8 6243.36 440.401   3
   3   7  -8 5912.20 452.120   6
   3   7  -8 6359.98 436.200   5
   3   7  -7 79.8428 115.406   6
  -3  -7   7 198.411 104.320   3
   3   7  -7-31.2382 110.269   5
  -3  -7   6 51773.5 1172.07   3
   3   7  -6 51520.4 1311.39   6
   3   7  -6 51704.8 1171.99   5
  -3  -7   5 36376.2 945.694   3
   3   7  -5 36476.4 1112.31   6
   3   7  -5 36113.4 982.418   5
  -3  -7   4 20342.6 692.215   3
   3   7  -4 19873.8 827.907   6
   3   7  -4 19533.4 723.754   5
  -3  -7   3 6306.52 381.871   3
   3   7  -3 6405.12 478.503   6
  -3  -7   2 40309.2 946.339   3
   3   7  -2 41209.1 1268.35   1
   3   7  -2 38626.5 1177.29   6
   3   7  -1 6403.32 487.581   6
   3   7  -1 7137.07 550.758   1
   3   7   0 12755.3 685.429   6
   3   7   0 13322.2 769.774   1
   3   7   1 12886.2 686.508   6
   3   7   1 13369.8 792.807   1
   3   7   2 733.659 215.859   1
   3   7   2 503.124 161.206   6
   3   7   3 16639.7 798.184   6
   3   7   4 6891.24 515.616   6
   3   8 -10 3600.82 373.632   6
   3   8  -9 27106.9 1012.87   6
   3   8  -8 987.417 215.141   6
   3   8  -7 17258.3 821.042   6
   3   8  -6 15811.5 788.046   6
   3   8  -5 1380.30 256.375   6
   3   8  -4 7995.78 565.792   6
   3   8  -3 7548.56 554.656   6
   4 -11   3 7007.30 585.196   4
   4 -11   4 1372.85 276.222   4
   4 -11   5 2303.83 333.533   4
   4 -11   6 15694.0 842.086   4
   4 -11   7 628.136 171.448   2
   4 -11   7 582.080 180.898   4
   4 -11   8 9702.70 597.400   2
   4 -10   0 7514.08 596.122   4
   4 -10   1 30872.3 1161.32   4
   4 -10   2 3091.29 375.381   4
   4 -10   3 24950.5 1013.98   4
   4 -10   4 14688.2 784.132   4
   4 -10   4 15435.6 619.552   2
   4 -10   5 10763.3 543.831   2
   4 -10   5 10241.7 652.225   4
   4 -10   6 1853.23 243.022   2
   4 -10   6 1723.07 274.809   4
   4 -10   7 105.736 102.577   2
   4 -10   8 61041.7 1446.52   2
   4 -10   9 187.926 133.754   2
   4  -9  -3 784.763 210.214   4
   4  -9  -2 33050.0 1185.11   4
   4  -9  -1 1914.00 296.571   4
   4  -9   0 12040.7 686.060   4
   4  -9   1 34674.3 1138.97   4
   4  -9   2 20162.2 853.182   4
   4  -9   2 20703.4 638.713   2
   4  -9   3 2381.57 302.945   4
   4  -9   3 2629.44 246.653   2
   4  -9   4 5754.97 372.177   2
   4  -9   4 5220.33 442.046   4
   4  -9   5 68505.2 1312.27   2
   4  -9   5 65052.4 1524.73   4
   4  -9   6 410.907 138.360   2
   4  -9   6 230.122 127.007   4
   4  -9   7 8958.39 521.193   2
   4  -9   8 19129.6 783.900   2
   4  -9   9 59.7696 111.103   2
   4  -9  10 9990.65 611.868   2
   4  -9  11 13916.9 742.846   2
   4  -8  -5 41450.6 1342.30   4
   4  -8  -4 4023.01 427.581   4
   4  -8  -3 2008.57 291.810   4
   4  -8  -2 32498.3 1078.38   4
   4  -8  -1 4478.95 402.836   4
   4  -8   0 32601.7 1027.61   4
   4  -8   0 35895.8 759.613   2
   4  -8   1 32364.5 1011.86   4
   4  -8   1 32671.5 752.654   2
   4  -8   2 5753.66 431.180   4
   4  -8   2 5903.83 333.268   2
   4  -8   3 34199.1 1025.57   4
   4  -8   3 32647.7 807.939   2
   4  -8   4 42909.4 960.595   2
   4  -8   4 42627.9 1163.14   4
   4  -8   5 3496.63 295.577   2
   4  -8   5 3493.94 338.962   4
   4  -8   6 22178.3 747.421   2
   4  -8   6 21970.9 854.463   4
   4  -8   7 49691.9 1168.69   2
   4  -8   8 8037.16 488.912   2
   4  -8   9 20316.0 805.840   2
   4  -8  10 29191.4 996.217   2
   4  -8  11 7314.31 523.818   2
   4  -8  12 11889.4 684.236   2
   4  -7  -7 11.2392 115.006   4
  -4   7   7 228.516 111.547   1
   4  -7  -6 7026.31 538.320   4
  -4   7   6 6681.24 437.235   1
   4  -7  -5 16744.2 792.269   4
   4  -7  -4 78.7261 114.229   4
   4  -7  -3 40330.8 1143.53   4
   4  -7  -2 32602.7 989.980   4
   4  -7  -1 575.139 102.782   2
   4  -7  -1 573.838 153.787   4
   4  -7   0 39828.5 1040.72   4
   4  -7   0 41881.5 812.900   2
   4  -7   1 43646.6 1080.49   4
   4  -7   1 42858.0 836.490   2
   4  -7   2 56.3466 67.0218   2
   4  -7   2 109.435 89.8915   4
   4  -7   3 31201.4 757.991   2
   4  -7   3 31417.7 928.458   4
  -4   7  -3 31148.2 445.154   3
   4  -7   4 16817.0 574.551   2
   4  -7   4 17346.1 698.812   4
  -4   7  -4 16908.9 397.913   3
   4  -7   5 7884.15 410.739   2
   4  -7   5 7789.72 477.106   4
  -4   7  -5 7494.58 304.132   3
   4  -7   6 73721.8 1300.13   2
  -4   7  -6 71147.9 1033.38   3
   4  -7   7 30475.7 869.767   2
  -4   7  -7 29499.1 723.686   3
   4  -7   8 1550.26 219.006   2
   4  -7   9 18561.1 733.820   2
   4  -7  10 26591.1 913.217   2
   4  -7  11 12536.4 650.799   2
   4  -7  12 981.511 205.908   2
   4  -6  -9 5905.12 506.053   4
   4  -6  -8 1146.45 236.644   4
  -4   6   8 845.708 161.250   1
   4  -6  -7 19496.6 841.367   4
  -4   6   7 18646.4 678.049   1
   4  -6  -6 39401.9 1146.35   4
  -4   6   6 35892.1 910.905   1
   4  -6  -5 11240.7 595.805   4
  -4   6   5 10922.2 486.556   1
   4  -6  -4 47814.1 1178.70   4
  -4   6   4 47133.2 633.083   3
   4  -6  -3 10739.5 540.179   4
  -4   6   3 10673.9 256.719   3
   4  -6  -3 11832.8 517.762   1
   4  -6  -2 9237.07 448.798   1
   4  -6  -2 9023.27 341.520   2
   4  -6  -2 7954.89 457.072   4
  -4   6   2 8063.46 187.844   3
   4  -6  -1 69209.7 1220.39   1
   4  -6  -1 67476.7 1273.73   4
   4  -6  -1 68215.1 1012.34   2
  -4   6   1 65469.6 461.573   3
   4  -6   0 78709.9 1276.50   1
  -4   6   0 76668.2 536.984   3
   4  -6   0 78709.7 1354.52   4
   4  -6   0 77867.9 1089.38   2
   4  -6   1 473.810 110.732   1
  -4   6  -1 257.564 46.4452   3
   4  -6   1 144.409 79.6806   2
   4  -6   1 452.401 122.983   4
  -4   6  -1 292.090 43.7343   3
   4  -6   2 13835.7 578.182   4
   4  -6   2 13151.7 534.884   1
  -4   6  -2 12918.7 303.515   3
   4  -6   2 13404.1 466.649   2
   4  -6   3 228202. 1964.10   2
   4  -6   3 229347. 2361.89   4
  -4   6  -4 421.639 76.4864   3
   4  -6   4 609.672 128.489   2
   4  -6   4 684.157 152.993   4
  -4   6  -5 1272.48 177.666   4
   4  -6   5 861.771 144.751   2
  -4   6  -5 986.620 123.211   3
   4  -6   6 137621. 1706.75   2
  -4   6  -6 137903. 1509.32   3
   4  -6   7 612.757 142.018   2
  -4   6  -7 879.688 134.044   3
   4  -6   8 105842. 1616.25   2
   4  -6   8 103958. 1361.01   6
   4  -6   9 24869.5 816.693   2
   4  -6   9 24925.8 652.722   6
   4  -6  10 29239.5 921.582   2
   4  -6  11 30532.7 979.102   2
   4  -6  12 11439.5 628.624   2
   4  -6  13 381.107 158.694   2
   4  -5 -10 8842.80 591.161   4
   4  -5  -9 15351.7 748.741   4
  -4   5   9 15516.2 603.696   1
  -4   5   8 109.257 83.2736   1
   4  -5  -8 105.910 101.614   4
  -4   5   8 85.1890 71.4649   3
   4  -5  -7 54452.4 1286.96   4
  -4   5   7 53426.8 1032.22   1
  -4   5   7 51666.3 961.196   3
   4  -5  -6 3718.23 262.779   3
   4  -5  -6 3556.25 325.535   4
  -4   5   6 3117.87 244.749   1
  -4   5   6 3187.62 226.822   3
  -4   5   5 1166.00 99.4231   2
   4  -5  -5 1030.18 133.981   3
   4  -5  -5 1109.38 183.650   4
  -4   5   5 940.773 136.691   1
  -4   5   5 1054.67 128.591   3
   4  -5  -5 1211.06 163.939   1
  -4   5   4 101399. 936.625   2
   4  -5  -4 105015. 1398.39   1
   4  -5  -4 102166. 1584.22   4
  -4   5   4 102113. 1050.14   3
  -4   5   3 21579.6 451.558   3
  -4   5   3 22160.8 457.922   2
   4  -5  -3 21746.4 695.893   4
   4  -5  -3 22708.1 634.430   1
  -4   5   2 1798.88 124.100   3
  -4   5   2 1714.06 135.692   2
   4  -5  -2 1583.20 171.185   6
   4  -5  -2 1824.60 179.665   1
   4  -5  -2 1713.90 163.616   2
   4  -5  -2 1569.33 194.352   4
   4  -5  -1 28590.2 683.249   1
  -4   5   1 27947.5 556.753   2
   4  -5  -1 29059.1 661.187   2
   4  -5  -1 27490.5 760.755   4
  -4   5   0 175910. 1452.30   2
  -4   5   0 180606. 1255.82   3
   4  -5   0 175836. 1916.67   4
   4  -5   0 177754. 1616.93   2
   4  -5   0 176782. 1702.97   1
  -4   5  -1 33375.2 660.623   2
  -4   5  -1 35351.3 836.942   4
   4  -5   1 34214.1 849.197   4
   4  -5   1 33382.6 756.785   1
   4  -5   1 34100.9 708.647   2
  -4   5  -2 49243.4 836.886   2
  -4   5  -2 50501.2 997.669   4
   4  -5   2 48926.4 1032.55   4
   4  -5   2 48805.5 859.462   2
  -4   5  -3 67509.1 1019.26   2
   4  -5   3 70111.1 626.417   5
  -4   5  -3 69120.3 1175.04   4
   4  -5   3 69340.0 1250.90   4
   4  -5   3 69180.5 1050.35   2
  -4   5  -4 282.331 84.6446   2
   4  -5   4 361.606 102.832   2
  -4   5  -4 466.312 109.609   4
  -4   5  -4 255.189 66.4357   3
   4  -5   5 278562. 2253.33   2
  -4   5  -5 278027. 2481.52   4
  -4   5  -5 274907. 2028.08   3
   4  -5   6 13653.4 522.235   2
   4  -5   6 13708.7 463.959   6
  -4   5  -6 13966.0 577.653   4
  -4   5  -6 13605.8 480.919   3
   4  -5   7 6191.19 372.674   2
   4  -5   7 5947.26 305.014   6
  -4   5  -7 5851.65 398.088   4
   4  -5   8 61450.9 1192.73   2
   4  -5   8 61252.0 956.219   6
  -4   5  -8 63143.1 940.252   5
   4  -5   9 5732.31 386.075   2
   4  -5   9 5847.87 290.078   6
  -4   5  -9 5837.88 310.357   5
   4  -5  10 5540.39 399.669   2
   4  -5  11 18459.9 743.899   2
   4  -5  12 26177.6 921.816   2
   4  -5  13 1218.41 224.853   2
   4  -4 -12 1364.52 242.385   4
   4  -4 -11 1984.69 278.285   4
  -4   4  11 1733.94 239.699   3
   4  -4 -10 29662.8 984.594   4
  -4   4  10 30231.1 917.910   3
   4  -4  -9 3481.15 332.499   4
  -4   4   9 3493.59 301.403   3
  -4   4   9 3773.46 272.281   1
  -4   4   8 764.523 141.138   3
   4  -4  -8 823.001 166.571   4
  -4   4   8 1021.49 140.390   1
   4  -4  -7 52512.0 1051.47   3
   4  -4  -7 51612.0 928.602   6
  -4   4   7 55722.7 895.152   2
   4  -4  -7 51372.3 1133.77   4
  -4   4   7 51963.4 886.306   1
  -4   4   7 51846.9 999.839   3
  -4   4   6 448.080 93.2800   1
  -4   4   6 317.235 88.2949   3
   4  -4  -6 482.752 101.086   6
   4  -4  -6 438.567 107.689   3
  -4   4   6 548.124 96.9224   2
   4  -4  -6 334.654 112.248   4
   4  -4  -5 63316.1 982.437   1
   4  -4  -5 62402.2 1030.71   3
   4  -4  -5 62073.9 1157.54   4
  -4   4   5 62089.3 874.531   1
  -4   4   5 64515.7 939.474   2
  -4   4   5 61685.7 945.029   3
  -4   4   4 2704.38 189.248   3
   4  -4  -4 2544.44 232.937   4
   4  -4  -4 2938.03 204.804   1
   4  -4  -4 2751.93 209.080   3
  -4   4   4 2999.96 200.147   2
  -4   4   3 110362. 1127.85   3
   4  -4  -3 112216. 1461.72   4
   4  -4  -3 109399. 1174.73   1
  -4   4   3 111399. 1186.08   2
  -4   4   2 129028. 1182.09   3
   4  -4  -2 128681. 1387.75   2
   4  -4  -2 129130. 1246.52   1
   4  -4  -2 127552. 1536.00   4
  -4   4   2 126151. 1257.86   2
  -4   4   1 33407.2 646.872   2
  -4   4   1 33793.5 609.984   3
   4  -4  -1 34653.9 726.096   2
   4  -4  -1 34232.0 642.969   1
  -4   4   0 16265.9 457.831   2
  -4   4   0 16948.1 454.709   3
  -4   4   0 17126.9 557.638   4
   4  -4   0 16171.9 459.040   1
   4  -4   0 17368.6 509.860   2
  -4   4  -1 76872.8 1012.21   2
  -4   4  -1 79173.3 1192.54   4
   4  -4   1 79801.9 1076.01   2
  -4   4  -2 214049. 1742.95   2
  -4   4  -2 219831. 2013.62   4
   4  -4   2 215381. 1776.82   2
  -4   4  -3 2129.62 181.777   2
   4  -4   3 1960.80 134.386   5
   4  -4   3 2027.51 186.374   2
  -4   4  -4 21571.6 685.853   4
   4  -4   4 21632.7 597.619   2
   4  -4   5 95444.7 1298.52   2
  -4   4  -5 98381.3 1521.29   4
  -4   4  -5 100224. 1309.54   2
  -4   4  -6 446.289 83.0613   5
  -4   4  -6 283.906 83.0634   3
   4  -4   6 448.905 112.751   2
  -4   4  -6 388.575 116.724   4
   4  -4   7 48796.4 1003.70   2
  -4   4  -7 49156.3 850.160   5
  -4   4  -7 49179.3 1174.17   4
   4  -4   8 53884.2 1094.73   2
  -4   4  -8 55669.0 959.910   5
   4  -4   9 752.389 103.146   6
  -4   4  -9 885.903 142.726   5
   4  -4   9 937.402 176.282   2
   4  -4  10 8855.67 490.268   2
   4  -4  11 28987.5 912.531   2
   4  -4  12 153.245 129.947   2
   4  -4  13 16395.3 746.945   2
   4  -4  14 3142.48 352.666   2
  -4   3  13 12105.2 683.830   3
   4  -3 -12 33294.6 1033.13   4
  -4   3  12 32681.2 1072.92   3
   4  -3 -11 6049.37 424.304   4
  -4   3  11 5896.13 436.212   3
  -4   3  10 26401.9 672.292   1
   4  -3 -10 25573.7 830.768   4
  -4   3  10 24997.1 839.025   3
  -4   3   9 13696.1 453.865   1
   4  -3  -9 12408.8 556.806   4
  -4   3   9 13189.1 581.667   3
  -4   3   8 66542.2 920.991   1
   4  -3  -8 65031.1 978.823   6
   4  -3  -8 64213.7 1214.63   4
  -4   3   8 68346.8 1159.07   2
  -4   3   8 64987.8 1198.06   3
   4  -3  -7 14879.3 566.141   3
   4  -3  -7 14143.9 542.650   4
  -4   3   7 14385.9 526.463   2
  -4   3   7 13822.4 527.683   3
  -4   3   7 14325.5 401.341   1
  -4   3   6 411.329 67.9130   1
  -4   3   6 280.761 91.8789   3
   4  -3  -6 394.083 99.5247   3
  -4   3   6 529.741 107.174   2
  -4   3   5 128534. 1417.80   3
   4  -3  -5 128180. 1500.96   3
   4  -3  -5 123960. 1482.14   4
  -4   3   5 127279. 1486.27   2
  -4   3   5 128409. 1017.92   1
  -4   3   4 29909.5 652.848   3
   4  -3  -4 27781.3 668.295   3
   4  -3  -4 27699.0 685.992   4
  -4   3   4 28334.9 689.042   2
   4  -3  -4 28650.1 509.596   1
  -4   3   3 38501.6 719.489   3
   4  -3  -3 36765.2 780.263   4
  -4   3   3 36872.9 766.862   2
   4  -3  -3 37996.5 545.903   1
   4  -3  -2 262091. 1410.38   1
  -4   3   2 261646. 1840.47   3
   4  -3  -2 265512. 2082.05   4
  -4   3   1 239566. 1801.53   3
  -4   3   1 238307. 1964.41   4
   4  -3  -1 235686. 1924.66   2
   4  -3  -1 233839. 1408.12   1
  -4   3   1 233399. 1831.81   2
  -4   3   0 11981.3 447.589   4
   4  -3   0 12313.6 432.182   2
  -4   3   0 12154.1 418.386   2
  -4   3  -1 219026. 1958.07   4
   4  -3   1 216494. 1788.00   2
   4  -3   2 40246.1 691.035   5
  -4   3  -2 41073.8 884.559   4
   4  -3   2 41448.7 784.245   2
  -4   3  -3 13249.2 528.304   4
   4  -3   3 13110.8 389.042   5
   4  -3   3 13022.3 449.106   2
  -4   3  -4 175041. 1986.02   4
   4  -3   4 177575. 1691.56   2
  -4   3  -5 137259. 1519.02   2
  -4   3  -5 135852. 1819.30   4
   4  -3   5 136028. 1529.62   2
  -4   3  -6 33066.7 773.558   2
  -4   3  -6 32791.9 706.133   5
   4  -3   6 32987.4 788.517   2
   4  -3   7 54267.3 1050.51   2
  -4   3  -7 54846.8 963.623   5
   4  -3   8 69214.7 1236.32   2
  -4   3  -8 71134.7 1164.41   5
   4  -3   9 3883.03 318.582   2
   4  -3  10 33587.9 940.520   2
   4  -3  11 8520.48 495.126   2
   4  -3  12 286.106 130.064   2
   4  -3  13 30119.0 1010.60   2
   4  -3  14 953.062 212.844   2
  -4   2  13 953.041 216.334   3
   4  -2 -12 2710.05 275.570   4
  -4   2  12 2445.77 306.717   3
   4  -2 -11 13008.4 563.520   4
  -4   2  11 13176.7 654.767   3
  -4   2  10 1304.89 144.624   1
   4  -2 -10 1163.03 171.290   4
  -4   2  10 1241.34 204.650   3
  -4   2   9 3689.87 210.108   1
   4  -2  -9 3216.32 261.333   4
  -4   2   9 3825.45 319.022   3
  -4   2   8 37462.7 592.342   1
   4  -2  -8 36124.6 824.931   4
  -4   2   8 36603.7 916.719   3
  -4   2   7 369.229 58.7444   1
  -4   2   7 317.830 99.4171   3
  -4   2   7 397.290 113.239   2
   4  -2  -7 353.122 92.7857   4
  -4   2   6 68666.1 1129.55   3
   4  -2  -6 68624.4 1153.13   3
  -4   2   6 68675.4 1128.64   2
   4  -2  -6 66562.4 1029.02   4
  -4   2   6 67567.6 597.105   1
  -4   2   5 80863.1 1178.30   3
   4  -2  -5 81494.9 1215.44   3
  -4   2   5 81489.6 1222.33   2
   4  -2  -5 81405.6 1095.90   4
  -4   2   4 5754.22 304.970   3
   4  -2  -4 5161.01 296.667   3
  -4   2   4 5443.98 317.740   2
   4  -2  -4 5202.80 281.073   4
  -4   2   3 7130.50 331.503   3
  -4   2   3 7796.84 335.368   4
  -4   2   3 7302.40 362.776   2
   4  -2  -3 7521.43 333.827   4
   4  -2  -3 7131.32 142.736   1
  -4   2   2 85560.0 1135.32   3
  -4   2   2 84641.8 1097.85   4
  -4   2   2 85697.6 1211.20   2
   4  -2  -2 85971.0 1130.56   4
   4  -2  -2 82830.4 563.294   1
  -4   2   1 40775.2 796.573   3
   4  -2  -1 41177.7 824.504   2
  -4   2   1 39886.9 772.124   4
  -4   2   0 164594. 1625.35   4
   4  -2   0 163555. 1623.27   2
   4  -2   1 121506. 1383.78   2
  -4   2  -1 125453. 1497.91   4
   4  -2   2 16751.7 483.427   5
   4  -2   2 17495.0 519.685   2
  -4   2  -2 17191.0 580.852   4
   4  -2   3 125318. 1322.33   5
   4  -2   3 127160. 1419.99   2
  -4   2  -4 23096.3 611.077   2
   4  -2   4 23750.7 626.387   2
  -4   2  -5 5087.89 296.773   2
  -4   2  -5 4947.22 282.640   5
   4  -2   5 5000.42 300.389   2
  -4   2  -6 123015. 1488.69   2
  -4   2  -6 123325. 1480.13   5
   4  -2   6 123428. 1511.77   2
  -4   2  -7 15640.7 550.182   5
   4  -2   7 15657.0 562.490   2
   4  -2   8 4197.23 311.551   2
   4  -2   9 20007.0 690.942   2
   4  -2  10 51225.8 1158.06   2
   4  -2  11 1264.74 205.230   2
   4  -2  12 2034.69 263.265   2
   4  -2  13 8043.12 639.283   1
   4  -2  13 8269.82 530.797   2
   4  -2  14 371.450 148.469   2
  -4   1  13 3339.27 375.821   3
  -4   1  12 29922.4 1038.75   3
   4  -1 -11 4036.13 285.122   4
  -4   1  11 4256.10 380.798   3
  -4   1  10 3712.87 206.881   1
   4  -1 -10 3437.98 254.526   4
  -4   1  10 3397.15 323.055   3
  -4   1   9 74649.3 815.219   1
  -4   1   9 72788.3 1375.06   3
  -4   1   8 43938.3 1024.34   3
   4  -1  -8 44785.7 824.757   4
  -4   1   8 45635.1 543.225   1
  -4   1   7 32734.9 839.551   3
  -4   1   7 32392.9 363.398   1
   4  -1  -7 32464.0 678.064   4
  -4   1   6 60484.8 1085.69   3
   4  -1  -6 61352.7 1108.36   3
   4  -1  -6 60318.5 901.451   4
  -4   1   5 83381.8 1227.60   3
   4  -1  -5 85031.3 1267.34   3
   4  -1  -5 85632.8 1054.60   4
  -4   1   4 65427.1 1063.14   3
   4  -1  -4 67442.5 1095.53   3
  -4   1   4 68267.2 1115.66   2
   4  -1  -4 68972.3 942.613   4
  -4   1   3 206047. 1860.17   3
  -4   1   3 203676. 1920.86   2
  -4   1   3 202460. 1584.75   4
   4  -1  -3 203840. 1648.04   4
  -4   1   2 183056. 1756.51   3
  -4   1   2 178769. 1543.26   4
  -4   1   1 3337.22 247.883   3
  -4   1   1 4551.77 261.505   4
   4  -1   0 353350. 2455.25   2
  -4   1   0 340500. 2384.06   4
   4  -1   1 7464.43 349.092   5
   4  -1   1 7721.50 366.086   2
   4  -1   2 1149.13 147.306   5
   4  -1   2 1569.10 169.822   2
  -4   1  -3 295497. 2180.33   2
   4  -1   3 292197. 2207.94   2
  -4   1  -4 50226.8 907.297   2
  -4   1  -4 50215.4 931.194   5
   4  -1   4 51022.7 939.182   2
  -4   1  -5 30563.7 714.044   2
  -4   1  -5 29992.8 743.274   5
   4  -1   5 30572.6 746.437   2
  -4   1  -6 29771.6 727.214   2
   4  -1   6 30709.0 770.370   2
  -4   1  -7 103040. 1383.61   2
   4  -1   7 100999. 1434.12   2
   4  -1   8 22918.0 714.158   2
   4  -1   9 3113.04 283.733   2
   4  -1  10 28939.8 1092.83   1
   4  -1  10 29343.7 880.638   2
   4  -1  11 4454.97 457.918   1
   4  -1  11 4985.19 381.389   2
   4  -1  12 27237.1 1162.66   1
   4  -1  12 27564.5 921.126   2
  -4   0  13 10341.3 656.600   3
  -4   0  12 21848.4 900.043   3
   4   0 -11 1746.73 170.192   4
  -4   0  11 2373.80 290.209   3
  -4   0  10 33399.3 583.220   1
   4   0 -10 33319.7 680.042   4
  -4   0  10 32186.8 979.046   3
  -4   0   9 4748.65 365.613   3
  -4   0   9 5092.59 201.787   1
   4   0  -9 4919.80 256.227   4
  -4   0   8 13535.5 578.197   3
  -4   0   8 14347.7 284.515   1
   4   0  -8 14656.3 425.100   4
  -4   0   7 143442. 1809.38   3
  -4   0   7 141560. 665.162   1
  -4   0   7 140860. 636.678   1
  -4   0   6 31582.5 808.581   3
   4   0  -6 32532.9 828.403   3
   4   0  -6 31962.0 595.296   4
  -4   0   5 7994.13 401.537   3
   4   0  -5 7512.01 388.737   3
  -4   0   4 59985.2 1064.04   3
  -4   0   4 60523.9 789.167   4
  -4   0   3 277822. 2271.07   3
  -4   0   3 271456. 1778.36   4
   4   0  -2 50363.7 529.112   1
  -4   0   2 50743.7 982.474   3
  -4   0   2 49617.1 825.790   4
  -4   0   1 29695.3 764.734   3
   4   0  -1 31804.2 515.845   1
   4   0   0 263492. 1724.71   1
   4   0   1 57053.8 1025.01   2
  -4   0  -1 56867.4 1014.36   2
   4   0   1 59139.2 915.901   1
   4   0   2 77459.7 1149.92   1
   4   0   2 78140.6 1199.75   2
  -4   0  -2 75816.6 1137.99   2
   4   0   3 52750.9 1027.19   1
   4   0   3 52459.8 999.544   5
   4   0   3 53853.0 994.301   2
  -4   0  -3 54524.7 961.904   2
  -4   0  -4 7786.28 360.681   2
  -4   0  -4 7672.15 390.413   5
   4   0   4 7269.05 413.840   1
   4   0   4 7837.63 384.644   2
  -4   0  -5 90470.2 1235.32   2
   4   0   5 90155.8 1525.53   1
   4   0   5 90470.2 1327.50   2
  -4   0  -6 23451.6 641.623   2
   4   0   6 22668.4 821.560   1
   4   0   6 22783.4 685.702   2
  -4   0  -7 379.465 100.712   2
   4   0   7 124.242 103.316   1
   4   0   7 126.512 85.6481   2
   4   0   8 32070.1 1092.43   1
   4   0   8 30111.5 833.137   2
   4   0   9 31268.8 1127.87   1
   4   0   9 29436.4 857.762   2
   4   0  10 93.4413 103.204   2
   4   0  10 219.470 146.296   1
   4   0  11 20314.8 761.353   2
   4   0  11 21540.2 1024.66   1
  -4  -1  13 13184.5 741.766   3
  -4  -1  12 1829.07 280.119   3
  -4  -1  11 1450.83 239.783   3
  -4  -1  10 99373.8 1743.80   3
   4   1 -10 102274. 926.858   4
  -4  -1   9 5944.58 413.014   3
  -4  -1   8 2464.17 259.703   3
  -4  -1   8 2789.23 133.506   1
  -4  -1   7 84736.6 657.946   1
  -4  -1   7 84752.3 1425.81   3
  -4  -1   6 40570.7 950.719   3
  -4  -1   6 41068.8 439.689   1
  -4  -1   5 107005. 1517.01   3
   4   1  -5 111102. 1542.79   3
  -4  -1   5 109611. 920.130   4
  -4  -1   5 108529. 730.952   1
  -4  -1   4 87036.8 1334.85   3
  -4  -1   4 87719.7 722.646   1
  -4  -1   4 90166.7 936.329   4
  -4  -1   3 44963.8 965.049   3
   4   1  -3 44014.5 583.877   1
  -4  -1   3 43547.6 728.868   4
  -4  -1   3 43358.0 581.073   1
   4   1  -2 95341.1 947.823   1
  -4  -1   2 95122.4 1414.14   3
  -4  -1   2 95241.8 954.692   1
  -4  -1   1 260323. 2359.31   3
   4   1  -1 257795. 1764.13   1
  -4  -1   1 259425. 2249.84   2
  -4  -1   0 2390.00 219.491   2
   4   1   0 2921.72 211.318   1
   4   1   1 3238.74 239.847   1
  -4  -1  -1 2859.72 236.762   2
   4   1   2 96101.9 1388.91   1
   4   1   2 96672.0 1387.73   2
  -4  -1  -2 94052.3 1307.76   2
   4   1   3 23442.1 736.634   1
   4   1   3 24128.7 693.524   2
  -4  -1  -3 24588.9 657.495   2
  -4  -1  -4 35070.7 776.150   2
   4   1   4 35465.9 958.331   1
   4   1   4 34724.3 849.065   2
  -4  -1  -5 88019.1 1226.72   2
   4   1   5 87369.2 1607.06   1
   4   1   5 89253.1 1386.85   2
  -4  -1  -6 19221.0 579.968   2
   4   1   6 20542.4 821.168   1
   4   1   6 19315.5 654.698   2
  -4  -1  -7 9249.80 410.295   2
   4   1   7 9323.34 591.888   1
   4   1   7 9307.97 467.205   2
   4   1   8 46061.2 1055.92   2
   4   1   8 48558.3 1402.26   1
   4   1   9 3594.98 419.017   1
   4   1   9 3765.23 318.604   2
   4   1  10 5470.14 523.073   1
  -4  -2  13 42499.4 1321.40   3
  -4  -2  12 169.108 139.215   3
  -4  -2  11 11855.1 643.105   3
  -4  -2  10 23637.4 870.486   3
  -4  -2   9 11144.4 572.009   3
  -4  -2   9 12066.3 343.002   1
  -4  -2   8 153096. 2044.58   3
  -4  -2   8 158158. 1192.10   1
  -4  -2   7 51138.1 1139.18   3
  -4  -2   7 50959.3 657.540   1
  -4  -2   6 4037.52 313.992   3
  -4  -2   6 4027.18 188.142   1
  -4  -2   5 87256.3 792.102   4
  -4  -2   5 85860.2 1402.90   3
  -4  -2   5 85739.6 887.148   1
  -4  -2   4 80485.1 905.134   1
  -4  -2   4 83008.6 1365.38   3
  -4  -2   4 82035.0 936.514   4
  -4  -2   3 1240.70 179.216   3
  -4  -2   3 1325.95 127.498   1
   4   2  -3 1395.24 137.784   1
   4   2  -2 71378.6 992.239   1
  -4  -2   2 71111.9 1266.83   3
  -4  -2   2 73260.9 1223.52   2
  -4  -2   2 71958.1 975.614   1
  -4  -2   1 38338.6 761.729   1
   4   2  -1 37590.2 773.962   1
  -4  -2   1 37176.6 929.526   3
   4   2  -1 37011.4 912.184   5
  -4  -2   1 37321.8 882.183   2
  -4  -2   0 440.057 103.977   2
   4   2   0 582.608 127.736   5
  -4  -2   0 494.463 103.745   1
   4   2   0 490.283 113.285   1
   4   2   1 67642.3 1236.94   5
   4   2   1 69317.0 1202.74   1
  -4  -2  -1 69563.8 1184.23   2
   4   2   2 112309. 1620.20   5
   4   2   2 112938. 1650.70   1
  -4  -2  -2 115804. 1495.26   2
   4   2   3 134.248 112.001   1
  -4  -2  -3 39.6352 63.1617   2
  -4  -2  -4 9618.14 414.606   2
   4   2   4 10028.1 553.466   1
   4   2   5 65669.4 1479.58   1
  -4  -2  -5 63120.5 1043.67   2
   4   2   6 11828.5 671.227   1
  -4  -2  -6 11806.7 450.336   2
   4   2   6 12654.8 544.400   2
   4   2   7 9682.34 639.388   1
   4   2   7 10642.5 503.652   2
   4   2   8 11522.7 728.536   1
   4   2   8 12223.8 546.832   2
   4   2   9 292.940 181.144   1
  -4  -3  13 2665.78 348.566   3
  -4  -3  12 15205.4 775.428   3
  -4  -3  11 31568.8 1067.26   3
  -4  -3  10 10370.5 589.003   3
  -4  -3   9 52136.9 810.397   1
  -4  -3   9 49450.8 1230.07   3
  -4  -3   8 60803.2 1313.92   3
  -4  -3   8 62392.8 878.438   1
  -4  -3   7 659.752 148.023   3
  -4  -3   7 530.437 86.6078   1
  -4  -3   6 39333.0 1004.87   3
  -4  -3   6 39364.8 702.086   1
  -4  -3   5 142465. 1872.33   3
  -4  -3   5 140338. 1366.68   1
  -4  -3   5 139695. 1099.13   4
  -4  -3   4 383.157 114.126   3
  -4  -3   4 554.594 99.4564   1
  -4  -3   3 15036.8 482.901   1
  -4  -3   3 15166.1 607.867   3
   4   3  -3 15667.2 515.301   1
  -4  -3   2 177231. 2092.81   3
   4   3  -2 179684. 2090.40   5
  -4  -3   2 178773. 1745.04   1
  -4  -3   2 178786. 2000.16   2
   4   3  -2 180745. 1816.38   1
   4   3  -1 11481.4 484.214   1
  -4  -3   1 11033.3 527.646   3
   4   3  -1 11376.3 527.313   5
  -4  -3   1 11389.6 506.075   2
  -4  -3   1 11840.0 476.098   1
   4   3   0 61330.8 1180.59   1
  -4  -3   0 61313.8 1134.54   1
   4   3   0 59341.9 1207.61   5
  -4  -3   0 59712.0 1146.26   2
   4   3   1 56854.2 1206.59   1
  -4  -3  -1 56160.9 1092.86   2
   4   3   2 29875.0 931.229   1
  -4  -3  -2 30212.8 782.654   2
   4   3   3 81969.3 1597.70   1
  -4  -3  -3 79990.2 1233.62   2
  -4  -3  -4 49473.5 939.579   2
   4   3   4 51054.3 1325.26   1
   4   3   5 11401.5 667.846   1
   4   3   6 12139.2 723.038   1
   4   3   7 28159.4 795.815   6
   4   3   7 31642.4 1206.87   1
   4   3   8 19.4201 143.075   1
  -4  -4  12 36152.2 1205.79   3
  -4  -4  11 21683.6 900.409   3
  -4  -4  10-39.3905 115.989   3
  -4  -4   9 18554.7 780.168   3
  -4  -4   8 51335.6 1247.31   3
  -4  -4   8 54595.5 948.551   1
  -4  -4   7 9841.70 536.238   3
  -4  -4   7 10588.2 419.297   1
  -4  -4   6 17559.9 692.982   3
  -4  -4   6 17706.0 545.665   1
  -4  -4   6 17284.1 282.530   4
  -4  -4   5 62431.7 1290.83   3
  -4  -4   5 62854.4 1050.36   1
  -4  -4   4 138.961 73.2584   1
  -4  -4   4 111.622 100.254   3
  -4  -4   3 71213.4 1364.28   3
   4   4  -3 71933.1 1387.71   5
   4   4  -3 75763.7 1288.34   1
  -4  -4   2 22543.8 770.893   3
   4   4  -2 22992.8 774.262   5
   4   4  -2 23378.4 745.600   1
  -4  -4   1 3750.05 328.219   3
   4   4  -1 3484.99 310.750   5
   4   4  -1 3885.95 323.750   1
   4   4   0 69755.7 1389.70   1
  -4  -4   0 69603.0 1398.23   3
  -4  -4   0 70247.2 1288.17   2
   4   4   0 68441.6 1365.45   5
   4   4   1 5747.75 427.558   1
  -4  -4  -1 5392.21 353.354   2
   4   4   2 1220.30 227.164   1
  -4  -4  -2 1010.87 151.695   2
   4   4   3 28722.7 1031.28   1
   4   4   4 17988.3 858.721   1
   4   4   5 4261.04 445.321   1
   4   4   6 4800.20 491.948   1
   4   4   6 4246.14 348.351   6
   4   4   7 11171.8 545.602   6
   4   4   7 11985.3 790.446   1
  -4  -5  12 8323.27 599.220   3
  -4  -5  11 7798.23 558.556   3
  -4  -5  10 44769.9 1284.05   3
  -4  -5   9 21984.5 862.880   3
  -4  -5   8 15843.3 720.519   3
  -4  -5   7 32853.2 1010.10   3
  -4  -5   6 46866.9 1165.95   3
   4   5  -5 266.237 113.435   5
  -4  -5   5 187.908 101.595   3
  -4  -5   4 13771.9 623.269   3
   4   5  -4 13014.1 615.247   5
  -4  -5   3 106533. 1723.86   3
   4   5  -3 105673. 1726.15   5
   4   5  -3 106997. 1724.25   1
   4   5  -2 98.5722 96.5902   1
  -4  -5   2 278.458 114.151   3
   4   5  -2 293.540 118.201   5
  -4  -5   1 18832.2 736.826   3
   4   5  -1 19148.5 751.819   5
   4   5  -1 21213.6 813.613   1
  -4  -5   0 44300.8 1149.49   3
   4   5   0 45753.7 1239.07   1
   4   5   1 13894.3 712.300   1
  -4  -5  -1 14302.5 664.053   3
   4   5   2 29410.3 1074.54   1
  -4  -5  -2 27525.4 928.535   3
   4   5   3 18421.8 891.473   1
   4   5   4 5140.21 499.478   1
   4   5   4 4834.63 397.156   6
   4   5   5 17454.6 938.116   1
   4   5   5 15911.2 713.961   6
   4   5   6 11946.1 614.666   6
   4   6 -11 245.199 125.285   6
  -4  -6  11 439.949 162.718   3
  -4  -6  10 38105.8 1211.42   3
  -4  -6   9 15469.8 749.879   3
  -4  -6   8 9186.02 566.136   3
  -4  -6   7 20452.9 811.637   3
   4   6  -7 19449.1 798.596   5
  -4  -6   6 37680.3 1087.16   3
   4   6  -6 39804.0 1120.91   5
  -4  -6   5 5766.44 421.518   3
   4   6  -5 5681.93 422.035   5
  -4  -6   4 18482.8 740.926   3
   4   6  -4 18869.5 769.694   5
  -4  -6   3 22698.9 810.407   3
   4   6  -3 22462.6 837.097   5
  -4  -6   2 2483.08 278.801   3
   4   6  -2 2728.75 324.301   1
  -4  -6   1 27752.2 900.439   3
   4   6  -1 30147.2 1069.92   1
  -4  -6   0 18785.5 746.545   3
   4   6   0 19736.0 894.653   1
  -4  -6  -1 2151.28 264.346   3
   4   6   1 2255.13 294.654   6
   4   6   1 2606.53 346.963   1
   4   6   2 17044.3 787.745   6
   4   6   2 18318.8 923.844   1
   4   6   3 8644.79 660.854   1
   4   6   3 7785.13 544.426   6
   4   6   4 744.390 182.834   6
   4   6   5 11908.6 662.530   6
   4   7 -11 6152.09 480.240   6
  -4  -7  11 6595.37 536.771   3
  -4  -7  10 9991.89 634.763   3
   4   7 -10 9984.08 621.320   6
   4   7  -9 189.447 133.860   6
  -4  -7   9 90.9884 119.137   3
  -4  -7   8 9740.70 588.012   3
   4   7  -8 10009.5 624.058   6
   4   7  -8 10096.1 590.988   5
  -4  -7   7 18621.1 789.821   3
   4   7  -7 18850.6 853.751   6
   4   7  -7 19543.6 810.637   5
  -4  -7   6 577.450 151.225   3
   4   7  -6 293.538 124.085   5
  -4  -7   5 9748.93 548.509   3
   4   7  -5 9493.73 560.240   5
  -4  -7   4 21270.3 787.589   3
   4   7  -4 22036.3 930.838   6
   4   7  -4 22252.5 852.157   5
   4   7  -3 4828.01 447.382   6
   4   7  -2 21388.5 931.179   6
   4   7  -2 21163.6 955.795   1
   4   7  -1 7330.51 550.691   6
   4   7  -1 7876.94 602.018   1
   4   7   0-77.3467 141.022   6
   4   7   0 221.320 169.569   1
   5 -11   4 25808.0 1122.62   4
   5 -11   5 282.466 151.464   4
   5 -11   6 2371.99 348.727   4
   5 -11   7 19294.9 832.140   2
   5 -10   0 1936.19 313.217   4
   5 -10   1 17046.3 882.676   4
   5 -10   2 2323.81 348.063   4
   5 -10   3 31581.2 1182.03   4
   5 -10   4 18888.6 910.344   4
   5 -10   4 19476.9 731.003   2
   5 -10   5 180.708 110.473   2
   5 -10   5-146.116 168.528   4
   5 -10   6 21355.3 967.207   4
   5 -10   6 21951.4 832.837   2
   5 -10   7 12902.1 664.749   2
   5 -10   8 1603.36 263.728   2
   5 -10   9 6770.08 516.085   2
   5  -9  -3 6141.97 537.250   4
   5  -9  -2 1185.34 248.001   4
   5  -9  -1 8892.02 618.425   4
   5  -9   0 38702.9 1243.51   4
   5  -9   1 2392.60 324.762   4
   5  -9   1 2680.25 252.066   2
   5  -9   2 3805.20 393.135   4
   5  -9   2 5254.49 353.540   2
   5  -9   3 12712.8 707.664   4
   5  -9   3 13231.1 569.076   2
   5  -9   4 7412.73 542.852   4
   5  -9   4 7339.26 441.324   2
   5  -9   5 50146.6 1394.73   4
   5  -9   5 49845.7 1175.35   2
   5  -9   6 5065.02 396.572   2
   5  -9   7 9845.53 562.864   2
   5  -9   8 9631.21 573.938   2
   5  -9   9 38346.7 1172.42   2
   5  -9  10 501.428 176.940   2
   5  -8  -5 2668.42 354.122   4
   5  -8  -4 5026.55 471.721   4
   5  -8  -3 48411.2 1371.13   4
   5  -8  -2 6798.60 508.050   4
   5  -8  -1 23526.8 657.934   2
   5  -8  -1 22574.8 896.773   4
   5  -8   0 5595.79 451.184   4
   5  -8   0 5834.74 349.868   2
   5  -8   1 4757.30 413.398   4
   5  -8   1 5356.19 344.135   2
   5  -8   2 108182. 1904.78   4
   5  -8   2 104680. 1520.21   2
  -5   8  -3 8668.93 254.924   3
   5  -8   3 8327.37 542.849   4
   5  -8   3 8565.87 446.840   2
   5  -8   4 1890.34 270.484   4
   5  -8   4 2355.84 246.385   2
   5  -8   5 35918.7 1135.09   4
   5  -8   5 36016.1 961.174   2
   5  -8   6 34371.0 970.321   2
   5  -8   7 11621.9 586.527   2
   5  -8   8 4268.53 376.567   2
   5  -8   9 41518.6 1175.71   2
   5  -8  10 12922.1 681.263   2
   5  -8  11 5395.92 462.376   2
   5  -7  -7 1517.12 276.506   4
   5  -7  -6 12086.6 694.219   4
   5  -7  -5 18794.4 839.579   4
   5  -7  -4 23863.0 917.177   4
   5  -7  -3 240.012 124.894   4
   5  -7  -2 3588.90 347.765   4
   5  -7  -1 96602.4 1711.69   4
  -5   7   1 94004.9 535.978   3
  -5   7   0 2578.07 107.267   3
   5  -7   0 2525.32 286.457   4
   5  -7   0 2390.80 228.147   2
  -5   7  -1 10876.8 276.881   3
   5  -7   1 10931.3 576.386   4
   5  -7   1 11051.5 478.804   2
  -5   7  -1 10601.9 258.045   3
  -5   7  -2 92051.3 993.542   3
   5  -7   2 88799.4 738.552   5
   5  -7   2 90206.4 1648.30   4
  -5   7  -2 90817.1 868.281   3
   5  -7   2 90318.5 1362.90   2
   5  -7   3 6336.20 445.790   4
  -5   7  -3 6119.08 255.697   3
   5  -7   3 5732.24 356.108   2
   5  -7   4 64934.2 1440.43   4
  -5   7  -4 65798.1 913.900   3
   5  -7   4 64926.0 1212.43   2
  -5   7  -5 25950.0 630.766   3
   5  -7   5 26403.3 795.121   2
   5  -7   6 5931.29 397.457   2
  -5   7  -6 5737.76 323.438   3
   5  -7   7 35480.4 980.646   2
   5  -7   8 28963.6 916.380   2
   5  -7   9 2523.24 293.843   2
   5  -7  10 10154.4 584.900   2
   5  -7  11 29275.2 1021.03   2
   5  -7  12 832.267 198.226   2
   5  -6  -9 768.407 190.588   4
   5  -6  -8 11633.8 670.471   4
   5  -6  -7 2426.57 308.076   4
   5  -6  -6 7851.92 516.939   4
  -5   6   6 8272.77 364.839   3
   5  -6  -5 8134.06 516.529   4
  -5   6   5 8463.36 343.325   3
   5  -6  -4 57809.7 1317.31   4
  -5   6   4 58086.4 822.982   3
  -5   6   3 12529.4 392.745   2
   5  -6  -3 11572.2 571.855   4
   5  -6  -3 12744.1 516.326   1
  -5   6   3 11706.9 350.888   3
  -5   6   2 36819.2 592.300   3
  -5   6   2 36166.4 697.077   2
   5  -6  -2 38631.5 890.089   1
   5  -6  -2 36813.7 827.363   2
   5  -6  -2 36395.4 996.532   4
  -5   6   1 29858.7 538.355   3
   5  -6  -1 31187.7 795.647   1
  -5   6   1 29848.0 653.650   2
   5  -6  -1 30735.2 783.111   2
   5  -6  -1 30087.6 896.633   4
  -5   6   0 786.661 95.8536   3
  -5   6   0 756.457 117.813   2
   5  -6   0 1228.69 166.810   2
   5  -6   0 728.710 160.787   4
   5  -6   0 1045.75 152.155   1
  -5   6  -1 99565.5 1276.03   2
  -5   6  -1 103365. 1152.09   3
   5  -6   1 98939.4 1637.71   4
   5  -6   1 99528.8 1397.07   2
   5  -6   1 99937.2 1464.82   1
  -5   6  -2 4897.45 296.690   2
   5  -6   2 4741.94 326.281   1
   5  -6   2 5048.69 381.890   4
   5  -6   2 4663.00 312.903   2
   5  -6   3 4066.04 174.655   5
   5  -6   3 4293.28 359.857   4
   5  -6   3 3613.75 279.978   2
   5  -6   4 106001. 1506.85   2
  -5   6  -5 10303.3 417.142   3
   5  -6   5 10230.2 484.550   2
   5  -6   6 1641.41 209.503   2
  -5   6  -6 961.413 145.156   3
   5  -6   7 24994.9 804.732   2
   5  -6   8 20417.3 752.680   2
   5  -6   9 2651.54 293.153   2
   5  -6  10 30607.1 984.329   2
   5  -6  11 7760.58 519.892   2
   5  -6  12 3855.31 382.641   2
   5  -5 -10 84.3994 111.174   4
   5  -5  -9 17638.5 782.741   4
  -5   5   9 17511.3 666.488   3
   5  -5  -8 9431.43 553.834   4
  -5   5   8 9657.35 473.939   3
   5  -5  -7 18596.1 750.680   4
  -5   5   7 18448.3 618.060   3
   5  -5  -6 29081.1 915.137   4
  -5   5   6 30176.0 735.478   3
   5  -5  -5 26139.8 672.257   1
   5  -5  -5 24688.4 812.925   4
  -5   5   5 25054.2 609.545   2
  -5   5   5 23808.8 618.642   3
  -5   5   4 12940.0 434.098   3
   5  -5  -4 13605.8 469.633   1
   5  -5  -4 12667.2 568.838   4
  -5   5   4 13354.1 451.399   2
  -5   5   3 78875.6 1094.43   2
  -5   5   3 76397.9 1022.51   3
   5  -5  -3 77432.2 1371.71   4
   5  -5  -3 79644.3 1110.67   1
  -5   5   2 90624.8 1185.55   2
   5  -5  -2 90654.4 1187.21   1
   5  -5  -2 93609.5 1341.73   2
   5  -5  -2 92697.4 1482.16   4
   5  -5  -1 1260.96 146.655   1
  -5   5   1 1251.22 145.495   2
  -5   5   1 1343.42 140.904   3
   5  -5  -1 1228.99 174.630   2
   5  -5  -1 1525.04 199.723   4
  -5   5   0 63522.9 1016.79   2
  -5   5   0 64692.6 982.643   3
   5  -5   0 64996.3 1116.97   2
   5  -5   0 63157.3 1243.42   4
   5  -5   0 63485.1 1030.38   1
  -5   5  -1 74440.0 1117.03   2
   5  -5   1 76335.9 1374.32   4
   5  -5   1 75216.5 1199.59   2
  -5   5  -2 12083.4 463.526   2
   5  -5   2 12475.6 571.370   4
   5  -5   2 12088.0 484.765   2
  -5   5  -3 42214.8 879.870   2
   5  -5   3 39776.7 659.565   5
   5  -5   3 40570.4 893.752   2
   5  -5   4 66021.2 1162.91   2
   5  -5   5 980.068 168.184   2
   5  -5   6 4665.70 335.734   2
   5  -5   7 158167. 1968.70   2
   5  -5   8 54.7536 99.4774   2
   5  -5   9 13070.7 613.699   2
   5  -5  10 24312.1 859.601   2
   5  -5  11 4904.66 409.440   2
   5  -5  12 29060.6 1013.86   2
   5  -5  13 1319.01 245.191   2
   5  -4 -11 2377.80 295.086   4
  -5   4  11 2440.47 295.609   3
   5  -4 -10 2077.25 268.081   4
  -5   4  10 1907.69 250.202   3
   5  -4  -9 17334.1 716.009   4
  -5   4   9 18262.5 708.622   3
   5  -4  -8 12547.3 591.624   4
  -5   4   8 13561.7 409.626   1
  -5   4   8 12150.0 544.759   3
   5  -4  -7 11650.9 549.029   4
  -5   4   7 13256.6 525.855   2
  -5   4   7 12061.5 514.769   3
  -5   4   6 40308.0 893.175   3
   5  -4  -6 43193.3 991.580   3
   5  -4  -6 40937.3 994.635   4
  -5   4   6 42629.8 931.046   2
  -5   4   5 33551.6 779.528   3
   5  -4  -5 33903.1 879.742   4
  -5   4   5 35317.3 832.683   2
  -5   4   4 17861.6 546.905   3
   5  -4  -4 18570.1 452.755   1
   5  -4  -4 18019.0 629.509   4
  -5   4   4 18809.3 598.794   2
  -5   4   3 141140. 1508.66   3
   5  -4  -3 142475. 1228.79   1
   5  -4  -3 143402. 1754.95   4
  -5   4   3 143691. 1627.64   2
  -5   4   2 84.6646 64.0750   3
   5  -4  -2 185.772 57.9238   1
   5  -4  -2 125.863 83.8225   2
  -5   4   2 335.453 87.4927   2
   5  -4  -2 149.302 93.6749   4
  -5   4   1 8846.03 385.309   3
  -5   4   1 8450.85 427.452   4
   5  -4  -1 8482.31 415.950   2
   5  -4  -1 8981.97 447.183   4
   5  -4  -1 8654.09 321.884   1
  -5   4   1 8800.16 398.173   2
  -5   4   0 151474. 1642.84   2
  -5   4   0 149071. 1625.81   3
  -5   4   0 151704. 1783.18   4
   5  -4   0 149624. 1706.59   2
   5  -4   0 153241. 1855.13   4
  -5   4  -1 45862.4 902.884   2
  -5   4  -1 45914.5 1003.54   4
   5  -4   1 45849.2 945.151   2
  -5   4  -2 46545.9 919.349   2
  -5   4  -2 47835.5 1054.00   4
   5  -4   2 45570.0 935.712   2
  -5   4  -3 47484.2 941.066   2
   5  -4   3 44691.1 776.788   5
  -5   4  -3 48273.2 1089.28   4
   5  -4   3 45357.3 945.809   2
   5  -4   4 102087. 1184.39   5
   5  -4   4 103713. 1442.29   2
   5  -4   5 39246.4 912.458   2
   5  -4   6 73906.8 1285.92   2
   5  -4   7 9411.98 480.603   2
  -5   4  -8 2074.40 214.409   5
   5  -4   8 1813.00 227.268   2
   5  -4   9 112112. 1758.23   2
   5  -4  10 340.499 134.960   2
   5  -4  11 123.109 114.054   2
   5  -4  12 16863.3 770.339   2
   5  -4  13 3484.99 376.814   2
  -5   3  12 9777.15 607.793   3
   5  -3 -11 3988.98 351.054   4
  -5   3  11 3800.05 377.888   3
   5  -3 -10 16537.3 672.317   4
  -5   3  10 17053.9 726.772   3
   5  -3  -9 24408.0 784.839   4
  -5   3   9 24436.8 818.433   3
  -5   3   8 344.407 111.788   3
   5  -3  -8 366.816 109.118   4
  -5   3   7 14659.6 580.498   3
   5  -3  -7 14687.7 567.438   4
  -5   3   7 16269.2 620.175   2
   5  -3  -6 115115. 1544.32   4
  -5   3   6 118450. 1647.42   2
  -5   3   5 7541.24 385.196   3
   5  -3  -5 7771.30 415.331   3
   5  -3  -5 7846.01 398.264   4
  -5   3   5 7970.56 422.707   2
  -5   3   4 26368.8 702.642   3
   5  -3  -4 26718.9 723.167   4
  -5   3   4 28559.6 787.662   2
  -5   3   3 61030.7 1052.64   3
   5  -3  -3 63296.5 1128.77   4
   5  -3  -3 60469.5 583.372   1
  -5   3   3 62810.4 1140.32   2
  -5   3   2 17976.2 572.137   3
  -5   3   2 18102.7 596.253   4
   5  -3  -2 17923.5 601.970   4
  -5   3   2 17955.5 606.253   2
   5  -3  -2 17626.2 348.726   1
  -5   3   1 141661. 1620.47   3
   5  -3  -1 143969. 1719.45   2
  -5   3   1 145325. 1687.04   4
   5  -3  -1 145167. 1720.60   4
  -5   3   1 141654. 1667.25   2
   5  -3   0 3156.90 260.359   2
  -5   3   0 3089.85 255.640   4
  -5   3   0 3461.50 260.436   2
  -5   3  -1 64843.1 1190.40   4
   5  -3   1 63150.3 1107.15   2
  -5   3  -1 64343.2 1110.08   2
   5  -3   2 174363. 1699.60   5
  -5   3  -2 176766. 2042.09   4
   5  -3   2 175549. 1856.28   2
   5  -3   3 83649.3 1162.62   5
  -5   3  -3 87295.6 1485.16   4
   5  -3   3 86474.8 1306.47   2
   5  -3   4 282.783 98.4083   2
   5  -3   4 262.790 87.7181   5
  -5   3  -4 366.316 102.805   2
  -5   3  -4 354.448 105.633   4
   5  -3   5 16247.2 591.216   2
   5  -3   6 94427.8 1459.24   2
   5  -3   7 4021.77 318.731   2
   5  -3   8 14469.9 613.029   2
   5  -3   9 30303.0 920.398   2
   5  -3  10 861.379 177.493   2
   5  -3  11 16620.5 737.408   2
   5  -3  12 9757.31 585.266   2
   5  -3  13 1165.04 222.851   2
  -5   2  13 19510.2 905.241   3
  -5   2  12 7897.08 560.962   3
   5  -2 -11 13541.6 577.952   4
  -5   2  11 13611.0 691.813   3
   5  -2 -10 9960.78 479.305   4
  -5   2  10 9796.37 559.648   3
   5  -2  -9 44286.5 972.530   4
  -5   2   9 43343.3 1113.75   3
  -5   2   8 64660.7 1297.90   3
   5  -2  -8 63381.2 1128.67   4
  -5   2   7 23063.1 748.036   3
   5  -2  -7 23165.1 667.193   4
  -5   2   6 25329.1 762.642   3
  -5   2   6 26314.7 794.735   2
   5  -2  -6 24742.3 680.216   4
  -5   2   5 12500.7 515.837   3
   5  -2  -5 12668.1 538.365   3
  -5   2   5 13163.4 553.293   2
   5  -2  -5 12938.4 490.360   4
  -5   2   4 232684. 2158.75   3
  -5   2   4 231224. 2295.28   2
   5  -2  -4 228504. 2026.34   4
  -5   2   3 2263.65 205.136   4
  -5   2   3 2479.04 239.622   2
   5  -2  -3 2244.24 208.531   4
  -5   2   2 2133.44 217.149   3
  -5   2   2 2004.87 195.906   4
  -5   2   2 2661.05 247.148   2
  -5   2   1 216982. 2122.07   3
   5  -2  -1 224288. 2173.00   2
  -5   2   1 224277. 2063.29   4
  -5   2   1 220190. 2162.69   2
   5  -2   0 46401.7 979.813   2
  -5   2   0 46722.3 985.647   4
   5  -2   1 38644.6 894.421   2
  -5   2  -1 39385.1 936.353   4
   5  -2   2 121613. 1500.80   5
   5  -2   2 120231. 1556.57   2
  -5   2  -2 120563. 1706.30   4
  -5   2  -3 58536.4 1081.27   2
   5  -2   3 56649.3 1025.38   5
   5  -2   3 57397.7 1091.76   2
  -5   2  -4 50980.5 1016.33   2
   5  -2   4 48014.9 969.860   5
   5  -2   4 49484.3 1018.76   2
   5  -2   5 51969.7 1070.05   2
   5  -2   6 58959.1 1168.17   2
   5  -2   7 18861.1 685.699   2
   5  -2   8 42649.2 1060.80   2
   5  -2   9 14533.6 643.012   2
   5  -2  10 6315.07 442.499   2
   5  -2  11 13904.3 678.714   2
   5  -2  12 1672.53 313.193   1
   5  -2  12 1731.39 261.929   2
   5  -2  13 1260.13 233.707   2
  -5   1  13 587.004 179.670   3
  -5   1  12 1960.13 293.665   3
  -5   1  11 51116.5 1352.38   3
   5  -1 -10 15921.0 550.999   4
  -5   1  10 14992.5 697.662   3
  -5   1   9 201.067 117.063   3
   5  -1  -9 451.877 99.5339   4
  -5   1   8 19564.2 734.689   3
   5  -1  -8 20464.9 598.990   4
  -5   1   7 63072.1 1267.48   3
   5  -1  -7 65785.2 1048.14   4
  -5   1   6 9477.30 477.372   3
   5  -1  -6 9467.16 396.473   4
  -5   1   5 52363.0 1093.83   3
  -5   1   5 53806.1 1115.66   2
   5  -1  -5 52313.8 924.564   4
  -5   1   4 108356. 1553.02   3
  -5   1   4 108434. 1287.86   4
  -5   1   4 108967. 1589.71   2
  -5   1   3 14678.4 575.405   3
  -5   1   3 14717.6 486.687   4
  -5   1   3 14506.2 580.742   2
  -5   1   2 93136.5 1445.85   3
  -5   1   2 94963.9 1281.01   4
   5  -1  -2 92592.7 666.637   1
  -5   1   1 101149. 1528.08   3
   5  -1  -1 104431. 928.815   1
  -5   1   1 100232. 1383.66   4
   5  -1   0 179.201 58.9318   1
  -5   1   0 347.384 101.999   4
   5  -1   1 92435.6 1387.44   5
   5  -1   1 91063.4 1409.14   2
  -5   1  -1 92841.4 1404.02   2
   5  -1   2 70045.0 1208.10   5
   5  -1   2 72869.4 1260.25   2
  -5   1  -2 73030.3 1236.10   2
  -5   1  -3 5138.75 329.599   2
   5  -1   3 4720.65 321.541   5
   5  -1   3 4839.14 332.274   2
  -5   1  -4 86001.0 1337.56   2
   5  -1   4 84330.5 1360.32   2
   5  -1   5 64182.8 1228.15   2
   5  -1   6 0.44217 75.6063   2
   5  -1   7 68837.8 1320.91   2
   5  -1   8 10266.8 620.426   1
   5  -1   8 10643.3 539.683   2
   5  -1   9 196.829 147.512   1
   5  -1   9 249.435 125.507   2
   5  -1  10 26484.6 1092.95   1
   5  -1  10 27050.8 910.963   2
   5  -1  11 5617.58 535.292   1
   5  -1  11 5487.50 433.025   2
   5  -1  12 352.967 140.443   2
  -5   0  13 2630.76 349.344   3
  -5   0  12 2211.58 308.238   3
  -5   0  11 22014.7 898.951   3
  -5   0  10 5229.87 427.736   3
   5   0 -10 6013.12 299.092   4
  -5   0   9 27072.9 907.355   3
   5   0  -9 29575.2 649.429   4
  -5   0   8 56057.5 1263.95   3
   5   0  -8 58256.8 899.760   4
  -5   0   7 26889.4 845.843   3
  -5   0   6 19222.7 699.963   3
  -5   0   5 87566.1 1454.13   3
  -5   0   5 89226.6 1079.13   4
  -5   0   4 8837.87 462.940   3
  -5   0   4 8743.00 457.251   2
  -5   0   4 8479.15 346.272   4
  -5   0   3 23180.4 749.407   3
  -5   0   3 24334.7 759.409   2
  -5   0   3 24066.6 618.459   4
   5   0  -3 23012.7 336.445   1
   5   0  -2 72787.5 770.292   1
  -5   0   2 73358.5 1336.39   3
  -5   0   2 75437.8 1327.35   2
  -5   0   2 72899.8 1145.35   4
  -5   0   1 30270.1 871.855   3
  -5   0   1 30279.1 832.385   2
  -5   0   1 31114.8 780.353   4
   5   0  -1 31429.3 588.015   1
   5   0   0 43366.3 774.422   1
  -5   0   0 42739.7 992.021   2
   5   0   1 153085. 1869.39   5
   5   0   1 155637. 1617.04   1
   5   0   1 157049. 1900.38   2
  -5   0  -1 156012. 1872.78   2
   5   0   2 38420.4 937.917   5
   5   0   2 39447.8 952.423   2
   5   0   2 39140.2 882.118   1
  -5   0  -2 40756.9 939.088   2
   5   0   3 7067.16 417.782   5
   5   0   3 7252.21 419.887   2
   5   0   3 8568.53 444.622   1
  -5   0  -3 7477.45 402.026   2
   5   0   4 94220.8 1567.69   1
  -5   0  -4 92109.9 1397.55   2
   5   0   4 90790.2 1483.60   2
   5   0   5 200.104 115.947   1
   5   0   5 351.536 123.552   2
   5   0   6 11858.3 631.868   1
   5   0   6 11672.1 551.269   2
   5   0   7 43509.1 1074.93   2
   5   0   7 45090.2 1287.19   1
   5   0   8 9885.33 529.071   2
   5   0   8 9883.33 635.872   1
   5   0   9 17515.9 722.657   2
   5   0   9 18191.3 899.610   1
   5   0  10 105.897 153.247   1
   5   0  10 54.1427 88.8036   2
  -5  -1  12 33454.7 1160.05   3
  -5  -1  11 23699.5 943.792   3
  -5  -1  10 1553.62 243.914   3
  -5  -1   9 50443.4 1272.85   3
  -5  -1   8 19198.7 762.415   3
  -5  -1   7 408.888 137.978   3
  -5  -1   6 129856. 1875.24   3
  -5  -1   5 30687.1 891.759   3
  -5  -1   5 31138.0 601.272   4
  -5  -1   4 5880.13 394.853   3
  -5  -1   4 6002.74 293.418   4
  -5  -1   3 158477. 2016.71   3
  -5  -1   3 154506. 1596.27   4
   5   1  -3 154467. 1233.65   1
   5   1  -2 89753.4 1032.55   1
  -5  -1   2 89880.8 1534.94   3
  -5  -1   2 91051.4 1490.27   2
   5   1  -1 626.085 116.147   1
  -5  -1   1 836.768 164.118   3
  -5  -1   1 1118.40 176.444   2
   5   1   0 39946.7 1000.78   5
   5   1   0 41709.7 851.795   1
  -5  -1   0 41154.0 996.600   2
   5   1   1 181160. 2138.63   5
   5   1   1 186561. 1942.06   1
   5   1   2 90655.5 1441.50   1
  -5  -1  -2 88894.8 1415.57   2
   5   1   3 38950.0 1005.68   1
   5   1   3 39208.1 985.474   2
  -5  -1  -3 38367.9 926.556   2
   5   1   4 79740.2 1517.49   1
   5   1   4 80976.7 1435.80   2
   5   1   5 54.4846 96.6159   2
   5   1   5 70.6145 101.292   1
   5   1   6 33783.8 1098.77   1
   5   1   6 33670.6 949.385   2
   5   1   7 2981.45 358.915   1
   5   1   7 3255.61 310.771   2
   5   1   8 437.037 139.858   2
   5   1   8 490.424 193.119   1
   5   1   9 24553.5 1083.94   1
   5   1   9 23599.5 844.315   2
  -5  -2  12 10039.6 649.463   3
  -5  -2  11 2494.80 324.466   3
  -5  -2  10 13973.7 711.058   3
  -5  -2   9 39572.2 1154.09   3
  -5  -2   8 2788.25 307.618   3
  -5  -2   8 2834.73 146.136   1
  -5  -2   7 801.276 83.2253   1
  -5  -2   7 1789.29 242.552   3
  -5  -2   6 136632. 1104.81   1
  -5  -2   6 136253. 1028.54   4
  -5  -2   5 3105.81 302.861   3
  -5  -2   5 2930.28 178.382   1
  -5  -2   5 3195.10 195.627   4
  -5  -2   4 40051.4 1058.27   3
  -5  -2   4 40420.6 774.785   4
  -5  -2   4 41702.1 716.700   1
  -5  -2   3 47047.3 1147.54   3
  -5  -2   3 47519.6 811.811   1
   5   2  -3 47060.8 825.633   1
   5   2  -2 26194.3 657.514   1
  -5  -2   2 25342.4 850.620   3
   5   2  -1 107625. 1415.72   1
  -5  -2   1 106128. 1748.73   3
   5   2  -1 108668. 1715.75   5
   5   2   0 72613.3 1248.75   1
   5   2   0 70328.2 1375.53   5
   5   2   1 4610.26 362.138   5
   5   2   1 3412.99 293.446   1
   5   2   2 22671.6 809.201   5
   5   2   2 23983.7 806.529   1
   5   2   3 50929.5 1238.27   1
   5   2   4 590.722 171.212   1
   5   2   5 9071.57 588.087   1
   5   2   6 40007.7 1269.24   1
   5   2   7 2173.49 325.389   1
   5   2   8 6622.63 576.051   1
  -5  -3  12 25425.6 1046.06   3
  -5  -3  11 14246.7 764.109   3
  -5  -3  10 10989.4 642.636   3
  -5  -3   9 49905.5 1334.86   3
  -5  -3   8 1706.28 255.895   3
  -5  -3   7 62202.2 1405.63   3
  -5  -3   7 66269.4 906.940   1
  -5  -3   6 13046.0 421.624   1
  -5  -3   6 12837.2 640.815   3
  -5  -3   6 13107.9 309.835   4
  -5  -3   5 616.756 162.117   3
  -5  -3   5 210.494 66.5649   1
  -5  -3   4 157743. 2189.66   3
  -5  -3   4 162476. 1630.28   1
  -5  -3   3 29211.1 941.517   3
   5   3  -3 28686.6 749.051   1
  -5  -3   3 28568.6 723.594   1
  -5  -3   2 183.855 85.2173   1
   5   3  -2 89.7624 72.9350   1
  -5  -3   2-23.3217 111.811   3
   5   3  -2 35.8415 107.629   5
   5   3  -1 49586.3 1069.56   1
  -5  -3   1 49621.2 1235.68   3
   5   3  -1 49489.2 1198.14   5
   5   3   0 32712.3 919.403   1
  -5  -3   0 32681.0 1020.79   3
   5   3   0 32670.2 990.567   5
   5   3   1 4315.56 359.292   1
   5   3   1 3724.26 348.320   5
   5   3   2 27764.7 941.930   1
   5   3   3 22692.6 891.218   1
   5   3   4 1950.82 289.432   1
   5   3   5 15594.2 809.853   1
   5   3   6 20305.6 969.329   1
   5   3   7 837.013 243.541   1
  -5  -4  11 15962.0 829.348   3
  -5  -4  10 20059.9 892.183   3
  -5  -4   9 185.618 129.759   3
  -5  -4   8 30484.4 1053.71   3
  -5  -4   7 83258.3 1673.55   3
  -5  -4   6 4600.64 402.088   3
  -5  -4   5 21532.6 836.347   3
  -5  -4   4 40320.3 1142.69   3
   5   4  -4 40284.6 1139.67   5
  -5  -4   3 823.187 182.042   3
   5   4  -3 421.262 127.823   5
   5   4  -3 643.428 146.624   1
  -5  -4   2 29927.7 984.337   3
   5   4  -2 30647.8 979.988   5
   5   4  -2 30421.7 899.884   1
  -5  -4   1 63775.9 1452.95   3
   5   4  -1 64677.1 1442.42   5
   5   4  -1 65186.6 1363.35   1
   5   4   0 2578.70 296.104   1
  -5  -4   0 2211.84 286.455   3
   5   4   0 2978.08 325.041   5
   5   4   1 29043.6 990.000   1
  -5  -4  -1 26747.9 974.914   3
   5   4   2 32964.0 1110.24   1
   5   4   3 4098.12 418.437   1
   5   4   4 14831.4 816.342   1
   5   4   5 7579.24 610.606   1
   5   4   6 685.843 167.918   6
  -5  -5  11 25821.9 1071.04   3
  -5  -5  10 10551.7 670.210   3
  -5  -5   9 1222.39 236.857   3
  -5  -5   8 21504.7 906.259   3
  -5  -5   7 12023.6 665.019   3
  -5  -5   6 13305.8 690.796   3
  -5  -5   5 35887.2 1123.52   3
   5   5  -5 35445.9 1109.39   5
  -5  -5   4 27549.9 965.553   3
   5   5  -4 27959.3 980.879   5
  -5  -5   3 5359.17 437.137   3
   5   5  -3 5583.40 444.435   5
   5   5  -3 5896.83 430.561   1
  -5  -5   2 18513.4 794.030   3
   5   5  -2 18711.7 811.947   5
   5   5  -2 19437.5 795.997   1
  -5  -5   1 14834.6 725.573   3
   5   5  -1 15725.8 749.782   5
   5   5  -1 15250.2 731.299   1
  -5  -5   0 5272.06 439.945   3
   5   5   0 5950.87 475.803   1
   5   5   1 32385.5 1132.13   1
  -5  -5  -1 28247.0 1006.84   3
   5   5   2 722.407 211.201   1
  -5  -5  -2 734.041 187.763   3
   5   5   3 91.9042 141.443   1
   5   5   5 2313.23 308.134   6
  -5  -6  10 525.125 177.918   3
  -5  -6   9 13201.3 747.625   3
  -5  -6   8 18535.0 862.257   3
  -5  -6   7 6187.78 494.226   3
   5   6  -7 6037.00 489.113   5
  -5  -6   6 29176.9 1031.19   3
   5   6  -6 30154.4 1066.54   5
  -5  -6   5 15090.4 742.711   3
   5   6  -5 14662.5 732.952   5
  -5  -6   4 2308.39 298.943   3
   5   6  -4 1883.67 276.188   5
  -5  -6   3 13445.6 689.949   3
   5   6  -3 13920.1 728.438   5
  -5  -6   2 26704.3 969.284   3
   5   6  -2 28041.5 1044.28   1
  -5  -6   1 805.810 181.853   3
   5   6  -1 831.111 215.778   1
  -5  -6   0 3750.07 371.940   3
   5   6   0 3966.60 431.473   1
   5   6   1 20584.9 973.779   1
  -5  -7   8 2280.10 319.802   3
  -5  -7   7 2872.21 348.504   3
   5   7  -7 3206.61 357.043   5
  -5  -7   6 18851.5 845.844   3
   5   7  -6 20132.3 878.944   5
   5   7  -5 8027.94 565.798   5
   5   7  -4 21001.5 906.033   5
   6 -10   1 34330.6 1285.89   4
   6 -10   2 60.8327 158.817   4
   6 -10   3 9991.42 693.497   4
   6 -10   4 6669.14 567.539   4
   6 -10   4 7478.83 489.001   2
   6 -10   5 11836.9 749.023   4
   6 -10   5 11704.2 619.004   2
   6 -10   6 232.980 119.459   2
   6 -10   7 1082.81 221.835   2
   6 -10   8 35700.7 1173.14   2
   6  -9  -2 43606.0 1400.92   4
   6  -9  -1 1477.66 271.507   4
   6  -9   0 316.919 159.146   4
   6  -9   1 31116.5 907.534   2
   6  -9   1 31407.8 1147.36   4
   6  -9   2 26472.8 1047.03   4
   6  -9   2 26422.1 855.171   2
   6  -9   3 8136.15 589.121   4
   6  -9   3 7982.16 480.910   2
   6  -9   4 10049.9 657.146   4
   6  -9   4 9295.82 526.399   2
   6  -9   5 43988.7 1158.64   2
   6  -9   6 2568.81 304.815   2
   6  -9   7 28085.3 974.894   2
   6  -9   8 10468.9 625.539   2
   6  -9   9 167.836 134.867   2
   6  -8  -4 3112.61 379.845   4
   6  -8  -3 1410.33 255.785   4
   6  -8  -2 9899.17 630.991   4
   6  -8  -1 3655.93 299.933   2
   6  -8  -1 3940.49 394.533   4
   6  -8   0 31406.9 896.987   2
   6  -8   0 30883.0 1081.50   4
   6  -8   1 11027.9 542.049   2
   6  -8   1 9941.21 618.958   4
   6  -8   2 282.583 120.102   2
   6  -8   2 319.060 157.729   4
  -6   8  -3 18238.3 523.085   3
   6  -8   3 17201.7 812.717   4
   6  -8   3 17817.5 694.299   2
   6  -8   4 34844.0 1161.37   4
   6  -8   4 33586.3 964.721   2
   6  -8   5 667.742 162.836   2
   6  -8   6 17305.5 726.928   2
   6  -8   7 10111.2 573.720   2
   6  -8   8 483.516 157.337   2
   6  -8   9 25097.4 957.527   2
   6  -8  10 14887.6 762.740   2
   6  -7  -7 1768.43 295.597   4
   6  -7  -6 15857.1 804.550   4
   6  -7  -5 2223.15 306.644   4
   6  -7  -4 3658.53 380.288   4
   6  -7  -3 39227.5 1179.88   4
  -6   7   2 24822.4 505.986   3
   6  -7  -2 25581.3 931.796   4
  -6   7   1 9009.23 312.139   3
   6  -7  -1 9593.62 489.248   2
   6  -7  -1 9124.54 557.980   4
  -6   7   0 37455.1 670.772   3
   6  -7   0 38251.6 983.777   2
   6  -7   0 37395.2 1124.56   4
  -6   7  -1 27840.8 633.447   3
   6  -7   1 28273.8 846.587   2
   6  -7   1 28128.0 971.250   4
  -6   7  -2 1168.53 151.570   3
   6  -7   2 1208.96 122.106   5
   6  -7   2 1357.56 203.176   2
   6  -7   2 1101.38 212.241   4
   6  -7   3 48531.3 642.809   5
   6  -7   3 49215.5 1309.94   4
   6  -7   3 48166.5 1109.77   2
  -6   7  -4 4718.20 285.034   3
   6  -7   4 4697.37 359.155   2
  -6   7  -5 206.192 77.3426   3
   6  -7   5-29.0553 97.7146   2
   6  -7   6 106553. 1749.34   2
   6  -7   7 19537.1 770.254   2
   6  -7   8 645.522 172.399   2
   6  -7   9 11195.9 624.752   2
   6  -7  10 20004.1 854.961   2
   6  -7  11 19247.2 865.842   2
   6  -6  -9 9721.29 642.154   4
   6  -6  -8-2.36879 125.451   4
   6  -6  -7 18294.2 827.661   4
   6  -6  -6 14756.8 717.606   4
  -6   6   6 14200.0 521.296   3
   6  -6  -5 4070.88 379.058   4
  -6   6   5 4607.78 285.682   3
  -6   6   4 43707.3 839.015   3
   6  -6  -4 44678.8 1190.25   4
  -6   6   3 4803.93 275.665   3
  -6   6   3 5135.19 310.095   2
   6  -6  -3 4704.33 388.245   4
   6  -6  -3 5240.04 315.209   1
  -6   6   2 6415.72 349.719   2
  -6   6   2 5750.48 301.089   3
   6  -6  -2 5764.78 333.391   1
   6  -6  -2 6127.04 436.825   4
   6  -6  -1 34926.3 821.128   1
  -6   6   1 34400.3 815.501   2
  -6   6   1 33312.8 727.292   3
   6  -6  -1 35964.8 942.190   2
   6  -6  -1 35262.2 1033.69   4
  -6   6   0 54305.5 961.644   3
   6  -6   0 53917.2 1156.04   2
   6  -6   0 54678.4 1282.12   4
   6  -6   0 53853.6 1043.94   1
  -6   6  -1 4212.54 287.639   3
   6  -6   1 4424.50 309.450   1
   6  -6   1 4887.55 350.503   2
   6  -6   1 4215.23 367.453   4
   6  -6   2 6709.27 408.075   2
   6  -6   2 7361.31 489.146   4
   6  -6   3 134581. 1319.12   5
   6  -6   3 138778. 1840.77   2
   6  -6   4 350.599 123.164   2
   6  -6   5 11720.9 560.942   2
   6  -6   6 39047.2 1033.57   2
   6  -6   7 490.175 150.235   2
   6  -6   8 61004.1 1370.74   2
   6  -6   9 6799.72 483.556   2
   6  -6  10 5757.37 457.108   2
   6  -6  11 12976.0 699.866   2
   6  -5 -10 8471.71 574.690   4
   6  -5  -9 1496.75 247.775   4
  -6   5   9 1407.71 209.750   3
   6  -5  -8 2882.96 321.201   4
  -6   5   8 3005.62 285.321   3
   6  -5  -7 52915.8 1296.03   4
  -6   5   7 52209.8 1106.73   3
  -6   5   6 33.3219 70.2164   3
   6  -5  -6 60.2317 105.745   4
  -6   5   5 4277.18 297.283   3
   6  -5  -5 3893.15 343.473   4
  -6   5   4 32575.7 791.066   3
   6  -5  -4 33942.0 658.429   1
   6  -5  -4 31002.8 934.912   4
  -6   5   4 33528.0 843.482   2
  -6   5   3 11385.2 465.092   3
   6  -5  -3 11609.3 395.641   1
   6  -5  -3 11364.1 564.247   4
  -6   5   3 11345.9 496.047   2
  -6   5   2 37774.2 896.598   2
  -6   5   2 34781.5 804.198   3
   6  -5  -2 36316.4 715.966   1
   6  -5  -2 36392.8 1002.45   4
  -6   5   1 40492.1 928.925   2
  -6   5   1 39749.5 881.617   3
   6  -5  -1 38915.5 980.068   2
   6  -5  -1 38804.2 1039.70   4
   6  -5  -1 39141.3 770.536   1
  -6   5   0 76828.4 1254.59   3
   6  -5   0 77817.9 1373.66   2
   6  -5   0 75477.2 1129.01   1
   6  -5   0 77688.9 1475.23   4
   6  -5   1 46550.7 1054.55   2
   6  -5   1 46433.6 1164.27   4
   6  -5   2 71399.5 1308.90   2
   6  -5   3 8093.41 362.824   5
   6  -5   3 8661.76 465.146   2
   6  -5   4 7281.13 345.868   5
   6  -5   4 8079.05 454.502   2
   6  -5   5 183206. 2166.78   2
   6  -5   6 125.404 116.081   2
   6  -5   7 2426.74 279.337   2
   6  -5   8 40433.3 1105.41   2
   6  -5   9 7178.14 485.388   2
   6  -5  10 8518.30 546.201   2
   6  -5  11 15397.0 753.222   2
   6  -5  12 8339.62 579.284   2
   6  -4 -11 1558.87 247.615   4
  -6   4  11 1574.93 251.383   3
   6  -4 -10 29111.7 976.784   4
  -6   4  10 28874.0 975.711   3
   6  -4  -9 2808.93 305.035   4
  -6   4   9 2696.54 292.835   3
   6  -4  -8 2740.86 291.117   4
  -6   4   8 2914.28 290.938   3
  -6   4   7 19674.1 708.374   3
   6  -4  -7 19286.1 735.408   4
  -6   4   6 693.991 146.910   3
   6  -4  -6 867.923 170.175   4
  -6   4   5 70383.7 1258.77   3
   6  -4  -5 72737.7 1373.03   4
  -6   4   5 74221.8 1363.86   2
  -6   4   4 12684.2 526.300   3
   6  -4  -4 12283.2 568.316   4
   6  -4  -4 13064.2 303.479   1
  -6   4   4 13202.5 571.706   2
  -6   4   3 82680.8 1317.18   3
   6  -4  -3 85813.0 842.496   1
   6  -4  -3 85726.3 1478.59   4
  -6   4   3 85611.3 1432.82   2
   6  -4  -2 74733.1 854.377   1
  -6   4   2 77396.7 1290.87   3
   6  -4  -2 75721.8 1396.79   4
  -6   4   2 76406.6 1341.28   2
  -6   4   1 33499.5 863.574   3
   6  -4  -1 33732.9 915.873   2
   6  -4  -1 32214.5 620.832   1
   6  -4  -1 33867.8 941.489   4
  -6   4   1 34290.6 889.005   2
   6  -4   0 478.481 133.411   2
  -6   4   0 229.926 91.2154   3
   6  -4   1 52727.9 1132.52   2
   6  -4   2 104893. 1418.30   5
   6  -4   2 103853. 1585.93   2
   6  -4   3 2576.77 221.534   5
   6  -4   3 658.319 148.484   2
   6  -4   4 26579.0 709.339   5
   6  -4   4 27385.8 828.903   2
   6  -4   5 36322.5 975.339   2
   6  -4   6 110.256 93.6619   2
   6  -4   7 10298.2 547.912   2
   6  -4   8 21022.9 805.087   2
   6  -4   9 1293.57 227.537   2
   6  -4  10 6280.35 471.738   2
   6  -4  11 17168.7 800.167   2
   6  -4  12 53.7075 116.004   2
  -6   3  12 27042.6 1049.82   3
   6  -3 -11 2069.13 263.648   4
  -6   3  11 2255.79 301.286   3
   6  -3 -10 2697.48 285.033   4
  -6   3  10 2612.55 313.476   3
  -6   3   9 10008.2 563.511   3
   6  -3  -9 10578.3 542.222   4
  -6   3   8 44273.2 1138.50   3
   6  -3  -8 45503.4 1080.51   4
  -6   3   7 1634.38 223.958   3
   6  -3  -7 1705.88 215.829   4
  -6   3   6 5151.38 368.862   3
   6  -3  -6 4668.69 344.760   4
  -6   3   5 51112.0 1111.41   3
   6  -3  -5 52365.1 1122.07   4
  -6   3   4 7924.08 433.534   3
   6  -3  -4 7880.57 436.114   4
  -6   3   3 93642.0 1468.96   3
   6  -3  -3 92402.5 1467.06   4
  -6   3   2 154911. 1918.40   3
  -6   3   2 160670. 1913.63   4
   6  -3  -2 158033. 1953.65   4
  -6   3   2 160235. 2001.49   2
   6  -3  -2 151884. 991.208   1
  -6   3   1 31274.6 865.189   3
   6  -3  -1 32632.0 905.736   2
  -6   3   1 33607.8 886.916   4
  -6   3   1 32282.3 890.447   2
   6  -3   0 35695.1 946.181   2
   6  -3   1 117829. 1715.48   2
   6  -3   2 925.958 172.854   2
   6  -3   2 785.669 138.052   5
   6  -3   3 32372.4 822.693   5
   6  -3   3 32837.7 905.892   2
   6  -3   4 86584.1 1371.26   5
   6  -3   4 86796.6 1496.46   2
   6  -3   5 29964.4 887.352   2
   6  -3   6 63519.6 1323.74   2
   6  -3   7 41953.0 1105.17   2
   6  -3   8 24680.9 876.009   2
   6  -3   9 6506.48 475.060   2
   6  -3  10 30236.1 1033.06   2
   6  -3  11 172.447 126.099   2
   6  -3  12 2682.36 344.717   2
  -6   2  12 3038.05 368.161   3
  -6   2  11 17697.7 827.013   3
  -6   2  10 194.563 131.941   3
   6  -2 -10 17.3118 70.3961   4
  -6   2   9 9675.96 567.356   3
   6  -2  -9 10245.2 499.827   4
  -6   2   8 26361.6 909.265   3
   6  -2  -8 27123.2 793.618   4
  -6   2   7 223.021 121.681   3
   6  -2  -7 277.338 102.702   4
  -6   2   6 54466.6 1207.01   3
   6  -2  -6 58172.1 1128.15   4
  -6   2   5 59397.6 1250.20   3
   6  -2  -5 61089.6 1155.46   4
  -6   2   4 212.728 107.620   3
  -6   2   4 219.968 80.2231   4
  -6   2   3 21871.7 748.272   3
  -6   2   3 21925.6 676.378   4
   6  -2  -2 86216.7 668.831   1
  -6   2   2 87209.2 1378.91   4
  -6   2   1 11476.0 549.920   3
  -6   2   1 11860.6 524.703   4
   6  -2   0 76473.9 1398.18   2
  -6   2   0 77560.1 1392.54   4
   6  -2   1 27644.1 805.738   5
   6  -2   1 28373.4 854.741   2
   6  -2   2 11263.7 515.881   5
   6  -2   2 11571.8 552.293   2
   6  -2   3 95844.6 1506.76   5
   6  -2   3 99291.1 1597.28   2
   6  -2   4 12291.4 553.253   5
   6  -2   4 13622.2 600.943   2
   6  -2   5 1030.11 188.003   2
   6  -2   6 32280.1 968.708   2
   6  -2   7 11515.9 592.458   2
   6  -2   8 5058.24 408.095   2
   6  -2   9 7450.11 503.893   2
   6  -2  10 22692.2 898.834   2
   6  -2  10 23978.2 1034.96   1
   6  -2  11 823.249 230.008   1
   6  -2  11 1199.64 241.060   2
   6  -2  12 1297.46 245.957   2
  -6   1  12 13507.8 764.522   3
  -6   1  11 17.0164 111.976   3
  -6   1  10 7438.95 528.955   3
  -6   1   9 41521.3 1191.90   3
   6  -1  -9 45319.2 955.722   4
  -6   1   8 15373.0 704.129   3
   6  -1  -8 16839.6 582.776   4
  -6   1   7 56584.5 1297.07   3
  -6   1   6 19561.0 754.967   3
  -6   1   5 28714.4 897.911   3
  -6   1   5 29903.8 735.138   4
  -6   1   4 54275.2 1219.53   3
  -6   1   4 52548.2 994.901   4
  -6   1   3 98479.1 1639.00   3
  -6   1   3 98241.5 1402.76   4
  -6   1   2 3454.27 318.789   3
   6  -1  -2 3223.36 149.440   1
  -6   1   2 3459.96 279.066   4
   6  -1  -1 26597.9 526.907   1
  -6   1   1 25655.2 847.509   3
  -6   1   1 25109.3 768.049   4
   6  -1   0 191965. 1631.44   1
  -6   1   0 196523. 2230.73   4
   6  -1   1 115.900 72.2463   1
   6  -1   1 38.0962 81.8614   2
   6  -1   1 96.4647 92.6546   5
   6  -1   2 11300.3 473.636   1
   6  -1   2 11636.8 549.159   5
   6  -1   2 11156.0 550.133   2
   6  -1   3 96979.1 1485.38   1
   6  -1   3 96236.3 1603.81   5
   6  -1   3 98470.4 1626.38   2
   6  -1   4 6026.46 401.154   1
   6  -1   4 5985.23 409.423   5
   6  -1   4 6187.98 419.533   2
   6  -1   5 46842.2 1171.15   1
   6  -1   5 47526.4 1163.97   2
   6  -1   6 15882.7 719.112   1
   6  -1   6 15538.3 680.609   2
   6  -1   7 25869.9 974.388   1
   6  -1   7 25409.9 893.839   2
   6  -1   8 25106.6 1008.27   1
   6  -1   8 24087.9 891.142   2
   6  -1   9 9882.64 665.899   1
   6  -1   9 8960.37 562.271   2
   6  -1  10 5659.62 536.348   1
   6  -1  10 6215.32 485.001   2
   6  -1  11 8018.72 564.078   2
  -6   0  12 12967.3 754.753   3
  -6   0  11 1290.28 250.339   3
  -6   0  10 41573.8 1251.31   3
  -6   0   9 3291.87 347.705   3
  -6   0   8 676.707 181.803   3
  -6   0   7 95955.6 1741.31   3
  -6   0   6 29497.8 961.967   3
  -6   0   5 3111.22 312.385   3
  -6   0   5 3015.77 226.476   4
  -6   0   4 66611.6 1392.46   3
  -6   0   4 65607.9 1086.40   4
  -6   0   3 148459. 2084.98   3
  -6   0   3 148576. 1729.63   4
   6   0  -3 146919. 1003.64   1
   6   0  -2 29012.4 550.302   1
  -6   0   2 29782.5 948.729   3
  -6   0   2 30143.1 822.237   4
   6   0  -1 30068.5 633.627   1
  -6   0   1 29609.3 846.278   4
   6   0   0 61108.3 1303.87   5
   6   0   0 62435.8 1007.68   1
   6   0   1 16891.2 575.697   1
   6   0   1 16153.3 671.894   5
   6   0   2 66109.9 1208.20   1
   6   0   2 64322.0 1356.88   5
   6   0   2 68209.9 1377.39   2
   6   0   3 34155.7 999.066   5
   6   0   3 35634.2 952.801   1
   6   0   3 35699.7 1010.83   2
   6   0   4 795.291 174.551   2
   6   0   4 1231.03 209.492   1
   6   0   5 39991.7 1088.00   2
   6   0   5 40007.7 1137.77   1
   6   0   6 17019.9 732.616   2
   6   0   6 17474.9 793.403   1
   6   0   7 268.224 158.531   1
   6   0   7 314.859 125.165   2
   6   0   8 16863.4 861.259   1
   6   0   8 15677.7 741.025   2
   6   0   9 10769.5 723.511   1
   6   0   9 10500.1 618.688   2
  -6  -1  11 999.403 227.303   3
  -6  -1  10 45175.0 1333.82   3
  -6  -1   9 2092.70 294.360   3
  -6  -1   8 14906.3 726.117   3
  -6  -1   7 27735.9 973.127   3
  -6  -1   6 7838.14 512.825   3
  -6  -1   6 8307.18 332.535   4
  -6  -1   5 57480.2 1353.42   3
  -6  -1   5 59988.2 961.388   4
  -6  -1   4 35481.5 1056.10   3
  -6  -1   4 34979.3 796.296   4
   6   1  -3 305.440 73.9292   1
  -6  -1   3 197.362 117.160   3
  -6  -1   3 353.469 99.5569   4
   6   1  -2 44734.4 800.172   1
  -6  -1   2 45814.7 1213.61   3
  -6  -1   2 46556.7 1034.71   4
   6   1  -1 81320.7 1182.50   1
  -6  -1   1 81171.8 1608.59   3
   6   1  -1 79712.4 1547.96   5
   6   1   0 184.104 97.2319   5
   6   1   0 172.275 88.1243   1
   6   1   1 6600.61 453.583   5
   6   1   1 7248.04 410.474   1
   6   1   2 35637.6 1064.17   5
   6   1   2 36044.9 967.980   1
   6   1   3 1916.49 247.840   1
   6   1   4 36989.7 1088.07   1
   6   1   5 37598.6 1154.09   1
   6   1   6 134.275 113.896   2
   6   1   6 202.348 148.900   1
   6   1   7 10402.4 677.098   1
   6   1   7 10432.8 589.978   2
   6   1   8 19685.8 966.675   1
   6   1   8 18436.1 794.720   2
  -6  -2  11 31690.3 1171.90   3
  -6  -2  10 16786.8 833.846   3
  -6  -2   9 254.079 153.387   3
  -6  -2   8 101802. 1938.81   3
  -6  -2   7 17030.0 786.428   3
  -6  -2   6 2713.66 321.920   3
  -6  -2   5 69156.0 1529.50   3
  -6  -2   5 69358.2 1037.57   4
  -6  -2   4 32853.0 1051.84   3
  -6  -2   4 33808.3 801.459   4
  -6  -2   3 1500.52 247.044   3
  -6  -2   3 1025.06 157.898   4
   6   2  -3 1105.75 149.350   1
   6   2  -2 75606.3 1196.47   1
  -6  -2   2 73814.3 1594.21   3
   6   2  -2 73320.8 1554.56   5
   6   2  -1 22759.5 699.958   1
  -6  -2   1 22544.4 881.745   3
   6   2  -1 22984.1 864.812   5
  -6  -2   0 68.0320 113.785   3
   6   2   0-25.3457 128.113   5
   6   2   0 147.440 94.4817   1
   6   2   1 52251.4 1190.48   1
   6   2   1 51570.3 1321.96   5
   6   2   2 65059.0 1496.00   5
   6   2   2 64916.8 1399.99   1
   6   2   3 7676.75 508.837   1
   6   2   4 9959.56 613.488   1
   6   2   5 30151.4 1101.08   1
   6   2   6 7062.38 571.748   1
   6   2   7 9337.90 677.710   1
  -6  -3  11 9737.87 667.404   3
  -6  -3  10 954.039 222.065   3
  -6  -3   9 40929.8 1299.16   3
  -6  -3   8 17340.8 832.106   3
  -6  -3   7 932.813 219.619   3
  -6  -3   6 9625.75 606.281   3
  -6  -3   5 54798.4 1404.45   3
  -6  -3   4 2503.26 316.434   3
  -6  -3   3 11478.2 654.762   3
   6   3  -3 10959.8 628.017   5
   6   3  -3 11042.2 493.603   1
  -6  -3   2 42840.1 1252.62   3
   6   3  -2 43435.5 1228.11   5
   6   3  -2 42693.9 1008.89   1
   6   3  -1 163.605 109.826   1
  -6  -3   1 45.2205 114.842   3
   6   3   0 50441.1 1203.66   1
  -6  -3   0 51143.8 1391.78   3
   6   3   0 49325.5 1334.87   5
   6   3   1 17610.3 746.037   1
  -6  -3  -1 17819.4 831.615   3
   6   3   1 18669.6 834.799   5
   6   3   2 2284.04 295.763   1
   6   3   3 37173.4 1188.73   1
   6   3   4 13422.3 753.141   1
   6   3   5 55.4989 121.719   1
  -6  -4  10 5232.69 500.082   3
  -6  -4   9 11655.6 719.779   3
  -6  -4   8 19852.4 915.167   3
  -6  -4   7 13007.8 727.762   3
  -6  -4   6 25916.2 1021.26   3
  -6  -4   5 21882.4 921.577   3
   6   4  -5 22738.9 932.058   5
  -6  -4   4 968.972 219.695   3
   6   4  -4 858.148 205.641   5
  -6  -4   3 64699.5 1585.17   3
   6   4  -3 68087.4 1594.46   5
   6   4  -3 67390.0 1348.41   1
  -6  -4   2 6092.38 491.139   3
   6   4  -2 6427.19 497.772   5
   6   4  -2 6667.19 449.336   1
   6   4  -1 159.351 109.629   1
  -6  -4   1 81.7574 123.706   3
   6   4  -1 68.4138 122.111   5
   6   4   0 38001.4 1138.15   1
  -6  -4   0 37365.4 1228.15   3
   6   4   0 39433.3 1240.28   5
   6   4   1 4854.08 430.882   1
  -6  -4  -1 5896.01 498.661   3
   6   4   2 1627.88 275.301   1
  -6  -4  -2 1772.38 286.722   3
   6   4   3 17496.3 879.240   1
   6   4   4 9053.94 660.120   1
  -6  -5   9 10550.8 700.569   3
  -6  -5   8 1462.30 281.161   3
  -6  -5   7 15655.3 811.941   3
  -6  -5   6 24385.6 1013.30   3
   6   5  -6 23264.8 978.679   5
  -6  -5   5 466.182 172.268   3
   6   5  -5 147.354 124.417   5
  -6  -5   4 12289.8 708.850   3
   6   5  -4 12309.1 706.455   5
  -6  -5   3 34501.0 1185.20   3
   6   5  -3 35786.6 1196.54   5
   6   5  -3 36083.2 1086.67   1
  -6  -5   2 514.134 178.136   3
   6   5  -2 484.059 178.820   5
   6   5  -2 680.273 185.617   1
  -6  -5   1 9744.24 633.118   3
   6   5  -1 9577.39 637.463   5
   6   5  -1 9686.43 607.189   1
  -6  -5   0 11675.2 697.271   3
   6   5   0 12278.3 700.380   1
   6   5   1 854.326 214.260   1
  -6  -5  -1 899.469 211.131   3
  -6  -5  -2 14888.2 791.937   3
   6   6  -8 9884.87 661.872   5
  -6  -6   7 13041.4 770.882   3
   6   6  -7 12201.3 731.333   5
  -6  -6   6 8976.02 624.412   3
   6   6  -6 8879.10 617.060   5
  -6  -6   5 8461.89 608.840   3
   6   6  -5 8747.64 610.199   5
  -6  -6   4 15262.4 802.743   3
   6   6  -4 15931.3 830.776   5
  -6  -6   3 3776.53 407.332   3
   6   6  -3 4453.50 445.916   5
  -6  -6   2 8182.02 585.245   3
   6   6  -2 9409.81 627.783   1
   6   6  -1 21003.7 959.691   1
   7 -10   3 34506.9 1092.00   2
   7 -10   3 33379.4 1299.51   4
   7 -10   4 4504.50 410.421   2
   7 -10   4 5018.23 516.168   4
   7 -10   5 2682.73 326.329   2
   7 -10   6 12381.3 688.774   2
   7 -10   7 8025.84 575.357   2
   7  -9  -1 5558.61 519.138   4
   7  -9   0 24738.8 1066.12   4
   7  -9   1 156.079 108.381   2
   7  -9   1 90.2167 124.128   4
   7  -9   2 15174.5 702.855   2
   7  -9   2 14082.4 800.307   4
   7  -9   3 3955.24 370.777   2
   7  -9   3 4075.69 446.529   4
   7  -9   4 4684.17 409.297   2
   7  -9   5 36723.4 1134.68   2
   7  -9   6 2072.11 291.623   2
   7  -9   7 2179.74 309.285   2
   7  -9   8 6041.56 497.377   2
   7  -8  -4 5337.24 494.716   4
   7  -8  -3 22805.5 991.427   4
   7  -8  -2 11834.7 717.104   4
   7  -8  -1 31353.5 959.460   2
   7  -8  -1 30034.3 1113.13   4
   7  -8   0 1008.45 193.082   2
   7  -8   0 1214.08 243.621   4
   7  -8   1 2277.18 283.227   2
   7  -8   1 2237.06 320.117   4
   7  -8   2 71858.7 1493.70   2
   7  -8   2 71887.1 1728.98   4
  -7   8  -3 1005.14 158.397   3
   7  -8   3 1046.57 205.590   2
   7  -8   3 1392.69 262.909   4
   7  -8   4 4051.25 373.823   2
   7  -8   5 17090.8 762.456   2
   7  -8   6 26040.6 945.697   2
   7  -8   7 13979.4 711.915   2
   7  -8   8 6207.51 492.001   2
   7  -8   9 14757.0 770.097   2
   7  -7  -6 3545.12 396.008   4
   7  -7  -5 13067.6 729.179   4
   7  -7  -4 26582.2 1026.82   4
   7  -7  -3 8760.29 589.911   4
  -7   7   2 2780.04 219.682   3
   7  -7  -2 3180.97 359.092   4
  -7   7   1 47952.6 912.765   3
   7  -7  -1 49520.2 1207.60   2
   7  -7  -1 50406.3 1370.70   4
  -7   7   0 3367.76 255.897   3
   7  -7   0 3266.93 323.151   2
   7  -7   0 3747.70 379.996   4
  -7   7  -1 34382.6 849.730   3
   7  -7   1 31550.3 975.842   2
   7  -7   1 33166.3 1114.56   4
  -7   7  -2 34666.5 903.599   3
   7  -7   2 34693.0 769.598   5
   7  -7   2 35299.7 1030.20   2
   7  -7   2 35967.8 1178.29   4
   7  -7   3 1227.89 138.873   5
   7  -7   3 1338.01 224.471   2
   7  -7   4 41922.6 1145.57   2
   7  -7   5 9085.33 546.729   2
   7  -7   6 131.318 130.465   2
   7  -7   7 21833.2 874.139   2
   7  -7   8 19556.8 847.873   2
   7  -7   9 0.23407 109.384   2
   7  -7  10 10111.0 644.249   2
   7  -6  -8 4329.60 428.449   4
   7  -6  -7 5445.96 463.521   4
   7  -6  -6 11928.2 680.005   4
  -7   6   5 9227.41 450.079   3
   7  -6  -5 9661.53 598.572   4
  -7   6   4 23567.1 705.978   3
   7  -6  -4 25442.7 951.783   4
  -7   6   3 11926.0 499.743   3
   7  -6  -3 12147.5 654.582   4
  -7   6   2 31602.0 817.918   3
   7  -6  -2 32345.1 1054.11   4
   7  -6  -1 4716.48 296.618   1
  -7   6   1 4282.39 310.954   3
   7  -6  -1 4435.84 373.241   2
   7  -6  -1 4085.06 385.561   4
  -7   6   0 4286.37 322.328   3
   7  -6   0 4304.41 368.530   2
   7  -6   0 4401.91 396.951   4
   7  -6   0 3957.93 285.164   1
  -7   6  -1 59289.9 1214.56   3
   7  -6   1 59444.6 1129.47   1
   7  -6   1 60096.4 1331.27   2
   7  -6   1 60718.3 1465.93   4
   7  -6   2 691.499 162.175   2
   7  -6   2 577.849 122.609   5
   7  -6   3 9820.59 426.401   5
   7  -6   3 10401.8 565.289   2
   7  -6   4 42870.7 880.587   5
   7  -6   4 44933.3 1165.20   2
   7  -6   5 4243.30 374.778   2
   7  -6   6 1505.48 239.373   2
   7  -6   7 26114.0 940.037   2
   7  -6   8 4118.10 397.185   2
   7  -6   9 4906.72 437.745   2
   7  -6  10 19654.8 886.977   2
   7  -5 -10 7.26114 100.068   4
   7  -5  -9 15128.8 752.989   4
   7  -5  -8 5009.65 431.559   4
  -7   5   8 5252.86 397.350   3
  -7   5   7 2043.92 248.674   3
   7  -5  -7 1950.61 270.623   4
  -7   5   6 31265.0 905.551   3
   7  -5  -6 31008.2 1021.59   4
  -7   5   5 24673.6 791.724   3
   7  -5  -5 25128.3 908.684   4
  -7   5   4-6.83842 73.5858   3
   7  -5  -4 84.7829 107.208   4
  -7   5   3 70785.5 1299.80   3
   7  -5  -3 71993.0 1511.26   4
   7  -5  -2 29022.2 604.069   1
  -7   5   2 29416.5 845.873   3
   7  -5  -2 29402.1 966.744   4
   7  -5  -1 244.196 75.1859   1
   7  -5  -1 200.175 104.148   2
  -7   5   1 127.365 84.5571   3
   7  -5  -1 191.387 123.756   4
  -7   5   0 53335.3 1174.62   3
   7  -5   0 54099.6 1263.85   2
   7  -5   1 24770.2 855.733   2
   7  -5   2-14.4681 101.363   2
   7  -5   2-24.4081 98.4380   5
   7  -5   3 32582.6 830.604   5
   7  -5   3 33744.2 1000.18   2
   7  -5   4 50251.7 1040.11   5
   7  -5   4 52059.7 1253.49   2
   7  -5   5 3070.17 323.610   2
   7  -5   6 8306.88 527.699   2
   7  -5   7 78068.4 1634.68   2
   7  -5   8 2122.47 296.008   2
   7  -5   9 16328.4 788.864   2
   7  -5  10 4543.31 438.094   2
   7  -5  11 332.147 163.755   2
   7  -4 -10 6021.29 462.583   4
  -7   4  10 5510.83 453.078   3
   7  -4  -9 11140.9 621.658   4
  -7   4   9 10818.6 610.386   3
  -7   4   8 7839.01 503.475   3
   7  -4  -8 7872.16 511.843   4
  -7   4   7 13151.0 634.001   3
   7  -4  -7 14511.4 672.439   4
  -7   4   6 28953.7 908.768   3
   7  -4  -6 27422.0 916.452   4
  -7   4   5 2269.00 260.603   3
   7  -4  -5 2487.90 286.642   4
  -7   4   4 20468.1 747.354   3
   7  -4  -4 20010.2 776.612   4
  -7   4   3 63124.2 1295.31   3
   7  -4  -3 64041.6 1381.44   4
   7  -4  -3 62453.9 556.264   1
   7  -4  -2 2199.52 140.737   1
  -7   4   2 1992.52 248.791   3
  -7   4   1 12163.3 585.741   3
   7  -4  -1 12335.3 602.864   2
   7  -4  -1 11655.6 369.238   1
  -7   4   0 56505.8 1266.58   3
   7  -4   0 58250.6 1302.48   2
   7  -4   1 24971.5 857.496   2
   7  -4   2 47296.8 1060.84   5
   7  -4   2 47541.5 1185.70   2
   7  -4   3 19706.4 679.962   5
   7  -4   3 19599.6 765.958   2
   7  -4   4 18712.0 674.622   5
   7  -4   4 19207.5 769.611   2
   7  -4   5 29078.7 959.245   2
   7  -4   6 64157.0 1445.19   2
   7  -4   7 376.583 157.836   2
   7  -4   8 4356.87 410.274   2
   7  -4   9 48368.6 1357.98   2
   7  -4  10 254.770 152.860   2
   7  -4  11 1371.14 264.088   2
  -7   3  11 91.5079 134.968   3
  -7   3  10 17555.2 822.060   3
  -7   3   9 17527.1 794.472   3
   7  -3  -9 18441.4 743.957   4
  -7   3   8 6687.37 484.865   3
   7  -3  -8 7085.95 463.605   4
  -7   3   7 10122.2 576.485   3
   7  -3  -7 10554.1 552.553   4
  -7   3   6 56880.6 1310.45   3
   7  -3  -6 56379.9 1255.59   4
  -7   3   5 11499.4 597.465   3
   7  -3  -5 11505.2 572.273   4
  -7   3   4 30723.8 944.543   3
  -7   3   3 11519.7 579.938   3
  -7   3   2 8709.47 509.253   3
   7  -3  -2 9053.14 234.101   1
   7  -3  -2 8717.98 232.604   1
  -7   3   1 122515. 1896.85   3
  -7   3   0 6457.06 449.101   3
   7  -3   0 7779.40 489.449   2
   7  -3   1 8419.90 512.020   2
   7  -3   2 83798.4 1484.36   5
   7  -3   2 87698.0 1643.09   2
   7  -3   3 39213.7 1006.26   5
   7  -3   3 39487.6 1097.21   2
   7  -3   4 7595.16 459.897   5
   7  -3   4 7045.75 474.367   2
   7  -3   5 13175.7 657.224   2
   7  -3   6 37352.0 1120.27   2
   7  -3   7 5215.35 442.001   2
   7  -3   8 12108.8 671.964   2
   7  -3   9 7859.89 559.935   2
   7  -3  10 969.986 227.629   2
   7  -3  11 7629.19 581.579   2
  -7   2  11 21003.9 945.756   3
  -7   2  10 2571.62 334.294   3
  -7   2   9 10111.9 622.611   3
   7  -2  -9 10163.5 521.148   4
  -7   2   8 45114.4 1269.89   3
   7  -2  -8 48564.6 1131.90   4
  -7   2   7 21832.4 856.418   3
  -7   2   6 2808.39 316.810   3
  -7   2   5 9816.95 560.931   3
  -7   2   4 108605. 1849.15   3
  -7   2   3 570.510 162.141   3
  -7   2   2 10454.3 577.474   3
   7  -2  -2 12172.3 270.803   1
  -7   2   1 77797.4 1558.54   3
   7  -2  -1 77975.3 909.746   1
   7  -2   0 10668.7 388.182   1
   7  -2   1 62765.8 1332.31   5
   7  -2   1 63859.3 1395.53   2
   7  -2   1 62468.5 1036.64   1
   7  -2   2 63021.7 1340.28   5
   7  -2   2 65908.5 1415.63   2
   7  -2   3 9249.95 521.540   5
   7  -2   3 9987.77 565.414   2
   7  -2   4 22045.3 810.950   5
   7  -2   4 22222.2 854.832   2
   7  -2   5 30718.0 1005.99   2
   7  -2   6 7234.28 505.348   2
   7  -2   7 22917.1 907.114   2
   7  -2   7 23023.9 918.868   1
   7  -2   8 18512.9 867.681   1
   7  -2   8 18859.9 847.415   2
   7  -2   9 3277.59 397.333   1
   7  -2   9 3331.52 376.449   2
   7  -2  10 7130.56 551.432   2
   7  -2  11 8476.54 614.490   2
  -7   1  11 26920.9 1089.69   3
  -7   1  10 8263.85 592.664   3
  -7   1   9 4725.89 441.647   3
  -7   1   8 7367.25 538.477   3
  -7   1   7 29042.9 1014.78   3
  -7   1   6 13012.2 678.886   3
  -7   1   5 46798.2 1249.96   3
  -7   1   5 50017.1 1034.67   4
  -7   1   4 23221.5 882.485   3
  -7   1   4 23820.8 738.128   4
  -7   1   3 11336.8 622.957   3
  -7   1   2 60239.7 1423.66   3
   7  -1  -2 63765.4 740.500   1
  -7   1   1 44320.0 1226.16   3
   7  -1  -1 44406.9 739.363   1
   7  -1   0 4517.36 271.364   1
   7  -1   0 3961.72 361.298   5
   7  -1   1 40020.8 1113.05   5
   7  -1   1 40918.0 882.688   1
   7  -1   2 13764.3 672.593   2
   7  -1   2 14499.0 567.973   1
   7  -1   3 10867.1 596.693   5
   7  -1   3 10914.3 599.616   2
   7  -1   3 11491.4 545.251   1
   7  -1   4 54462.0 1337.81   5
   7  -1   4 56357.2 1361.68   2
   7  -1   4 58032.4 1295.81   1
   7  -1   5 18684.4 785.089   1
   7  -1   5 18879.1 808.758   2
   7  -1   6 684.198 189.390   1
   7  -1   6 554.069 170.206   2
   7  -1   7 29849.9 1059.20   2
   7  -1   7 30157.9 1085.66   1
   7  -1   8 1581.56 271.240   2
   7  -1   8 1462.19 274.747   1
   7  -1   9 1291.67 246.446   2
   7  -1   9 1296.77 268.869   1
   7  -1  10 7827.80 581.445   2
  -7   0  10 1031.51 242.186   3
  -7   0   9 14457.5 769.543   3
  -7   0   8 35282.7 1174.34   3
  -7   0   7 5276.34 458.516   3
  -7   0   6 24033.5 940.783   3
  -7   0   5 39299.7 1180.07   3
  -7   0   5 40323.4 894.034   4
  -7   0   4 3780.46 379.947   3
  -7   0   4 4175.42 306.694   4
  -7   0   3 23565.1 915.012   3
  -7   0   3 23856.8 760.022   4
   7   0  -3 23918.0 450.465   1
   7   0  -2 35616.6 663.834   1
  -7   0   2 35546.9 1129.28   3
  -7   0   1 5172.36 443.257   3
   7   0  -1 5013.28 285.147   1
  -7   0   0 38928.0 1190.90   3
   7   0   0 36430.2 1099.21   5
   7   0   0 37083.2 833.580   1
   7   0   1 77500.5 1596.76   5
   7   0   1 76925.8 1294.97   1
   7   0   2 1677.85 217.334   1
   7   0   2 1227.64 216.548   5
   7   0   3 5830.11 410.670   1
   7   0   3 4944.58 427.596   5
   7   0   4 34838.8 1043.36   1
   7   0   4 36047.4 1115.66   2
   7   0   5 1675.06 260.589   1
   7   0   5 1664.41 262.223   2
   7   0   6 12648.9 701.300   1
   7   0   6 13109.0 698.098   2
   7   0   7 11456.2 700.575   1
   7   0   7 11261.4 653.576   2
   7   0   8 3300.83 407.510   1
   7   0   8 3349.20 374.712   2
   7   0   9 11450.6 680.971   2
  -7  -1  10 7575.87 590.572   3
  -7  -1   9 37296.4 1265.63   3
  -7  -1   8 6971.31 538.535   3
  -7  -1   7 754.364 204.215   3
  -7  -1   6 72904.9 1675.09   3
  -7  -1   5 3470.02 376.576   3
  -7  -1   4 1302.19 238.291   3
  -7  -1   3 81680.2 1761.56   3
   7   1  -3 84153.8 1066.51   1
   7   1  -2 36192.4 775.951   1
  -7  -1   2 36493.4 1176.09   3
   7   1  -1 16387.8 568.871   1
  -7  -1   1 15871.6 782.852   3
   7   1  -1 15983.9 757.901   5
  -7  -1   0 29445.8 1076.02   3
   7   1   0 29904.7 821.317   1
   7   1   0 28482.6 1006.86   5
   7   1   1 48474.5 1325.88   5
   7   1   1 49324.1 1113.43   1
   7   1   2 42151.2 1260.79   5
   7   1   2 41633.9 1098.88   1
   7   1   3 18758.1 769.373   1
   7   1   4 15711.2 750.198   1
   7   1   5 1058.98 225.015   1
   7   1   6 23263.5 995.440   1
   7   1   7 1655.20 302.569   1
  -7  -2  10 3231.22 402.118   3
  -7  -2   9 17644.2 892.667   3
  -7  -2   8 2660.37 353.180   3
  -7  -2   7 8954.88 621.391   3
  -7  -2   6 63049.5 1607.15   3
  -7  -2   5 1936.36 296.118   3
  -7  -2   4 29022.2 1085.04   3
  -7  -2   3 13068.8 736.853   3
   7   2  -3 12664.4 698.437   5
   7   2  -3 13431.1 503.772   1
  -7  -2   2 1864.51 294.350   3
   7   2  -2 1664.49 264.732   5
   7   2  -2 1981.93 211.190   1
   7   2  -1 48410.6 1067.39   1
  -7  -2   1 49272.3 1428.38   3
   7   2  -1 49149.6 1363.72   5
   7   2   0 22455.9 773.630   1
  -7  -2   0 23074.1 983.884   3
   7   2   0 22266.0 922.360   5
   7   2   1 2436.57 281.023   1
  -7  -2  -1 2659.24 352.677   3
   7   2   1 2464.84 333.292   5
   7   2   2 10039.9 578.336   1
   7   2   2 10784.3 668.327   5
   7   2   3 22633.8 900.833   1
   7   2   4 247.861 141.644   1
   7   2   5 4822.55 466.133   1
  -7  -3   9 19884.8 974.848   3
  -7  -3   8 82.0641 129.505   3
  -7  -3   7 46672.6 1455.83   3
  -7  -3   6 521.814 185.432   3
  -7  -3   5 4797.85 464.572   3
  -7  -3   4 70029.3 1735.37   3
   7   3  -4 67665.2 1672.86   5
  -7  -3   3 8691.47 623.270   3
   7   3  -3 8981.71 610.601   5
   7   3  -3 9425.82 478.182   1
  -7  -3   2 3341.16 389.205   3
   7   3  -2 4243.92 423.094   5
   7   3  -2 3639.11 319.453   1
  -7  -3   1 26535.5 1066.67   3
   7   3  -1 26077.0 1037.46   5
   7   3  -1 26637.8 873.001   1
   7   3   0 8312.62 516.980   1
  -7  -3   0 8098.17 602.318   3
   7   3   0 8504.71 606.543   5
   7   3   1 2830.81 321.746   1
  -7  -3  -1 2403.18 347.486   3
   7   3   1 2679.51 358.159   5
   7   3   2 13396.5 712.620   1
  -7  -3  -2 14296.3 817.965   3
   7   3   3 5654.17 490.524   1
   7   3   4 5427.68 502.475   1
  -7  -4   8 27286.1 1145.84   3
  -7  -4   7 25854.6 1110.11   3
  -7  -4   6 292.376 158.948   3
  -7  -4   5 16011.3 858.337   3
   7   4  -5 16603.4 859.862   5
  -7  -4   4 14678.3 827.447   3
   7   4  -4 15455.5 823.005   5
  -7  -4   3 1593.11 287.096   3
   7   4  -3 1063.78 240.004   5
   7   4  -3 1585.02 228.144   1
  -7  -4   2 11978.2 746.511   3
   7   4  -2 13193.0 763.442   5
   7   4  -2 13304.4 652.967   1
  -7  -4   1 22661.2 1019.91   3
   7   4  -1 24062.9 1036.13   5
   7   4  -1 23499.4 895.870   1
   7   4   0 197.026 134.631   1
  -7  -4   0 163.258 136.831   3
   7   4   0 297.725 165.623   5
   7   4   1 16824.1 816.085   1
  -7  -4  -1 15749.2 860.664   3
   7   4   2 10523.6 672.990   1
  -7  -4  -2 9902.87 691.084   3
  -7  -4  -3 696.764 217.349   3
  -7  -5   5 9885.49 694.419   3
   7   5  -5 9946.60 680.174   5
  -7  -5   4 3937.93 441.838   3
   7   5  -4 3485.92 413.211   5
  -7  -5   3 6890.79 573.267   3
  -7  -5   2 16153.5 862.767   3
   7   5  -2 17229.1 799.115   1
  -7  -5   1 2896.81 379.104   3
   7   5  -1 2812.86 347.224   1
  -7  -5   0 3608.11 423.725   3
   8 -10   3 5308.58 462.555   2
   8 -10   4 4073.04 416.029   2
   8 -10   5 15204.5 797.173   2
   8  -9   1 13527.3 711.890   2
   8  -9   1 13619.1 829.722   4
   8  -9   2 15431.6 761.207   2
   8  -9   2 15830.3 897.026   4
   8  -9   3 10564.5 637.717   2
   8  -9   4 10028.3 633.353   2
   8  -9   5 7354.27 551.130   2
   8  -9   6 10798.0 674.386   2
   8  -8  -2 7294.39 590.174   4
   8  -8  -1 2058.23 324.886   4
   8  -8   0 19837.6 843.597   2
   8  -8   0 19088.4 935.264   4
   8  -8   1 7390.13 529.875   2
   8  -8   1 8662.04 633.450   4
   8  -8   2 924.247 212.074   2
   8  -8   3 12495.8 682.198   2
   8  -8   4 27363.9 1020.57   2
   8  -8   5 719.935 202.823   2
   8  -8   6 13212.4 730.946   2
   8  -8   7 951.749 227.743   2
   8  -7  -5-74.2954 149.351   4
   8  -7  -4 3145.79 374.973   4
   8  -7  -3 15514.1 815.899   4
   8  -7  -2 9808.63 646.885   4
  -8   7   1 22861.4 740.060   3
   8  -7  -1 23316.8 899.786   2
   8  -7  -1 23064.2 980.860   4
  -8   7   0 17021.8 660.579   3
   8  -7   0 17145.3 780.616   2
   8  -7   0 17644.5 865.144   4
  -8   7  -1 5159.22 381.420   3
   8  -7   1 4977.04 430.773   2
  -8   7  -2 1900.19 249.097   3
   8  -7   2 1654.20 198.656   5
   8  -7   2 2020.38 284.662   2
   8  -7   3 37652.3 866.468   5
   8  -7   3 39305.8 1185.34   2
   8  -7   4 484.420 164.849   2
   8  -7   4 335.847 94.0988   5
   8  -7   5 3342.67 371.279   2
   8  -7   6 50411.9 1400.06   2
   8  -7   7 3611.52 396.865   2
   8  -7   8 7352.90 566.971   2
   8  -6  -7 16948.7 843.252   4
   8  -6  -6 1771.87 284.608   4
  -8   6   5 551.988 141.570   3
   8  -6  -5 403.778 163.339   4
  -8   6   4 47869.2 1125.77   3
   8  -6  -4 48927.1 1379.83   4
  -8   6   3 10667.9 542.664   3
   8  -6  -3 10052.6 631.413   4
  -8   6   2 407.999 124.868   3
   8  -6  -2 557.926 178.592   4
  -8   6   1 19523.8 743.194   3
   8  -6  -1 19912.3 832.151   2
   8  -6  -1 20933.6 906.792   4
  -8   6   0 38975.9 1073.48   3
   8  -6   0 39126.3 1172.66   2
  -8   6  -1 7702.01 490.956   3
   8  -6   1 8628.56 561.637   2
   8  -6   2 10640.4 514.098   5
   8  -6   2 10970.3 627.099   2
   8  -6   3 63098.7 1215.47   5
   8  -6   3 64198.5 1497.90   2
   8  -6   4 1202.08 179.185   5
   8  -6   4 1452.59 250.612   2
   8  -6   5 25846.6 991.890   2
   8  -6   6 12968.9 710.717   2
   8  -6   7 78.1154 122.893   2
   8  -6   8 22135.9 964.399   2
   8  -6   9 3554.69 404.375   2
   8  -5  -9 620.158 184.464   4
  -8   5   8 2253.68 290.746   3
   8  -5  -8 2320.28 313.342   4
  -8   5   7 24742.1 904.516   3
   8  -5  -7 24543.5 984.142   4
  -8   5   6 20.2323 91.9560   3
   8  -5  -6 23.8421 106.850   4
  -8   5   5 1958.58 253.281   3
   8  -5  -5 1908.09 280.402   4
  -8   5   4 4466.66 376.232   3
   8  -5  -4 3404.21 363.483   4
  -8   5   3 4565.28 376.216   3
   8  -5  -3 4587.73 418.535   4
  -8   5   2 40378.2 1111.99   3
  -8   5   1 19802.0 791.310   3
  -8   5   0 11935.3 624.425   3
   8  -5   0 12928.9 673.518   2
  -8   5  -1 22512.0 865.144   3
   8  -5   1 22669.0 893.202   2
   8  -5   2 36728.7 991.874   5
   8  -5   2 37417.1 1151.01   2
   8  -5   3 473.992 160.882   2
   8  -5   3 589.022 143.108   5
   8  -5   4 6919.67 435.988   5
   8  -5   4 6799.16 503.679   2
   8  -5   5 49302.1 1352.41   2
   8  -5   6 6765.31 523.125   2
   8  -5   7 6469.90 518.163   2
   8  -5   8 16944.1 844.779   2
   8  -5   9 2173.27 322.398   2
  -8   4  10 16028.9 815.155   3
  -8   4   9 3293.99 364.158   3
   8  -4  -9 3723.14 377.839   4
  -8   4   8 9197.46 590.426   3
   8  -4  -8 9158.08 577.085   4
  -8   4   7 5693.48 458.246   3
   8  -4  -7 5561.08 449.548   4
  -8   4   6-61.2024 118.116   3
   8  -4  -6 49.4846 100.508   4
  -8   4   5 63255.3 1462.85   3
   8  -4  -5 66317.6 1512.68   4
  -8   4   4 16311.4 730.971   3
  -8   4   3 12691.7 653.189   3
  -8   4   2 66854.3 1487.54   3
  -8   4   1 19706.8 816.528   3
  -8   4   0 6441.84 474.674   3
   8  -4   0 7571.96 521.198   2
   8  -4   1 40234.7 1085.65   5
   8  -4   1 43427.7 1229.63   2
   8  -4   2 35739.1 1017.73   5
   8  -4   2 36482.5 1138.27   2
   8  -4   3 1367.62 211.306   5
   8  -4   3 1496.42 250.169   2
   8  -4   4 30003.7 951.097   5
   8  -4   4 30050.3 1051.37   2
   8  -4   5 18975.5 845.349   2
   8  -4   6 92.7897 112.932   2
   8  -4   7 5212.10 472.223   2
   8  -4   8 16768.3 850.091   2
   8  -4   9 3062.90 390.166   2
  -8   3  10 357.150 161.939   3
  -8   3   9 4809.64 452.798   3
  -8   3   8 20550.0 905.408   3
  -8   3   7 320.676 144.184   3
  -8   3   6 9635.31 596.561   3
  -8   3   5 20234.5 850.140   3
  -8   3   4 3140.01 346.129   3
  -8   3   3 49714.7 1315.00   3
  -8   3   2 41251.5 1201.21   3
   8  -3  -2 40963.4 456.644   1
  -8   3   1-19.0094 118.988   3
   8  -3  -1 123.466 55.2757   1
  -8   3   0 18285.1 815.645   3
   8  -3   0 18415.3 521.841   1
   8  -3   1 38717.5 1104.01   5
   8  -3   1 39904.3 1187.19   2
   8  -3   2 197.917 135.076   2
   8  -3   2 863.202 186.003   5
   8  -3   3 20349.8 804.726   5
   8  -3   3 20953.1 875.029   2
   8  -3   4 18201.0 774.294   5
   8  -3   4 18847.8 850.225   2
   8  -3   5 3005.34 353.244   2
   8  -3   6 35646.7 1193.76   2
   8  -3   7 14487.0 779.307   2
   8  -3   8 1341.22 266.181   2
   8  -3   9 4982.65 483.511   2
   8  -3   9 4258.02 451.263   1
  -8   2  10 870.399 217.669   3
  -8   2   9 16757.5 857.031   3
  -8   2   8 10435.6 665.497   3
  -8   2   7 2930.88 354.079   3
  -8   2   6 35601.6 1178.25   3
  -8   2   5 20808.4 890.923   3
  -8   2   4 16964.1 800.415   3
  -8   2   3 30717.3 1072.50   3
  -8   2   2 32571.1 1113.50   3
   8  -2  -2 33008.7 467.027   1
  -8   2   1 5828.75 477.220   3
   8  -2  -1 6303.56 274.233   1
   8  -2   0 48189.3 863.178   1
  -8   2   0 49543.3 1366.68   3
   8  -2   0 45676.1 1245.99   5
   8  -2   1 4047.47 378.632   5
   8  -2   1 4201.97 288.794   1
   8  -2   2 761.973 150.145   1
   8  -2   2 1207.12 228.543   2
   8  -2   2 688.403 176.081   5
   8  -2   3 72676.5 1374.54   1
   8  -2   3 70070.9 1562.70   5
   8  -2   3 70365.4 1611.30   2
   8  -2   4 7489.30 474.753   1
   8  -2   4 7210.58 515.877   5
   8  -2   4 7654.99 541.004   2
   8  -2   5 1402.45 229.963   1
   8  -2   5 1542.69 260.151   2
   8  -2   6 15442.5 750.750   1
   8  -2   6 15398.2 800.354   2
   8  -2   7 10965.0 670.645   1
   8  -2   7 10925.5 697.154   2
   8  -2   8 3717.46 421.454   1
   8  -2   8 4019.34 436.740   2
   8  -2   9 4710.25 480.439   2
  -8   1   9 20843.3 965.240   3
  -8   1   8 6086.46 521.072   3
  -8   1   7 41134.6 1314.69   3
  -8   1   6 7712.43 570.269   3
  -8   1   5 9731.23 629.731   3
  -8   1   4 19619.6 884.436   3
  -8   1   3 36635.6 1202.76   3
   8  -1  -2 2261.17 152.647   1
  -8   1   2 2997.10 355.003   3
  -8   1   1 13397.9 730.530   3
   8  -1  -1 13797.6 440.525   1
  -8   1   0 69770.4 1675.61   3
   8  -1   0 66699.7 1554.49   5
   8  -1   0 68138.4 1103.08   1
   8  -1   1-3.96705 106.374   5
   8  -1   1 314.396 107.972   1
   8  -1   2 9903.79 492.823   1
   8  -1   2 9593.72 598.527   5
   8  -1   3 21103.3 766.797   1
   8  -1   3 20526.4 892.926   5
   8  -1   4 349.743 133.968   1
   8  -1   4 323.966 130.345   2
   8  -1   5 20126.4 898.737   2
   8  -1   5 20378.0 848.690   1
   8  -1   6 4351.65 435.253   2
   8  -1   6 4313.57 419.780   1
   8  -1   7 3396.77 394.211   2
   8  -1   7 3491.24 401.624   1
   8  -1   8 13131.2 761.887   2
   8  -1   9 4219.75 449.716   2
  -8   0   9 303.374 146.060   3
  -8   0   8 5438.19 500.435   3
  -8   0   7 39691.3 1322.04   3
  -8   0   6 9420.34 641.609   3
  -8   0   5 17028.7 856.025   3
  -8   0   4 40121.4 1295.87   3
  -8   0   3 30544.6 1131.72   3
   8   0  -2 26082.2 596.989   1
  -8   0   2 27168.1 1074.02   3
   8   0  -1 25178.2 668.829   1
  -8   0   1 24491.7 1019.79   3
   8   0  -1 24881.2 986.836   5
  -8   0   0 10576.7 679.110   3
   8   0   0 9941.70 628.036   5
   8   0   0 10392.1 465.708   1
   8   0   1 14678.8 759.704   5
   8   0   1 14987.3 604.327   1
   8   0   2 43421.0 1331.88   5
   8   0   2 43578.5 1093.42   1
   8   0   3 10681.6 666.812   5
   8   0   3 11488.3 596.978   1
   8   0   4 2609.69 311.703   1
   8   0   5 22286.5 924.295   1
   8   0   6 7614.01 567.623   1
  -8  -1   8 15107.9 843.393   3
  -8  -1   7 13146.2 785.273   3
  -8  -1   6 1574.59 288.829   3
  -8  -1   5 25527.5 1069.92   3
  -8  -1   4 18511.2 902.798   3
  -8  -1   3-46.1544 144.385   3
  -8  -1   2 11574.0 723.038   3
   8   1  -2 12412.0 723.749   5
   8   1  -2 11888.8 467.575   1
   8   1  -1 21605.6 680.587   1
  -8  -1   1 21637.8 987.429   3
   8   1  -1 20817.9 929.346   5
   8   1   0-38.3100 126.874   5
   8   1   0 97.7710 96.4991   1
  -8  -1  -1 5358.98 509.708   3
   8   1   1 5322.34 390.368   1
   8   1   1 5399.88 488.597   5
   8   1   2 14871.9 809.801   5
   8   1   2 14692.8 674.066   1
   8   1   3 80.4179 109.817   1
   8   1   4 12797.2 700.468   1
   8   1   5 10307.5 663.363   1
  -8  -2   7 1176.68 267.357   3
  -8  -2   6 7841.34 618.416   3
  -8  -2   5 33348.5 1258.85   3
  -8  -2   4 3199.91 397.457   3
  -8  -2   3 6418.60 562.432   3
   8   2  -3 6017.91 527.697   5
  -8  -2   2 48633.8 1508.65   3
   8   2  -2 47553.7 1447.71   5
   8   2  -1 5799.67 392.316   1
  -8  -2   1 6236.62 556.953   3
   8   2  -1 5262.60 493.355   5
   8   2   0 4023.63 347.919   1
  -8  -2   0 3765.53 446.387   3
   8   2   0 3250.24 395.560   5
   8   2   1 27041.2 933.201   1
  -8  -2  -1 26270.2 1150.60   3
   8   2   1 27550.8 1127.09   5
   8   2   2 14824.5 729.580   1
  -8  -2  -2 14935.9 872.642   3
   8   2   3 18290.1 844.581   1
   8   2   4 7002.92 553.134   1
  -8  -3   5 25177.0 1114.54   3
   8   3  -5 25019.3 1090.50   5
  -8  -3   4 1349.10 287.362   3
   8   3  -4 1315.97 274.342   5
  -8  -3   3 10052.4 712.001   3
   8   3  -3 9393.72 661.835   5
  -8  -3   2 13341.3 821.555   3
   8   3  -2 12839.8 774.186   5
  -8  -3   1 63.1968 126.349   3
   8   3   0 21899.8 861.392   1
  -8  -3   0 24083.9 1107.34   3
   8   3   1 6324.81 484.606   1
  -8  -3  -1 6076.17 562.039   3
   8   3   2-27.0792 108.066   1
   9  -9   1 235.201 141.548   2
   9  -9   2 20840.4 945.138   2
   9  -9   3 292.661 161.436   2
   9  -9   4 2250.94 324.823   2
   9  -8   0-43.6936 129.262   2
   9  -8   1 84.9734 111.305   2
   9  -8   2 29517.0 1124.01   2
   9  -8   3 171.564 133.705   2
   9  -8   4 8998.31 636.082   2
   9  -8   5 6760.94 561.967   2
   9  -7  -3 15759.8 862.097   4
   9  -7  -2 3290.68 403.530   4
  -9   7   1 17087.8 724.963   3
  -9   7   0 2086.15 268.634   3
   9  -7   0 1914.15 289.092   2
  -9   7  -1 29619.9 993.545   3
   9  -7   1 29966.6 920.122   5
   9  -7   1 30358.5 1110.39   2
  -9   7  -2 6278.06 475.178   3
   9  -7   2 6097.58 513.663   2
   9  -7   3 329.682 161.587   2
   9  -7   4 18669.5 895.801   2
   9  -7   5 4783.55 468.228   2
   9  -7   6 1673.13 296.365   2
   9  -6  -6 12228.9 744.521   4
   9  -6  -5 8532.98 624.582   4
  -9   6   4 3886.29 366.761   3
   9  -6  -4 3909.32 426.051   4
  -9   6   3 6045.88 453.778   3
  -9   6   2 17630.8 773.110   3
  -9   6   1 257.854 132.267   3
  -9   6   0 8619.56 559.848   3
   9  -6   0 8650.04 597.743   2
  -9   6  -1 24986.6 954.683   3
   9  -6   1 24232.6 864.568   5
   9  -6   1 25147.2 1017.61   2
   9  -6   2 313.055 152.874   2
  -9   6  -2 435.292 164.821   3
   9  -6   2 238.598 103.964   5
   9  -6   3 6211.35 430.120   5
   9  -6   3 6721.77 540.359   2
   9  -6   4 16542.2 697.133   5
   9  -6   4 17082.8 852.803   2
   9  -6   5 486.107 168.563   2
   9  -6   6 1264.22 260.361   2
  -9   5   7 1254.89 239.579   3
   9  -5  -7 884.740 219.705   4
  -9   5   6 21366.2 899.368   3
   9  -5  -6 20943.7 937.142   4
  -9   5   5 8789.03 569.939   3
  -9   5   4 3475.12 366.120   3
  -9   5   3 40023.9 1206.89   3
  -9   5   2 4708.49 423.140   3
  -9   5   1-70.7804 133.455   3
  -9   5   0 33994.9 1134.19   3
   9  -5   0 33478.2 1152.84   2
  -9   5  -1 7225.92 541.135   3
   9  -5   1 7006.44 483.136   5
   9  -5   1 7639.91 560.752   2
   9  -5   2 3311.40 329.542   5
   9  -5   2 3362.52 384.562   2
   9  -5   3 17141.4 737.691   5
   9  -5   3 18157.2 876.225   2
   9  -5   4 24874.1 902.964   5
   9  -5   4 26329.8 1064.20   2
   9  -5   5 5478.40 500.386   2
   9  -5   6 10759.7 702.659   2
   9  -5   7 23060.4 1031.79   2
  -9   4   8 1200.34 252.351   3
  -9   4   7 11607.6 697.142   3
  -9   4   6 16301.6 809.762   3
  -9   4   5 1170.02 236.144   3
  -9   4   4 11689.7 675.609   3
  -9   4   3 21231.5 908.406   3
  -9   4   2 1.19611 120.676   3
  -9   4   1 11949.3 687.989   3
  -9   4   0 17116.3 829.449   3
  -9   4  -1 6034.89 504.328   3
   9  -4   1 5105.79 427.559   5
   9  -4   1 5742.12 493.197   2
   9  -4   2 31649.4 1039.40   5
   9  -4   2 32460.1 1151.59   2
   9  -4   3 11387.6 630.867   5
   9  -4   3 11346.2 694.932   2
   9  -4   4 1192.91 253.047   2
   9  -4   4 1189.23 226.856   5
   9  -4   5 13079.8 773.505   2
   9  -4   6 27882.3 1129.94   2
   9  -4   7 4296.70 463.714   2
  -9   3   8 8212.37 615.854   3
  -9   3   7 5566.27 498.321   3
  -9   3   6 15228.5 812.094   3
  -9   3   5 7293.22 558.150   3
  -9   3   4 19070.1 891.537   3
  -9   3   3 1326.49 249.981   3
  -9   3   2 1142.28 237.090   3
  -9   3   1 78208.8 1798.88   3
  -9   3   0 4895.77 463.267   3
   9  -3   0 4501.49 418.847   5
  -9   3  -1 257.972 138.817   3
   9  -3   1 133.150 119.881   5
   9  -3   1 82.4958 72.5307   1
   9  -3   2 28881.7 823.052   1
   9  -3   2 27460.0 999.038   5
   9  -3   3 8788.35 487.919   1
   9  -3   3 9414.90 597.670   5
   9  -3   3 9527.47 639.440   2
   9  -3   4 10635.6 568.704   1
   9  -3   4 10041.2 628.833   5
   9  -3   4 11478.9 712.698   2
   9  -3   5 10729.9 607.126   1
   9  -3   5 11168.0 709.132   2
   9  -3   6 8768.89 577.112   1
   9  -3   6 8757.82 647.361   2
   9  -3   7 2596.46 340.664   1
   9  -3   7 2402.66 362.438   2
  -9   2   8 22647.6 1036.85   3
  -9   2   7 15459.0 842.971   3
  -9   2   6 143.636 141.326   3
  -9   2   5 9319.48 642.534   3
  -9   2   4 40920.9 1340.36   3
  -9   2   3-29.3672 164.993   3
  -9   2   2 17138.5 869.776   3
  -9   2   1 21623.7 980.901   3
  -9   2   0 192.760 141.558   3
   9  -2   0-188.024 160.483   5
   9  -2   1 42884.9 934.945   1
  -9   2  -1 42701.3 1387.13   3
   9  -2   1 42129.6 1284.34   5
   9  -2   2 26418.2 800.486   1
   9  -2   2 24985.7 993.719   5
   9  -2   3 916.344 179.586   1
   9  -2   3 437.622 169.873   5
   9  -2   4 8153.20 588.087   5
   9  -2   4 7981.72 600.393   2
   9  -2   4 8281.46 521.314   1
   9  -2   5 11090.1 711.025   2
   9  -2   5 10622.4 618.224   1
   9  -2   6 486.447 169.245   1
   9  -2   6 333.524 159.016   2
   9  -2   7 14187.2 783.427   1
  -9   1   7 8182.12 637.160   3
  -9   1   6 7598.14 607.633   3
  -9   1   5 24851.5 1070.58   3
  -9   1   4 2726.00 368.414   3
  -9   1   3 10623.1 708.444   3
  -9   1   2 27369.0 1127.46   3
  -9   1   1 11714.0 741.063   3
   9  -1  -1 10872.2 688.950   5
  -9   1   0 9068.66 655.674   3
   9  -1   0 8301.22 598.124   5
  -9   1  -1 14816.0 844.606   3
   9  -1   1 14773.8 789.799   5
   9  -1   1 15376.6 596.250   1
   9  -1   2 979.467 225.747   5
   9  -1   2 1519.35 214.748   1
   9  -1   3 7263.72 473.295   1
   9  -1   3 6978.01 560.081   5
   9  -1   4 26573.4 944.584   1
   9  -1   5 2406.20 314.825   1
   9  -1   6 1977.91 298.157   1
  -9   0   6 25163.4 1109.30   3
  -9   0   5 14384.0 840.878   3
  -9   0   4 1199.90 261.217   3
  -9   0   3 18278.9 947.641   3
  -9   0   2 16267.9 889.505   3
   9   0  -2 15727.6 844.692   5
  -9   0   1 747.811 226.497   3
   9   0  -1-3.81260 132.957   5
  -9   0   0 16019.2 892.162   3
   9   0   0 15105.0 820.642   5
  -9   0  -1 24274.6 1104.64   3
   9   0   1 26026.5 1084.49   5
   9   0   1 24939.4 805.779   1
   9   0   2 706.534 159.778   1
   9   0   2 743.633 217.300   5
   9   0   3 5231.55 420.308   1
   9   0   4 12400.7 682.175   1
   9   0   5 651.260 190.480   1
  -9  -1   4 6989.70 603.864   3
  -9  -1   3 32701.8 1291.12   3
   9   1  -3 30826.3 1220.86   5
  -9  -1   2 7052.13 608.355   3
   9   1  -2 7128.64 591.384   5
  -9  -1   1 19575.8 1005.26   3
   9   1  -1 19657.8 962.621   5
  -9  -1   0 15249.4 891.776   3
   9   1   2 13816.9 685.263   1
   9   1   3 6598.02 494.459   1
  10  -8   1 4871.68 483.604   2
 -10   7   0 7259.05 534.026   3
  10  -7   1 631.309 207.369   2
 -10   7  -1 390.462 140.452   3
  10  -7   2 492.891 186.011   2
 -10   7  -2 708.739 188.085   3
 -10   7  -3 22584.9 982.407   3
 -10   6   4 31930.3 1113.63   3
 -10   6   3 5648.02 473.632   3
 -10   6   2 2965.56 357.984   3
 -10   6   1 8571.28 597.325   3
 -10   6   0 13046.6 737.502   3
 -10   6  -1 10560.2 674.506   3
  10  -6   1 9908.85 595.289   5
  10  -6   1 10805.0 708.684   2
 -10   6  -2 14552.4 796.828   3
  10  -6   2 12986.5 669.256   5
  10  -6   2 14424.2 822.487   2
  10  -6   3 11023.0 617.646   5
  10  -6   3 12005.3 761.417   2
  10  -6   4 5296.73 430.891   5
 -10   5   6 1071.23 229.402   3
 -10   5   5 3233.37 380.814   3
 -10   5   4 1758.12 292.218   3
 -10   5   3 2381.19 338.885   3
 -10   5   2 21991.7 971.952   3
 -10   5   1 10599.3 683.053   3
  10  -5   0 1053.68 219.689   5
 -10   5   0 1291.43 260.136   3
 -10   5  -1 7071.64 568.047   3
  10  -5   1 7149.90 525.882   5
 -10   5  -2 15239.7 845.047   3
  10  -5   2 14315.4 729.439   5
  10  -5   2 16394.9 878.108   2
  10  -5   3 872.935 241.224   2
  10  -5   3 819.442 194.208   5
  10  -5   4 2320.31 314.367   5
 -10   4   6 601.003 203.938   3
 -10   4   5 30590.1 1186.22   3
 -10   4   4 4014.05 434.445   3
 -10   4   3 1189.98 256.050   3
 -10   4   2 34926.6 1267.60   3
 -10   4   1 2569.57 352.192   3
 -10   4   0 8057.55 615.097   3
  10  -4   0 7414.17 557.036   5
 -10   4  -1 20675.6 987.761   3
  10  -4   1 20660.6 916.767   5
 -10   4  -2 4222.44 450.305   3
  10  -4   2 4524.76 430.861   5
  10  -4   2 4709.98 478.972   2
  10  -4   3 4227.33 422.330   5
  10  -4   3 4078.72 452.515   2
  10  -4   4 18059.4 860.923   5
  10  -4   5 5114.55 430.446   1
  10  -4   6 989.089 215.957   1
 -10   3   5 12261.1 769.336   3
 -10   3   4 851.636 227.853   3
 -10   3   3 21045.8 1005.49   3
 -10   3   2 9663.63 684.081   3
 -10   3   1 2096.05 335.252   3
  10  -3  -1 1567.02 277.381   5
 -10   3   0 8288.90 639.965   3
  10  -3   0 7648.76 576.808   5
 -10   3  -1 15715.7 879.507   3
  10  -3   1 14936.1 798.920   5
 -10   3  -2 82.7593 146.580   3
  10  -3   2-6.46475 126.319   5
  10  -3   3 10915.3 694.366   5
  10  -3   4 5820.08 517.229   5
  10  -3   5 535.025 165.577   1
 -10   2   4 20132.3 1004.13   3
 -10   2   3 11482.9 761.643   3
 -10   2   2 4309.01 476.565   3
 -10   2   1 2316.66 357.946   3
  10  -2  -1 2388.00 338.315   5
 -10   2   0 21092.7 1032.02   3
  10  -2   0 20194.7 954.053   5
 -10   2  -1 12.4108 148.080   3
  10  -2   1-103.375 148.148   5
  10  -2   2 1030.49 246.238   5
 -11   6   1-67.8026 119.998   3
 -11   6   0 10210.3 693.886   3
  11  -5  -1 1275.84 261.147   5
  11  -5   0 14672.8 797.005   5
  11  -5   1 2603.33 344.271   5
  11  -5   2 3614.30 397.887   5
  11  -5   3 7183.11 562.061   5
   0   0   0    0.00    0.00   0
;
_shelx_hkl_checksum              22720
#END Tags that were not found in dictionaries
loop_
_space_group_symop_operation_xyz
'x, y, z'
'-x, -y, -z'
loop_
_atom_site_label
_atom_site_type_symbol
_atom_site_fract_x
_atom_site_fract_y
_atom_site_fract_z
_atom_site_U_iso_or_equiv
_atom_site_adp_type
_atom_site_occupancy
_atom_site_site_symmetry_order
_atom_site_calc_flag
_atom_site_refinement_flags_posn
Cl1 Cl 0.29685(9) -0.15793(8) 0.59406(5) 0.03106(13) Uani 1 1 d .
Cl2 Cl 0.23698(8) 0.38689(7) 0.43740(5) 0.02899(12) Uani 1 1 d .
N1 N 0.2078(2) 0.0562(2) 0.84442(16) 0.0195(3) Uani 1 1 d .
N2 N 0.2942(2) 0.0585(2) 1.02768(16) 0.0210(4) Uani 1 1 d .
C1 C 0.3198(3) 0.1644(3) 0.95343(19) 0.0207(4) Uani 1 1 d .
H1 H 0.4035 0.2945 0.9743 0.025 Uiso 1 1 calc R
C2 C 0.1060(3) -0.1240(3) 0.8509(2) 0.0237(4) Uani 1 1 d .
H2 H 0.0151 -0.2289 0.7866 0.028 Uiso 1 1 calc R
C3 C 0.1601(3) -0.1225(3) 0.9649(2) 0.0244(4) Uani 1 1 d .
H3 H 0.1147 -0.2262 0.9965 0.029 Uiso 1 1 calc R
C4 C 0.2011(3) 0.1253(3) 0.74175(19) 0.0204(4) Uani 1 1 d .
C5 C 0.1595(3) 0.2842(3) 0.7628(2) 0.0254(4) Uani 1 1 d .
H5 H 0.1256 0.3389 0.8421 0.031 Uiso 1 1 calc R
C6 C 0.1669(3) 0.3640(3) 0.6684(2) 0.0270(5) Uani 1 1 d .
H6 H 0.1386 0.4733 0.6823 0.032 Uiso 1 1 calc R
C7 C 0.2164(3) 0.2816(3) 0.55398(19) 0.0222(4) Uani 1 1 d .
C8 C 0.2530(3) 0.1189(3) 0.52956(19) 0.0226(4) Uani 1 1 d .
H8 H 0.2831 0.0621 0.4492 0.027 Uiso 1 1 calc R
C9 C 0.2451(3) 0.0408(3) 0.6241(2) 0.0207(4) Uani 1 1 d .
C10 C 0.3915(4) 0.1271(3) 1.1564(2) 0.0311(5) Uani 1 1 d .
H10A H 0.5238 0.1983 1.1570 0.047 Uiso 1 1 calc GR
H10B H 0.3738 0.0174 1.1838 0.047 Uiso 1 1 calc GR
H10C H 0.3417 0.2115 1.2143 0.047 Uiso 1 1 calc GR
I2 I 0.26963(2) 0.59150(2) 0.16683(2) 0.02495(6) Uani 1 1 d .
loop_
_atom_site_aniso_label
_atom_site_aniso_U_11
_atom_site_aniso_U_22
_atom_site_aniso_U_33
_atom_site_aniso_U_23
_atom_site_aniso_U_13
_atom_site_aniso_U_12
Cl1 0.0454(3) 0.0279(3) 0.0303(3) 0.0114(2) 0.0123(2) 0.0244(2)
Cl2 0.0416(3) 0.0283(3) 0.0216(2) 0.0126(2) 0.0052(2) 0.0153(2)
N1 0.0201(9) 0.0191(8) 0.0206(8) 0.0091(7) 0.0058(7) 0.0073(7)
N2 0.0248(9) 0.0214(8) 0.0186(8) 0.0075(7) 0.0052(7) 0.0104(7)
C1 0.0231(10) 0.0189(9) 0.0207(10) 0.0064(8) 0.0067(8) 0.0091(8)
C2 0.0221(10) 0.0194(10) 0.0278(11) 0.0106(8) 0.0040(8) 0.0045(8)
C3 0.0239(11) 0.0213(10) 0.0291(11) 0.0118(8) 0.0066(9) 0.0075(8)
C4 0.0198(10) 0.0224(10) 0.0205(10) 0.0097(8) 0.0049(8) 0.0081(8)
C5 0.0312(12) 0.0280(11) 0.0219(10) 0.0098(8) 0.0115(9) 0.0155(9)
C6 0.0350(12) 0.0255(11) 0.0280(11) 0.0116(9) 0.0085(9) 0.0178(9)
C7 0.0250(11) 0.0230(10) 0.0183(9) 0.0091(8) 0.0016(8) 0.0076(8)
C8 0.0229(11) 0.0264(10) 0.0186(9) 0.0067(8) 0.0054(8) 0.0107(8)
C9 0.0198(10) 0.0195(9) 0.0231(10) 0.0056(8) 0.0041(8) 0.0094(8)
C10 0.0396(14) 0.0336(12) 0.0204(10) 0.0074(9) 0.0008(9) 0.0163(10)
I2 0.02247(9) 0.02398(9) 0.03012(9) 0.01335(6) 0.00660(6) 0.00769(6)
loop_
_atom_type_symbol
_atom_type_description
_atom_type_scat_dispersion_real
_atom_type_scat_dispersion_imag
_atom_type_scat_source
C C 0.0033 0.0016 'International Tables Vol C Tables 4.2.6.8 and 6.1.1.4'
H H 0.0000 0.0000 'International Tables Vol C Tables 4.2.6.8 and 6.1.1.4'
N N 0.0061 0.0033 'International Tables Vol C Tables 4.2.6.8 and 6.1.1.4'
I I -0.4742 1.8119 'International Tables Vol C Tables 4.2.6.8 and 6.1.1.4'
Cl Cl 0.1484 0.1585 'International Tables Vol C Tables 4.2.6.8 and 6.1.1.4'
loop_
_geom_angle_atom_site_label_1
_geom_angle_atom_site_label_2
_geom_angle_atom_site_label_3
_geom_angle
C1 N1 C2 108.67(17)
C1 N1 C4 122.96(17)
C2 N1 C4 128.37(17)
C1 N2 C3 108.98(17)
C1 N2 C10 124.58(18)
C3 N2 C10 126.43(18)
N2 C1 N1 108.14(17)
C3 C2 N1 107.11(18)
C2 C3 N2 107.09(18)
C5 C4 N1 118.90(17)
C5 C4 C9 120.06(19)
C9 C4 N1 120.95(18)
C4 C5 C6 120.27(19)
C7 C6 C5 118.69(19)
C6 C7 Cl2 119.21(16)
C6 C7 C8 121.98(19)
C8 C7 Cl2 118.80(16)
C9 C8 C7 118.77(18)
C4 C9 Cl1 121.42(16)
C8 C9 Cl1 118.39(16)
C8 C9 C4 120.17(19)
loop_
_geom_bond_atom_site_label_1
_geom_bond_atom_site_label_2
_geom_bond_distance
Cl1 C9 1.722(2)
Cl2 C7 1.740(2)
N1 C1 1.334(3)
N1 C2 1.385(3)
N1 C4 1.432(3)
N2 C1 1.327(3)
N2 C3 1.383(3)
N2 C10 1.467(3)
C2 C3 1.341(3)
C4 C5 1.382(3)
C4 C9 1.394(3)
C5 C6 1.387(3)
C6 C7 1.380(3)
C7 C8 1.385(3)
C8 C9 1.378(3)
