#------------------------------------------------------------------------------
#$Date: 2017-12-11 01:28:22 +0200 (Mon, 11 Dec 2017) $
#$Revision: 204147 $
#$URL: file:///home/coder/svn-repositories/cod/cif/4/08/42/4084216.cif $
#------------------------------------------------------------------------------
#
# This file is available in the Crystallography Open Database (COD),
# http://www.crystallography.net/
#
# All data on this site have been placed in the public domain by the
# contributors.
#
data_4084216
loop_
_publ_author_name
'Johnson, Miles W.'
'DiPasquale, Antonio G.'
'Bergman, Robert G.'
'Toste, F. Dean'
_publ_section_title
;
 Synthesis of Stable Gold(III) Pincer Complexes with Anionic Heteroatom
 Donors.
;
_journal_issue                   16
_journal_name_full               Organometallics
_journal_page_first              4169
_journal_page_last               4172
_journal_paper_doi               10.1021/om500663m
_journal_volume                  33
_journal_year                    2014
_chemical_absolute_configuration ad
_chemical_formula_sum            'C7 H3 Au Cl N O4'
_chemical_formula_weight         397.52
_chemical_name_common            Au(III)ONOCl
_chemical_name_systematic
; 
 toste114 
;
_space_group.centring_type       P
_space_group_crystal_system      orthorhombic
_space_group_IT_number           19
_space_group_name_Hall           'P 2ac 2ab'
_space_group_name_H-M_alt        'P 21 21 21'
_symmetry_space_group_name_Hall  'P 2ac 2ab'
_symmetry_space_group_name_H-M   'P 21 21 21'
_atom_sites_solution_hydrogens   geom
_atom_sites_solution_primary     iterative
_atom_sites_solution_secondary   difmap
_audit_creation_method           SHELXL-2014
_cell_angle_alpha                90
_cell_angle_beta                 90
_cell_angle_gamma                90
_cell_formula_units_Z            4
_cell_length_a                   6.2670(6)
_cell_length_b                   9.1743(9)
_cell_length_c                   15.1903(14)
_cell_measurement_reflns_used    9887
_cell_measurement_temperature    100(2)
_cell_measurement_theta_max      28.28
_cell_measurement_theta_min      2.22
_cell_volume                     873.37(14)
_computing_cell_refinement       'Bruker SAINT'
_computing_data_collection       'Bruker APEX2'
_computing_data_reduction        'Bruker SAINT'
_computing_molecular_graphics    ORTEP-32
_computing_publication_material  WinGX
_computing_structure_refinement  SHELXL-2014
_computing_structure_solution    SHELXT
_diffrn_ambient_temperature      100(2)
_diffrn_detector_area_resol_mean 8.366
_diffrn_measured_fraction_theta_full 0.999
_diffrn_measured_fraction_theta_max 0.964
_diffrn_measurement_device_type  'Bruker APEX-II CCD'
_diffrn_measurement_method       'phi and omega scans'
_diffrn_radiation_type           MoK\a
_diffrn_radiation_wavelength     0.71073
_diffrn_reflns_av_R_equivalents  0.0510
_diffrn_reflns_av_unetI/netI     0.0357
_diffrn_reflns_Laue_measured_fraction_full 0.999
_diffrn_reflns_Laue_measured_fraction_max 0.964
_diffrn_refln_scan_rate          10
_diffrn_refln_scan_width         1.0
_diffrn_reflns_limit_h_max       7
_diffrn_reflns_limit_h_min       -8
_diffrn_reflns_limit_k_max       11
_diffrn_reflns_limit_k_min       -12
_diffrn_reflns_limit_l_max       20
_diffrn_reflns_limit_l_min       -20
_diffrn_reflns_number            13556
_diffrn_reflns_point_group_measured_fraction_full 0.997
_diffrn_reflns_point_group_measured_fraction_max 0.951
_diffrn_reflns_theta_full        25.000
_diffrn_reflns_theta_max         28.284
_diffrn_reflns_theta_min         2.594
_diffrn_source                   'microfocus sealed tube'
_exptl_absorpt_coefficient_mu    17.134
_exptl_absorpt_correction_T_max  0.263
_exptl_absorpt_correction_T_min  0.155
_exptl_absorpt_correction_type   multi-scan
_exptl_absorpt_process_details   SADABS
_exptl_crystal_colour            yellow
_exptl_crystal_density_diffrn    3.023
_exptl_crystal_description       prism
_exptl_crystal_F_000             720
_exptl_crystal_size_max          0.120
_exptl_crystal_size_mid          0.120
_exptl_crystal_size_min          0.100
_refine_diff_density_max         0.529
_refine_diff_density_min         -1.054
_refine_diff_density_rms         0.132
_refine_ls_abs_structure_details
; 
 Flack x determined using 799 quotients [(I+)-(I-)]/[(I+)+(I-)] 
 (Parsons, Flack and Wagner, Acta Cryst. B69 (2013) 249-259). 
;
_refine_ls_abs_structure_Flack   0.004(5)
_refine_ls_extinction_method     none
_refine_ls_goodness_of_fit_ref   1.007
_refine_ls_hydrogen_treatment    constr
_refine_ls_matrix_type           full
_refine_ls_number_parameters     127
_refine_ls_number_reflns         2059
_refine_ls_number_restraints     0
_refine_ls_restrained_S_all      1.007
_refine_ls_R_factor_all          0.0159
_refine_ls_R_factor_gt           0.0152
_refine_ls_shift/su_max          0.003
_refine_ls_shift/su_mean         0.000
_refine_ls_structure_factor_coef Fsqd
_refine_ls_weighting_details     'w=1/[\s^2^(Fo^2^)] where P=(Fo^2^+2Fc^2^)/3'
_refine_ls_weighting_scheme      calc
_refine_ls_wR_factor_gt          0.0316
_refine_ls_wR_factor_ref         0.0318
_reflns_Friedel_coverage         0.673
_reflns_Friedel_fraction_full    0.995
_reflns_Friedel_fraction_max     0.931
_reflns_number_gt                2008
_reflns_number_total             2059
_reflns_threshold_expression     'I > 2\s(I)'
_cod_data_source_file            om500663m_si_002.cif
_cod_data_source_block           cpd2
_cod_depositor_comments
;Adding full bibliography for 4084216--4084222.cif.

The following automatic conversions were performed:

'_space_group.centring_type' value 'primitive' was replaced with the
value 'P' as specified in the replacement file
'/home/antanas/src/cod-tools/trunk/data/replacement-values/replacement_values.lst'.

Automatic conversion script
Id: cif_fix_values 5642 2017-10-24 12:04:52Z antanas 
;
_cod_database_code               4084216
#BEGIN Tags that were not found in dictionaries:
_shelx_space_group_comment
; 
The symmetry employed for this shelxl refinement is uniquely defined 
by the following loop, which should always be used as a source of 
symmetry information in preference to the above space-group names. 
They are only intended as comments. 
;
_shelx_estimated_absorpt_t_min   0.233
_shelx_estimated_absorpt_t_max   0.279
_shelxl_version_number           2014-3
_shelx_res_file
; 
TITL toste114_0m in P2(1)2(1)2(1) 
CELL  0.71073   6.2670   9.1743  15.1903   90.000   90.000   90.000 
ZERR     4.00   0.0006   0.0009   0.0014    0.000    0.000    0.000 
LATT  -1 
SYMM  1/2 - X, - Y, 1/2 + Z 
SYMM  - X, 1/2 + Y, 1/2 - Z 
SYMM  1/2 + X, 1/2 - Y, - Z 
SFAC  C    H    N    O    CL   AU 
UNIT  28   12   4    16   4    4 
MERG   2 
FMAP   2 
PLAN   20 
SIZE     0.100   0.120   0.120 
ACTA    50.00 
BOND   $H 
LIST   4 
WPDB  -2 
L.S.   8 
TEMP  -173.00 
WGHT    0.000000 
FVAR       0.32065 
C1    1    0.314082    0.309421    0.407280    11.00000    0.01568    0.01241 = 
         0.01984    0.00503   -0.00335    0.00280 
C2    1    0.520435    0.388617    0.386634    11.00000    0.01346    0.00909 = 
         0.01465    0.00382   -0.00494    0.00188 
C3    1    0.642273    0.387973    0.312803    11.00000    0.01862    0.01498 = 
         0.01228   -0.00029   -0.00483    0.00156 
AFIX  43 
H3    2    0.603219    0.329899    0.263595    11.00000   -1.20000 
AFIX   0 
C4    1    0.827234    0.474604    0.310265    11.00000    0.01866    0.03081 = 
         0.01403    0.00417    0.00113   -0.00126 
AFIX  43 
H4    2    0.914400    0.474209    0.259099    11.00000   -1.20000 
AFIX   0 
C5    1    0.884663    0.561832    0.382612    11.00000    0.01220    0.01744 = 
         0.01450    0.00302    0.00174   -0.00323 
AFIX  43 
H5    2    1.007524    0.622406    0.380717    11.00000   -1.20000 
AFIX   0 
C6    1    0.756069    0.556490    0.456762    11.00000    0.01167    0.00933 = 
         0.01376    0.00029   -0.00043   -0.00135 
C7    1    0.777591    0.641034    0.542542    11.00000    0.01946    0.01337 = 
         0.01284    0.00620   -0.00150    0.00299 
N1    3    0.584436    0.471288    0.455303    11.00000    0.01260    0.01053 = 
         0.01165    0.00196   -0.00100    0.00526 
O1    4    0.230674    0.334966    0.487603    11.00000    0.01408    0.01833 = 
         0.01911   -0.00030    0.00056   -0.00648 
O2    4    0.229642    0.230118    0.354434    11.00000    0.01925    0.02053 = 
         0.02274   -0.00259   -0.00427   -0.00622 
O3    4    0.630281    0.611114    0.603119    11.00000    0.01925    0.00979 = 
         0.01046    0.00083    0.00122   -0.00284 
O4    4    0.915942    0.729440    0.554735    11.00000    0.02602    0.02237 = 
         0.01579   -0.00035   -0.00019   -0.01380 
CL1   5    0.196960    0.474610    0.680128    11.00000    0.01852    0.02517 = 
         0.01934   -0.00155    0.00755   -0.00059 
AU1   6    0.407817    0.471533    0.559497    11.00000    0.01066    0.01127 = 
         0.01249    0.00158    0.00125   -0.00038 
HKLF    4 
  
REM  toste114_0m in P2(1)2(1)2(1) 
REM R1 =  0.0152 for    2008 Fo > 4sig(Fo)  and  0.0159 for all    2059 data 
REM    127 parameters refined using      0 restraints 
  
END 
  
WGHT      0.0000      0.0000 
  
REM Highest difference peak  0.529,  deepest hole -1.054,  1-sigma level  0.132 
Q1    1   0.4086  0.5197  0.6205  11.00000  0.05    0.53 
Q2    1   0.3894  0.5335  0.4184  11.00000  0.05    0.41 
Q3    1   0.4964  0.4021  0.5598  11.00000  0.05    0.40 
Q4    1   0.4878  0.6451  0.5820  11.00000  0.05    0.40 
Q5    1   0.2441  0.4738  0.6216  11.00000  0.05    0.39 
Q6    1   0.4910  0.2953  0.5766  11.00000  0.05    0.39 
Q7    1   0.0509  0.4783  0.5603  11.00000  0.05    0.39 
Q8    1   0.5698  0.4675  0.5030  11.00000  0.05    0.38 
Q9    1   0.2522  0.2034  0.2625  11.00000  0.05    0.38 
Q10   1   0.3787  0.2782  0.5730  11.00000  0.05    0.37 
Q11   1   0.7860  0.6082  0.6389  11.00000  0.05    0.36 
Q12   1   0.4085  0.4249  0.4974  11.00000  0.05    0.36 
Q13   1   0.0390  0.1372  0.3771  11.00000  0.05    0.36 
Q14   1   0.2434  0.3393  0.5997  11.00000  0.05    0.36 
Q15   1   0.2180  0.6554  0.6446  11.00000  0.05    0.36 
Q16   1   0.5973  0.6536  0.6426  11.00000  0.05    0.35 
Q17   1   0.7706  0.5741  0.3173  11.00000  0.05    0.35 
Q18   1   0.4021  0.6251  0.6463  11.00000  0.05    0.35 
Q19   1   0.4181  0.6584  0.5661  11.00000  0.05    0.35 
Q20   1   0.0879  0.1321  0.4010  11.00000  0.05    0.34 
;
_shelx_res_checksum              8761
_shelx_hkl_file
; 
   1   0   0 12.0006 1.36280   5 
  -1   0   0 12.1603 2.49933   1 
  -1   0   0 18.5297 2.93295   1 
  -1   0   0 1.15918 1.56058   4 
  -1   0   0 5.18910 1.67692   7 
   1   0   0 8.49694 2.11012   1 
   1   0   0 0.47903 1.21344   1 
   1   0   0 3.05290 1.73981   4 
   1   0   0 2.88772 1.54511   7 
   2   0   0 24.9331 5.48588   1 
  -2   0   0 28.3299 5.15766   4 
  -2   0   0 21.0306 4.25591   7 
   2   0   0 28.6233 5.33589   1 
  -2   0   0 24.5091 5.36493   1 
   2   0   0 24.8267 3.13894   5 
   2   0   0 31.0530 4.68795   7 
  -2   0   0 24.5936 5.24102   1 
   3   0   0 2.15258 3.54771   1 
  -3   0   0 -0.0081 2.35691   7 
   3   0   0 2.42746 3.19574   1 
   3   0   0 0.71922 2.40322   7 
  -3   0   0 0.32534 4.14884   4 
   3   0   0 1.68221 1.70807   5 
  -3   0   0 2.42557 3.87138   1 
   4   0   0 1859.13 119.139   7 
  -4   0   0 1981.66 123.926   1 
   4   0   0 1731.50 122.622   1 
  -4   0   0 1655.95 119.369   7 
  -4   0   0 1835.73 121.239   4 
   4   0   0 1642.53 115.532   5 
  -5   0   0 -0.7415 6.27553   1 
   5   0   0 0.62766 5.81811   1 
   5   0   0 4.31918 5.53691   7 
   6   0   0 2588.37 173.491   7 
   7   0   0 2.10671 7.64732   7 
   0  -1   0 3.48675 1.26223   1 
   0   1   0 2.01614 0.90951   7 
   0  -1   0 2.69043 1.29762   1 
   0   1   0 1.48240 1.21257   1 
   0   1   0 1.96190 1.13920   1 
   0  -1   0 0.76250 0.79518   6 
   0  -1   0 5.48950 1.22597   8 
   0  -1   0 3.16058 1.23268   2 
   0   1   0 1.35095 0.78835   6 
  -1   1   0 1474.63 100.768   1 
   1   1   0 1708.83 102.007   6 
  -1   1   0 1523.67 100.568   7 
   1  -1   0 1602.80 100.892   1 
   1  -1   0 1516.57 100.685   4 
   1  -1   0 1465.82 101.478   1 
  -1  -1   0 1525.79 99.8114   6 
  -1  -1   0 1616.43 102.429   8 
   1  -1   0 1478.75 123.679   8 
  -1   1   0 1688.54 101.883   1 
  -1  -1   0 1595.07 100.665   1 
  -1   1   0 1446.03 100.256   8 
   1   1   0 1621.25 103.544   1 
   1   1   0 1521.67 100.503   1 
  -1  -1   0 1509.56 100.747   1 
   1  -1   0 1564.69 100.490   7 
  -2   1   0 9.00805 3.03510   8 
  -2   1   0 9.99587 4.37736   4 
  -2  -1   0 9.61065 4.38806   1 
  -2  -1   0 12.2269 2.03286   5 
   2  -1   0 16.1092 4.75325   1 
  -2  -1   0 15.2383 4.41185   1 
   2  -1   0 8.83315 4.03785   1 
  -2   1   0 9.94298 4.76853   1 
  -2   1   0 5.51378 3.56225   7 
   2  -1   0 7.57127 3.88230   4 
  -2   1   0 6.43032 3.61057   1 
   2  -1   0 11.3362 3.91304   7 
   2   1   0 8.79059 1.91185   5 
  -2  -1   0 8.65306 3.69287   6 
   2   1   0 9.67922 4.12494   1 
   2   1   0 10.5657 3.33335   7 
  -3   1   0 3509.83 205.136   1 
  -3  -1   0 3187.88 202.644   4 
   3  -1   0 2937.97 202.326   4 
  -3   1   0 3247.78 203.580   1 
   3  -1   0 2831.63 198.385   5 
   3  -1   0 3162.10 201.409   7 
  -3   1   0 2790.13 201.379   7 
  -3   1   0 3351.94 203.120   4 
   3  -1   0 2998.40 203.769   1 
  -3  -1   0 3313.05 203.786   1 
   3  -1   0 3302.03 203.063   1 
   3   1   0 3080.67 203.369   1 
   3   1   0 2809.25 197.574   5 
   3   1   0 2969.53 199.864   7 
   4  -1   0 63.3399 10.4918   7 
   4   1   0 65.9800 10.0431   7 
  -4   1   0 68.1521 12.9500   1 
   4   1   0 64.0221 6.98911   5 
  -4  -1   0 82.5881 13.4849   1 
  -4   1   0 72.0272 11.8768   4 
   4  -1   0 54.2043 10.9703   4 
  -4  -1   0 69.6116 11.5827   4 
  -4   1   0 55.2482 10.3324   7 
   4  -1   0 50.8409 11.4229   1 
   4   1   0 70.5151 12.3139   1 
  -4   1   0 64.9651 11.9583   1 
   5  -1   0 209.467 22.0782   7 
   5   1   0 180.885 23.7831   1 
   5   1   0 197.493 20.3539   7 
  -5   1   0 240.374 27.3601   1 
   5  -1   0 178.739 24.1584   1 
  -5  -1   0 190.040 21.8479   6 
  -5   1   0 252.612 20.8883   8 
  -6  -1   0 64.5862 13.4702   8 
  -6  -1   0 47.7624 16.8382   1 
  -6  -1   0 56.1704 15.4894   6 
   6  -1   0 69.1900 14.8348   7 
   6   1   0 62.0722 13.8419   7 
   7  -1   0 726.018 57.9203   7 
   7   1   0 725.463 57.1793   7 
   0   2   0 9193.47 571.547   8 
   0   2   0 9332.97 576.391   1 
   0   2   0 9452.54 577.662   1 
   0  -2   0 8537.43 567.673   6 
   0  -2   0 9999.99 578.955   1 
   0   2   0 8222.64 566.173   7 
   0  -2   0 8566.31 570.751   2 
   0   2   0 7130.56 568.715   2 
   0   2   0 9015.82 569.480   6 
   1   2   0 1431.77 92.7776   1 
   1   2   0 1514.83 92.1817   8 
  -1  -2   0 1429.63 92.0999   8 
  -1  -2   0 1220.91 91.7514   3 
  -1   2   0 1526.22 94.3969   1 
   1  -2   0 1417.44 92.3156   7 
   1  -2   0 1434.46 94.1292   1 
   1   2   0 1353.70 91.9642   3 
   1  -2   0 1388.11 93.0021   1 
  -1   2   0 1330.75 92.0420   7 
  -1  -2   0 1376.15 91.3608   6 
  -1  -2   0 1415.71 92.7260   1 
   1   2   0 1408.26 92.5271   1 
   1   2   0 1403.50 91.3767   6 
  -1  -2   0 1471.64 92.5955   1 
   1  -2   0 1417.43 93.0046   8 
  -1   2   0 1404.84 93.1298   1 
  -1   2   0 1475.83 92.6810   8 
   2  -2   0 838.988 54.1350   1 
   2   2   0 770.918 53.4951   1 
  -2  -2   0 773.860 51.9490   6 
   2  -2   0 706.974 54.7997   1 
  -2   2   0 785.508 50.6619   8 
  -2   2   0 752.530 54.1320   1 
  -2   2   0 799.756 55.3307   1 
  -2   2   0 718.183 52.9077   7 
  -2  -2   0 801.088 53.6099   1 
  -2  -2   0 733.766 49.2728   5 
  -2  -2   0 728.984 52.1645   8 
  -2  -2   0 727.825 53.7208   1 
   2  -2   0 758.449 52.8982   7 
   2  -2   0 721.026 51.0602   8 
   2   2   0 784.484 53.7360   1 
   2   2   0 798.235 52.0807   6 
   2  -2   0 776.041 53.7878   4 
  -3  -2   0 14.9031 2.76689   5 
   3   2   0 4.01327 2.91168   7 
  -3  -2   0 13.3720 5.95028   8 
  -3  -2   0 4.41290 4.31277   1 
  -3   2   0 5.51060 3.98799   8 
  -3   2   0 15.4056 7.63851   1 
   3  -2   0 1.62123 4.14460   1 
  -3   2   0 1.91845 4.06273   1 
  -3   2   0 1.01667 3.14821   7 
   3  -2   0 0.43792 3.49306   1 
   3  -2   0 6.35864 5.75847   4 
  -3  -2   0 1.90640 4.00979   1 
  -3  -2   0 4.33415 3.99780   6 
   3  -2   0 2.08820 3.29838   7 
   3   2   0 4.90810 4.51261   1 
  -4  -2   0 2244.08 142.945   4 
  -4  -2   0 1979.60 140.396   6 
  -4   2   0 2315.40 146.104   1 
   4  -2   0 2007.72 145.122   1 
   4   2   0 2067.46 138.947   7 
   4  -2   0 2100.12 141.117   7 
  -4  -2   0 2019.99 140.432   8 
  -4  -2   0 2414.33 145.224   1 
  -4  -2   0 2019.73 144.018   1 
   4   2   0 2065.95 143.688   1 
  -4   2   0 1945.75 143.625   1 
   4  -2   0 2084.99 143.579   4 
  -4   2   0 2262.26 138.667   8 
  -5  -2   0 370.452 34.1083   6 
  -5  -2   0 382.744 37.9289   1 
   5  -2   0 425.335 35.3052   7 
  -5   2   0 455.409 39.0031   1 
  -5  -2   0 396.306 34.2850   8 
   5   2   0 382.365 37.1542   1 
   5  -2   0 373.883 38.4081   1 
   5  -2   0 388.361 37.4322   4 
   5   2   0 391.711 32.1727   7 
  -5   2   0 423.321 31.5739   8 
  -6  -2   0 1405.60 104.997   6 
   6   2   0 1557.65 103.329   7 
  -6  -2   0 1477.69 104.791   8 
  -6  -2   0 1441.95 110.714   1 
   6  -2   0 1559.37 105.439   7 
  -7  -2   0 73.7080 17.6024   8 
   7   2   0 66.4772 15.7867   7 
   7  -2   0 84.8097 17.5529   7 
   0   3   0 3.03248 2.52201   2 
   0   3   0 1.50989 2.22827   1 
   0   3   0 6.47493 3.00882   8 
   0   3   0 20.0045 3.40775   7 
   0  -3   0 1.58050 2.34589   1 
   0  -3   0 2.00342 2.55547   2 
   0   3   0 3.03369 2.49390   1 
   0   3   0 1.68135 2.00306   6 
   0  -3   0 3.39486 2.48443   8 
   0  -3   0 3.08596 2.68297   1 
  -1   3   0 1854.60 125.451   2 
  -1   3   0 2078.56 127.235   1 
   1   3   0 1934.82 124.691   8 
  -1  -3   0 1876.63 124.693   8 
   1  -3   0 1827.48 126.064   1 
   1  -3   0 1921.71 126.243   1 
   1   3   0 2046.24 125.945   1 
  -1  -3   0 1867.74 124.893   3 
  -1  -3   0 1916.78 123.816   6 
   1   3   0 1848.73 125.043   1 
  -1   3   0 1974.73 123.459   8 
   1  -3   0 1920.61 123.446   8 
  -1   3   0 1762.78 124.287   7 
  -1  -3   0 2050.13 125.701   1 
   1  -3   0 1876.91 124.801   7 
  -1  -3   0 1889.82 125.453   1 
  -1   3   0 1872.58 125.865   1 
   1   3   0 1932.11 124.820   3 
   1   3   0 1907.40 123.784   6 
  -2  -3   0 1333.26 80.2705   1 
  -2   3   0 1135.64 80.2624   1 
   2   3   0 1130.16 77.2824   6 
  -2   3   0 1234.06 82.0708   1 
   2  -3   0 1043.12 78.4604   7 
   2  -3   0 1169.86 76.8554   8 
  -2  -3   0 1182.78 80.1770   1 
   2   3   0 1279.02 80.2575   1 
   2  -3   0 1124.75 81.7394   1 
   2  -3   0 1126.94 79.7762   1 
  -2  -3   0 1165.81 77.6804   6 
  -2  -3   0 1201.34 78.7882   8 
  -2   3   0 1065.36 78.5559   7 
   2   3   0 1101.75 79.1157   1 
  -2   3   0 1145.10 76.1717   8 
  -3  -3   0 3008.19 207.145   5 
  -3  -3   0 3282.85 211.593   6 
  -3  -3   0 3158.18 214.390   1 
   3  -3   0 3134.59 214.139   4 
  -3   3   0 3730.45 218.071   1 
   3  -3   0 3486.67 213.458   7 
  -3  -3   0 3626.09 214.580   1 
  -3   3   0 3110.78 213.206   7 
   3   3   0 3152.03 213.743   1 
  -3   3   0 3037.44 214.194   1 
  -3  -3   0 3307.89 212.567   8 
   3  -3   0 3086.30 216.121   1 
   3   3   0 3209.66 209.579   7 
  -3   3   0 3364.99 209.379   8 
  -4  -3   0 785.751 50.2795   5 
  -4  -3   0 760.869 56.3269   8 
   4   3   0 749.882 58.6254   1 
  -4   3   0 830.925 52.9952   8 
  -4   3   0 671.783 58.0842   1 
  -4  -3   0 731.740 59.1302   1 
   4  -3   0 767.716 56.7249   7 
   4   3   0 774.402 53.5969   7 
  -4  -3   0 738.172 55.6673   6 
   4  -3   0 693.272 59.9057   1 
  -4   3   0 850.636 62.0340   1 
   4  -3   0 740.907 58.6582   4 
  -4  -3   0 826.444 59.0077   1 
   5  -3   0 109.315 16.4340   7 
  -5  -3   0 98.0659 16.3940   8 
  -5   3   0 132.437 13.2889   8 
  -5  -3   0 89.6882 18.4491   1 
  -5  -3   0 94.8789 15.7931   6 
   5  -3   0 94.6150 17.5485   4 
   5   3   0 115.388 14.0888   7 
   5   3   0 94.4691 17.3726   1 
  -5   3   0 88.2826 17.5746   1 
   5  -3   0 93.1356 18.5506   1 
   6  -3   0 128.766 21.7838   4 
  -6  -3   0 118.293 18.9624   6 
   6   3   0 124.493 16.6149   7 
  -6   3   0 90.6326 21.5035   1 
  -6  -3   0 132.003 20.1346   8 
   6  -3   0 133.066 19.1368   7 
  -6  -3   0 112.032 22.8082   1 
  -7  -3   0 604.481 52.3631   8 
   7   3   0 604.648 48.7714   7 
   0  -4   0 3328.47 255.391   6 
   0   4   0 4548.05 264.706   8 
   0  -4   0 4773.01 259.380   1 
   0  -4   0 4225.97 260.032   8 
   0   4   0 4406.07 265.035   7 
   0  -4   0 2957.12 256.518   1 
   0   4   0 2857.63 256.325   1 
   0   4   0 4510.18 259.198   1 
   0  -4   0 4455.76 257.558   2 
  -1   4   0 1517.53 111.088   7 
   1  -4   0 1591.97 113.595   1 
  -1   4   0 1866.01 115.116   1 
  -1  -4   0 1886.76 113.842   1 
   1   4   0 1634.16 112.722   1 
  -1  -4   0 1711.96 112.911   3 
  -1  -4   0 1669.37 112.107   8 
   1   4   0 1681.20 111.869   8 
  -1   4   0 1610.95 113.271   1 
  -1   4   0 1955.60 112.418   6 
   1  -4   0 1620.63 112.003   7 
   1  -4   0 1614.62 110.609   8 
   1   4   0 1730.34 111.012   6 
  -1   4   0 1582.01 112.775   2 
  -1   4   0 1688.93 110.688   8 
   1  -4   0 1759.98 114.074   1 
  -1  -4   0 1661.14 110.930   6 
   1   4   0 1841.31 113.746   1 
  -1  -4   0 1611.78 112.831   1 
   2  -4   0 249.128 22.2287   1 
  -2  -4   0 224.251 19.2652   6 
  -2   4   0 211.453 21.4377   1 
  -2   4   0 212.929 20.0767   7 
  -2  -4   0 206.778 19.9964   8 
   2   4   0 212.142 20.7540   1 
   2  -4   0 222.317 20.8441   7 
   2   4   0 221.304 21.1358   1 
  -2   4   0 239.754 18.2097   8 
   2   4   0 242.646 19.3562   6 
  -2  -4   0 220.661 21.3668   1 
  -2   4   0 258.394 23.8625   1 
   2  -4   0 221.664 18.2346   8 
  -2  -4   0 244.773 21.4297   1 
   2  -4   0 218.959 22.6637   1 
   3  -4   0 7.32206 6.60649   4 
   3  -4   0 4.53819 3.97286   8 
   3  -4   0 3.49990 4.64749   7 
   3   4   0 6.46961 4.62437   6 
   3   4   0 4.99472 5.34104   1 
  -3  -4   0 2.43187 4.63336   6 
  -3   4   0 11.4371 7.60598   1 
  -3  -4   0 2.52728 4.49490   1 
  -3   4   0 5.99500 6.00557   1 
  -3   4   0 4.57288 4.78589   7 
  -3  -4   0 10.4517 8.20076   1 
  -3   4   0 4.12915 3.29436   8 
   3  -4   0 5.54311 6.10856   1 
  -3  -4   0 2.21753 4.75060   8 
   4   4   0 923.796 62.3122   7 
   4  -4   0 889.155 71.1691   1 
  -4  -4   0 881.476 66.1306   8 
   4   4   0 890.117 67.7907   1 
  -4  -4   0 893.472 68.8460   1 
   4  -4   0 815.002 67.5094   4 
  -4  -4   0 837.685 64.3688   6 
  -4  -4   0 922.568 58.8047   5 
  -4   4   0 902.997 61.2516   8 
  -4   4   0 1011.58 72.3942   1 
  -4   4   0 895.232 69.7325   1 
   4  -4   0 941.740 66.7573   7 
  -5   4   0 1680.41 105.060   8 
  -5  -4   0 1552.92 110.641   8 
   5   4   0 1608.07 106.317   7 
   5   4   0 1506.75 112.862   1 
   5  -4   0 1551.46 114.127   4 
   5  -4   0 1654.20 111.008   7 
  -5  -4   0 1551.90 109.657   6 
  -5  -4   0 1438.61 113.203   1 
  -5   4   0 1719.68 115.545   1 
   5  -4   0 1493.60 120.829   1 
  -6  -4   0 1177.94 86.1025   8 
  -6   4   0 1168.13 91.2774   1 
   6  -4   0 1076.05 88.2350   4 
  -6  -4   0 1079.72 84.0668   6 
   6   4   0 1163.18 80.5585   7 
   6  -4   0 1261.21 85.8672   7 
  -6  -4   0 1075.09 88.8547   1 
  -7  -4   0 208.894 31.3198   8 
   0   5   0 6.29071 4.10419   6 
   0   5   0 2.34521 2.84325   7 
   0   5   0 3.94618 4.16597   1 
   0  -5   0 4.62118 4.41083   2 
   0  -5   0 2.81319 3.95440   1 
   0   5   0 1.96414 3.37813   8 
   0   5   0 7.15327 5.51636   1 
   0  -5   0 3.78712 3.39702   6 
   0  -5   0 11.2909 5.99728   1 
   0  -5   0 3.85702 4.10369   8 
   1  -5   0 1393.72 96.1081   7 
  -1   5   0 1302.06 94.7854   7 
  -1   5   0 1310.95 96.9215   2 
  -1  -5   0 1413.11 97.1697   3 
  -1  -5   0 1399.15 95.9946   8 
  -1   5   0 1279.80 96.9683   1 
  -1  -5   0 1417.96 96.2141   2 
   1   5   0 1478.99 97.7129   1 
  -1   5   0 1477.10 95.5181   6 
   1   5   0 1332.01 96.6901   1 
   1  -5   0 1398.96 98.2857   1 
  -1   5   0 1576.38 99.7452   1 
  -1  -5   0 1624.94 98.5885   1 
   1  -5   0 1380.07 94.5467   8 
  -1   5   0 1446.02 94.5810   8 
  -1  -5   0 1377.33 94.5704   6 
  -1  -5   0 1301.47 96.6652   1 
   1  -5   0 1601.61 99.1100   1 
   1   5   0 1418.50 94.5692   6 
   1   5   0 1528.72 96.2316   8 
   2  -5   0 1316.59 89.8178   8 
   2   5   0 1421.57 90.9566   6 
  -2  -5   0 1479.96 94.1528   1 
  -2  -5   0 1299.51 93.6410   1 
   2  -5   0 1298.35 92.7067   7 
  -2   5   0 1335.31 89.5771   8 
   2   5   0 1511.02 95.4410   1 
  -2  -5   0 1319.65 90.7340   6 
  -2   5   0 1229.61 91.6728   6 
  -2   5   0 1342.37 93.9067   2 
   2   5   0 1280.49 92.8916   1 
  -2  -5   0 1277.95 92.5861   3 
  -2  -5   0 1373.92 92.6976   8 
  -2   5   0 1529.76 97.6953   1 
   2  -5   0 1381.38 95.9091   1 
  -2   5   0 1211.33 91.3759   7 
  -2   5   0 1317.84 94.3335   1 
   3  -5   0 1063.48 82.8699   1 
  -3   5   0 1266.08 85.2260   1 
   3  -5   0 1080.84 76.6360   8 
   3  -5   0 1110.54 81.6713   4 
   3   5   0 1208.80 78.2616   6 
  -3  -5   0 1108.35 79.8359   8 
  -3  -5   0 1067.98 77.8797   6 
   3   5   0 1111.65 81.3555   1 
  -3   5   0 1187.25 76.2133   8 
  -3   5   0 1077.78 82.1126   1 
   3  -5   0 1145.07 80.9715   7 
  -3  -5   0 1121.42 82.0281   1 
   4   5   0 1044.00 77.4188   1 
  -4   5   0 1023.26 69.7280   8 
  -4  -5   0 1000.60 75.2113   8 
  -4  -5   0 1038.44 67.0485   5 
   4  -5   0 945.687 76.6100   4 
   4   5   0 1051.35 70.3858   7 
  -4   5   0 975.364 77.4989   1 
   4  -5   0 1027.50 79.8061   1 
  -4  -5   0 1041.81 74.0241   6 
  -4  -5   0 1042.96 78.4286   1 
   4  -5   0 1119.66 76.4464   7 
  -5  -5   0 13.9288 9.12392   6 
   5  -5   0 13.0668 8.57761   7 
   5  -5   0 19.4918 14.2454   4 
   5   5   0 20.1883 8.14340   7 
  -5  -5   0 10.3898 9.40470   1 
  -5   5   0 16.1964 10.8318   1 
  -5  -5   0 7.88145 8.50870   8 
  -6  -5   0 148.692 22.7281   8 
  -6   5   0 135.837 26.5883   1 
   6  -5   0 144.487 22.4054   7 
   0   6   0 1225.14 80.2646   6 
   0   6   0 1111.93 82.3362   1 
   0   6   0 1248.56 80.9010   8 
   0  -6   0 1130.45 82.8083   1 
   0  -6   0 1169.21 79.8871   6 
   0   6   0 1227.64 83.7043   1 
   0   6   0 1137.50 79.6052   7 
   0  -6   0 1126.04 80.5459   8 
  -1   6   0 2339.16 162.647   1 
  -1   6   0 2865.88 166.321   1 
   1   6   0 2516.22 160.901   8 
  -1   6   0 2236.40 161.944   2 
   1   6   0 2592.11 164.246   1 
   1  -6   0 2426.55 159.509   8 
  -1  -6   0 2363.90 159.222   6 
   1  -6   0 2376.03 163.423   1 
  -1  -6   0 2303.29 160.674   8 
   1   6   0 2310.18 158.198   7 
  -1  -6   0 2315.11 162.163   1 
   1   6   0 2280.94 161.919   1 
  -1  -6   0 2360.07 162.204   3 
   1   6   0 2597.97 159.707   6 
  -1   6   0 2500.24 159.445   8 
  -1   6   0 2266.50 159.557   7 
  -1   6   0 2711.68 161.045   6 
   2  -6   0 24.0472 9.74480   1 
  -2  -6   0 26.3622 9.87749   1 
  -2  -6   0 11.6159 7.51128   6 
  -2  -6   0 18.0049 8.46956   8 
  -2   6   0 20.7965 9.37345   2 
   2  -6   0 15.9316 8.66523   7 
  -2  -6   0 23.0665 9.24794   3 
  -2   6   0 17.3864 10.2842   1 
  -2   6   0 33.4248 9.53403   6 
   2   6   0 15.6640 9.04548   1 
  -2   6   0 24.8319 9.38463   1 
   2   6   0 23.4530 7.91741   6 
  -2   6   0 22.5377 6.85301   8 
   2  -6   0 23.1942 7.12896   8 
   3   6   0 45.8251 12.3257   1 
   3  -6   0 44.6168 14.0267   1 
  -3  -6   0 41.7481 10.1980   6 
  -3   6   0 37.8905 8.21423   8 
   3   6   0 50.5745 10.5076   6 
   3  -6   0 56.0492 12.7700   7 
   3  -6   0 36.8877 8.82322   8 
  -3  -6   0 41.5756 11.6385   8 
  -3   6   0 35.3426 11.8195   1 
  -3  -6   0 42.5203 13.0365   1 
  -3   6   0 48.7826 12.8093   2 
   4  -6   0 170.619 23.2542   4 
   4   6   0 174.269 23.8315   1 
  -4  -6   0 180.253 24.8213   1 
   4   6   0 198.529 27.2410   6 
   4  -6   0 176.047 18.3490   8 
   4  -6   0 173.249 27.0340   1 
  -4   6   0 178.120 17.0069   8 
   4  -6   0 188.579 23.3897   7 
  -4  -6   0 195.722 14.7126   5 
  -4  -6   0 171.454 21.9824   8 
  -4   6   0 176.983 25.0377   1 
  -4  -6   0 166.472 20.6696   6 
   4   6   0 192.808 17.3587   7 
   5  -6   0 2595.41 160.728   7 
   5  -6   0 2172.05 160.882   4 
   5   6   0 2439.20 152.667   7 
  -5  -6   0 2233.16 156.704   6 
  -5   6   0 2282.98 163.974   1 
  -5  -6   0 2159.91 161.645   1 
  -5  -6   0 2282.56 159.297   8 
   0   7   0 21.5439 8.18882   8 
   0   7   0 9.95493 8.15679   1 
   0  -7   0 4.67988 5.68002   1 
   0  -7   0 7.00776 7.60875   3 
   0  -7   0 6.35703 6.19656   8 
   0   7   0 12.7788 7.31323   6 
   0  -7   0 12.7941 7.61648   6 
  -1   7   0 337.484 26.8863   6 
   1  -7   0 285.387 29.0221   1 
  -1   7   0 273.092 27.8949   1 
   1   7   0 242.269 26.2773   1 
   1   7   0 268.317 23.2851   7 
   1  -7   0 257.643 24.2706   8 
  -1  -7   0 251.503 26.8553   1 
  -1   7   0 251.581 27.2777   2 
  -1  -7   0 280.956 26.2455   8 
  -1   7   0 287.170 24.6426   8 
   1   7   0 303.039 25.0075   6 
  -1  -7   0 323.380 25.3646   6 
  -1  -7   0 281.561 28.1030   3 
  -2   7   0 1847.95 137.768   2 
  -2  -7   0 1994.16 135.973   8 
  -2  -7   0 1954.07 137.492   1 
  -2  -7   0 2050.24 137.478   3 
   2   7   0 2238.01 134.530   6 
  -2   7   0 1899.80 137.420   1 
   2  -7   0 1977.53 136.282   7 
  -2  -7   0 2046.37 134.002   6 
  -2   7   0 2220.19 135.904   6 
   2  -7   0 1812.16 132.077   8 
   2   7   0 1930.79 137.027   1 
   2  -7   0 1933.00 139.056   1 
  -2   7   0 2026.37 132.454   8 
  -3   7   0 201.004 18.7377   8 
  -3  -7   0 175.363 20.1671   6 
   3   7   0 172.316 23.4842   1 
  -3   7   0 188.126 24.0114   1 
   3  -7   0 173.370 18.7064   8 
   3  -7   0 185.562 22.8514   7 
   3  -7   0 210.430 26.3013   1 
   3   7   0 215.470 22.8079   6 
  -3  -7   0 174.870 21.8879   8 
  -3  -7   0 174.551 23.2384   1 
  -3   7   0 180.749 24.3616   2 
  -4  -7   0 1200.16 94.4837   1 
   4  -7   0 1218.29 86.8853   8 
  -4   7   0 1263.93 94.7565   2 
  -4   7   0 1259.00 95.3308   1 
   4  -7   0 1351.94 93.3221   7 
   4  -7   0 1227.38 93.8663   4 
  -4  -7   0 1239.33 92.4524   8 
  -4  -7   0 1295.93 90.2562   6 
  -5   7   0 46.7327 18.3741   1 
   5  -7   0 36.2838 17.3455   7 
  -5   7   0 47.8725 18.4264   2 
   0  -8   0 161.316 21.7590   1 
   0  -8   0 189.311 20.0725   8 
   0   8   0 194.760 20.2905   6 
   0  -8   0 158.107 21.8823   3 
   0   8   0 155.236 21.3703   1 
  -1  -8   0 1567.47 108.061   8 
  -1   8   0 1506.62 110.082   1 
   1   8   0 1667.66 108.887   6 
   1   8   0 1459.66 109.241   1 
  -1   8   0 1439.27 109.694   2 
  -1  -8   0 1441.72 109.279   1 
   1  -8   0 1546.68 106.059   8 
   1  -8   0 1686.57 112.679   1 
   1   8   0 1498.97 104.163   7 
  -1  -8   0 1592.95 110.376   3 
  -1  -8   0 1594.49 106.340   6 
   2   8   0 19.5002 7.16091   7 
   2  -8   0 17.2784 13.0568   1 
   2   8   0 16.9260 9.61663   1 
   2  -8   0 15.8657 8.83933   8 
  -2  -8   0 17.3127 10.3980   6 
  -2   8   0 13.4018 10.7476   1 
  -2   8   0 21.9768 12.1970   2 
  -2  -8   0 18.0374 11.5823   3 
  -2  -8   0 21.2344 11.0337   8 
  -2  -8   0 9.87156 8.30158   1 
  -3   8   0 4.02410 9.54145   2 
   3   8   0 15.5801 15.8480   1 
   3  -8   0 6.38104 6.48175   8 
   3  -8   0 6.96536 8.29347   7 
  -3  -8   0 8.12306 8.32108   6 
  -3  -8   0 5.18055 9.09751   1 
  -3   8   0 9.38717 9.50952   1 
  -3  -8   0 16.6412 11.8378   8 
  -4   8   0 35.8323 15.7510   1 
  -4   8   0 32.1228 15.1594   2 
   4  -8   0 33.7519 15.2981   7 
  -5   8   0 1965.06 142.309   2 
   0  -9   0 19.3779 13.4590   3 
   0  -9   0 5.25425 6.89116   8 
   0   9   0 2.62222 7.59006   1 
  -1  -9   0 41.8422 14.6517   8 
   1  -9   0 33.2536 11.7529   8 
  -1   9   0 34.6965 14.3027   1 
   1   9   0 33.6918 13.3051   1 
  -1  -9   0 32.4061 16.0739   3 
  -2   9   0 1169.13 90.5947   1 
  -2   9   0 1145.47 91.1150   2 
  -2  -9   0 1251.99 91.0666   3 
   2  -9   0 1180.82 84.8805   8 
  -2  -9   0 1240.94 89.0939   8 
  -3   9   0 12.7957 13.0217   2 
  -3   9   0 12.5325 14.7258   1 
   3  -9   0 13.3977 8.29771   8 
  -4   9   0 1123.70 89.7539   2 
   0 -10   0 116.447 19.8017   8 
   0 -10   0 121.117 24.9424   3 
   1 -10   0 1179.70 86.8178   8 
  -1 -10   0 1240.09 92.5867   3 
   1 -10   0 1178.47 92.9799   3 
   2 -10   0 -0.3705 7.29375   8 
  -2 -10   0 8.15965 12.8383   3 
  -2  10   0 0.55701 10.6896   2 
  -3  10   0 12.2424 14.2205   2 
   0 -11   0 14.4798 15.4047   3 
  -1 -11   0 8.43607 14.1723   3 
   1 -11   0 28.0670 18.5615   3 
  -2 -11   0 950.115 79.1050   3 
   0 -12   0 547.700 56.9785   3 
   1 -12   0 533.165 58.0018   3 
  -1 -12   0 527.607 55.8840   3 
  -1   0  -1 447.621 27.9532   8 
  -1   0  -1 384.302 28.9697   1 
   1   0  -1 425.384 28.5673   7 
  -1   0  -1 474.766 29.1616   7 
   1   0  -1 479.269 29.7641   1 
  -1   0   1 395.050 28.0725   5 
  -1   0   1 408.639 28.6619   7 
   1   0  -1 396.794 28.0827   5 
  -1   0   1 437.063 29.6272   4 
   1   0   1 452.463 29.3431   1 
  -1   0  -1 443.933 28.8032   4 
   1   0  -1 374.896 29.3982   1 
   1   0   1 452.547 28.9878   7 
   1   0   1 420.164 28.7450   4 
   1   0   1 420.198 28.9276   1 
  -1   0   1 448.680 29.7993   1 
   2   0  -1 4558.68 292.327   7 
  -2   0   1 4102.47 284.314   5 
  -2   0   1 4113.37 287.024   7 
   2   0  -1 3989.48 290.641   1 
  -2   0   1 4707.99 282.639   1 
   2   0  -1 3658.96 279.372   5 
   2   0   1 3928.47 288.555   4 
   2   0   1 5396.82 294.932   1 
   2   0   1 4716.81 293.418   7 
  -2   0  -1 4512.09 292.647   4 
  -2   0   1 4170.24 288.560   4 
   2   0  -1 4824.70 293.203   1 
  -2   0  -1 3517.71 287.082   1 
  -2   0  -1 4232.23 288.425   7 
  -2   0  -1 5612.18 302.294   1 
  -3   0   1 7.01768 4.65800   7 
   3   0  -1 5.36942 4.26033   1 
  -3   0   1 4.80036 4.67404   4 
  -3   0  -1 1.69573 2.91961   7 
   3   0  -1 4.22980 3.71354   1 
   3   0   1 12.0427 2.77437   5 
  -3   0  -1 4.03026 3.98077   4 
   3   0   1 1.61613 3.29848   1 
  -3   0  -1 5.16478 4.31053   1 
   3   0  -1 3.77711 2.15645   5 
  -3   0   1 1.25181 3.39322   1 
   3   0  -1 6.93687 4.27537   7 
   3   0   1 2.41993 2.87038   1 
   3   0   1 1.98280 2.93891   7 
  -4   0  -1 2365.75 151.319   4 
   4   0  -1 2289.57 149.221   7 
   4   0   1 1988.27 145.416   5 
   4   0  -1 2139.51 153.023   1 
  -4   0   1 2325.63 152.279   4 
  -4   0  -1 2128.40 149.913   7 
   4   0   1 2175.58 152.556   1 
   4   0   1 2445.92 150.098   7 
  -4   0   1 2527.39 154.660   1 
  -4   0   1 2019.23 149.162   7 
  -4   0  -1 2533.37 154.360   1 
  -5   0  -1 903.153 63.9311   1 
   5   0   1 725.299 60.7099   1 
   5   0  -1 708.518 61.3966   1 
   5   0  -1 790.072 57.0517   7 
   5   0   1 770.155 57.3961   7 
   6   0  -1 313.121 29.4837   7 
  -6   0  -1 312.715 28.0872   8 
   6   0   1 321.309 30.5674   7 
  -7   0  -1 44.0395 16.5136   6 
   7   0  -1 28.9209 12.5403   7 
   7   0   1 36.4992 13.9004   7 
   0   1   1 386.987 25.6981   6 
   0  -1   1 344.138 26.1969   1 
   0  -1  -1 415.372 26.0352   3 
   0  -1   1 394.938 26.0152   6 
   0   1   1 391.433 26.2649   1 
   0   1   1 413.420 26.3011   1 
   0  -1  -1 398.391 26.2458   1 
   0  -1   1 381.658 25.7185   7 
   0  -1   1 401.235 26.0134   1 
   0  -1  -1 391.115 25.7289   6 
   0   1  -1 404.509 25.5886   7 
   0   1   1 409.872 26.1008   8 
   0   1   1 359.778 25.5493   2 
   0   1  -1 382.475 26.2530   2 
   0   1  -1 402.794 26.1082   1 
   0  -1  -1 408.576 26.1463   8 
   0  -1   1 380.255 26.2235   2 
   0  -1  -1 387.652 25.5673   2 
  -1   1   1 5495.29 376.485   1 
   1   1  -1 5030.19 363.578   7 
   1  -1   1 5995.85 415.471   8 
  -1  -1  -1 5581.77 375.738   1 
  -1   1   1 5446.50 371.052   7 
   1   1  -1 5514.10 371.557   3 
  -1  -1  -1 6865.97 387.324   1 
  -1   1   1 5126.68 373.566   1 
  -1  -1  -1 5693.17 370.103   8 
   1  -1   1 6444.42 376.652   1 
   1  -1   1 5694.21 376.282   1 
   1  -1   1 5702.79 372.215   7 
  -1  -1  -1 5902.95 370.301   6 
  -1   1   1 5222.66 374.213   4 
   1   1  -1 5817.08 370.419   6 
  -1   1   1 5578.86 370.844   8 
   1   1   1 7241.07 372.523   6 
   1  -1  -1 5391.77 371.723   4 
  -1  -1   1 6876.42 372.940   6 
   1   1   1 5492.88 369.954   8 
   1   1   1 3492.61 366.256   1 
  -1   1  -1 5604.73 396.045   8 
   1  -1  -1 5074.89 369.986   8 
   1  -1  -1 5700.20 368.654   7 
  -1   1  -1 5648.11 373.494   1 
   1  -1  -1 5913.73 380.533   1 
  -1  -1   1 7241.83 380.093   1 
  -1  -1   1 5289.44 374.173   1 
  -1   1  -1 5649.07 373.444   7 
   1  -1  -1 5162.90 365.844   5 
   1   1   1 5725.06 373.897   1 
  -2   1   1 171.061 17.2298   1 
   2  -1   1 170.852 17.0552   1 
  -2   1   1 171.985 17.4384   4 
   2  -1   1 165.660 17.6405   1 
  -2  -1  -1 193.893 16.2802   8 
  -2   1   1 174.563 17.0572   7 
   2   1  -1 156.477 17.3672   1 
   2  -1   1 163.863 16.6062   7 
   2  -1   1 168.605 16.9947   4 
  -2   1   1 186.890 16.4431   8 
  -2   1   1 189.855 18.6440   1 
   2   1  -1 167.976 15.6169   7 
   2   1  -1 168.592 15.0570   5 
  -2  -1  -1 161.461 16.2240   6 
  -2  -1  -1 183.675 17.6532   1 
  -2   1  -1 257.920 18.2624   7 
   2  -1  -1 268.443 16.3531   5 
  -2  -1   1 294.333 18.1217   6 
  -2  -1   1 270.108 15.6396   5 
  -2  -1   1 277.673 16.7257   7 
  -2   1  -1 274.668 19.4016   1 
  -2  -1   1 270.501 19.2782   1 
  -2   1  -1 283.906 19.9266   1 
   2   1   1 281.319 19.0651   1 
   2   1   1 252.983 14.5383   5 
   2  -1  -1 284.931 19.5154   4 
   2  -1  -1 280.126 18.3739   7 
   2  -1  -1 252.708 19.8328   1 
  -3   1   1 196.018 20.4860   1 
  -3   1   1 200.965 19.6886   4 
  -3  -1  -1 171.093 17.7195   6 
   3  -1   1 210.194 21.6891   1 
  -3   1   1 160.977 18.1136   7 
   3   1  -1 209.811 19.9238   1 
   3   1  -1 181.420 19.6293   1 
  -3  -1  -1 186.982 19.3980   1 
  -3  -1  -1 194.478 18.8852   4 
   3   1  -1 162.532 15.3653   5 
   3  -1   1 183.140 19.0002   4 
  -3  -1  -1 167.400 16.8972   8 
   3  -1   1 157.839 18.8770   1 
  -3   1   1 183.228 17.4162   8 
   3  -1   1 171.250 18.0039   7 
  -3   1   1 145.567 18.3612   1 
   3   1  -1 167.777 16.6460   7 
   3   1   1 239.954 20.5569   1 
   3  -1  -1 231.399 20.4397   4 
  -3   1  -1 240.315 20.6595   1 
  -3  -1   1 230.730 17.7085   7 
   3  -1  -1 272.352 20.9764   1 
   3   1   1 260.510 18.6856   7 
   3  -1  -1 221.996 16.7266   5 
  -3   1  -1 238.881 19.7033   7 
  -3   1  -1 278.256 22.2641   1 
  -3  -1   1 261.458 20.8799   4 
   3  -1  -1 253.051 22.0709   1 
  -3  -1   1 271.785 21.6862   1 
   3  -1  -1 258.621 19.4390   7 
  -3   1  -1 249.914 20.1221   4 
   3   1   1 230.955 15.1127   5 
  -3  -1   1 242.309 15.9451   5 
   3   1   1 245.199 20.2671   1 
   4  -1   1 857.104 65.1636   1 
   4   1  -1 949.802 61.6088   7 
  -4  -1  -1 974.657 61.7018   8 
   4   1  -1 857.865 65.1431   1 
  -4  -1  -1 957.412 63.0912   6 
  -4   1   1 976.592 65.5018   4 
   4  -1   1 971.840 63.3241   7 
  -4   1   1 758.991 63.7887   1 
   4  -1   1 853.456 63.9794   4 
  -4   1   1 1113.30 68.9937   1 
  -4  -1  -1 975.442 64.1653   4 
  -4  -1  -1 1011.92 66.5534   1 
  -4   1   1 847.110 62.8073   7 
   4   1  -1 884.371 58.6676   5 
  -4   1  -1 922.147 66.5452   1 
   4   1   1 751.947 63.7767   1 
   4   1   1 719.877 57.2781   5 
   4   1   1 852.638 61.3183   7 
  -4  -1   1 903.210 64.5570   4 
  -4   1  -1 876.581 63.6716   4 
  -4   1  -1 769.270 62.6841   7 
   4  -1  -1 823.015 61.7384   7 
  -4  -1   1 769.284 60.7984   7 
  -4   1  -1 789.054 64.3690   1 
   4  -1  -1 767.973 65.0877   1 
  -4  -1   1 927.063 66.0579   1 
   5   1  -1 3327.34 214.882   7 
   5   1  -1 2968.50 219.527   1 
  -5  -1  -1 3424.51 215.169   8 
  -5   1   1 3742.85 215.625   8 
   5  -1   1 3447.65 216.677   7 
  -5  -1  -1 3818.19 222.687   1 
  -5  -1  -1 3248.63 216.724   6 
   5  -1   1 2986.06 219.465   1 
  -5  -1   1 3037.28 216.108   6 
  -5  -1   1 2975.49 219.662   1 
   5   1   1 2910.08 210.052   5 
   5   1   1 3317.07 215.308   7 
  -5   1  -1 4024.44 224.835   1 
   5  -1  -1 3338.31 215.884   7 
   5  -1  -1 3070.06 220.917   1 
   5   1   1 2989.13 218.882   1 
   6  -1   1 130.092 18.8608   7 
  -6  -1  -1 110.360 21.0882   1 
  -6  -1  -1 124.009 16.9520   8 
   6   1  -1 125.223 17.8097   7 
  -6  -1  -1 108.463 19.0367   6 
  -6   1   1 143.724 17.4593   8 
  -6  -1   1 143.009 19.9632   6 
  -6  -1   1 135.755 21.9204   1 
   6  -1  -1 164.649 19.1143   7 
   6   1   1 159.627 19.5104   7 
   7  -1   1 438.191 39.0746   7 
  -7  -1  -1 376.875 38.8334   6 
   7   1  -1 402.627 36.0506   7 
  -7  -1  -1 360.843 42.6805   1 
  -7  -1   1 431.998 38.5820   8 
   7  -1  -1 420.249 37.8531   7 
   7   1   1 429.177 38.0189   7 
   0  -2   1 3.02474 2.27083   1 
   0   2   1 4.32701 2.54560   1 
   0  -2  -1 12.2653 3.27463   1 
   0  -2   1 5.02041 2.47179   2 
   0  -2  -1 5.76175 2.27152   6 
   0   2   1 9.04226 2.42955   2 
   0   2  -1 8.56672 2.20594   6 
   0   2  -1 5.91038 2.47383   1 
   0   2   1 10.4451 2.68925   8 
   0  -2  -1 5.00418 2.40926   8 
   0   2   1 6.93210 2.24752   6 
   0  -2   1 4.03457 2.29033   8 
   0   2   1 16.9276 3.46556   1 
   0   2  -1 6.57412 2.70517   1 
   0  -2   1 4.49739 2.06806   6 
   0  -2  -1 5.70524 2.23916   2 
   0   2  -1 7.10059 2.65716   2 
   0  -2   1 5.73770 1.96404   7 
   0  -2   1 6.02261 2.71312   1 
   0   2  -1 4.76227 1.86399   7 
   0  -2  -1 6.89848 2.69909   1 
  -1  -2  -1 2639.23 150.808   1 
  -1  -2  -1 2010.15 142.000   6 
  -1   2   1 2274.04 145.266   1 
  -1  -2  -1 2089.81 142.749   8 
   1   2  -1 2165.03 143.612   1 
   1  -2   1 2235.01 143.698   1 
  -1   2   1 1902.81 143.549   1 
   1   2  -1 2004.90 142.730   3 
   1  -2   1 2150.95 144.705   1 
   1   2  -1 1826.03 142.920   1 
   1  -2   1 2126.34 142.998   8 
  -1   2   1 2140.55 211.967   8 
   1  -2   1 2073.20 143.023   7 
  -1  -2  -1 2089.74 147.119   1 
  -1   2   1 1991.52 142.668   7 
   1   2  -1 2098.09 142.225   6 
  -1   2  -1 2360.81 143.739   8 
  -1  -2   1 1617.15 142.282   3 
   1   2   1 2361.40 148.593   8 
   1   2   1 2313.26 143.130   3 
   1  -2  -1 2377.07 145.315   1 
  -1  -2   1 2443.93 147.203   8 
  -1  -2   1 2387.89 145.309   6 
   1  -2  -1 2344.42 142.663   8 
  -1  -2   1 2506.37 151.502   1 
   1  -2  -1 2590.10 144.828   1 
   1  -2  -1 2284.16 143.313   7 
   1   2   1 2384.90 143.744   1 
   1   2   1 2953.84 149.961   6 
   1   2   1 2239.98 146.478   1 
  -1   2  -1 2307.20 143.455   7 
  -1   2  -1 2225.16 143.958   1 
  -1  -2   1 1604.84 142.461   1 
  -1   2  -1 2448.24 145.308   1 
   2   2  -1 2993.16 188.568   7 
  -2  -2  -1 2636.45 184.312   5 
  -2  -2  -1 2921.97 186.338   8 
   2  -2   1 3115.51 188.053   1 
   2   2  -1 3002.45 188.147   1 
   2  -2   1 2987.25 187.321   7 
  -2   2   1 2786.26 188.076   1 
   2  -2   1 2889.61 187.748   4 
  -2  -2  -1 2795.51 188.010   1 
  -2   2   1 2817.54 187.244   7 
   2   2  -1 3081.85 186.310   6 
  -2   2   1 3322.49 189.862   8 
   2  -2   1 2635.19 188.541   1 
  -2   2   1 3254.18 190.652   1 
   2   2  -1 2809.48 187.676   1 
   2   2  -1 2920.77 186.921   3 
  -2  -2  -1 2980.16 186.190   6 
  -2  -2  -1 3179.70 187.929   1 
   2  -2  -1 2618.26 187.543   4 
  -2   2  -1 2650.11 187.125   7 
  -2  -2   1 2815.27 187.992   1 
   2   2   1 3087.76 186.165   6 
  -2   2  -1 2722.87 186.722   8 
   2  -2  -1 3039.91 188.496   1 
   2   2   1 2797.66 187.200   1 
  -2   2  -1 2645.25 187.773   1 
   2  -2  -1 2585.87 189.256   1 
  -2  -2   1 2890.40 188.963   5 
   2   2   1 2944.37 188.008   1 
  -2   2  -1 2879.18 188.924   1 
   2  -2  -1 2862.10 187.039   7 
   2  -2  -1 2706.55 185.941   8 
  -2  -2   1 2973.34 187.703   1 
  -2  -2   1 2964.43 186.273   6 
  -3   2   1 303.274 25.8711   1 
   3  -2   1 244.950 23.8837   1 
   3  -2   1 273.410 22.4626   7 
  -3   2   1 206.564 22.0422   1 
  -3   2   1 237.289 22.1009   7 
   3  -2   1 245.542 22.6232   4 
  -3   2   1 283.015 20.7248   8 
  -3  -2  -1 262.463 21.2872   8 
   3   2  -1 274.105 19.8414   7 
  -3  -2  -1 275.618 21.5847   6 
  -3  -2  -1 279.779 24.1692   1 
   3   2  -1 268.049 23.6647   1 
  -3  -2  -1 312.357 24.2029   1 
  -3   2  -1 259.410 24.1574   1 
  -3   2  -1 249.099 18.6489   8 
   3   2   1 273.390 20.5914   7 
  -3   2  -1 223.613 22.8548   1 
   3  -2  -1 229.576 24.2501   1 
   3   2   1 228.859 22.1330   1 
   3  -2  -1 233.992 23.0367   4 
  -3  -2   1 233.194 17.9412   5 
  -3  -2   1 239.203 20.8844   6 
   3  -2  -1 270.683 23.5439   1 
   3  -2  -1 229.253 21.7898   7 
  -3   2  -1 209.636 21.7228   7 
  -3  -2   1 251.192 23.1296   1 
  -3  -2   1 237.653 23.1237   1 
  -4  -2  -1 1609.60 104.683   4 
  -4  -2  -1 1384.85 105.866   1 
   4  -2   1 1537.16 103.972   7 
   4  -2   1 1414.96 106.577   1 
   4   2  -1 1429.24 100.757   7 
  -4   2   1 1692.79 108.933   1 
  -4  -2  -1 1641.43 106.664   1 
  -4  -2  -1 1405.75 102.180   8 
  -4   2   1 1519.86 105.724   4 
   4   2  -1 1388.32 105.754   1 
  -4   2   1 1446.32 108.206   7 
  -4  -2  -1 1375.80 102.252   6 
  -4   2   1 1259.39 104.664   1 
  -4   2   1 1625.88 101.785   8 
   4  -2   1 1317.58 104.215   4 
  -4  -2   1 1502.19 103.240   6 
  -4  -2   1 1542.69 106.851   1 
  -4  -2   1 1587.60 98.7747   5 
  -4   2  -1 1700.19 100.235   8 
  -4   2  -1 1807.40 109.536   1 
   4   2   1 1437.95 105.369   1 
  -4   2  -1 1486.83 106.740   1 
   4  -2  -1 1467.65 107.958   1 
   4  -2  -1 1583.04 103.668   7 
  -4  -2   1 1844.00 112.551   1 
   4   2   1 1568.64 101.903   7 
   4  -2  -1 1469.55 105.657   4 
  -5  -2  -1 722.478 55.8593   6 
   5  -2   1 722.160 58.8840   4 
   5   2  -1 686.108 59.2346   1 
   5   2  -1 718.599 53.7067   7 
   5  -2   1 739.625 56.0149   7 
  -5   2   1 708.346 59.3651   1 
  -5  -2  -1 743.331 55.3789   8 
   5  -2   1 667.819 59.3408   1 
  -5  -2  -1 820.684 62.2017   1 
  -5  -2  -1 694.557 59.4396   1 
  -5   2   1 827.235 54.4583   8 
  -5   2  -1 848.514 52.6786   8 
  -5  -2   1 695.963 55.9857   6 
   5  -2  -1 761.757 55.9326   7 
   5  -2  -1 691.723 58.3864   4 
   5   2   1 796.936 55.0215   7 
   5  -2  -1 704.749 60.9551   1 
   5   2   1 722.866 59.1464   1 
  -5  -2   1 690.728 59.2859   1 
  -5   2  -1 865.090 65.6226   1 
  -5   2  -1 733.816 60.0353   1 
  -6  -2  -1 314.533 30.0721   8 
   6   2  -1 311.790 28.4923   7 
   6  -2   1 323.846 30.8173   7 
  -6  -2  -1 270.136 33.8926   1 
  -6  -2  -1 290.998 30.5024   6 
   6   2   1 337.805 29.8388   7 
  -6  -2   1 297.307 34.5297   1 
  -6  -2   1 318.723 30.8052   8 
  -6  -2   1 313.743 31.2267   6 
   6  -2  -1 342.921 30.9952   7 
   7   2  -1 187.873 23.0786   7 
  -7  -2  -1 168.249 29.7194   1 
  -7  -2  -1 157.147 26.1548   6 
   7  -2   1 184.930 24.8352   7 
   7   2   1 245.453 25.7761   7 
  -7  -2   1 229.477 26.9597   8 
   7  -2  -1 251.877 27.1878   7 
   0  -3  -1 1412.37 92.4188   8 
   0  -3  -1 1433.89 93.3909   1 
   0  -3  -1 1364.49 92.0715   2 
   0   3  -1 1301.95 91.1779   7 
   0  -3  -1 1558.24 94.1117   1 
   0  -3   1 1406.18 93.2246   1 
   0  -3   1 1359.52 91.4308   6 
   0   3   1 1387.69 93.1114   1 
   0   3   1 1290.28 92.0663   2 
   0   3  -1 1457.59 92.1100   8 
   0  -3   1 1478.44 92.1305   8 
   0   3  -1 1416.07 93.2252   1 
   0   3   1 1441.76 91.8673   6 
   0  -3   1 1317.63 91.2640   7 
   0   3  -1 1414.46 91.6544   6 
   0   3   1 1522.45 93.8472   1 
   0   3   1 1452.03 92.3133   8 
   0   3   1 1331.03 91.7982   7 
   0   3  -1 1442.53 93.4256   1 
   0  -3   1 1409.39 92.9713   2 
   0  -3  -1 1285.38 91.5788   6 
   0  -3   1 1653.31 94.0088   1 
   0   3  -1 1290.22 92.7217   2 
   1  -3   1 3875.43 231.596   8 
  -1  -3  -1 4923.83 241.023   6 
  -1   3   1 3828.59 234.594   2 
   1  -3   1 3639.28 230.199   1 
  -1   3   1 3441.14 231.721   7 
  -1  -3  -1 4114.93 238.342   1 
  -1   3   1 4196.94 231.618   1 
   1   3  -1 3967.51 233.563   6 
  -1  -3  -1 3665.76 236.006   8 
   1   3  -1 3556.05 239.943   1 
   1  -3   1 3690.61 228.708   7 
  -1  -3  -1 4539.96 245.007   3 
  -1   3   1 3431.02 229.729   1 
   1   3  -1 3671.99 233.513   1 
  -1   3   1 3910.16 238.170   8 
   1  -3   1 3905.91 233.903   1 
  -1  -3   1 3412.47 228.739   1 
  -1  -3   1 3273.97 235.670   3 
  -1  -3   1 3274.62 227.299   6 
   1  -3  -1 3117.38 229.903   8 
  -1   3  -1 2807.36 228.463   1 
  -1   3  -1 3223.95 227.751   6 
  -1   3  -1 3611.84 230.396   1 
  -1   3  -1 3494.06 233.823   8 
   1  -3  -1 3129.32 228.224   7 
   1   3   1 3340.00 229.941   6 
   1   3   1 3719.36 229.602   1 
   1  -3  -1 3150.92 229.608   1 
  -1   3  -1 3147.08 227.870   7 
  -1   3  -1 3186.91 233.530   2 
  -1  -3   1 3528.07 236.481   8 
  -1  -3   1 3035.80 228.506   1 
   1   3   1 3295.99 232.727   1 
   1  -3  -1 3709.71 230.606   1 
   1   3   1 3336.56 229.768   3 
   1   3   1 3247.84 231.089   8 
   2  -3   1 1063.78 69.2974   1 
  -2  -3  -1 1091.98 68.1225   1 
   2  -3   1 1043.69 63.4503   8 
   2   3  -1 1092.61 65.1386   6 
   2  -3   1 1149.34 67.9973   1 
   2   3  -1 1044.75 67.2969   1 
  -2   3   1 1158.15 70.4292   1 
   2   3  -1 1084.79 67.6655   1 
  -2   3   1 1018.55 67.9357   1 
  -2   3   1 1152.78 64.8050   8 
  -2  -3  -1 1141.43 65.5674   6 
  -2   3   1 965.892 65.9611   7 
   2  -3   1 1081.95 66.6859   7 
  -2  -3  -1 1038.27 66.0005   8 
  -2  -3  -1 1143.99 67.4115   1 
   2  -3  -1 804.927 67.9829   1 
   2  -3  -1 810.955 64.1252   8 
   2   3   1 889.233 66.5510   1 
  -2   3  -1 813.964 62.4430   8 
  -2   3  -1 796.008 65.5501   7 
  -2  -3   1 862.566 66.5861   1 
   2   3   1 890.572 64.3307   6 
  -2   3  -1 892.245 68.1937   1 
   2  -3  -1 808.543 66.1504   4 
   2  -3  -1 832.792 65.7267   7 
  -2   3  -1 795.411 66.3890   1 
   2  -3  -1 919.990 67.4510   1 
  -2  -3   1 832.457 65.2258   8 
  -2  -3   1 870.962 66.0670   1 
  -2  -3   1 827.725 64.1904   6 
   2   3   1 862.964 65.8709   1 
  -3  -3  -1 68.2401 10.9293   8 
  -3  -3  -1 71.5006 6.15528   5 
   3  -3   1 63.9789 12.6025   1 
   3  -3   1 78.0277 11.4214   7 
  -3   3   1 61.1770 10.8668   7 
  -3  -3  -1 75.3803 11.5530   1 
  -3   3   1 82.6145 13.6005   1 
   3  -3   1 70.9666 11.8067   4 
   3   3  -1 77.5870 8.71386   7 
   3   3  -1 70.7325 11.5215   1 
  -3   3   1 64.6243 11.4856   1 
  -3  -3  -1 79.8380 10.6865   6 
  -3  -3  -1 61.3052 11.7555   1 
  -3   3   1 73.3732 9.09553   8 
  -3   3  -1 96.3850 12.6332   7 
  -3  -3   1 106.205 13.0697   1 
   3  -3  -1 82.5456 11.8334   7 
  -3   3  -1 92.1531 8.20213   8 
  -3   3  -1 106.491 15.0535   1 
   3   3   1 82.9863 9.37384   7 
   3  -3  -1 80.4795 13.6744   1 
  -3   3  -1 98.6927 13.5749   1 
  -3  -3   1 96.6749 11.8704   8 
  -3  -3   1 97.0140 11.2104   6 
  -3  -3   1 87.9059 7.65768   5 
  -3  -3   1 96.1885 13.2044   1 
   3  -3  -1 94.4525 13.1456   1 
   3   3   1 88.8370 11.9213   1 
   3  -3  -1 104.284 13.7361   4 
  -4  -3  -1 978.974 73.5622   1 
  -4  -3  -1 1147.76 74.1077   1 
   4   3  -1 977.147 73.0285   1 
   4  -3   1 1098.98 71.6993   7 
  -4   3   1 1193.58 80.3912   1 
   4  -3   1 987.867 72.9647   4 
   4   3  -1 1025.32 67.2819   7 
  -4  -3  -1 1012.42 70.0105   6 
  -4   3   1 910.338 72.4103   1 
  -4  -3  -1 975.478 69.9167   8 
   4  -3   1 953.858 74.4465   1 
  -4   3   1 1119.56 68.3406   8 
   4   3   1 890.033 71.3844   1 
   4  -3  -1 971.917 73.3561   4 
  -4   3  -1 976.707 65.5966   8 
   4   3   1 920.079 67.5294   7 
  -4  -3   1 911.834 72.6203   1 
   4  -3  -1 990.882 70.9227   7 
  -4   3  -1 872.615 72.7498   1 
  -4   3  -1 1094.14 75.8969   1 
  -4  -3   1 908.324 64.5810   5 
  -4  -3   1 921.736 70.2744   8 
  -4  -3   1 945.531 69.6951   6 
   4  -3  -1 897.870 74.6025   1 
  -5  -3  -1 2105.19 142.710   6 
  -5  -3  -1 2076.15 142.307   8 
  -5   3   1 2517.28 140.687   8 
   5  -3   1 2041.00 148.302   1 
   5  -3   1 2058.77 145.936   4 
  -5   3   1 2198.55 147.743   1 
   5   3  -1 2153.75 139.423   7 
  -5  -3  -1 2069.10 147.375   1 
   5   3  -1 1961.32 145.496   1 
   5  -3   1 2233.08 143.565   7 
   5  -3  -1 2136.90 142.930   7 
  -5   3  -1 2202.54 137.264   8 
  -5  -3   1 1981.19 146.540   1 
   5  -3  -1 2050.16 149.585   1 
  -5  -3   1 2089.88 142.498   6 
  -5   3  -1 2024.97 147.416   1 
   5   3   1 1947.47 144.676   1 
  -5  -3   1 2022.47 143.059   8 
   5   3   1 2158.01 140.164   7 
   5  -3  -1 2030.03 146.068   4 
  -6  -3  -1 409.244 41.0148   6 
   6   3  -1 453.128 38.4822   7 
   6  -3   1 482.597 42.5800   7 
   6  -3   1 410.035 44.2567   4 
  -6  -3  -1 443.836 41.2355   8 
  -6  -3  -1 449.930 46.3921   1 
  -6   3   1 473.356 47.3897   1 
  -6  -3   1 523.420 43.7096   8 
   6   3   1 541.901 40.4633   7 
   6  -3  -1 485.112 45.9018   4 
  -6  -3   1 529.527 43.4129   6 
  -6   3  -1 516.693 47.9622   1 
   6  -3  -1 526.995 42.7106   7 
  -6  -3   1 510.874 48.1353   1 
  -7  -3  -1 483.962 47.0373   8 
  -7  -3   1 590.606 50.5827   8 
   7   3   1 578.578 46.4398   7 
   0  -4  -1 694.476 47.1201   1 
   0  -4   1 665.575 45.6135   2 
   0  -4  -1 609.101 45.8342   1 
   0   4  -1 626.638 45.7061   1 
   0  -4   1 573.354 45.3928   1 
   0   4  -1 661.064 44.5025   8 
   0   4   1 681.225 46.7895   1 
   0   4  -1 606.263 43.9031   6 
   0   4   1 649.923 44.2486   6 
   0  -4  -1 638.514 44.9202   8 
   0  -4   1 728.599 46.9534   1 
   0   4  -1 584.605 43.4096   7 
   0  -4  -1 630.422 44.6831   2 
   0   4   1 581.986 44.0066   7 
   0   4   1 599.243 45.6202   1 
   0  -4   1 650.110 44.0985   6 
   0  -4  -1 658.719 44.2107   6 
   0   4  -1 666.741 46.4974   1 
   0   4   1 629.484 44.5498   8 
   0  -4   1 634.807 44.4444   8 
   1  -4   1 820.436 59.8823   7 
  -1   4   1 860.013 59.0444   8 
  -1   4   1 813.948 59.5605   7 
  -1  -4  -1 855.036 61.0942   1 
  -1  -4  -1 849.260 60.4553   3 
  -1  -4  -1 842.915 58.8396   6 
  -1   4   1 821.707 61.3053   1 
   1  -4   1 999.664 62.2094   1 
  -1   4   1 994.151 63.4401   1 
   1  -4   1 856.410 58.3961   8 
   1   4  -1 906.985 59.2800   6 
   1  -4   1 825.484 61.5252   1 
   1   4  -1 867.674 61.1531   1 
  -1   4   1 783.217 60.2911   2 
  -1  -4  -1 950.743 61.8569   1 
  -1  -4  -1 910.599 60.4875   8 
  -1   4   1 943.033 60.2858   6 
   1   4  -1 905.775 61.4750   1 
  -1   4  -1 979.886 60.3354   6 
  -1   4  -1 773.713 59.1897   7 
   1   4   1 920.292 61.5993   1 
   1   4   1 869.206 61.1163   1 
  -1   4  -1 867.465 58.5559   8 
   1  -4  -1 902.038 62.2261   1 
   1  -4  -1 807.194 60.0011   7 
   1   4   1 891.549 60.1311   8 
  -1  -4   1 869.019 59.0991   6 
  -1  -4   1 942.423 61.4568   1 
  -1  -4   1 860.005 61.1304   1 
   1  -4  -1 811.937 58.9780   8 
  -1   4  -1 949.681 62.9252   1 
   1   4   1 847.526 58.8452   6 
  -1  -4   1 875.906 60.9863   3 
   1  -4  -1 843.572 61.9418   1 
  -1   4  -1 814.019 61.1504   1 
  -1  -4   1 877.872 60.3665   8 
  -1   4  -1 793.689 60.8813   2 
  -2  -4  -1 2874.45 172.612   1 
  -2   4   1 2689.32 169.213   8 
  -2  -4  -1 2651.28 170.053   6 
  -2  -4  -1 2669.57 171.331   8 
   2  -4   1 2587.21 174.050   1 
   2   4  -1 2546.02 172.226   1 
   2  -4   1 2617.27 171.551   7 
  -2   4   1 2435.61 170.856   7 
  -2   4   1 3055.13 176.604   1 
   2   4  -1 2919.26 173.442   1 
  -2  -4  -1 2687.64 173.059   1 
  -2   4   1 2547.63 173.123   1 
   2   4  -1 2752.80 170.150   6 
   2  -4   1 2623.81 168.268   8 
   2  -4  -1 2499.56 174.315   1 
   2   4   1 2370.47 171.223   1 
   2  -4  -1 2550.86 169.774   8 
  -2   4  -1 2366.04 172.174   2 
   2  -4  -1 2870.38 174.378   1 
  -2   4  -1 2698.93 174.594   1 
  -2   4  -1 2325.35 170.827   7 
  -2  -4   1 2492.75 169.620   6 
  -2  -4   1 2474.54 171.495   3 
  -2  -4   1 2791.59 172.345   1 
   2   4   1 2554.35 170.595   8 
  -2  -4   1 2596.55 172.785   1 
  -2   4  -1 2333.14 172.396   1 
   2   4   1 2748.70 172.997   1 
   2   4   1 2750.30 170.099   6 
   2  -4  -1 2511.08 171.683   7 
  -2  -4   1 2560.23 171.398   8 
  -2   4  -1 2555.84 167.945   8 
   3  -4   1 1429.20 97.3415   7 
  -3  -4  -1 1442.70 97.2611   8 
   3   4  -1 1594.51 96.5487   6 
   3   4  -1 1472.27 93.2418   7 
  -3   4   1 1407.30 101.285   7 
  -3  -4  -1 1565.73 99.1889   1 
  -3  -4  -1 1457.23 96.1422   6 
  -3  -4  -1 1465.25 90.9316   5 
  -3   4   1 1443.73 94.3100   8 
  -3   4   1 1655.13 103.106   1 
   3  -4   1 1387.85 98.7326   4 
   3  -4   1 1428.37 101.484   1 
  -3  -4  -1 1417.33 99.4973   1 
  -3   4   1 1434.73 100.003   1 
   3   4  -1 1517.02 99.2693   1 
   3   4  -1 1373.99 98.6321   1 
   3  -4   1 1378.54 93.7500   8 
  -3   4  -1 1301.83 99.1413   1 
   3  -4  -1 1283.18 95.1575   8 
   3  -4  -1 1442.24 102.282   1 
  -3  -4   1 1361.52 99.0033   1 
  -3  -4   1 1341.75 97.1902   8 
   3   4   1 1455.79 95.6183   6 
   3   4   1 1391.07 98.2498   1 
  -3  -4   1 1393.97 95.9673   6 
  -3   4  -1 1313.85 92.5526   8 
   3  -4  -1 1328.22 97.5812   7 
   3  -4  -1 1358.10 98.9282   4 
  -3   4  -1 1229.89 97.5602   7 
  -3   4  -1 1523.86 101.844   1 
  -4   4   1 1198.37 90.6727   1 
  -4   4   1 1286.06 84.0086   8 
  -4  -4  -1 1175.22 86.1363   6 
  -4  -4  -1 1226.09 87.7243   8 
   4  -4   1 1209.04 92.3151   1 
   4  -4   1 1301.75 88.1653   7 
   4   4  -1 1210.14 83.1500   7 
   4  -4   1 1218.99 90.4251   4 
  -4  -4  -1 1364.25 90.6818   1 
  -4  -4  -1 1212.81 90.7827   1 
   4   4  -1 1154.73 89.3272   1 
   4   4   1 1244.52 84.2694   7 
  -4  -4   1 1290.01 87.1064   6 
  -4   4  -1 1231.61 82.0414   8 
   4   4   1 1215.30 89.4990   1 
   4  -4  -1 1301.64 88.9209   7 
  -4  -4   1 1197.92 87.9131   8 
   4  -4  -1 1253.13 93.7626   1 
   4  -4  -1 1149.55 89.3955   4 
  -4  -4   1 1230.89 90.5915   1 
  -4   4  -1 1331.94 92.4233   1 
  -4  -4   1 1219.56 81.0799   5 
  -4   4  -1 1423.78 94.3860   1 
   5   4  -1 265.056 23.7575   7 
  -5   4   1 290.692 23.8302   8 
  -5  -4  -1 246.767 26.8515   6 
   5  -4   1 246.555 30.4583   4 
  -5  -4  -1 253.081 27.7315   8 
  -5  -4  -1 236.440 29.4832   1 
   5  -4   1 265.491 27.4773   7 
   5   4  -1 257.491 30.3162   1 
  -5   4   1 242.828 30.0458   1 
  -5  -4   1 267.459 30.9325   1 
  -5  -4   1 306.768 20.6257   5 
   5   4   1 279.875 24.5218   7 
   5   4   1 287.819 33.9204   1 
   5  -4  -1 278.213 33.3711   1 
  -5  -4   1 266.648 27.0382   6 
  -5  -4   1 279.414 28.6216   8 
   5  -4  -1 275.996 30.7306   4 
   5  -4  -1 313.121 28.9498   7 
  -5   4  -1 294.368 32.0483   1 
   6  -4   1 316.478 35.2719   4 
   6   4  -1 331.019 28.0900   7 
  -6  -4  -1 318.817 36.7561   1 
   6  -4   1 346.117 32.7291   7 
  -6  -4  -1 300.353 31.8089   6 
  -6  -4  -1 333.110 33.0598   8 
  -6   4   1 337.573 37.9983   1 
   6  -4  -1 288.791 34.8114   4 
  -6   4  -1 286.524 36.6374   1 
   6  -4  -1 291.166 31.6194   7 
  -6  -4   1 273.808 32.7847   8 
   6   4   1 300.557 28.4687   7 
  -7  -4  -1 395.197 39.6775   8 
   0  -5   1 2534.85 166.162   2 
   0  -5  -1 2494.88 166.662   3 
   0  -5  -1 2656.37 165.692   2 
   0   5   1 2802.82 168.209   1 
   0   5  -1 2685.84 164.763   6 
   0  -5  -1 2262.52 163.859   6 
   0  -5   1 2555.15 165.084   8 
   0  -5  -1 2423.46 166.786   1 
   0   5  -1 2770.78 168.120   1 
   0   5  -1 2436.26 166.739   1 
   0   5   1 2461.15 164.494   7 
   0   5   1 2382.92 166.555   1 
   0  -5  -1 2791.06 168.464   1 
   0   5   1 2765.44 165.116   6 
   0   5   1 2571.75 165.102   8 
   0  -5  -1 2534.26 165.311   8 
   0  -5   1 2493.05 167.083   1 
   0   5  -1 2353.35 163.654   7 
   0  -5   1 2104.08 163.618   6 
   0   5  -1 2564.06 164.922   8 
  -1  -5  -1 1030.23 71.2464   8 
   1   5  -1 1095.85 70.0378   6 
   1  -5   1 1028.48 71.0997   7 
  -1  -5  -1 1028.19 72.4768   1 
  -1  -5  -1 1171.65 73.6324   1 
   1  -5   1 1090.55 73.7385   1 
  -1   5   1 1014.30 72.1018   2 
   1  -5   1 1033.82 69.3054   8 
   1   5  -1 1086.56 72.7973   1 
  -1  -5  -1 1037.62 70.9877   2 
  -1   5   1 1073.59 70.1327   8 
  -1  -5  -1 1058.36 72.3354   3 
  -1   5   1 1175.17 71.3606   6 
   1   5  -1 1054.49 72.6990   1 
   1   5  -1 1074.64 68.6808   7 
  -1   5   1 978.453 70.2806   7 
  -1  -5  -1 949.589 69.3573   6 
  -1   5   1 1256.60 75.8643   1 
  -1   5   1 985.929 72.3689   1 
   1  -5  -1 925.484 69.5067   8 
  -1  -5   1 956.230 71.6942   1 
  -1  -5   1 976.660 70.7995   8 
   1  -5  -1 1089.63 73.7708   1 
  -1   5  -1 942.217 72.0709   2 
  -1   5  -1 909.401 69.7645   7 
  -1   5  -1 1076.30 70.6845   6 
   1  -5  -1 912.298 72.3063   1 
   1   5   1 1020.80 69.7375   6 
   1   5   1 908.380 71.3405   1 
  -1  -5   1 982.481 71.3568   2 
  -1  -5   1 1000.57 71.9804   3 
  -1  -5   1 983.451 69.6096   6 
  -1   5  -1 916.031 71.9478   1 
   1   5   1 1056.99 72.7335   1 
  -1   5  -1 1047.05 69.4769   8 
  -1   5  -1 1057.90 73.9123   1 
   1   5   1 1031.85 71.0534   8 
  -2   5   1 543.856 40.0808   1 
   2   5  -1 411.504 34.7559   1 
  -2  -5  -1 471.449 33.2226   6 
  -2  -5  -1 504.200 36.3576   1 
   2  -5   1 450.678 37.5250   1 
  -2  -5  -1 451.959 34.5382   8 
  -2   5   1 439.627 34.0962   7 
  -2   5   1 453.045 32.2612   8 
  -2   5   1 411.162 35.1057   2 
   2  -5   1 437.117 31.4116   8 
   2   5  -1 471.479 33.1849   6 
  -2  -5  -1 492.025 36.7127   1 
   2   5  -1 485.261 36.3741   1 
  -2   5   1 441.558 36.4912   1 
   2  -5   1 424.094 34.5789   7 
  -2   5  -1 380.653 35.2514   2 
  -2   5  -1 387.229 35.3849   1 
  -2   5  -1 450.605 37.8385   1 
   2   5   1 399.728 34.6953   1 
  -2   5  -1 403.471 30.9617   8 
   2  -5  -1 379.868 36.3172   1 
  -2  -5   1 369.834 34.1802   3 
   2  -5  -1 401.359 32.1673   8 
  -2  -5   1 376.560 32.1272   6 
   2  -5  -1 403.485 34.7625   7 
  -2   5  -1 433.400 33.9329   6 
  -2   5  -1 357.099 33.0967   7 
  -2  -5   1 383.281 34.8261   1 
   2   5   1 404.146 32.2490   6 
   2   5   1 431.432 33.6477   8 
  -2  -5   1 421.903 34.3163   8 
  -3  -5  -1 354.028 28.7346   1 
   3  -5   1 294.515 27.0829   7 
  -3  -5  -1 278.996 24.8315   6 
   3  -5   1 282.071 28.9098   1 
   3  -5   1 257.359 22.2675   8 
  -3   5   1 264.818 22.7100   8 
   3   5  -1 313.882 25.1201   6 
   3   5  -1 270.017 27.1745   1 
  -3  -5  -1 293.358 26.2804   8 
  -3   5   1 261.292 27.6715   1 
  -3  -5  -1 271.334 27.7106   1 
  -3  -5   1 294.244 28.0290   1 
  -3   5  -1 329.381 30.7224   1 
  -3   5  -1 262.505 27.4653   1 
   3  -5  -1 285.915 29.2858   1 
   3   5   1 284.823 24.2233   6 
   3  -5  -1 262.903 26.8230   7 
   3  -5  -1 255.376 23.6233   8 
  -3   5  -1 275.375 21.6884   8 
  -3  -5   1 287.909 24.9945   6 
  -3  -5   1 272.271 26.1602   8 
   3  -5  -1 265.255 27.1946   4 
   3   5   1 262.099 26.3837   1 
   4  -5   1 1201.24 78.9380   7 
  -4  -5  -1 1105.73 78.2090   8 
  -4   5   1 1165.21 73.8733   8 
  -4   5   1 1072.28 80.4241   1 
  -4  -5  -1 1134.53 76.7234   6 
  -4  -5  -1 1140.33 68.7964   5 
   4  -5   1 1039.84 79.7234   4 
  -4  -5  -1 1180.18 82.1843   1 
   4   5  -1 1164.30 81.1263   1 
   4   5  -1 1200.23 72.9790   7 
   4  -5   1 1187.38 83.8793   1 
  -4   5  -1 970.615 80.2074   1 
   4  -5  -1 975.689 79.4512   4 
  -4  -5   1 1050.82 70.3809   5 
  -4  -5   1 976.525 75.6927   6 
   4  -5  -1 1065.72 78.3325   7 
   4   5   1 1026.29 73.1766   7 
   4  -5  -1 986.270 82.0646   1 
  -4  -5   1 990.284 79.7541   1 
  -4  -5   1 943.165 77.1207   8 
  -4   5  -1 970.021 71.2116   8 
   4   5   1 988.130 78.8663   1 
   5   5  -1 822.909 67.0831   1 
   5   5  -1 849.215 58.0017   7 
  -5  -5  -1 804.932 67.2625   1 
   5  -5   1 893.943 64.4886   7 
  -5   5   1 742.341 66.2743   1 
  -5  -5  -1 840.983 62.8522   6 
  -5  -5  -1 832.964 63.7395   8 
   5  -5   1 776.166 65.5393   4 
  -5  -5   1 830.154 67.7012   1 
   5  -5  -1 787.820 66.4389   4 
  -5   5  -1 701.468 66.4316   1 
   5  -5  -1 871.062 64.8517   7 
   5   5   1 847.900 59.2788   7 
  -5  -5   1 872.758 65.3496   8 
  -5  -5   1 815.896 62.3239   6 
   6  -5   1 848.652 69.5203   7 
  -6  -5  -1 744.792 67.0544   6 
  -6  -5  -1 734.277 67.6736   8 
   6   5   1 944.617 64.7699   7 
   6  -5  -1 988.779 71.1113   7 
  -6   5  -1 965.526 76.7001   1 
  -6  -5   1 932.474 71.1940   8 
   0  -6  -1 1126.26 77.1803   2 
   0   6  -1 1198.95 76.9208   8 
   0   6   1 1032.56 75.6870   7 
   0  -6  -1 1181.57 76.3673   6 
   0   6  -1 1192.09 76.4339   6 
   0  -6  -1 1070.08 78.2665   3 
   0  -6  -1 1073.23 79.0199   1 
   0   6   1 1018.73 78.1158   1 
   0  -6  -1 1080.55 76.7972   8 
   0   6  -1 1026.29 78.1347   1 
   0  -6  -1 1236.44 80.9532   1 
   0   6  -1 1174.42 79.9399   1 
   0   6  -1 1038.16 75.1079   7 
   0   6   1 1163.02 76.9081   8 
   0  -6   1 1092.44 76.4444   8 
   0  -6   1 1007.93 75.2513   6 
   0  -6   1 1090.12 78.9793   1 
   0   6   1 1209.10 76.7609   6 
  -1  -6  -1 969.330 68.8213   6 
  -1   6   1 941.495 69.5240   7 
   1  -6   1 945.049 69.9389   7 
  -1   6   1 936.200 71.7739   1 
  -1  -6  -1 1161.81 73.9644   1 
  -1   6   1 1007.11 69.2636   8 
   1  -6   1 951.288 68.3021   8 
  -1   6   1 1111.67 70.7553   6 
  -1  -6  -1 975.385 71.9200   1 
  -1  -6  -1 967.140 71.6342   3 
   1  -6   1 941.179 72.4919   1 
   1   6  -1 1043.51 69.2022   6 
   1   6  -1 946.215 71.5776   1 
  -1  -6  -1 981.600 70.5152   8 
   1   6  -1 941.570 67.3130   7 
  -1  -6  -1 1011.69 70.7433   2 
   1   6  -1 1023.65 72.4313   1 
  -1   6   1 886.744 70.8252   2 
  -1   6  -1 950.098 72.0175   2 
   1   6   1 979.965 71.6018   1 
  -1   6  -1 919.510 71.7416   1 
   1   6   1 1085.85 69.5248   6 
  -1   6  -1 930.988 69.1002   7 
  -1  -6   1 994.066 72.0530   1 
  -1   6  -1 1074.67 70.1601   6 
   1  -6  -1 1018.51 69.4164   8 
  -1   6  -1 1156.40 75.2512   1 
  -1   6  -1 1017.91 68.8391   8 
  -1  -6   1 993.567 68.8890   6 
  -1  -6   1 1016.90 71.9701   3 
  -1  -6   1 989.905 70.2541   8 
   1  -6  -1 1004.10 72.8712   1 
   1   6   1 1064.36 70.7264   8 
   2  -6   1 522.414 37.7543   8 
  -2   6   1 513.659 42.8425   1 
  -2   6   1 640.167 42.3924   6 
   2   6  -1 570.102 39.7086   6 
   2   6  -1 527.480 42.6218   1 
  -2  -6  -1 551.366 42.2519   3 
   2  -6   1 546.026 41.7821   7 
  -2  -6  -1 560.171 39.7799   6 
  -2  -6  -1 612.272 45.2868   1 
   2  -6   1 549.120 44.3862   1 
  -2   6   1 573.193 39.0666   8 
  -2   6   1 511.232 42.3704   2 
  -2  -6  -1 559.417 41.5855   8 
  -2  -6  -1 521.017 42.4246   1 
  -2  -6   1 471.958 38.9127   6 
  -2  -6   1 443.888 41.1266   1 
  -2   6  -1 438.872 41.5423   1 
  -2  -6   1 460.378 41.0918   3 
   2  -6  -1 469.686 41.1860   7 
   2  -6  -1 455.174 42.8079   1 
   2  -6  -1 451.379 38.1843   8 
  -2   6  -1 453.033 41.9851   2 
  -2   6  -1 489.419 37.4236   8 
  -2   6  -1 587.225 41.4887   6 
   2   6   1 447.640 41.0875   1 
  -2  -6   1 467.910 40.4303   8 
  -2   6  -1 548.817 45.6177   1 
   2   6   1 507.328 39.0688   6 
   3  -6   1 2055.97 136.247   7 
  -3  -6  -1 2111.51 139.135   1 
   3  -6   1 1941.24 131.167   8 
  -3   6   1 2007.35 138.501   1 
   3  -6   1 2183.94 141.285   1 
   3   6  -1 2155.99 134.031   6 
  -3  -6  -1 2017.49 135.949   8 
  -3   6   1 2006.03 137.905   2 
  -3  -6  -1 2066.19 134.176   6 
  -3   6   1 2091.28 132.315   8 
   3   6  -1 1872.32 136.621   1 
   3  -6  -1 1973.44 140.392   1 
  -3   6  -1 2265.34 142.469   1 
   3   6   1 1781.88 135.857   1 
  -3  -6   1 1888.27 135.735   8 
   3  -6  -1 1896.04 136.360   7 
   3  -6  -1 1875.90 132.558   8 
  -3  -6   1 1966.73 133.903   6 
  -3   6  -1 1878.04 137.327   2 
   3   6   1 2100.83 133.949   6 
  -3   6  -1 1938.22 138.484   1 
  -3  -6   1 1916.72 137.640   1 
  -3   6  -1 1933.25 130.682   8 
   4   6  -1 338.292 25.9290   7 
  -4  -6  -1 320.241 34.3641   1 
  -4  -6  -1 321.346 30.3769   6 
   4  -6   1 308.867 32.5928   4 
   4  -6   1 324.380 26.7915   8 
  -4   6   1 350.097 35.6790   1 
   4  -6   1 359.219 32.7550   7 
  -4  -6  -1 304.346 31.3162   8 
  -4   6   1 341.280 27.4612   8 
   4   6  -1 295.778 33.1234   1 
  -4  -6   1 318.633 33.8173   1 
  -4  -6   1 345.461 24.3552   5 
   4  -6  -1 318.738 28.2719   8 
   4  -6  -1 317.760 33.7962   4 
   4  -6  -1 331.208 36.0583   1 
   4  -6  -1 330.422 32.4020   7 
  -4   6  -1 322.715 34.6079   1 
   4   6   1 297.562 32.5308   1 
  -4  -6   1 312.645 29.8158   6 
  -4  -6   1 334.410 32.3629   8 
  -4   6  -1 331.475 28.1436   8 
   5  -6   1 205.487 27.6242   4 
  -5  -6  -1 177.031 27.4968   1 
  -5  -6  -1 182.644 26.2187   8 
  -5   6   1 193.404 28.4511   1 
   5  -6   1 217.063 26.2463   7 
  -5  -6  -1 207.129 24.6320   6 
   5   6   1 241.940 21.6292   7 
   5  -6  -1 194.840 27.0330   4 
  -5   6  -1 234.628 31.1493   1 
   5  -6  -1 243.667 27.5255   7 
  -5  -6   1 198.139 27.3073   8 
  -6   6  -1 185.328 30.0483   1 
   0   7  -1 4216.72 245.643   6 
   0   7   1 3504.35 244.034   7 
   0  -7   1 3100.06 243.249   6 
   0   7   1 4124.66 245.556   6 
   0  -7  -1 3826.74 248.688   1 
   0  -7  -1 3612.48 245.307   8 
   0   7  -1 4062.52 249.940   1 
   0  -7   1 3778.54 248.345   3 
   0   7  -1 3477.44 243.327   7 
   0   7  -1 3920.10 245.482   8 
   0   7  -1 3507.11 247.387   1 
   0  -7   1 3796.05 245.497   8 
   0   7   1 3553.65 247.962   1 
   0  -7  -1 3947.86 248.841   3 
   0  -7   1 3764.21 248.233   1 
   0  -7  -1 4087.31 245.387   6 
  -1   7   1 581.694 40.9253   6 
   1   7  -1 487.617 41.7250   1 
  -1  -7  -1 509.019 38.9977   6 
   1   7  -1 546.219 39.3879   6 
   1  -7   1 527.209 43.7286   1 
  -1   7   1 493.270 42.3140   1 
  -1   7   1 470.887 41.5445   2 
  -1   7   1 512.602 39.1800   8 
   1  -7   1 499.470 38.6689   8 
  -1  -7  -1 504.152 40.8966   8 
  -1  -7  -1 491.829 41.8367   3 
   1   7  -1 506.809 37.3925   7 
  -1  -7  -1 477.496 41.9538   1 
   1   7   1 464.044 41.1269   1 
  -1  -7   1 500.856 42.3779   3 
  -1   7  -1 532.140 39.0844   8 
   1   7   1 515.145 39.0443   6 
  -1   7  -1 562.146 40.5799   6 
   1  -7  -1 481.241 38.9193   8 
  -1  -7   1 494.512 40.2977   8 
  -1   7  -1 471.173 41.9604   1 
   1   7   1 486.049 38.0334   7 
  -1   7  -1 588.952 45.6211   1 
  -1   7  -1 454.565 41.7616   2 
   1  -7  -1 465.731 42.4251   1 
  -1  -7   1 494.791 38.8246   6 
  -1  -7   1 493.168 41.9474   1 
  -2   7   1 274.313 29.4764   2 
  -2   7   1 285.796 25.0993   8 
   2  -7   1 271.391 23.9946   8 
   2   7  -1 275.017 22.9585   7 
  -2  -7  -1 279.573 29.0316   1 
  -2  -7  -1 281.268 28.1342   3 
   2  -7   1 289.503 30.2897   1 
  -2  -7  -1 270.185 25.5859   6 
   2  -7   1 254.145 26.9900   7 
  -2   7   1 286.153 29.5388   1 
   2   7  -1 280.604 28.8113   1 
  -2  -7  -1 266.253 27.1574   8 
   2   7  -1 317.435 26.3554   6 
   2  -7  -1 291.430 30.4652   1 
  -2  -7   1 264.180 27.0541   8 
  -2   7  -1 296.205 24.4776   8 
   2  -7  -1 269.593 25.0737   8 
  -2  -7   1 279.354 25.5315   6 
  -2  -7   1 279.248 28.9168   1 
  -2   7  -1 270.700 28.9382   1 
   2   7   1 312.313 26.0918   6 
  -2  -7   1 267.835 27.8693   3 
  -2   7  -1 260.893 29.8154   2 
  -2   7  -1 353.716 38.3250   1 
   2   7   1 267.690 28.0493   1 
  -2   7  -1 315.800 27.1342   6 
  -3  -7  -1 145.289 18.0441   6 
  -3   7   1 133.856 20.3404   2 
  -3  -7  -1 147.109 19.7887   8 
   3   7  -1 136.388 20.6412   1 
  -3   7   1 133.098 21.3267   1 
  -3   7   1 126.328 15.7484   8 
   3  -7   1 135.272 15.8807   8 
  -3  -7  -1 132.559 20.9975   1 
   3  -7   1 136.454 20.2100   7 
  -3   7  -1 184.067 23.1455   2 
   3   7   1 155.126 21.2986   1 
  -3  -7   1 157.143 20.8579   8 
  -3   7  -1 160.878 22.4611   1 
  -3  -7   1 153.812 21.8029   1 
   3  -7  -1 149.118 16.9364   8 
   3  -7  -1 148.929 22.7043   1 
   3  -7  -1 140.232 20.3300   7 
   3   7   1 180.140 18.8075   6 
  -3  -7   1 163.389 18.8655   6 
  -3   7  -1 169.278 15.9584   8 
  -4   7   1 1000.43 78.7043   2 
   4  -7   1 1077.69 77.3783   7 
  -4  -7  -1 1034.14 80.1498   1 
  -4  -7  -1 1002.92 76.8596   8 
  -4   7   1 984.424 79.2950   1 
  -4  -7  -1 1044.69 74.7705   6 
   4   7  -1 977.079 78.3848   1 
   4  -7   1 1003.96 78.2503   4 
   4  -7  -1 962.574 72.1947   8 
  -4  -7   1 1017.70 84.1243   6 
  -4   7  -1 975.807 78.5666   2 
   4  -7  -1 1035.56 79.1399   4 
  -4   7  -1 1022.72 79.9745   1 
   4  -7  -1 1039.83 77.8257   7 
  -4  -7   1 992.222 77.0295   8 
   5  -7   1 373.862 37.0864   7 
  -5   7  -1 343.603 38.9793   2 
  -5   7  -1 321.614 38.1716   1 
   5  -7  -1 402.941 39.0444   7 
   0  -8  -1 620.056 48.1286   8 
   0  -8  -1 567.819 49.9747   1 
   0  -8   1 564.060 49.6720   1 
   0  -8   1 621.390 51.4691   3 
   0  -8   1 622.369 47.9971   8 
   0   8   1 738.581 49.1085   6 
   0  -8  -1 604.083 51.0496   3 
   0   8   1 543.102 49.6782   1 
   0   8  -1 592.642 50.6149   1 
   0   8  -1 678.952 54.4082   6 
   1   8  -1 950.354 66.3721   7 
  -1   8   1 849.369 71.0173   2 
   1   8  -1 876.882 71.0435   1 
  -1  -8  -1 987.313 72.3651   3 
  -1  -8  -1 965.305 70.6933   8 
  -1   8   1 1092.14 73.1659   6 
  -1  -8  -1 861.278 67.7167   6 
   1  -8   1 881.853 67.5827   8 
   1  -8   1 949.501 73.2197   1 
  -1  -8  -1 920.606 72.1349   1 
  -1   8   1 884.001 71.3327   1 
  -1  -8   1 978.727 72.5476   3 
   1   8   1 1045.82 68.9199   6 
  -1  -8   1 986.317 68.4826   6 
   1  -8  -1 928.318 73.3115   1 
  -1  -8   1 1002.83 72.7538   1 
   1  -8  -1 953.568 68.7317   8 
  -1   8  -1 951.428 72.4744   1 
  -1  -8   1 987.020 70.2742   8 
   1   8   1 918.821 71.3449   1 
  -1   8  -1 921.196 72.7013   2 
   2   8  -1 27.1977 12.3570   1 
  -2  -8  -1 28.9326 13.1296   8 
  -2   8   1 30.7702 12.7292   2 
  -2   8   1 34.0066 13.5971   1 
   2  -8   1 36.2060 9.75067   8 
  -2  -8  -1 34.4515 14.4888   3 
  -2  -8  -1 26.9644 11.1607   6 
   2   8  -1 46.3933 13.5664   7 
  -2  -8  -1 30.8456 13.6329   1 
   2  -8  -1 46.1136 14.6406   1 
   2   8   1 60.1278 15.1355   1 
  -2  -8   1 52.2747 15.2661   3 
  -2  -8   1 44.1051 13.9697   1 
  -2  -8   1 53.7798 12.3161   6 
   2  -8  -1 47.3604 11.4110   8 
  -2   8  -1 49.3139 16.2598   2 
  -2   8  -1 51.9940 15.1372   1 
  -2   8  -1 57.8288 10.9233   8 
  -2  -8   1 47.5900 13.0333   8 
   3  -8   1 1110.45 79.3980   8 
  -3  -8  -1 1198.61 88.2418   1 
  -3   8   1 1103.10 87.0711   2 
  -3   8   1 1196.47 87.8943   1 
  -3  -8  -1 1118.81 82.0692   6 
   3  -8   1 1163.59 85.4504   7 
  -3  -8  -1 1128.63 84.6528   8 
   3   8  -1 1146.23 87.3051   1 
  -3   8  -1 1128.96 87.3128   1 
  -3   8  -1 1132.00 87.6722   2 
  -3  -8   1 1144.13 84.6364   8 
   3  -8  -1 1102.69 80.4456   8 
  -4   8   1 151.795 23.9347   2 
   4  -8   1 165.557 23.6989   7 
   4  -8  -1 159.934 24.4327   7 
  -4   8  -1 156.744 25.2126   1 
  -4   8  -1 162.794 25.3812   2 
  -5   8   1 135.864 25.7636   2 
  -5   8  -1 124.150 27.4836   2 
   0  -9   1 2138.87 146.818   8 
   0  -9  -1 2143.26 151.366   1 
   0  -9  -1 2183.07 151.906   3 
   0  -9   1 2220.22 152.360   3 
   0  -9  -1 2194.84 147.779   8 
   0   9  -1 2127.83 151.055   1 
   0   9   1 2131.10 150.681   1 
  -1  -9  -1 282.062 29.5629   8 
   1   9  -1 270.396 30.5628   1 
  -1  -9  -1 259.879 30.7241   3 
  -1  -9  -1 263.169 26.7903   6 
  -1   9   1 255.657 30.2924   1 
  -1  -9  -1 269.100 30.6595   1 
   1  -9   1 281.605 27.2014   8 
  -1  -9   1 289.882 32.1661   3 
   1  -9  -1 284.511 27.4542   8 
   1  -9  -1 267.989 31.5615   3 
  -1   9  -1 284.876 31.6034   1 
  -1  -9   1 289.939 29.0122   8 
  -2   9   1 287.574 45.7318   1 
  -2  -9  -1 293.612 32.9320   3 
  -2   9   1 286.744 33.3900   2 
  -2  -9  -1 274.547 30.9086   8 
   2  -9   1 293.925 27.3058   8 
   2   9  -1 278.374 32.2974   1 
  -2  -9   1 292.777 30.8294   8 
  -2   9  -1 291.602 33.6842   2 
   2  -9  -1 302.754 28.1659   8 
  -2  -9   1 305.346 33.5044   3 
  -2   9  -1 282.494 32.3061   1 
  -3   9   1 206.210 27.8838   2 
  -3   9  -1 190.019 27.5468   1 
  -3   9  -1 184.741 27.4506   2 
   3  -9  -1 165.093 21.0799   8 
  -4   9   1 694.816 61.0218   2 
  -4   9  -1 630.485 59.6439   2 
   0 -10  -1 265.253 29.2181   8 
   0 -10   1 281.651 28.8546   8 
   0 -10  -1 275.574 33.9136   3 
   0 -10   1 269.090 34.8620   3 
   1 -10   1 402.393 37.3697   8 
  -1 -10  -1 415.239 42.8187   3 
   1 -10   1 435.487 45.2688   3 
  -1  10  -1 438.516 47.8882   1 
   1 -10  -1 437.405 45.3440   3 
   1 -10  -1 416.752 38.5844   8 
  -1 -10   1 414.334 44.0954   8 
  -1 -10   1 444.933 44.3933   3 
  -2  10   1 59.4771 20.9172   2 
  -2 -10  -1 60.5229 20.4172   3 
   2 -10   1 70.7562 15.1368   8 
   2 -10  -1 102.215 17.4806   8 
  -2  10  -1 94.8158 22.0020   2 
  -2 -10   1 106.470 23.2486   3 
  -3  10   1 1208.83 96.1902   2 
  -3  10  -1 1224.47 97.3676   2 
   0 -11  -1 1451.63 111.003   3 
   0 -11   1 1440.02 111.209   3 
   1 -11   1 269.780 38.7388   3 
  -1 -11  -1 264.635 36.3992   3 
   1 -11  -1 322.267 40.1725   3 
  -1 -11   1 327.568 38.3985   3 
  -2 -11  -1 183.624 30.1974   3 
  -2 -11   1 190.293 31.2216   3 
   2 -11  -1 146.097 28.8291   3 
   0 -12   1 90.2386 27.8302   3 
   0 -12  -1 89.5368 26.9182   3 
   1 -12   1 241.840 38.2258   3 
  -1 -12  -1 224.325 34.6829   3 
  -1 -12   1 229.233 36.3451   3 
   1 -12  -1 214.981 37.2207   3 
   0   0   2 5194.56 464.728   2 
   0   0   2 7189.14 408.696   8 
  -1   0  -2 1125.35 94.7863   1 
  -1   0   2 1507.71 96.1854   1 
   1   0  -2 1461.53 96.2303   7 
  -1   0  -2 1525.40 98.9834   1 
   1   0   2 1604.71 98.0632   7 
   1   0   2 1564.69 98.3034   4 
   1   0   2 1548.05 98.1981   8 
   1   0  -2 1381.47 96.0480   1 
  -1   0   2 1332.87 95.9822   7 
   1   0  -2 1385.90 94.7578   5 
  -1   0   2 1427.92 94.7748   5 
   1   0   2 1930.90 100.381   1 
  -1   0   2 1432.31 96.0651   4 
  -1   0  -2 1508.72 99.4156   4 
  -1   0  -2 1441.64 97.6047   8 
   1   0   2 1525.34 100.106   1 
  -2   0  -2 731.141 47.5547   4 
  -2   0   2 620.019 46.9724   7 
   2   0   2 668.111 47.5046   4 
  -2   0   2 731.498 49.2063   4 
   2   0  -2 631.608 46.1242   5 
  -2   0   2 660.194 46.1495   5 
   2   0   2 753.442 47.8523   7 
   2   0  -2 778.011 49.3812   1 
  -2   0   2 736.402 49.5153   1 
  -2   0  -2 728.224 45.8823   8 
   2   0  -2 622.881 48.9228   1 
  -2   0  -2 706.816 47.9813   7 
  -2   0  -2 666.545 48.2649   1 
   2   0   2 736.602 48.5176   1 
   2   0  -2 698.259 47.0074   7 
  -3   0   2 2804.38 178.667   4 
   3   0   2 2916.48 176.790   7 
  -3   0  -2 2914.24 179.325   1 
  -3   0  -2 2776.63 176.964   4 
   3   0  -2 2386.63 173.991   5 
  -3   0   2 3040.13 180.179   1 
   3   0  -2 2915.34 178.967   1 
  -3   0  -2 2622.50 176.579   8 
  -3   0  -2 2625.38 176.775   7 
   3   0  -2 2416.87 178.551   1 
  -3   0   2 2661.89 174.204   5 
   3   0  -2 2656.37 175.603   7 
   3   0   2 2669.94 178.028   1 
  -3   0   2 2618.67 176.127   7 
  -4   0  -2 853.335 58.3589   8 
   4   0  -2 814.956 64.3233   1 
   4   0  -2 823.978 59.7829   7 
   4   0   2 738.303 56.2840   5 
  -4   0   2 719.892 59.7722   7 
  -4   0  -2 913.605 64.6601   1 
   4   0   2 881.486 61.0391   7 
   4   0  -2 1049.36 65.2553   1 
  -4   0  -2 930.823 62.4729   4 
  -4   0   2 969.750 64.9888   4 
   4   0   2 813.197 62.8142   1 
  -4   0  -2 793.888 61.1532   7 
  -5   0  -2 61.4006 14.3270   1 
   5   0  -2 53.5251 14.0143   1 
   5   0   2 54.5835 11.5691   7 
  -5   0  -2 59.3023 9.54707   8 
   5   0   2 53.0484 12.5743   1 
   5   0  -2 64.3291 11.8261   7 
  -5   0  -2 61.6570 13.0739   4 
   6   0   2 1912.39 126.761   7 
   6   0  -2 1826.17 124.859   7 
  -6   0  -2 1883.80 123.149   8 
   6   0  -2 1715.64 132.445   1 
  -7   0  -2 286.806 34.1387   6 
   7   0   2 348.118 33.5928   7 
   7   0  -2 364.672 32.5813   7 
   0  -1  -2 3115.86 212.281   8 
   0   1   2 3457.44 209.922   3 
   0   1  -2 3376.26 208.349   7 
   0   1   2 2763.11 210.617   1 
   0  -1   2 3484.74 211.483   1 
   0  -1  -2 3414.15 209.181   3 
   0  -1  -2 2370.47 212.112   1 
   0   1  -2 3074.76 213.132   2 
   0   1  -2 3169.77 210.692   1 
   0  -1   2 3562.49 209.405   7 
   0  -1   2 3530.60 210.831   1 
   0  -1   2 3051.59 209.240   2 
   0   1   2 3085.76 208.568   5 
   0   1  -2 3631.69 209.042   6 
   0   1   2 3228.76 208.821   6 
   0  -1  -2 3629.70 210.249   6 
   0  -1  -2 3114.60 208.752   5 
   0   1   2 3706.73 213.052   1 
   0   1  -2 2733.56 208.201   1 
   0   1   2 3304.22 212.515   8 
   0   1   2 2876.47 240.132   2 
   0  -1  -2 3023.16 211.552   1 
   1  -1   2 706.750 40.3134   7 
   1  -1   2 631.370 40.1974   1 
  -1   1   2 699.278 42.0256   1 
  -1   1   2 683.761 40.9961   4 
   1   1  -2 619.809 38.5521   7 
  -1  -1  -2 650.952 39.5141   8 
  -1   1   2 619.349 39.2173   5 
  -1   1   2 540.026 40.0506   1 
  -1   1   2 595.087 39.7098   7 
  -1  -1  -2 679.390 39.2462   6 
  -1   1   2 649.090 40.4587   8 
   1   1  -2 616.028 39.4598   3 
   1   1  -2 675.217 40.8050   1 
   1  -1   2 677.518 39.9148   1 
  -1  -1  -2 629.882 40.1794   1 
  -1  -1   2 565.317 39.1665   6 
   1  -1  -2 542.466 39.5615   7 
  -1  -1   2 535.028 37.9223   7 
   1   1   2 587.289 38.9375   6 
   1  -1  -2 543.163 41.2518   1 
  -1   1  -2 543.350 39.9978   1 
  -1   1  -2 551.420 39.8131   7 
   1  -1  -2 498.480 38.9143   5 
  -1  -1   2 594.130 40.2622   1 
   1  -1  -2 555.619 40.5699   1 
  -1   1  -2 532.546 39.7925   1 
   1   1   2 515.656 37.6253   5 
   1  -1  -2 560.314 40.3720   8 
   1  -1  -2 556.944 40.2511   4 
   1   1   2 543.348 39.1089   8 
   1   1   2 572.846 39.4912   1 
  -1  -1   2 490.592 39.2741   3 
  -1  -1   2 588.198 40.2113   1 
  -2  -1  -2 191.088 15.0424   8 
   2   1  -2 172.926 16.9153   1 
  -2   1   2 176.055 16.5954   1 
   2  -1   2 181.391 15.9838   7 
   2   1  -2 175.963 14.3932   7 
   2  -1   2 221.319 16.5600   1 
  -2  -1  -2 187.308 15.3263   6 
  -2  -1  -2 187.281 18.0585   1 
  -2   1   2 205.699 16.2362   8 
  -2   1   2 199.136 17.7960   1 
   2  -1   2 180.766 16.4350   1 
  -2   1   2 195.166 17.2780   4 
   2  -1   2 198.021 16.4878   4 
  -2   1   2 168.479 15.7077   7 
   2  -1  -2 196.339 14.8259   5 
   2   1   2 182.149 12.6240   5 
   2   1   2 204.271 15.6532   7 
  -2  -1   2 186.264 14.1650   5 
  -2  -1   2 198.402 14.5130   7 
  -2   1  -2 157.327 15.9666   1 
  -2  -1   2 226.573 17.8293   1 
   2  -1  -2 201.494 16.0697   7 
   2  -1  -2 199.861 17.2224   4 
   2  -1  -2 220.276 17.3408   1 
  -2  -1   2 192.737 16.8529   1 
   2   1   2 202.250 16.3767   1 
  -2   1  -2 195.338 16.4478   7 
   2  -1  -2 201.392 18.1421   1 
  -3  -1  -2 2940.04 188.557   8 
  -3   1   2 3116.32 192.819   4 
   3   1  -2 2781.17 188.335   7 
  -3   1   2 3209.24 190.251   8 
   3  -1   2 2787.05 191.564   1 
  -3   1   2 2366.68 190.574   1 
   3  -1   2 2732.79 190.382   4 
   3   1  -2 3038.36 192.330   1 
   3   1  -2 2660.50 187.242   5 
   3   1  -2 2776.43 192.554   1 
  -3  -1  -2 3127.40 192.335   1 
  -3   1   2 3411.09 194.724   1 
  -3  -1  -2 2922.80 189.802   6 
  -3   1   2 2694.19 190.270   7 
  -3  -1  -2 3079.01 190.357   4 
   3  -1   2 2897.50 190.193   7 
  -3   1  -2 3334.35 193.825   1 
  -3   1  -2 3100.97 190.927   4 
  -3  -1   2 2688.70 188.304   7 
   3  -1  -2 2747.28 191.815   4 
   3  -1  -2 3098.37 192.372   1 
  -3   1  -2 2900.39 191.020   7 
  -3   1  -2 2772.73 191.683   1 
   3   1   2 3036.75 189.669   7 
  -3  -1   2 2877.36 192.227   1 
   3  -1  -2 2901.23 193.501   1 
   3   1   2 2945.16 191.410   1 
   3   1   2 2635.26 186.805   5 
   3  -1  -2 2914.53 189.940   7 
  -3  -1   2 3291.66 193.266   1 
  -3  -1   2 2969.81 187.350   5 
  -4   1   2 684.235 57.3588   7 
   4   1  -2 832.746 60.5791   1 
  -4   1   2 871.637 57.6001   8 
  -4  -1  -2 825.445 58.4880   4 
   4  -1   2 757.091 57.3379   7 
  -4  -1  -2 885.195 61.3192   1 
  -4  -1  -2 797.017 55.9204   8 
   4  -1   2 733.042 58.5096   4 
  -4  -1  -2 787.589 57.6180   6 
   4  -1   2 732.388 59.4071   1 
   4   1  -2 757.672 55.7375   7 
   4   1  -2 748.926 60.5184   1 
  -4   1   2 685.529 59.4389   1 
   4   1   2 796.981 59.5209   1 
  -4   1  -2 914.805 62.5282   1 
   4  -1  -2 919.936 61.0937   1 
   4   1   2 725.657 52.3287   5 
  -4   1  -2 878.300 59.3321   4 
  -4  -1   2 859.964 61.3191   1 
   4   1   2 825.508 57.0196   7 
  -4  -1   2 889.904 60.9140   4 
   4  -1  -2 810.586 62.0138   1 
  -4   1  -2 786.463 59.2450   7 
  -4  -1   2 760.419 56.0551   7 
  -4  -1   2 865.131 54.3629   5 
  -4   1  -2 690.400 59.0621   1 
   4  -1  -2 819.385 57.2640   7 
   5   1  -2 97.1478 12.9416   7 
  -5  -1  -2 119.868 18.1435   1 
  -5  -1  -2 102.353 15.0860   4 
   5  -1   2 110.753 15.1523   7 
  -5   1   2 124.910 14.8456   8 
  -5  -1  -2 105.147 12.8461   8 
   5   1  -2 86.5162 16.6725   1 
  -5  -1  -2 93.3740 14.9442   6 
   5  -1   2 95.1147 16.3193   1 
  -5   1  -2 82.4010 16.7560   1 
  -5  -1   2 79.5620 15.6568   1 
   5   1   2 78.6872 12.8996   7 
  -5   1  -2 75.9316 10.1904   8 
  -5  -1   2 67.1345 11.9827   7 
   5  -1  -2 74.8844 12.6312   7 
   5  -1  -2 72.0100 16.6553   1 
   5   1   2 69.7974 8.13810   5 
   5   1   2 66.2113 13.6666   1 
  -6  -1  -2 780.321 65.1363   6 
   6   1  -2 776.568 69.6124   1 
  -6  -1  -2 882.676 62.9075   8 
   6   1  -2 879.263 63.1247   7 
  -6  -1  -2 795.235 69.7914   1 
   6  -1   2 869.569 65.2675   7 
  -6  -1   2 884.526 66.7158   6 
  -6   1  -2 928.191 62.6327   8 
   6  -1  -2 958.456 65.2943   7 
  -6  -1   2 800.994 69.1758   1 
   6  -1  -2 843.609 72.1745   1 
   6   1   2 926.752 64.8222   7 
   7   1  -2 591.507 47.9888   7 
  -7  -1  -2 480.707 49.7421   6 
   7  -1   2 622.990 50.6024   7 
  -7  -1  -2 510.317 55.1738   1 
   7   1   2 677.754 51.1971   7 
   7  -1  -2 679.763 50.1694   7 
   0  -2   2 2061.44 127.523   6 
   0  -2   2 2067.92 128.835   1 
   0  -2  -2 1907.86 127.783   2 
   0  -2   2 2377.08 135.839   1 
   0  -2   2 1975.21 128.197   7 
   0  -2  -2 1984.43 125.011   8 
   0   2  -2 1847.26 125.245   2 
   0  -2  -2 1908.56 127.484   3 
   0   2   2 1950.30 125.375   1 
   0   2  -2 1737.26 127.292   1 
   0  -2   2 2041.96 124.504   8 
   0   2   2 2025.46 125.026   8 
   0  -2   2 1998.36 125.522   2 
   0   2   2 1842.22 127.269   2 
   0   2   2 2663.42 129.706   6 
   0   2  -2 1972.42 127.820   7 
   0  -2  -2 1291.98 124.268   1 
   0  -2  -2 1341.41 123.522   6 
  -1   2   2 4328.34 309.248   7 
   1  -2   2 4457.25 316.848   1 
   1  -2   2 4689.21 314.344   1 
   1  -2   2 4642.48 311.596   7 
  -1  -2  -2 3132.67 304.578   6 
  -1  -2  -2 4579.77 316.297   1 
  -1   2   2 6453.37 321.150   1 
  -1   2   2 4805.51 303.350   8 
  -1   2   2 4398.67 314.088   1 
   1  -2   2 4476.16 303.877   8 
   1   2  -2 4262.45 307.361   6 
   1   2  -2 4454.59 314.917   1 
   1   2  -2 5456.89 316.726   1 
  -1  -2  -2 4591.52 310.523   8 
  -1  -2  -2 4121.79 301.324   5 
  -1  -2   2 4695.45 315.071   1 
   1  -2  -2 4317.19 303.602   8 
   1  -2  -2 4808.08 312.506   7 
  -1   2  -2 4828.19 319.315   2 
   1  -2  -2 4530.58 304.457   5 
   1   2   2 4859.74 312.498   1 
   1   2   2 5684.48 317.837   1 
   1   2   2 4781.77 309.208   8 
   1  -2  -2 4917.83 319.632   1 
   1  -2  -2 4507.34 315.261   1 
  -1  -2   2 4793.55 310.545   6 
  -1  -2   2 4129.27 310.708   3 
   1   2   2 4551.89 311.097   3 
  -1   2  -2 4832.72 311.625   7 
   1   2   2 5223.83 308.289   6 
  -1   2  -2 5527.36 318.840   1 
  -1  -2   2 5200.61 317.964   1 
  -1   2  -2 4932.95 305.012   8 
   2   2  -2 1641.44 108.635   1 
   2   2  -2 1592.69 104.318   7 
   2   2  -2 1627.23 107.025   3 
  -2   2   2 1469.76 107.706   1 
  -2  -2  -2 1621.44 108.402   1 
  -2   2   2 1795.78 110.824   1 
  -2   2   2 1666.83 106.778   8 
  -2  -2  -2 1735.13 107.959   1 
   2  -2   2 1646.56 107.511   7 
  -2  -2  -2 1555.55 106.003   6 
   2   2  -2 1739.74 108.723   1 
   2  -2   2 1718.14 109.293   1 
   2  -2   2 1722.87 107.790   1 
  -2  -2  -2 1618.32 106.521   8 
  -2   2   2 1525.11 107.028   7 
   2  -2  -2 1510.75 105.539   5 
   2  -2  -2 1651.13 107.661   7 
  -2  -2   2 1690.42 106.598   6 
   2  -2  -2 1586.77 110.464   1 
  -2  -2   2 1657.07 104.790   5 
   2   2   2 1625.91 107.454   1 
  -2   2  -2 1481.65 107.322   7 
  -2   2  -2 1593.90 104.857   8 
   2  -2  -2 1556.70 108.297   4 
  -2  -2   2 1538.60 108.023   1 
  -2   2  -2 1472.25 108.020   1 
   2  -2  -2 1682.22 108.961   1 
  -2   2  -2 1649.13 109.681   1 
  -2  -2   2 1775.29 108.585   1 
   2  -2  -2 1531.74 107.035   8 
   2   2   2 1705.06 106.225   6 
   2   2   2 1665.65 106.352   8 
   3   2  -2 1583.12 112.839   1 
  -3  -2  -2 1617.58 112.913   1 
  -3   2   2 1793.04 113.509   4 
  -3   2   2 1758.27 110.374   8 
  -3  -2  -2 1708.08 110.235   6 
  -3  -2  -2 1762.83 110.265   8 
   3  -2   2 1611.33 113.054   1 
  -3   2   2 1821.56 115.238   1 
   3  -2   2 1659.19 112.271   4 
  -3  -2  -2 1827.57 113.017   1 
   3  -2   2 1726.78 111.527   7 
  -3   2   2 1570.61 111.360   7 
  -3   2   2 1475.33 111.591   1 
   3   2  -2 1604.87 108.072   7 
   3  -2  -2 1483.30 114.031   1 
  -3   2  -2 1693.62 106.519   8 
   3  -2  -2 1571.86 112.579   4 
  -3   2  -2 1704.57 113.588   1 
  -3  -2   2 1670.69 110.243   6 
   3  -2  -2 1739.03 113.450   1 
  -3   2  -2 1689.20 113.127   1 
  -3  -2   2 1601.22 112.632   1 
   3  -2  -2 1585.77 110.835   7 
  -3   2  -2 1529.30 111.501   7 
   3   2   2 1635.02 109.492   7 
   3   2   2 1652.20 111.783   1 
  -3  -2   2 1862.80 113.594   1 
  -3  -2   2 1593.71 107.350   5 
   4   2  -2 1111.47 85.6106   1 
   4   2  -2 1184.74 86.0477   1 
  -4   2   2 1263.81 82.1394   8 
  -4  -2  -2 1133.30 82.1322   6 
  -4  -2  -2 1148.80 85.9402   1 
  -4  -2  -2 1288.37 86.1530   1 
  -4   2   2 1227.00 85.9038   4 
   4   2  -2 1128.20 80.0500   7 
  -4  -2  -2 1293.50 84.1419   4 
  -4   2   2 1020.54 84.3919   1 
   4  -2   2 1114.98 84.6218   4 
  -4   2   2 1016.62 83.5562   7 
   4  -2   2 1104.39 85.4978   1 
  -4  -2  -2 1161.14 81.6171   8 
   4  -2   2 1151.11 83.3999   7 
   4   2   2 1237.45 81.8202   7 
  -4   2  -2 1418.19 78.9474   8 
  -4  -2   2 1256.99 86.6285   1 
  -4  -2   2 1225.94 78.7182   5 
   4  -2  -2 1104.87 85.0361   4 
   4  -2  -2 1267.95 83.5289   7 
  -4  -2   2 1302.26 83.6689   6 
   4  -2  -2 1218.04 88.5602   1 
   4   2   2 1132.32 84.2380   1 
  -4   2  -2 1105.88 85.7915   1 
  -4   2  -2 1460.56 89.6589   1 
  -5   2   2 244.058 27.7955   1 
   5   2  -2 271.375 22.7880   7 
   5  -2   2 275.549 28.2620   4 
   5   2  -2 234.748 27.5791   1 
   5  -2   2 273.094 25.9546   7 
  -5  -2  -2 254.713 28.3016   1 
  -5  -2  -2 266.429 24.1332   8 
  -5  -2  -2 271.602 25.3011   6 
  -5   2   2 322.618 24.9894   8 
   5  -2   2 253.805 27.9553   1 
  -5  -2  -2 285.862 26.0722   4 
   5  -2  -2 215.360 26.5243   4 
  -5  -2   2 219.867 26.8906   1 
  -5   2  -2 214.528 27.0468   1 
   5   2   2 193.092 24.7783   1 
   5   2   2 249.299 23.7791   7 
  -5   2  -2 264.767 20.3824   8 
   5  -2  -2 241.871 24.4610   7 
  -5  -2   2 228.532 24.9062   6 
   5  -2  -2 225.516 29.3121   1 
   6  -2   2 1414.79 92.4116   7 
  -6  -2  -2 1213.49 90.9108   6 
  -6  -2  -2 1356.96 90.1401   8 
   6   2  -2 1380.05 88.7209   7 
  -6  -2  -2 1227.24 96.7481   1 
   6   2  -2 1186.22 96.8721   1 
   6   2   2 1251.91 89.3465   7 
  -6  -2   2 1146.46 90.8545   6 
  -6  -2   2 1200.89 95.9813   1 
   6  -2  -2 1266.27 90.5753   7 
  -7  -2  -2 460.150 43.0990   6 
  -7  -2  -2 450.361 48.9292   1 
   7   2  -2 497.482 39.5843   7 
   7  -2  -2 446.756 40.9308   7 
  -7  -2   2 445.236 42.8543   8 
   7   2   2 429.940 40.4503   7 
   0  -3  -2 2452.71 156.916   8 
   0   3  -2 2541.04 161.865   1 
   0   3   2 2577.74 156.279   6 
   0  -3   2 2502.01 156.377   8 
   0  -3   2 2368.77 158.022   7 
   0   3  -2 2582.21 157.826   1 
   0  -3   2 2438.19 157.657   2 
   0  -3   2 2498.32 155.927   6 
   0  -3  -2 2031.62 155.588   6 
   0   3   2 2438.59 157.763   1 
   0  -3  -2 2470.92 160.699   2 
   0   3  -2 2337.84 155.418   7 
   0  -3  -2 2460.97 157.740   1 
   0  -3  -2 2298.60 156.985   3 
   0   3  -2 2290.25 157.514   2 
   0  -3  -2 2602.98 158.462   1 
   0   3   2 2316.32 158.995   2 
   0   3   2 2517.71 156.948   8 
   0   3   2 2640.76 158.246   1 
   0  -3   2 2219.39 157.044   1 
   1  -3   2 251.885 16.1672   7 
  -1   3   2 235.761 15.9557   7 
  -1   3   2 242.524 17.4361   1 
  -1  -3   2 155.346 14.9617   3 
   1   3   2 163.889 13.8500   6 
  -1   3  -2 158.493 13.1268   8 
  -1   3  -2 147.935 15.1291   1 
   1  -3  -2 194.408 17.0222   1 
  -1  -3   2 166.608 15.2292   1 
  -1  -3   2 174.215 15.2258   1 
   1  -3  -2 154.241 15.8998   1 
  -1   3  -2 160.612 15.6898   2 
  -1  -3   2 176.130 14.2227   6 
   1  -3  -2 161.434 14.7080   8 
   1   3   2 154.242 14.3870   8 
   1   3   2 162.181 15.2510   1 
  -1   3  -2 154.535 14.6012   7 
  -1  -3   2 169.475 14.9830   8 
  -1   3  -2 164.295 16.0843   1 
   2  -3   2 1038.98 80.2865   1 
   2  -3   2 1077.14 78.2515   7 
  -2  -3  -2 1136.40 78.2371   8 
   2  -3   2 1046.93 75.1060   8 
  -2   3   2 1280.40 82.8111   1 
   2   3  -2 1058.70 79.0837   1 
  -2  -3  -2 1197.49 79.4520   1 
  -2   3   2 1077.50 79.8399   1 
   2   3  -2 1132.34 74.9273   7 
  -2   3   2 1147.98 77.5326   8 
  -2  -3  -2 1059.48 77.0240   6 
   2   3  -2 1036.91 77.7697   3 
   2   3  -2 1140.48 77.4641   6 
   2   3  -2 1144.51 79.6440   1 
  -2  -3  -2 1141.55 79.8896   1 
  -2   3   2 1015.63 77.8318   7 
   2  -3  -2 1157.73 79.9294   4 
   2  -3  -2 1193.56 79.2752   7 
   2   3   2 1310.70 80.2754   1 
   2  -3  -2 1272.24 81.1068   1 
   2  -3  -2 1188.73 82.3827   1 
  -2  -3   2 1166.72 79.8531   1 
  -2  -3   2 1261.50 79.9047   1 
  -2   3  -2 1147.00 79.1776   7 
   2  -3  -2 1168.96 78.3056   8 
  -2   3  -2 1283.28 82.2085   1 
   2   3   2 1227.65 79.2962   1 
   2   3   2 1301.10 77.6969   6 
  -2   3  -2 1135.28 80.1098   1 
   2   3   2 1220.40 78.0720   8 
  -2   3  -2 1223.65 75.0165   8 
  -2  -3   2 1170.60 77.6515   6 
   3   3  -2 2307.25 159.474   1 
  -3   3   2 2009.32 158.463   1 
   3   3  -2 2228.25 153.334   7 
  -3  -3  -2 2175.52 158.720   1 
  -3   3   2 2485.15 155.937   8 
   3  -3   2 2175.04 159.937   1 
   3  -3   2 2395.69 157.581   7 
  -3  -3  -2 2454.30 158.880   1 
  -3  -3  -2 2360.47 156.245   6 
   3  -3   2 2216.28 158.377   4 
  -3   3   2 2147.49 157.415   7 
  -3   3   2 2523.70 162.073   1 
  -3  -3  -2 2319.53 156.651   8 
  -3   3  -2 2717.41 162.584   1 
  -3   3  -2 2469.78 160.787   1 
   3  -3  -2 2631.01 160.726   1 
  -3  -3   2 2502.24 153.471   5 
   3  -3  -2 2474.11 158.418   7 
   3  -3  -2 2292.84 161.845   1 
  -3   3  -2 2462.80 154.290   8 
  -3  -3   2 2553.32 157.106   6 
   3   3   2 2500.15 158.772   1 
   3  -3  -2 2414.46 159.571   4 
  -3   3  -2 2357.90 158.538   7 
  -3  -3   2 2523.85 160.015   1 
  -4   3   2 802.722 52.6602   8 
   4   3  -2 716.647 56.5328   1 
  -4  -3  -2 714.958 56.7834   1 
   4  -3   2 709.846 57.3923   1 
   4  -3   2 772.872 54.4382   7 
  -4  -3  -2 726.784 53.0511   8 
  -4  -3  -2 842.129 57.3245   1 
   4   3  -2 736.966 50.1161   7 
  -4  -3  -2 739.382 53.4210   6 
  -4   3   2 791.839 56.7899   1 
   4  -3   2 690.589 55.2706   4 
  -4   3  -2 628.829 56.1084   1 
   4  -3  -2 689.438 53.9218   7 
   4   3   2 706.401 51.5528   7 
   4  -3  -2 689.035 56.1974   4 
  -4  -3   2 713.198 53.2830   6 
   4  -3  -2 670.300 58.2770   1 
   4   3   2 687.953 54.9649   1 
  -4  -3   2 679.602 48.4380   5 
  -4  -3   2 694.749 56.1235   1 
  -4   3  -2 683.896 47.7340   8 
  -4   3  -2 780.326 58.5952   1 
  -5  -3  -2 361.717 30.6049   8 
   5   3  -2 315.101 33.3001   1 
   5   3  -2 330.278 27.1511   7 
  -5   3   2 338.591 34.0539   1 
  -5  -3  -2 340.147 34.6805   1 
  -5   3   2 395.625 29.4401   8 
   5  -3   2 347.765 31.0871   7 
  -5  -3  -2 335.016 30.6146   6 
   5  -3   2 325.771 32.6372   4 
  -5  -3   2 309.763 29.9122   6 
   5  -3  -2 293.750 32.6829   4 
   5   3   2 308.274 33.0544   1 
  -5  -3   2 344.191 24.9512   5 
   5   3   2 309.696 27.9846   7 
  -5   3  -2 319.928 34.9262   1 
   5  -3  -2 327.835 36.5565   1 
  -5  -3   2 328.010 31.5516   8 
  -5  -3   2 315.333 33.9028   1 
  -5   3  -2 327.142 24.1461   8 
   5  -3  -2 333.325 30.8178   7 
   6   3  -2 443.117 36.7231   7 
  -6  -3  -2 421.482 45.0700   1 
  -6   3   2 388.933 44.7315   1 
   6  -3   2 453.707 44.7391   4 
  -6  -3  -2 439.100 39.5785   8 
   6  -3   2 494.853 41.8639   7 
  -6  -3  -2 388.409 39.5237   6 
   6  -3  -2 463.856 44.9830   4 
   6   3   2 504.824 39.0967   7 
  -6  -3   2 493.710 42.5552   8 
   6  -3  -2 542.836 42.6893   7 
  -6   3  -2 523.649 48.1904   1 
  -7  -3  -2 438.268 48.9519   1 
  -7  -3  -2 406.501 42.6926   6 
   7   3   2 520.479 41.9341   7 
  -7  -3   2 489.804 45.2873   8 
   0  -4  -2 1138.04 80.4495   1 
   0  -4  -2 1200.04 79.5470   8 
   0   4  -2 1230.27 80.9442   1 
   0  -4   2 1142.44 78.6133   8 
   0   4  -2 1079.66 77.5572   7 
   0   4   2 1155.92 80.4881   1 
   0   4   2 1247.90 78.8973   6 
   0  -4   2 1158.42 80.3539   1 
   0  -4  -2 1137.61 78.3262   6 
   0   4   2 1302.32 81.4153   1 
   0   4  -2 1133.54 80.2113   1 
   0  -4   2 1135.11 77.9831   7 
   0   4  -2 1243.09 78.5578   6 
   0  -4   2 1097.69 77.9740   6 
   0  -4  -2 1308.40 81.8575   1 
   0  -4  -2 1180.26 78.8000   2 
   0   4   2 1219.59 79.4504   8 
   0  -4   2 1297.68 80.6472   1 
   0  -4  -2 1081.18 79.6101   3 
   0  -4   2 1199.88 80.4551   2 
   1  -4   2 1895.52 126.769   8 
  -1   4   2 1759.52 128.713   2 
   1   4  -2 2000.12 130.015   1 
  -1  -4  -2 1831.40 129.473   1 
  -1  -4  -2 2076.42 130.558   1 
  -1   4   2 1773.06 128.209   7 
  -1  -4  -2 1865.77 127.466   6 
  -1   4   2 1853.29 130.131   1 
   1   4  -2 1819.70 129.205   1 
   1   4  -2 1793.93 125.673   7 
  -1  -4  -2 1892.58 128.943   3 
  -1   4   2 2098.13 128.873   6 
   1  -4   2 1865.41 128.521   7 
  -1   4   2 1946.42 128.365   8 
   1   4  -2 2029.00 127.803   6 
  -1   4   2 2133.60 131.851   1 
  -1  -4  -2 1877.21 128.870   8 
   1  -4   2 1928.77 130.412   1 
   1  -4  -2 1980.74 131.098   1 
   1   4   2 2075.43 127.795   6 
  -1  -4   2 1959.92 128.968   8 
  -1   4  -2 1822.95 128.115   7 
  -1  -4   2 1947.72 129.707   3 
  -1  -4   2 2151.33 129.964   1 
   1   4   2 2224.10 130.900   1 
  -1  -4   2 1958.93 129.785   1 
  -1   4  -2 1837.75 129.703   1 
   1   4   2 1970.61 129.683   1 
   1   4   2 2056.89 128.910   8 
  -1   4  -2 2081.76 127.172   8 
  -1  -4   2 1950.71 127.544   6 
  -1   4  -2 1896.16 130.147   2 
   1  -4  -2 1893.61 128.221   8 
  -1   4  -2 2032.55 128.000   6 
   1  -4  -2 2185.16 132.015   1 
  -1   4  -2 2107.04 131.503   1 
   2  -4   2 2080.03 144.396   1 
  -2   4   2 2258.25 146.304   1 
  -2   4   2 1921.76 141.055   7 
  -2  -4  -2 2283.94 143.067   1 
   2   4  -2 2267.35 143.518   1 
   2  -4   2 2081.66 141.532   7 
  -2  -4  -2 2052.47 141.527   8 
   2   4  -2 2099.40 140.203   6 
   2   4  -2 1969.68 142.463   1 
   2  -4   2 1996.27 138.032   8 
  -2  -4  -2 2083.01 143.110   1 
  -2   4   2 1968.21 143.177   1 
  -2   4   2 2066.48 140.193   8 
  -2  -4  -2 2033.17 140.139   6 
   2  -4  -2 2138.69 140.893   8 
   2  -4  -2 2192.08 142.695   7 
   2   4   2 2090.34 141.946   1 
  -2   4  -2 2401.16 145.632   1 
   2   4   2 2219.79 141.316   8 
  -2   4  -2 2080.30 141.829   7 
  -2  -4   2 2201.88 140.549   6 
  -2   4  -2 2289.73 138.286   8 
  -2  -4   2 2172.32 141.999   8 
  -2  -4   2 2226.14 143.401   1 
   2  -4  -2 2166.77 145.534   1 
  -2   4  -2 2218.12 143.966   2 
  -2   4  -2 2098.77 143.453   1 
   2  -4  -2 2432.67 145.400   1 
  -2  -4   2 1989.42 141.638   3 
   2   4   2 2336.22 140.696   6 
   3   4  -2 1117.90 77.6621   1 
   3   4  -2 1046.55 71.1447   7 
   3  -4   2 1025.73 75.5396   7 
  -3  -4  -2 1070.47 76.9222   1 
  -3  -4  -2 1018.77 75.2638   8 
   3  -4   2 1026.70 78.9972   1 
   3  -4   2 972.337 76.7123   4 
   3   4  -2 1122.90 74.9214   6 
  -3  -4  -2 1041.66 74.3407   6 
   3  -4   2 1020.48 71.4261   8 
   3   4  -2 916.857 76.3222   1 
  -3   4   2 1131.12 73.9967   8 
  -3  -4  -2 1023.46 77.6341   1 
  -3   4   2 1042.97 78.4109   1 
  -3   4  -2 1199.74 80.6229   1 
   3   4   2 1079.43 76.8119   1 
  -3   4  -2 1099.13 70.6912   8 
  -3   4  -2 1085.67 78.7246   1 
  -3   4  -2 1069.05 80.2682   7 
   3  -4  -2 1158.67 81.6091   1 
  -3  -4   2 1106.71 74.7100   6 
   3   4   2 1185.56 74.6394   6 
  -3  -4   2 1099.55 78.0571   1 
   3  -4  -2 1095.57 78.0060   4 
   3  -4  -2 1091.20 75.1508   8 
   3  -4  -2 1227.34 80.0210   1 
  -3  -4   2 1093.63 76.4922   8 
   3  -4  -2 1116.15 76.9987   7 
  -4   4   2 1456.22 93.1761   8 
   4  -4   2 1462.72 96.3706   7 
   4   4  -2 1296.99 97.9270   1 
  -4  -4  -2 1538.59 98.8973   1 
  -4  -4  -2 1333.24 94.2774   6 
   4  -4   2 1293.45 99.3612   1 
  -4  -4  -2 1402.55 99.3713   1 
  -4  -4  -2 1391.69 95.6380   8 
   4   4  -2 1344.93 90.6261   7 
  -4   4   2 1411.86 99.3522   1 
   4  -4   2 1311.65 97.6255   4 
   4  -4  -2 1329.40 101.467   1 
  -4   4  -2 1411.39 99.7179   1 
   4  -4  -2 1336.60 96.2943   7 
  -4  -4   2 1346.88 98.1167   1 
   4  -4  -2 1263.01 97.7209   4 
  -4   4  -2 1340.53 88.9623   8 
   4   4   2 1362.23 92.6987   7 
  -4   4  -2 1527.94 101.956   1 
  -4  -4   2 1372.91 89.6070   5 
   4   4   2 1315.36 96.8648   1 
  -4  -4   2 1376.22 94.8593   6 
  -4  -4   2 1310.10 96.1315   8 
   5   4  -2 414.433 33.7314   7 
  -5  -4  -2 415.262 37.8286   6 
  -5  -4  -2 428.348 38.1350   8 
  -5   4   2 401.195 41.6025   1 
   5  -4   2 438.786 38.7995   7 
   5   4  -2 398.232 41.0272   1 
  -5  -4  -2 375.741 40.8707   1 
   5  -4   2 431.463 41.7871   4 
  -5   4   2 495.717 36.1040   8 
  -5  -4   2 467.639 42.6409   1 
   5  -4  -2 522.240 40.9543   7 
  -5  -4   2 505.395 32.3871   5 
  -5   4  -2 438.034 42.5900   1 
   5  -4  -2 459.686 45.4804   1 
  -5  -4   2 430.410 39.4447   8 
   5  -4  -2 448.787 41.8840   4 
  -5  -4   2 456.927 38.5285   6 
   5   4   2 512.341 36.7597   7 
  -6  -4  -2 694.257 58.6411   6 
   6  -4   2 808.472 60.4022   7 
  -6  -4  -2 688.872 63.6118   1 
   6  -4   2 729.023 63.3224   4 
  -6  -4  -2 760.612 59.0747   8 
   6  -4  -2 783.386 60.2698   7 
   6   4   2 733.969 55.7623   7 
  -6   4  -2 773.368 66.0595   1 
   6  -4  -2 718.923 65.2115   4 
  -6  -4   2 692.259 60.1277   8 
  -7  -4  -2 425.112 40.1018   8 
  -7   4  -2 373.455 47.1144   1 
   7   4   2 396.665 36.3406   7 
   0   5  -2 1259.77 91.3332   1 
   0   5   2 1289.72 91.8947   1 
   0   5   2 1246.78 89.3964   7 
   0   5   2 1417.96 90.6396   8 
   0  -5  -2 1343.41 90.5199   8 
   0  -5   2 1435.20 89.7034   6 
   0   5   2 1373.66 89.6976   6 
   0  -5   2 1372.29 92.1712   1 
   0  -5  -2 1159.44 88.8420   6 
   0   5  -2 1447.19 92.7745   1 
   0  -5   2 1346.59 91.3826   2 
   0  -5  -2 1282.34 91.3526   3 
   0  -5  -2 1572.88 94.4441   1 
   0  -5  -2 1284.29 91.7256   1 
   0   5  -2 1213.18 88.1665   7 
   0  -5  -2 1335.43 89.8217   2 
   0   5  -2 1394.32 89.4881   6 
   0  -5   2 1366.98 89.9024   8 
   1  -5   2 1324.46 86.1813   8 
  -1  -5  -2 1264.07 86.5958   6 
   1   5  -2 1357.69 86.9646   6 
  -1   5   2 1339.93 87.4848   8 
   1   5  -2 1266.37 89.2375   1 
   1   5  -2 1347.63 89.5890   1 
  -1  -5  -2 1257.50 88.5311   3 
  -1  -5  -2 1295.57 88.4143   8 
   1  -5   2 1300.23 89.9562   1 
  -1  -5  -2 1250.34 89.1987   1 
  -1   5   2 1196.67 88.2113   2 
  -1   5   2 1235.04 87.5868   7 
   1  -5   2 1278.15 87.7489   7 
   1   5  -2 1243.64 84.7067   7 
  -1  -5  -2 1240.44 87.0956   2 
  -1  -5  -2 1480.20 90.8013   1 
  -1   5   2 1239.44 89.4986   1 
  -1   5   2 1335.09 87.7127   6 
  -1   5  -2 1341.13 87.2273   6 
  -1   5  -2 1251.37 87.1661   7 
  -1  -5   2 1280.66 89.0628   1 
   1  -5  -2 1440.76 91.7019   1 
   1  -5  -2 1262.46 87.3175   8 
  -1   5  -2 1222.24 89.4704   2 
  -1  -5   2 1314.97 88.9971   2 
  -1  -5   2 1300.02 89.4478   3 
  -1   5  -2 1320.01 86.1813   8 
   1   5   2 1334.57 86.7302   6 
  -1   5  -2 1168.34 88.8640   1 
  -1  -5   2 1350.16 86.8102   6 
   1   5   2 1238.73 88.8138   1 
  -1   5  -2 1393.90 91.1407   1 
   1   5   2 1289.76 87.7938   8 
   1  -5  -2 1252.72 89.8483   1 
  -1  -5   2 1295.50 88.0970   8 
  -2  -5  -2 1123.41 77.6486   6 
   2   5  -2 1215.87 78.2655   6 
   2   5  -2 995.687 79.5713   1 
   2   5  -2 1217.75 81.3853   1 
   2  -5   2 1174.54 82.6106   1 
  -2   5   2 1079.18 80.1786   2 
   2  -5   2 1117.21 75.7962   8 
  -2  -5  -2 1140.74 81.0518   1 
   2  -5   2 1129.19 79.5150   7 
  -2   5   2 1055.06 78.6673   7 
  -2  -5  -2 1247.80 81.2329   1 
  -2   5   2 1155.86 81.6718   1 
  -2   5   2 1193.11 77.9537   8 
  -2  -5  -2 1157.91 79.6780   8 
   2  -5  -2 1123.19 80.3102   7 
  -2  -5   2 1094.07 79.4797   8 
   2   5   2 1123.44 80.0421   1 
   2  -5  -2 1107.04 78.0352   8 
  -2   5  -2 1163.96 75.9627   8 
  -2  -5   2 1092.06 80.2696   1 
  -2  -5   2 1101.33 77.6904   6 
  -2   5  -2 1279.36 84.0847   1 
   2  -5  -2 1390.85 84.8355   1 
   2  -5  -2 1088.66 82.4648   1 
  -2   5  -2 1085.61 81.0556   2 
  -2  -5   2 1079.97 79.7109   3 
  -2   5  -2 1022.23 78.7378   7 
  -2   5  -2 1029.58 80.3283   1 
   2   5   2 1141.39 77.6545   6 
  -2   5  -2 1318.32 79.5958   6 
   2   5   2 1159.71 78.8748   8 
  -3  -5  -2 517.916 43.0615   8 
   3   5  -2 557.388 41.9632   6 
   3   5  -2 600.145 46.1662   1 
   3  -5   2 502.010 38.7431   8 
   3   5  -2 546.006 38.1552   7 
  -3   5   2 527.050 45.5234   1 
   3   5  -2 535.924 45.1013   1 
  -3  -5  -2 518.024 41.7286   6 
   3  -5   2 557.342 43.6152   7 
   3  -5   2 571.334 47.3478   1 
  -3  -5  -2 520.305 45.1216   1 
  -3  -5  -2 597.911 45.5692   1 
  -3   5   2 564.393 41.1153   8 
  -3  -5   2 570.461 42.2469   6 
   3  -5  -2 541.750 44.4078   7 
   3  -5  -2 505.961 41.4205   8 
  -3  -5   2 543.712 45.3251   1 
   3   5   2 587.668 41.7709   6 
  -3   5  -2 558.227 45.6274   2 
  -3   5  -2 586.331 38.6168   8 
  -3   5  -2 680.106 49.7879   1 
  -3   5  -2 552.439 46.0618   1 
   3  -5  -2 532.736 45.0697   4 
  -3  -5   2 545.867 44.0660   8 
   3   5   2 547.179 44.0564   1 
   3  -5  -2 566.341 47.8000   1 
  -4  -5  -2 380.157 36.7672   1 
  -4  -5  -2 359.644 33.3439   8 
  -4   5   2 366.221 36.1117   1 
  -4   5   2 404.024 30.5781   8 
  -4  -5  -2 374.976 32.1337   6 
   4  -5   2 415.899 34.3877   7 
   4  -5   2 359.687 35.1454   4 
   4  -5   2 384.705 37.6637   1 
   4   5  -2 387.602 28.1710   7 
   4   5  -2 358.976 35.7969   1 
  -4  -5   2 385.062 27.4960   5 
  -4  -5   2 379.525 32.6587   6 
   4   5   2 377.372 35.0686   1 
   4  -5  -2 366.254 34.4288   7 
   4  -5  -2 381.200 36.3583   4 
   4  -5  -2 343.377 37.3779   1 
  -4   5  -2 358.025 26.7649   8 
  -4  -5   2 374.180 34.3927   8 
  -4  -5   2 377.066 36.0805   1 
  -4   5  -2 368.677 36.8652   1 
  -5  -5  -2 720.803 62.5163   1 
   5  -5   2 779.272 59.1748   7 
   5   5  -2 753.107 52.8135   7 
  -5  -5  -2 719.541 57.6880   6 
   5  -5   2 669.526 60.1710   4 
  -5  -5  -2 723.745 58.6039   8 
  -5   5   2 722.198 61.9288   1 
   5   5  -2 681.550 61.5106   1 
   5  -5  -2 790.894 67.4914   1 
  -5  -5   2 728.504 57.5055   6 
   5   5   2 763.609 55.1693   7 
  -5  -5   2 757.548 60.4034   8 
  -5  -5   2 830.002 70.4022   1 
   5  -5  -2 768.393 59.7697   7 
  -5   5  -2 814.948 65.2980   1 
   5  -5  -2 747.191 62.9663   4 
  -6  -5  -2 320.797 37.7239   1 
  -6  -5  -2 320.201 33.0606   6 
  -6  -5  -2 339.421 34.0978   8 
   6  -5   2 335.327 52.0419   4 
   6  -5   2 394.509 48.6773   7 
   6   5   2 290.201 28.0717   7 
   6  -5  -2 283.875 32.1069   7 
  -6   5  -2 278.502 37.2727   1 
  -6  -5   2 259.629 33.9842   8 
   0   6   2 548.038 38.0057   6 
   0  -6   2 486.894 37.4942   8 
   0  -6   2 513.516 36.9412   6 
   0  -6  -2 472.216 36.9582   6 
   0  -6  -2 553.176 41.7466   1 
   0   6  -2 454.576 35.7757   7 
   0   6  -2 531.082 37.5423   6 
   0   6  -2 507.448 40.3660   1 
   0  -6   2 494.034 39.8483   1 
   0   6   2 479.478 39.8654   1 
   0  -6  -2 495.979 39.8685   3 
   0  -6  -2 448.930 39.4750   1 
   0   6  -2 459.283 39.3438   1 
   0  -6  -2 482.781 38.3022   8 
   0   6   2 516.870 38.3171   8 
   0  -6  -2 494.514 37.6549   2 
   0   6   2 460.055 36.8853   7 
   1   6  -2 2061.14 134.223   6 
   1  -6   2 1977.99 135.276   7 
   1   6  -2 2123.40 137.847   1 
   1  -6   2 2075.53 138.359   1 
  -1   6   2 1910.62 137.204   1 
   1  -6   2 1970.03 133.505   8 
  -1  -6  -2 1975.27 134.094   6 
  -1  -6  -2 1953.30 137.094   1 
  -1   6   2 1796.86 135.636   2 
  -1  -6  -2 2387.52 140.077   1 
   1   6  -2 1889.29 131.936   7 
  -1   6   2 2100.22 135.054   8 
  -1   6   2 1831.44 134.612   7 
  -1  -6  -2 2029.15 136.229   8 
  -1   6   2 2151.10 135.680   6 
   1   6  -2 1816.32 136.337   1 
  -1  -6  -2 1956.62 136.264   3 
  -1  -6  -2 2052.96 134.930   2 
   1   6   2 1871.90 136.146   1 
  -1  -6   2 1933.91 133.770   6 
  -1  -6   2 2022.99 137.368   3 
   1   6   2 2099.06 135.672   8 
  -1   6  -2 1915.72 134.359   7 
  -1   6  -2 2087.58 133.827   8 
   1  -6  -2 2441.97 141.420   1 
   1  -6  -2 1954.20 137.702   1 
  -1   6  -2 1895.05 137.264   2 
  -1  -6   2 2080.72 137.563   1 
   1  -6  -2 1964.15 134.711   8 
  -1  -6   2 2088.16 135.797   8 
  -1   6  -2 2040.05 137.735   1 
  -1   6  -2 2256.64 140.064   1 
  -1   6  -2 2184.32 135.064   6 
   1   6   2 2174.72 134.495   6 
   2  -6   2 655.480 52.1909   1 
  -2  -6  -2 653.785 49.6397   8 
  -2   6   2 621.556 46.9763   8 
   2  -6   2 605.994 48.7061   7 
  -2   6   2 584.624 49.9436   2 
   2   6  -2 710.770 52.0260   1 
   2   6  -2 643.909 51.0113   1 
   2   6  -2 646.778 44.4033   7 
   2   6  -2 675.016 47.5409   6 
  -2  -6  -2 584.332 46.7301   6 
   2  -6   2 589.395 45.1569   8 
  -2   6   2 756.992 50.2346   6 
  -2   6   2 583.166 50.3893   1 
  -2  -6  -2 721.945 51.6089   1 
  -2  -6  -2 585.299 49.8916   1 
  -2   6  -2 745.893 54.7650   1 
  -2   6  -2 677.346 45.9276   8 
  -2   6  -2 758.296 49.6860   6 
   2   6   2 642.138 50.2486   1 
  -2  -6   2 615.517 47.1630   6 
   2   6   2 650.734 47.2557   6 
  -2  -6   2 632.920 49.2034   8 
  -2  -6   2 636.249 50.5888   1 
   2  -6  -2 609.609 47.1988   8 
   2  -6  -2 620.526 51.9729   1 
  -2   6  -2 616.138 51.2372   2 
  -2  -6   2 619.115 49.7499   3 
  -2   6  -2 608.471 50.5233   1 
  -3   6   2 395.944 39.3931   2 
   3  -6   2 394.498 33.5799   8 
  -3  -6  -2 398.266 36.4504   6 
  -3  -6  -2 420.334 38.6771   8 
  -3  -6  -2 441.236 40.9731   1 
   3   6  -2 397.574 39.2478   1 
  -3  -6  -2 501.181 41.2358   1 
   3   6  -2 437.694 36.4941   6 
   3  -6   2 437.328 41.2091   1 
  -3   6   2 420.406 40.3609   1 
   3  -6   2 430.524 38.6260   7 
  -3   6   2 453.018 36.2059   8 
   3   6   2 521.614 37.5743   6 
  -3  -6   2 490.145 39.9188   8 
  -3  -6   2 518.566 38.3018   6 
   3  -6  -2 483.093 41.1758   4 
  -3   6  -2 487.159 41.7277   2 
   3  -6  -2 487.553 43.3298   1 
  -3   6  -2 500.278 34.1686   8 
   3   6   2 491.696 40.7906   1 
   3  -6  -2 464.635 37.0002   8 
  -3   6  -2 477.220 38.3591   6 
  -3   6  -2 565.695 45.5316   1 
   3  -6  -2 497.110 40.8450   7 
  -3   6  -2 484.333 41.8659   1 
  -3  -6   2 513.748 41.7825   1 
   4  -6   2 991.886 71.6113   7 
  -4  -6  -2 883.008 68.9046   6 
  -4   6   2 935.123 66.7767   8 
  -4   6   2 889.889 73.4671   1 
  -4  -6  -2 863.471 70.4318   8 
   4   6  -2 928.691 63.9923   7 
  -4  -6  -2 891.578 73.7732   1 
   4  -6   2 840.958 71.6299   4 
   4   6  -2 875.601 72.8933   1 
   4  -6  -2 956.136 68.3934   8 
  -4  -6   2 919.038 68.9094   6 
   4  -6  -2 978.094 72.5901   7 
  -4   6  -2 955.000 73.5873   2 
  -4  -6   2 944.344 71.8592   8 
  -4  -6   2 995.510 74.8200   1 
   4  -6  -2 1046.45 78.0152   1 
  -4  -6   2 1095.55 64.3404   5 
   4  -6  -2 989.309 74.4556   4 
  -4   6  -2 996.444 75.4597   1 
   5  -6   2 870.285 63.0278   7 
   5  -6   2 722.031 63.7557   4 
  -5  -6  -2 723.311 64.6583   1 
  -5  -6  -2 718.608 59.5811   6 
  -5  -6  -2 750.886 61.6012   8 
   5   6   2 801.325 56.9060   7 
   5  -6  -2 847.424 63.5933   7 
  -5  -6   2 762.252 63.2386   8 
   5  -6  -2 719.531 64.0357   4 
  -5   6  -2 819.311 67.4031   1 
  -6   6  -2 327.894 39.9477   1 
   0   7  -2 195.110 23.3779   1 
   0  -7  -2 239.997 23.3716   8 
   0  -7   2 221.616 24.0218   1 
   0  -7  -2 217.907 24.3785   1 
   0   7  -2 256.325 22.4229   6 
   0   7   2 253.354 22.5642   6 
   0   7  -2 212.527 20.1311   7 
   0   7  -2 256.127 25.8240   1 
   0  -7   2 228.447 21.3936   6 
   0   7   2 221.788 24.1433   1 
   0  -7  -2 234.744 24.8583   3 
   0  -7   2 245.464 22.6468   8 
  -1  -7  -2 958.880 70.7431   6 
   1  -7   2 995.926 70.5049   8 
  -1  -7  -2 964.245 74.5341   1 
  -1   7   2 904.459 72.9962   2 
  -1   7   2 948.766 74.4312   1 
   1   7  -2 990.349 68.9865   7 
   1  -7   2 1057.65 76.1130   1 
  -1  -7  -2 1018.53 73.4395   8 
   1   7  -2 1137.28 72.0810   6 
  -1  -7  -2 977.357 73.7198   3 
   1   7  -2 1004.06 74.9111   1 
   1   7  -2 1143.87 76.1960   1 
  -1  -7   2 1053.47 72.9713   8 
  -1   7  -2 937.539 74.8143   2 
  -1  -7   2 1005.26 74.4756   1 
   1  -7  -2 996.600 71.9636   8 
   1   7   2 943.114 70.3937   7 
  -1   7  -2 1005.98 75.1995   1 
  -1   7  -2 1058.06 72.1058   6 
  -1  -7   2 980.621 70.9405   6 
  -1  -7   2 975.732 74.2869   3 
   1   7   2 976.698 74.1000   1 
  -1   7  -2 1213.15 78.6478   1 
   1   7   2 1101.99 71.8923   6 
  -1   7  -2 964.852 71.3540   7 
  -1   7  -2 1076.63 71.2283   8 
   1  -7  -2 1018.99 75.8924   1 
   2  -7   2 1109.05 86.3285   1 
   2   7  -2 1122.40 77.8424   7 
  -2  -7  -2 1106.54 83.4290   8 
  -2   7   2 1132.49 85.2130   2 
  -2   7   2 1127.38 81.4452   8 
  -2  -7  -2 1152.62 84.6406   3 
   2   7  -2 1168.55 81.3499   6 
  -2  -7  -2 1118.35 85.1541   1 
  -2   7   2 1311.81 84.1562   6 
   2  -7   2 1086.99 79.1784   8 
   2   7  -2 1102.74 85.1470   1 
  -2  -7  -2 1025.93 80.4948   6 
  -2   7   2 1142.72 85.6769   1 
   2  -7   2 1110.78 83.0623   7 
  -2  -7   2 1221.26 81.7897   6 
   2  -7  -2 1176.43 87.4296   1 
  -2   7  -2 1222.71 87.2152   2 
  -2  -7   2 1182.75 85.1372   3 
   2   7   2 1146.55 84.4545   1 
  -2  -7   2 1213.39 83.9983   8 
  -2   7  -2 1217.94 79.8135   8 
   2   7   2 1262.71 81.7744   6 
  -2  -7   2 1135.56 84.6679   1 
  -2   7  -2 1369.93 83.9405   6 
  -2   7  -2 1191.65 86.4349   1 
   2  -7  -2 1157.42 81.4074   8 
   3   7  -2 140.382 21.9275   1 
  -3  -7  -2 143.507 22.1566   1 
   3  -7   2 161.869 21.8000   7 
  -3   7   2 138.683 21.3380   1 
  -3   7   2 166.608 18.8160   8 
  -3  -7  -2 143.249 18.9556   6 
   3  -7   2 138.519 16.0782   8 
  -3   7   2 150.035 21.3350   2 
  -3  -7  -2 148.986 21.3862   8 
  -3   7  -2 180.911 23.5516   2 
   3  -7  -2 185.959 23.3536   4 
  -3   7  -2 202.566 17.1489   8 
   3  -7  -2 169.171 23.6539   1 
  -3  -7   2 181.541 21.7360   8 
  -3   7  -2 177.619 23.5657   1 
   3  -7  -2 183.021 22.8881   7 
   3   7   2 180.901 23.6413   1 
  -3  -7   2 183.404 22.8914   1 
   3  -7  -2 188.796 19.5318   8 
  -3  -7   2 181.896 20.0233   6 
  -4   7   2 567.546 50.2489   1 
  -4  -7  -2 508.111 48.8394   1 
   4   7  -2 485.551 47.6242   1 
  -4  -7  -2 504.437 45.9466   8 
   4  -7   2 514.000 47.7015   4 
  -4  -7  -2 528.686 44.2712   6 
   4  -7   2 547.184 46.1108   7 
  -4   7   2 539.435 47.9363   2 
   4  -7  -2 563.311 48.0841   7 
  -4   7  -2 523.684 48.6729   2 
   4  -7  -2 556.320 43.4880   8 
  -4   7  -2 557.999 49.7621   1 
  -4  -7   2 526.826 46.7120   8 
   4  -7  -2 549.310 48.7125   4 
   5  -7   2 955.788 72.0158   7 
  -5  -7  -2 865.070 74.0833   1 
  -5  -7  -2 840.264 67.9582   6 
  -5   7  -2 870.130 73.3636   2 
   5   7   2 884.608 64.3784   7 
  -5   7  -2 877.240 73.6483   1 
   0  -8  -2 4.64783 7.05693   1 
   0   8  -2 8.18801 5.15489   7 
   0  -8   2 6.55591 6.81489   8 
   0  -8  -2 19.7836 10.1929   8 
   0  -8   2 6.00972 6.81414   1 
   0  -8   2 13.6757 8.35323   6 
   0   8  -2 5.86836 7.12070   1 
   0  -8  -2 11.5446 10.0269   3 
   0   8   2 10.1759 7.24184   6 
   0   8   2 8.86263 7.36753   1 
   0  -8   2 2.17175 8.21387   3 
  -1   8   2 1306.84 83.5271   6 
  -1  -8  -2 1084.16 84.6789   1 
  -1   8   2 1145.91 85.0519   1 
   1   8  -2 1124.65 78.1766   7 
  -1  -8  -2 1078.25 80.5039   6 
   1  -8   2 1135.76 80.0975   8 
   1   8  -2 1118.69 84.3900   1 
  -1  -8  -2 1179.17 84.7019   3 
  -1  -8  -2 1155.05 83.0763   8 
  -1  -8   2 1146.66 85.0680   3 
  -1   8  -2 1145.81 86.1645   2 
  -1  -8   2 1172.09 84.9341   1 
  -1  -8   2 1145.17 82.6658   8 
   1  -8  -2 1123.61 81.5155   8 
   1   8   2 1075.48 83.7639   1 
   1  -8  -2 1180.20 86.9507   1 
  -1  -8   2 1081.22 80.0798   6 
   1   8   2 1292.30 81.9191   6 
  -1   8  -2 1114.19 85.1127   1 
  -2  -8  -2 697.796 58.5687   8 
  -2  -8  -2 746.543 59.7202   3 
  -2  -8  -2 655.794 59.6414   1 
  -2   8   2 667.820 59.6587   1 
   2   8  -2 682.591 59.9158   1 
  -2  -8  -2 715.904 56.2267   6 
  -2   8   2 638.201 58.6865   2 
   2  -8   2 720.258 58.7274   7 
   2  -8   2 685.888 53.8661   8 
   2  -8  -2 779.766 56.6511   8 
  -2   8  -2 837.628 55.4853   8 
   2  -8  -2 872.930 64.7855   1 
  -2   8  -2 825.750 62.7165   1 
  -2   8  -2 871.246 63.9934   2 
  -2  -8   2 767.933 63.3267   6 
  -2  -8   2 824.154 61.6661   3 
  -2  -8   2 779.706 58.7956   8 
  -3  -8  -2 140.290 21.3576   8 
   3  -8   2 132.504 19.9957   7 
  -3  -8  -2 122.410 18.3565   6 
   3  -8   2 114.610 15.0352   8 
  -3   8   2 124.350 32.3937   1 
   3   8  -2 111.705 20.4023   1 
  -3  -8  -2 111.233 21.3354   1 
  -3   8   2 117.097 21.5394   2 
  -3  -8   2 131.048 20.1548   8 
  -3   8  -2 140.887 24.1933   2 
   3  -8  -2 139.344 17.6479   8 
  -3   8  -2 149.546 23.2112   1 
  -4  -8  -2 741.177 58.8925   6 
  -4   8   2 754.739 63.1588   2 
  -4  -8  -2 721.911 63.8789   1 
   4  -8   2 794.810 61.4451   7 
   4  -8  -2 715.235 57.3431   8 
  -4   8  -2 739.557 64.9149   1 
  -4   8  -2 732.594 63.8323   2 
   4  -8  -2 759.393 62.7554   7 
  -5   8   2 589.292 55.4324   2 
  -5   8  -2 639.207 59.0432   1 
   0  -9  -2 30.9814 13.9099   3 
   0  -9  -2 28.8245 11.9598   8 
   0  -9  -2 28.0100 14.0670   1 
   0   9  -2 23.0095 12.9887   1 
   0  -9   2 28.2086 11.2974   8 
   0  -9   2 30.9219 15.5935   3 
   1   9  -2 647.419 56.5787   1 
  -1  -9  -2 640.810 52.4178   6 
  -1  -9  -2 681.488 57.0167   3 
   1  -9   2 706.505 52.4017   8 
  -1  -9  -2 672.085 54.8819   8 
  -1  -9  -2 679.859 57.1224   1 
   1  -9  -2 716.646 53.9999   8 
   1  -9  -2 647.406 57.0425   3 
  -1  -9   2 680.810 54.4617   8 
  -1   9  -2 637.834 56.6734   1 
   1  -9  -2 695.300 58.5717   1 
  -1  -9   2 717.692 58.2107   3 
  -2  -9  -2 873.197 66.9641   3 
  -2  -9  -2 782.262 67.1680   1 
   2   9  -2 733.972 65.8954   1 
  -2  -9  -2 782.187 61.9896   6 
   2  -9   2 764.024 59.9109   8 
  -2   9   2 717.107 65.4054   2 
  -2  -9  -2 810.978 65.2868   8 
  -2   9  -2 885.517 70.1232   2 
  -2  -9   2 873.761 67.4198   3 
   2  -9  -2 892.925 62.9810   8 
  -2  -9   2 896.910 65.7120   8 
  -2   9  -2 875.552 68.3742   1 
  -3   9   2 27.9144 14.8476   2 
   3  -9   2 27.7961 14.8890   7 
  -3   9  -2 26.9511 15.3530   2 
   3  -9  -2 27.9759 12.3343   8 
  -3   9  -2 28.7160 17.0640   1 
  -4   9   2 328.177 39.0645   2 
  -4   9  -2 385.155 43.0719   2 
  -4   9  -2 404.585 43.4391   1 
   0  10  -2 110.289 22.0651   1 
   0 -10   2 107.767 18.8812   8 
   0 -10  -2 121.862 19.3374   8 
   0 -10   2 111.267 22.5921   3 
   0 -10  -2 119.976 23.6646   3 
   1  10  -2 784.593 68.6071   1 
   1 -10   2 809.483 62.3966   8 
  -1 -10  -2 862.521 68.6913   3 
  -1  10  -2 771.761 67.2312   1 
   1 -10  -2 859.536 70.4718   3 
   1 -10  -2 805.552 63.7746   8 
  -1 -10   2 824.941 68.9894   3 
  -1 -10   2 831.424 66.1852   8 
  -2  10   2 503.999 50.9097   2 
  -2 -10  -2 536.047 50.7860   3 
  -2  10  -2 579.727 54.5665   2 
  -2  10  -2 521.992 50.6567   1 
   2 -10  -2 533.163 45.2218   8 
  -2 -10   2 537.933 50.2496   3 
  -3  10   2 87.1958 22.5887   2 
   0 -11  -2 165.891 28.6970   3 
   0 -11   2 167.663 28.9673   3 
  -1 -11  -2 305.904 36.3042   3 
   1 -11   2 290.512 33.1904   8 
   1 -11   2 284.391 36.7877   3 
   1 -11  -2 241.621 36.3006   3 
  -1 -11   2 237.882 35.3769   3 
  -2 -11   2 570.056 56.2473   3 
   2 -11  -2 590.809 57.5090   3 
   0 -12   2 177.635 33.2878   3 
   1 -12   2 392.013 49.2694   3 
  -1 -12  -2 400.409 45.6814   3 
  -1 -12   2 401.323 46.2415   3 
   1 -12  -2 400.803 47.6805   3 
   0   0   3 2.35854 1.19832   2 
   0   0   3 0.93800 1.36219   8 
   0   0  -3 2.33282 1.74055   8 
  -1   0  -3 3967.05 248.906   1 
  -1   0  -3 4397.72 250.039   1 
   1   0   3 3530.47 245.380   8 
   1   0  -3 3440.90 243.206   5 
   1   0   3 3745.12 244.792   4 
   1   0  -3 4548.41 260.550   1 
   1   0   3 3848.34 245.793   1 
  -1   0  -3 3404.71 243.924   8 
  -1   0   3 3219.86 242.831   7 
   1   0   3 4099.80 247.974   1 
  -1   0   3 3651.57 246.622   5 
   1   0  -3 2496.90 247.327   1 
  -1   0   3 4874.49 256.157   1 
   2   0   3 1787.37 122.588   4 
   2   0  -3 1903.48 122.466   7 
  -2   0   3 2017.97 125.395   4 
   2   0  -3 1729.30 122.034   5 
   2   0   3 2020.89 123.800   7 
   2   0  -3 1756.64 124.988   1 
  -2   0   3 2088.43 125.654   1 
  -2   0   3 1929.00 122.279   5 
  -2   0  -3 2006.58 122.759   4 
   2   0   3 2024.20 123.479   1 
  -2   0  -3 2001.57 126.674   8 
  -2   0  -3 1945.90 124.182   1 
   2   0   3 1941.17 123.492   1 
   2   0  -3 1666.30 124.101   1 
  -2   0  -3 1718.20 123.603   1 
  -2   0   3 1789.39 122.758   7 
  -3   0  -3 362.131 27.0527   4 
   3   0   3 356.516 27.2976   7 
   3   0  -3 359.119 29.0890   1 
  -3   0  -3 348.163 24.5232   8 
   3   0  -3 329.824 29.6273   1 
   3   0  -3 325.983 25.8536   7 
  -3   0   3 401.292 30.8478   1 
   3   0   3 323.391 27.4463   1 
  -3   0   3 331.662 25.0473   5 
  -3   0   3 354.397 29.2911   4 
  -3   0   3 315.960 26.3948   7 
   4   0  -3 112.489 17.3248   1 
  -4   0   3 121.279 14.2777   7 
   4   0   3 117.518 15.4704   1 
  -4   0  -3 141.970 15.6081   4 
  -4   0  -3 136.110 17.1360   1 
  -4   0   3 150.287 17.9562   4 
   4   0  -3 139.305 17.0631   1 
  -4   0  -3 140.196 12.4247   8 
   4   0  -3 125.327 14.1724   7 
   4   0   3 140.293 15.3230   7 
   5   0  -3 2262.18 170.056   1 
  -5   0  -3 2712.11 171.291   1 
   5   0   3 2502.88 165.546   7 
   5   0   3 2289.57 167.435   1 
  -5   0  -3 2710.17 167.348   4 
   5   0  -3 2479.13 163.991   7 
  -5   0  -3 2426.21 161.386   8 
  -6   0  -3 10.5263 7.35795   8 
   6   0  -3 5.49779 9.06927   1 
   6   0   3 -0.0007 5.89842   7 
   6   0  -3 5.25852 6.21431   7 
   7   0   3 463.608 41.8633   7 
  -7   0  -3 408.894 42.0821   6 
   7   0  -3 471.184 39.2839   7 
   0   1   3 79.8620 6.79391   5 
   0   1   3 90.6266 6.62756   6 
   0   1   3 87.3780 8.00530   8 
   0  -1   3 75.8203 7.28234   2 
   0  -1  -3 83.9736 7.96166   8 
   0  -1  -3 75.7545 6.76261   5 
   0   1  -3 85.8507 6.66833   1 
   0   1   3 85.6002 6.84737   1 
   0   1  -3 86.2683 7.60205   2 
   0  -1  -3 76.0211 6.86946   1 
   0  -1   3 93.1844 6.62555   1 
   0  -1   3 85.8752 6.23591   6 
   0   1   3 87.8444 6.96013   1 
   0  -1   3 97.1848 6.53434   1 
   0   1   3 80.8627 6.29346   3 
   0   1  -3 87.6910 6.29654   6 
   0   1  -3 92.0202 6.71981   1 
   0  -1  -3 75.3883 7.10856   1 
   0  -1  -3 82.5443 6.85504   4 
  -1   1   3 1354.27 94.4847   5 
  -1   1   3 1440.65 95.9390   4 
   1  -1   3 1534.37 94.4785   1 
  -1  -1  -3 1440.05 94.6429   1 
   1   1  -3 1385.92 95.5764   1 
   1  -1   3 1447.46 94.5752   8 
  -1  -1  -3 1437.28 93.9998   6 
  -1   1   3 1584.73 96.9615   1 
   1  -1   3 1486.17 95.2205   7 
  -1  -1  -3 1452.27 94.7521   8 
  -1   1   3 1331.46 94.8674   7 
  -1   1   3 1511.08 96.2607   8 
   1  -1   3 1455.87 94.5907   1 
  -1  -1  -3 1408.11 97.7527   1 
  -1   1   3 1425.14 95.3126   1 
   1   1   3 1478.93 95.5894   6 
  -1  -1   3 1658.00 94.7573   6 
  -1   1  -3 1474.71 95.3404   7 
   1  -1  -3 1378.11 94.5587   5 
  -1  -1   3 1342.40 95.2532   7 
   1  -1  -3 1439.04 96.3297   8 
  -1  -1   3 1533.48 95.4028   1 
   1  -1  -3 1470.93 96.9393   1 
  -1   1  -3 1533.25 95.3611   1 
  -1  -1   3 1670.41 95.8743   1 
  -1  -1   3 1331.56 94.4617   3 
  -1   1  -3 1434.61 95.0132   1 
   1   1   3 1521.35 94.5005   1 
   1   1   3 1547.35 95.4633   5 
   1  -1  -3 1494.98 96.0624   4 
   1   1   3 1442.54 94.6496   8 
   2  -1   3 4676.16 277.269   1 
  -2  -1  -3 4282.77 270.878   8 
  -2  -1  -3 5173.73 274.568   6 
  -2   1   3 3929.97 265.622   5 
   2  -1   3 4112.62 268.114   4 
  -2   1   3 4408.89 263.032   8 
  -2   1   3 3795.40 273.900   1 
  -2   1   3 3818.61 261.436   7 
  -2   1   3 4360.68 273.568   4 
  -2  -1  -3 4369.64 272.489   4 
   2   1  -3 3980.77 269.061   1 
  -2   1   3 4677.74 265.164   1 
   2   1  -3 4083.04 265.570   7 
   2  -1   3 2793.49 260.784   1 
   2  -1   3 4368.04 276.802   7 
  -2   1  -3 2833.39 261.412   1 
   2  -1  -3 4060.48 273.358   4 
   2  -1  -3 4051.34 263.111   1 
   2  -1  -3 3636.65 260.444   5 
   2  -1  -3 3834.71 270.710   1 
   2   1   3 5337.89 274.471   1 
  -2  -1   3 3670.82 265.954   7 
  -2   1  -3 3338.76 269.838   1 
   2  -1  -3 4042.94 268.004   7 
   2   1   3 4650.05 276.153   1 
   2   1   3 4161.89 265.635   8 
  -2  -1   3 3835.48 264.114   5 
  -2   1  -3 3854.46 262.119   7 
  -2  -1   3 4215.25 271.977   1 
  -2  -1   3 4552.49 268.102   1 
  -3   1   3 834.134 56.2996   1 
   3   1  -3 659.073 46.5692   5 
  -3   1   3 721.117 51.2358   4 
  -3  -1  -3 727.405 50.6886   1 
  -3   1   3 645.457 49.9902   1 
   3  -1   3 661.207 49.1021   4 
   3  -1   3 706.426 49.2874   7 
  -3   1   3 645.678 48.9705   7 
  -3  -1  -3 721.489 47.2137   8 
  -3  -1  -3 718.694 48.4037   4 
   3   1  -3 757.203 51.3726   1 
  -3  -1  -3 699.109 48.3097   6 
   3  -1   3 648.239 49.6026   1 
   3   1  -3 689.723 46.9045   7 
   3   1  -3 684.096 51.5448   1 
  -3   1   3 783.227 50.0067   8 
   3   1   3 619.617 44.1673   5 
  -3  -1   3 681.256 46.4300   5 
   3   1   3 691.396 49.6253   1 
  -3  -1   3 655.376 50.1918   1 
   3  -1  -3 603.750 51.2980   1 
   3  -1  -3 687.425 50.8967   1 
   3  -1  -3 697.912 48.6839   7 
  -3  -1   3 631.309 46.7817   7 
   3  -1  -3 634.764 50.2489   4 
  -3   1  -3 687.674 50.7093   1 
   3   1   3 697.298 48.5718   7 
  -3   1  -3 677.053 44.7531   8 
  -3   1  -3 635.997 49.2061   7 
   4  -1   3 1665.00 127.181   4 
  -4  -1  -3 1919.30 126.842   6 
   4   1  -3 1874.54 124.835   7 
  -4  -1  -3 1936.32 124.764   8 
   4   1  -3 1679.61 129.849   1 
   4  -1   3 1674.76 128.014   1 
   4  -1   3 1948.09 127.396   7 
  -4  -1  -3 1887.40 126.824   4 
  -4  -1  -3 2110.64 130.750   1 
  -4   1   3 2039.69 131.016   4 
   4   1  -3 1931.86 130.042   1 
  -4   1   3 1697.88 126.892   7 
  -4   1   3 2235.97 128.440   8 
  -4  -1   3 1851.32 123.377   5 
  -4   1  -3 2174.79 132.098   1 
  -4  -1   3 2003.68 130.277   4 
  -4  -1   3 1830.37 129.401   1 
   4   1   3 1798.51 128.029   1 
   4  -1  -3 1836.26 126.159   7 
   4   1   3 1925.95 126.463   7 
  -4   1  -3 1864.21 122.235   8 
  -4   1  -3 2004.23 130.178   1 
  -4  -1   3 1753.31 124.948   7 
   4  -1  -3 1831.62 131.431   1 
   4   1   3 1778.09 121.219   5 
   4  -1  -3 2097.24 130.651   1 
  -5  -1  -3 314.494 30.5204   6 
  -5  -1  -3 364.378 31.5622   4 
   5   1  -3 349.661 28.9965   7 
   5   1  -3 319.565 34.4807   1 
  -5  -1  -3 358.688 39.0794   1 
  -5   1   3 402.952 31.9939   8 
   5  -1   3 306.666 32.4917   1 
   5  -1   3 347.044 31.2510   7 
  -5  -1  -3 353.627 28.7357   8 
  -5  -1   3 352.656 29.6952   7 
   5  -1  -3 356.099 30.4299   7 
   5  -1  -3 355.820 36.4256   1 
  -5   1  -3 421.571 40.6686   1 
  -5  -1   3 333.440 33.5706   1 
  -5   1  -3 360.188 26.3423   8 
   5   1   3 350.643 33.0164   1 
   5   1   3 387.837 31.3974   7 
   6   1  -3 82.6084 18.9022   1 
   6   1  -3 98.0770 14.3965   7 
  -6  -1  -3 90.8108 13.3806   8 
  -6  -1  -3 86.1985 16.4621   6 
   6  -1   3 75.7687 15.6059   7 
  -6  -1  -3 93.0283 19.3124   1 
   6  -1  -3 84.7494 14.5544   7 
   6   1   3 73.7385 14.6605   7 
   6  -1  -3 82.6168 20.2430   1 
   7  -1   3 267.672 29.9377   7 
  -7  -1  -3 223.002 28.3391   6 
  -7  -1  -3 228.474 33.5387   1 
   7   1  -3 249.047 25.9600   7 
   7  -1  -3 262.664 27.9630   7 
   7   1   3 269.204 28.5632   7 
   0  -2   3 168.643 12.5995   1 
   0  -2  -3 155.507 12.0033   5 
   0   2  -3 161.990 12.8162   1 
   0  -2   3 155.832 11.8749   7 
   0   2  -3 154.346 11.8416   6 
   0  -2  -3 158.799 13.1308   1 
   0   2   3 154.156 12.1104   6 
   0  -2   3 193.894 13.2034   1 
   0  -2  -3 170.599 12.3940   6 
   0   2  -3 161.481 12.8623   1 
   0  -2   3 150.853 13.3124   2 
   0   2  -3 155.959 11.7034   7 
   0  -2  -3 152.599 12.2760   3 
   0   2  -3 147.920 13.4572   2 
   0  -2  -3 164.019 11.5996   2 
   0   2   3 168.334 13.1435   1 
   0  -2   3 155.613 11.8455   6 
   0   2   3 175.559 13.7047   8 
   0   2   3 154.668 13.0276   1 
   0  -2  -3 152.736 13.2675   8 
  -1   2   3 3991.05 273.057   7 
  -1  -2  -3 4127.36 280.352   1 
  -1   2   3 4190.17 278.202   1 
  -1   2   3 4354.45 268.293   8 
  -1  -2  -3 4061.24 277.662   8 
   1   2  -3 3979.85 278.937   1 
   1  -2   3 4341.46 270.878   8 
   1  -2   3 2903.79 267.219   1 
  -1  -2  -3 3994.26 269.524   5 
   1  -2   3 4873.81 281.099   1 
  -1   2   3 3028.77 267.897   1 
  -1  -2  -3 4006.49 273.289   6 
   1  -2   3 4467.46 279.402   7 
  -1   2  -3 3534.35 276.659   1 
  -1  -2   3 3716.06 275.640   3 
  -1   2  -3 4325.29 283.098   2 
  -1   2  -3 4574.64 284.611   1 
   1  -2  -3 4915.05 289.538   1 
   1   2   3 4578.97 276.213   6 
   1  -2  -3 3018.67 268.024   1 
  -1  -2   3 4523.40 275.321   6 
  -1  -2   3 2676.38 266.516   1 
  -1   2  -3 4235.22 273.018   7 
   1   2   3 5358.16 283.519   1 
   1   2   3 4479.68 277.840   8 
   1  -2  -3 4342.20 275.586   4 
   1  -2  -3 4066.51 266.713   5 
   1   2   3 5171.40 274.621   3 
   1  -2  -3 4552.31 280.120   8 
   1   2   3 5735.46 288.823   1 
  -2   2   3 851.153 59.3867   8 
  -2   2   3 769.040 59.9601   1 
  -2  -2  -3 832.409 58.0051   6 
   2   2  -3 915.293 60.7829   1 
  -2  -2  -3 844.369 60.2547   1 
  -2   2   3 794.522 58.7953   7 
   2   2  -3 832.432 58.7585   3 
  -2  -2  -3 852.188 58.5883   8 
   2   2  -3 834.089 60.4490   1 
  -2   2   3 986.635 63.0820   1 
   2  -2   3 876.737 59.6065   7 
  -2   2   3 849.438 60.6378   4 
   2   2  -3 811.858 55.9450   7 
   2  -2   3 824.757 60.0402   1 
  -2  -2   3 904.343 57.4138   5 
   2  -2  -3 849.175 59.3958   7 
   2  -2  -3 823.578 62.4454   1 
   2   2   3 908.269 58.5258   8 
   2  -2  -3 890.073 61.1109   4 
  -2   2  -3 828.115 60.4463   1 
  -2  -2   3 871.351 58.5750   6 
  -2   2  -3 870.684 59.9386   7 
   2   2   3 893.447 58.1360   6 
   2   2   3 853.385 59.2125   1 
  -2  -2   3 913.776 60.5779   1 
  -2  -2   3 981.650 60.9540   1 
   2  -2  -3 986.605 61.8636   1 
   2  -2  -3 813.910 59.8448   8 
   3   2  -3 197.237 17.5692   7 
  -3  -2  -3 201.588 19.3839   6 
  -3   2   3 194.184 20.5002   7 
  -3  -2  -3 232.832 21.6617   1 
  -3   2   3 186.785 20.8976   1 
   3   2  -3 201.061 21.8913   1 
  -3  -2  -3 206.905 21.7188   1 
  -3   2   3 215.646 20.1948   8 
   3  -2   3 195.929 20.7297   4 
   3  -2   3 200.992 20.2598   7 
   3  -2   3 185.355 20.9087   1 
  -3  -2  -3 195.795 19.0143   8 
  -3   2   3 203.078 21.6638   4 
  -3   2  -3 265.331 23.1440   1 
  -3  -2   3 268.255 18.2215   5 
   3  -2  -3 251.902 24.7456   1 
  -3   2  -3 283.587 24.0957   1 
  -3  -2   3 283.105 20.9381   6 
  -3  -2   3 273.587 23.0161   1 
   3   2   3 299.571 20.8464   7 
   3  -2  -3 268.624 21.6705   7 
  -3   2  -3 237.768 21.7742   7 
   3  -2  -3 258.790 23.0086   4 
   3   2   3 284.946 22.0618   1 
   3  -2  -3 325.515 24.7659   1 
  -4  -2  -3 311.313 24.1350   8 
   4  -2   3 327.985 26.3439   7 
  -4   2   3 309.273 27.9401   1 
  -4  -2  -3 336.806 29.3383   1 
  -4   2   3 292.276 26.4112   7 
  -4  -2  -3 312.998 25.1890   6 
  -4  -2  -3 323.200 25.5090   4 
   4   2  -3 330.996 29.0770   1 
  -4   2   3 353.186 25.7218   8 
  -4   2   3 352.805 32.3539   4 
   4   2  -3 309.035 22.5963   7 
   4  -2   3 292.323 27.3897   1 
   4  -2   3 318.199 27.4826   4 
   4   2  -3 274.668 27.8159   1 
  -4  -2  -3 348.765 28.5618   1 
   4  -2  -3 222.305 27.8716   1 
  -4   2  -3 252.720 19.2116   8 
  -4  -2   3 233.444 26.3736   1 
  -4   2  -3 225.238 26.2897   1 
   4  -2  -3 223.386 23.9531   7 
  -4  -2   3 232.937 23.8758   6 
  -4  -2   3 227.251 20.6661   5 
   4   2   3 205.253 24.2019   1 
   4  -2  -3 279.099 27.6813   1 
   4  -2  -3 223.592 26.0546   4 
   4   2   3 235.564 23.2020   7 
  -4   2  -3 245.081 19.0448   8 
  -4   2  -3 246.723 27.3257   1 
  -5  -2  -3 1872.54 138.235   1 
  -5   2   3 2373.59 140.447   1 
  -5  -2  -3 2298.15 136.215   4 
   5  -2   3 1929.36 136.596   4 
  -5  -2  -3 1897.55 133.580   6 
   5   2  -3 1923.56 138.726   1 
   5  -2   3 2091.20 135.452   7 
   5   2  -3 1925.21 130.604   7 
  -5  -2  -3 2070.71 132.637   8 
  -5   2   3 2438.88 135.269   8 
  -5   2  -3 2048.84 127.765   8 
  -5   2  -3 1539.31 136.329   1 
  -5  -2   3 1834.22 137.473   1 
   5   2   3 1783.28 141.502   1 
   5  -2  -3 1909.38 133.803   7 
  -5  -2   3 2042.79 129.421   5 
  -5   2  -3 1919.28 127.339   8 
   5  -2  -3 1866.74 140.557   1 
  -5  -2   3 1866.17 133.921   6 
   5   2   3 1929.44 132.530   7 
  -6  -2  -3 197.336 24.5631   6 
   6  -2   3 208.748 25.1521   7 
   6   2  -3 210.616 21.5972   7 
  -6  -2  -3 205.563 22.7072   8 
   6   2  -3 176.928 27.6587   1 
  -6  -2  -3 186.709 27.8189   1 
   6  -2  -3 277.266 25.9662   7 
   6   2   3 273.717 25.1256   7 
   6  -2  -3 244.392 31.5724   1 
  -7  -2  -3 508.650 53.7473   1 
  -7  -2  -3 470.890 47.0666   6 
   7   2   3 579.407 47.1701   7 
   7  -2  -3 615.703 48.6363   7 
   0  -3   3 314.031 23.4552   1 
   0  -3   3 281.142 23.5522   2 
   0  -3   3 288.611 21.5779   7 
   0  -3  -3 312.167 24.1127   1 
   0  -3  -3 293.905 21.6396   2 
   0  -3  -3 293.075 23.4554   1 
   0  -3  -3 391.392 22.2019   5 
   0   3  -3 279.192 23.0326   1 
   0  -3  -3 295.310 23.1217   8 
   0  -3   3 320.955 23.1711   1 
   0  -3  -3 319.970 23.2423   3 
   0   3  -3 290.110 21.4968   7 
   0   3   3 285.518 23.3983   1 
   0   3  -3 295.894 21.8227   6 
   0   3   3 307.386 22.2061   6 
   0  -3   3 296.018 21.8458   6 
   0   3   3 329.609 23.7488   8 
   0  -3  -3 276.101 21.9338   6 
   0  -3   3 310.423 22.5257   8 
  -1  -3  -3 1973.09 132.357   1 
   1   3  -3 1954.56 132.402   1 
  -1  -3  -3 1866.72 131.636   8 
  -1   3   3 2174.78 134.272   1 
  -1  -3  -3 1851.97 132.071   1 
   1  -3   3 1908.85 132.708   8 
   1  -3   3 1900.65 132.925   1 
  -1  -3  -3 1813.68 128.970   5 
  -1   3   3 1776.64 131.481   7 
   1  -3   3 1867.22 131.240   7 
   1   3  -3 1966.57 132.443   1 
  -1   3   3 2010.88 132.054   8 
   1  -3   3 2187.08 132.471   1 
  -1   3   3 1937.56 132.972   1 
   1   3  -3 1845.38 129.824   7 
  -1  -3  -3 1848.49 130.395   6 
   1  -3  -3 1994.42 132.066   8 
  -1  -3   3 2102.18 132.346   1 
  -1  -3   3 2097.98 132.452   3 
  -1   3  -3 2072.19 133.355   2 
   1   3   3 2188.19 132.548   1 
   1  -3  -3 2027.94 133.641   1 
   1  -3  -3 2041.48 130.782   5 
  -1  -3   3 2077.98 130.855   6 
  -1  -3   3 2237.68 132.494   1 
  -1   3  -3 2361.34 131.360   6 
   1   3   3 2081.04 130.697   6 
   1  -3  -3 2299.66 134.909   1 
  -1   3  -3 2033.77 131.824   7 
  -1   3  -3 2057.22 132.613   1 
   1   3   3 2155.05 132.059   8 
   2  -3   3 3638.34 240.781   8 
   2   3  -3 3721.63 242.460   1 
   2   3  -3 3963.95 242.845   1 
  -2  -3  -3 3941.72 241.273   8 
   2   3  -3 3717.38 240.166   7 
  -2  -3  -3 4031.23 242.049   1 
  -2   3   3 3636.59 242.681   1 
   2   3  -3 3843.12 241.010   3 
   2  -3   3 3690.99 243.441   1 
  -2  -3  -3 2453.44 240.207   1 
  -2   3   3 4391.97 246.328   1 
   2  -3   3 4018.24 241.796   7 
  -2  -3  -3 3871.03 239.878   6 
  -2   3   3 4122.24 241.427   8 
  -2  -3  -3 3487.07 237.624   5 
  -2   3   3 3575.75 240.975   7 
   2   3  -3 3840.65 240.228   6 
   2  -3  -3 3592.30 244.535   1 
   2  -3  -3 3838.76 241.990   7 
  -2   3  -3 3628.03 242.622   1 
   2   3   3 3834.09 245.064   8 
  -2  -3   3 3784.08 240.171   6 
   2   3   3 3646.95 241.083   1 
   2  -3  -3 3470.62 241.082   8 
  -2   3  -3 3507.42 241.395   7 
   2   3   3 3879.20 239.812   6 
   2  -3  -3 3953.14 243.846   1 
   2  -3  -3 3629.28 242.618   4 
  -2  -3   3 3726.22 242.345   1 
   3  -3   3 1414.03 87.8279   7 
   3   3  -3 1334.70 82.5143   7 
  -3  -3  -3 1545.57 89.5447   1 
   3  -3   3 1357.97 88.6572   4 
   3   3  -3 1329.77 89.1799   1 
  -3  -3  -3 1341.39 89.2022   1 
   3  -3   3 1388.08 90.0903   1 
  -3   3   3 1225.34 86.7053   7 
  -3   3   3 1332.71 89.0772   1 
  -3   3   3 1500.10 87.0110   8 
  -3  -3  -3 1420.79 86.8242   8 
  -3  -3  -3 1377.02 85.8884   6 
  -3   3  -3 1205.98 89.6718   1 
  -3   3  -3 1031.25 86.5695   7 
   3   3   3 1205.97 84.9989   6 
   3  -3  -3 1237.12 89.1161   1 
  -3  -3   3 1181.73 88.2479   1 
   3  -3  -3 1052.33 89.8211   1 
   3  -3  -3 1154.06 88.3233   4 
   3  -3  -3 1171.79 86.8442   7 
  -3   3  -3 1131.81 88.7579   1 
  -3  -3   3 1110.87 85.2992   6 
  -3  -3   3 1169.44 82.9349   5 
   3   3   3 1170.79 86.8173   1 
  -4   3   3 1018.54 79.8378   1 
   4  -3   3 1100.42 78.6780   7 
   4  -3   3 1073.39 79.7608   4 
  -4  -3  -3 1038.20 76.7600   6 
   4   3  -3 1010.08 80.2693   1 
  -4  -3  -3 1037.98 76.8163   8 
  -4  -3  -3 1018.95 80.5672   1 
  -4   3   3 1220.34 77.7647   8 
  -4  -3  -3 1219.67 81.4081   1 
   4  -3   3 1033.38 80.8436   1 
   4   3  -3 1038.50 73.6548   7 
   4   3   3 1163.86 76.5162   7 
  -4  -3   3 1134.00 80.9787   1 
   4  -3  -3 1097.81 80.9341   4 
  -4   3  -3 1111.41 70.5529   8 
  -4   3  -3 1144.51 82.7320   1 
   4   3   3 1120.23 79.2577   1 
   4  -3  -3 1075.15 83.7708   1 
  -4   3  -3 1227.16 83.2838   1 
   4  -3  -3 1178.58 79.2171   7 
  -4  -3   3 1138.13 73.5336   5 
  -4  -3   3 1129.63 77.6935   6 
  -5  -3  -3 164.659 20.0640   6 
  -5  -3  -3 141.863 22.7665   1 
  -5  -3  -3 162.889 19.9343   4 
  -5   3   3 176.404 18.9974   8 
  -5   3   3 165.275 23.1449   1 
   5   3  -3 156.347 16.3880   7 
   5  -3   3 130.933 20.2138   4 
  -5  -3  -3 162.482 19.1722   8 
   5  -3   3 161.648 20.3578   7 
   5   3  -3 144.321 23.0649   1 
  -5   3  -3 169.769 24.5622   1 
  -5  -3   3 180.387 15.3901   5 
  -5  -3   3 167.003 23.2942   1 
   5  -3  -3 187.293 21.1958   7 
  -5  -3   3 181.562 20.6942   6 
   5   3   3 174.261 19.0400   7 
   5  -3  -3 180.737 23.6436   4 
  -5   3  -3 177.148 12.4282   8 
   5  -3  -3 178.441 25.6091   1 
   6   3  -3 333.001 37.0550   1 
  -6  -3  -3 352.565 38.6162   1 
   6  -3   3 364.450 33.9133   7 
  -6  -3  -3 347.633 33.5680   6 
  -6  -3  -3 346.485 32.0472   8 
   6  -3   3 343.705 36.4150   4 
   6   3  -3 334.881 28.7541   7 
  -6   3  -3 320.432 38.2054   1 
   6   3   3 326.170 30.7056   7 
   6  -3  -3 340.876 33.3210   7 
  -7  -3  -3 285.839 39.1365   1 
  -7  -3  -3 293.646 34.6631   6 
   7   3   3 404.713 34.4094   7 
   0   4   3 2603.76 169.430   1 
   0  -4   3 2683.64 169.178   1 
   0  -4   3 2403.38 166.414   6 
   0  -4   3 2443.33 166.205   7 
   0   4  -3 2615.18 168.978   1 
   0   4   3 2726.94 167.447   6 
   0  -4  -3 2780.96 170.525   1 
   0  -4  -3 2068.71 166.322   6 
   0  -4   3 2685.26 167.515   8 
   0  -4  -3 2623.98 169.335   1 
   0   4  -3 2550.51 166.350   7 
   0   4  -3 2762.65 169.611   1 
   0  -4  -3 2646.79 166.932   2 
   0  -4  -3 2652.97 168.726   3 
   0  -4   3 2581.08 169.112   2 
   0   4   3 2655.26 168.346   8 
   0  -4  -3 2497.34 168.112   8 
   1  -4   3 1307.35 84.2206   7 
   1  -4   3 1454.68 82.7406   8 
   1   4  -3 1270.33 80.9035   7 
  -1   4   3 1591.97 93.1703   1 
  -1   4   3 1511.52 85.1903   6 
  -1  -4  -3 1470.06 86.7636   1 
   1   4  -3 1259.80 85.2350   1 
   1   4  -3 1357.52 85.8818   1 
  -1   4   3 1294.24 84.6970   7 
  -1  -4  -3 1327.92 83.4165   6 
  -1   4   3 1273.17 84.4923   2 
   1   4  -3 1347.94 85.0113   6 
  -1  -4  -3 1332.61 84.7444   3 
   1  -4   3 1381.60 86.5097   1 
  -1  -4  -3 1370.51 85.2812   8 
  -1   4   3 1443.46 85.0491   8 
  -1   4   3 1307.29 86.1670   1 
  -1  -4  -3 1268.55 85.5534   1 
  -1  -4   3 1139.29 84.6572   1 
   1  -4  -3 1222.85 87.0676   1 
  -1   4  -3 1194.15 86.4634   1 
  -1   4  -3 1101.34 83.4913   7 
   1  -4  -3 1145.93 84.1461   8 
   1   4   3 1129.60 82.7747   6 
   1   4   3 1150.18 84.0140   8 
  -1  -4   3 1124.79 84.7092   3 
   1  -4  -3 1119.11 85.8607   1 
  -1  -4   3 1078.18 82.5706   6 
  -1  -4   3 1136.82 85.0879   2 
  -1   4  -3 1085.93 85.0070   1 
   1   4   3 1109.41 84.4931   1 
  -1   4  -3 1084.17 85.4599   2 
  -1  -4   3 1074.85 83.8501   8 
   2  -4   3 585.600 38.8227   8 
  -2   4   3 536.562 42.2184   7 
  -2  -4  -3 605.372 37.9071   5 
  -2   4   3 562.258 44.1788   1 
  -2  -4  -3 613.495 43.1122   8 
   2   4  -3 625.766 41.7969   6 
   2   4  -3 630.984 44.7713   1 
  -2   4   3 618.011 42.3210   8 
  -2  -4  -3 598.114 44.3707   1 
  -2  -4  -3 677.773 44.5670   1 
   2  -4   3 644.360 46.2735   1 
   2   4  -3 648.615 44.7993   1 
   2  -4   3 597.458 42.7910   7 
  -2  -4  -3 604.976 41.5326   6 
  -2   4  -3 572.576 44.7941   2 
  -2  -4   3 552.201 43.5013   1 
   2  -4  -3 527.404 42.1779   8 
  -2   4  -3 586.320 45.2442   1 
   2   4   3 580.263 41.2470   6 
   2  -4  -3 557.957 45.0164   1 
  -2   4  -3 492.491 43.2833   1 
  -2   4  -3 574.040 38.8553   8 
  -2   4  -3 515.234 42.4678   7 
   2  -4  -3 499.522 44.9951   1 
  -2  -4   3 545.089 42.8145   8 
   2  -4  -3 550.235 43.2227   7 
  -2  -4   3 575.164 41.3829   6 
   2   4   3 566.524 43.1345   1 
  -2  -4   3 502.793 42.3292   3 
   2   4   3 584.873 42.2935   8 
   2  -4  -3 544.106 43.8386   4 
  -3  -4  -3 502.813 39.6118   1 
  -3   4   3 461.386 38.6516   1 
   3   4  -3 477.594 31.6316   7 
   3   4  -3 518.783 39.1794   1 
   3  -4   3 479.696 37.1341   7 
   3  -4   3 454.040 39.2387   1 
  -3  -4  -3 493.527 35.7217   6 
  -3  -4  -3 568.441 39.4791   1 
   3   4  -3 554.236 36.6813   6 
  -3   4   3 498.166 35.8685   8 
   3   4  -3 453.015 38.4202   1 
  -3  -4  -3 473.841 36.6118   8 
   3   4   3 448.430 35.5516   8 
  -3   4  -3 474.857 40.1940   1 
   3  -4  -3 490.842 40.0653   1 
  -3   4  -3 408.896 38.5096   1 
   3   4   3 464.620 35.1030   6 
  -3  -4   3 416.844 35.0221   6 
   3  -4  -3 425.245 38.3278   4 
   3  -4  -3 426.870 37.1597   7 
   3  -4  -3 430.736 40.3405   1 
   3   4   3 435.170 36.8440   1 
  -3  -4   3 414.826 36.8426   8 
  -3   4  -3 427.853 30.8188   8 
   3  -4  -3 390.533 35.6335   8 
  -3  -4   3 441.103 38.1265   1 
   4   4  -3 605.197 48.7423   1 
   4   4  -3 596.692 39.8626   7 
   4  -4   3 643.237 46.2570   7 
  -4  -4  -3 611.884 44.5256   6 
   4  -4   3 610.263 47.7436   4 
  -4   4   3 596.638 48.4606   1 
  -4  -4  -3 579.273 48.1859   1 
  -4  -4  -3 598.101 44.8108   8 
   4  -4   3 594.992 48.9182   1 
  -4  -4  -3 663.151 47.8889   1 
  -4   4   3 663.609 44.1874   8 
   4  -4  -3 516.795 47.4099   4 
   4  -4  -3 545.785 45.6835   7 
  -4  -4   3 584.778 44.5390   6 
  -4  -4   3 480.209 44.8434   8 
   4  -4  -3 514.905 49.4338   1 
   4   4   3 552.569 45.9919   1 
  -4   4  -3 594.871 49.7861   1 
  -4  -4   3 538.457 39.7064   5 
  -4   4  -3 491.975 47.0493   1 
   4   4   3 511.777 42.1469   7 
  -4   4  -3 535.130 37.0355   8 
  -4  -4   3 508.918 46.3140   1 
   5  -4   3 674.635 57.5154   4 
  -5  -4  -3 680.665 53.8706   8 
  -5  -4  -3 638.741 57.8539   1 
   5   4  -3 680.959 49.4446   7 
   5   4  -3 616.332 57.3874   1 
  -5  -4  -3 651.830 53.3517   6 
   5  -4   3 749.507 56.0764   7 
  -5   4   3 686.819 58.7099   1 
  -5   4   3 778.648 52.9978   8 
   5  -4  -3 680.335 61.4224   1 
  -5   4  -3 662.780 59.0918   1 
   5  -4  -3 746.507 59.8356   4 
   5   4   3 780.507 53.2653   7 
  -5  -4   3 680.177 54.0425   6 
   5  -4  -3 728.331 55.7879   7 
  -5  -4   3 714.153 56.3497   8 
  -5  -4   3 687.347 58.2913   1 
  -5  -4   3 746.201 48.7514   5 
  -6  -4  -3 584.676 50.9193   8 
   6  -4   3 644.924 53.3197   7 
   6  -4   3 528.049 54.0093   4 
  -6  -4  -3 546.036 55.6461   1 
  -6  -4  -3 547.279 50.9066   6 
  -6   4  -3 791.734 62.7093   1 
   6   4   3 720.213 50.3271   7 
   6  -4  -3 722.163 54.2625   7 
  -7  -4  -3 358.201 37.9095   6 
  -7  -4  -3 347.293 42.6417   1 
  -7   4  -3 394.324 47.3430   1 
   7   4   3 366.961 34.9633   7 
   0   5  -3 92.0999 10.4024   7 
   0   5  -3 118.383 12.7392   6 
   0  -5   3 95.3424 10.8452   6 
   0   5   3 101.460 13.2901   1 
   0  -5  -3 108.078 13.1147   3 
   0   5   3 107.872 12.3370   8 
   0  -5   3 99.7440 12.6129   1 
   0   5  -3 95.5849 12.8408   1 
   0  -5  -3 110.350 11.4125   2 
   0   5  -3 103.927 13.0248   1 
   0   5   3 91.0039 11.2217   7 
   0  -5  -3 125.124 14.7801   1 
   0  -5  -3 98.8162 11.2673   6 
   0  -5   3 97.4973 12.7311   2 
   0  -5   3 96.8864 11.2100   8 
   0   5   3 112.525 11.6429   6 
   0  -5  -3 139.741 14.6857   1 
   0  -5  -3 99.5189 12.3179   8 
   0  -5   3 96.3469 10.5820   7 
  -1   5   3 755.365 61.1667   2 
  -1  -5  -3 786.412 59.9910   6 
   1  -5   3 817.217 59.3586   8 
  -1  -5  -3 753.923 62.1086   1 
   1   5  -3 868.127 62.9476   1 
  -1   5   3 746.643 60.8285   7 
  -1  -5  -3 806.396 61.7244   8 
  -1  -5  -3 881.840 63.5053   1 
   1   5  -3 792.725 62.4762   1 
   1   5  -3 882.601 60.4783   6 
  -1  -5  -3 878.534 60.8401   2 
  -1   5   3 801.900 63.1614   1 
  -1   5   3 860.513 61.5665   8 
   1   5  -3 744.212 57.6746   7 
   1  -5   3 769.127 62.6222   1 
  -1  -5  -3 799.956 61.5011   3 
  -1   5   3 905.031 61.5686   6 
   1  -5   3 792.321 60.9150   7 
  -1  -5   3 884.388 60.3391   6 
  -1  -5   3 992.618 63.9704   3 
   1   5   3 1009.80 61.0610   6 
  -1   5  -3 925.159 61.2706   7 
  -1  -5   3 910.663 62.9954   1 
   1   5   3 970.221 62.2769   8 
  -1   5  -3 984.947 64.5766   1 
  -1   5  -3 959.454 64.3516   2 
   1  -5  -3 915.759 64.2071   1 
   1  -5  -3 903.429 61.8398   8 
   1   5   3 911.951 62.8090   1 
  -1  -5   3 965.298 62.4704   8 
  -1   5  -3 1076.46 65.8316   1 
   1  -5  -3 1111.54 67.1553   1 
  -2  -5  -3 2469.32 146.754   1 
  -2  -5  -3 2247.04 144.866   8 
   2  -5   3 2328.71 144.512   7 
   2   5  -3 2220.45 138.889   7 
  -2   5   3 2173.41 146.370   1 
   2   5  -3 2382.06 146.580   1 
   2   5  -3 2483.89 143.600   6 
   2   5  -3 2153.73 145.435   1 
  -2   5   3 2340.31 143.513   8 
  -2  -5  -3 2123.44 142.475   6 
   2  -5   3 2276.96 147.398   1 
   2  -5   3 2252.75 140.206   8 
  -2   5   3 2255.86 145.581   2 
  -2  -5  -3 2157.66 145.878   1 
  -2   5  -3 2046.99 140.105   8 
   2  -5  -3 2018.48 147.386   1 
   2  -5  -3 2508.69 149.831   1 
  -2  -5   3 1964.22 144.027   8 
  -2  -5   3 1954.25 144.175   3 
  -2  -5   3 2050.08 142.335   6 
  -2  -5   3 1997.34 144.687   1 
   2   5   3 2056.67 144.785   1 
  -2   5  -3 1877.04 143.197   7 
   2   5   3 2172.84 143.954   8 
  -2   5  -3 1987.37 145.973   2 
  -2   5  -3 1895.68 144.942   1 
   2   5   3 2210.87 142.583   6 
   2  -5  -3 1986.28 143.234   8 
  -2   5  -3 2300.71 148.256   1 
  -3  -5  -3 2620.96 160.334   1 
   3  -5   3 2360.80 152.569   8 
  -3   5   3 2469.29 156.436   8 
  -3  -5  -3 2423.95 150.210   5 
  -3   5   3 2390.47 160.970   1 
  -3  -5  -3 2347.73 157.990   8 
   3   5  -3 2603.34 157.010   6 
   3  -5   3 2499.11 158.369   7 
   3   5  -3 2448.69 151.778   7 
   3  -5   3 2483.73 162.465   1 
  -3  -5  -3 2416.66 160.731   1 
   3   5  -3 2395.90 160.671   1 
   3   5  -3 2736.63 162.001   1 
  -3  -5  -3 2436.18 156.708   6 
  -3   5  -3 2219.58 160.542   1 
   3  -5  -3 2803.38 180.955   1 
   3  -5  -3 2120.56 156.691   8 
   3   5   3 2133.42 157.755   1 
  -3  -5   3 2146.99 157.902   8 
  -3   5  -3 2553.65 163.315   1 
   3  -5  -3 2246.69 159.029   7 
   3   5   3 2251.37 155.474   6 
  -3   5  -3 2151.71 151.828   8 
  -3   5  -3 2286.35 160.387   2 
  -3  -5   3 2167.73 155.871   6 
  -3  -5   3 2220.91 159.672   1 
   3  -5  -3 2184.47 159.756   4 
   3  -5  -3 2251.28 162.637   1 
  -4  -5  -3 868.830 70.2811   1 
   4  -5   3 924.273 67.7384   7 
  -4   5   3 847.308 70.1586   1 
   4   5  -3 854.342 60.5835   7 
  -4  -5  -3 832.836 66.6838   8 
  -4   5   3 947.521 64.9187   8 
  -4  -5  -3 860.087 65.3606   6 
   4   5  -3 810.469 69.2714   1 
   4  -5   3 809.519 68.3145   4 
  -4  -5   3 918.323 68.4562   8 
   4  -5  -3 971.440 74.3183   1 
   4  -5  -3 903.576 69.9874   4 
  -4   5  -3 968.829 59.4527   8 
  -4  -5   3 928.860 70.1718   1 
   4  -5  -3 968.727 69.3317   7 
  -4  -5   3 1038.08 62.0925   5 
   4   5   3 898.305 69.0802   1 
  -4   5  -3 956.374 72.5772   1 
  -4  -5   3 929.255 66.3553   6 
  -5   5   3 146.320 17.4359   8 
   5   5  -3 122.679 22.3891   1 
   5  -5   3 151.273 20.7290   7 
  -5  -5  -3 114.077 21.5106   1 
  -5  -5  -3 142.264 20.6036   8 
   5  -5   3 122.097 20.4635   4 
  -5  -5  -3 120.581 18.8847   6 
   5  -5  -3 160.405 21.5872   7 
   5  -5  -3 147.113 25.4221   1 
   5  -5  -3 133.010 22.0690   4 
  -5  -5   3 144.516 20.9883   8 
   5   5   3 156.850 17.8892   7 
  -5   5  -3 130.075 22.6019   1 
  -5  -5   3 145.052 13.6272   5 
  -6  -5  -3 272.964 36.4597   1 
   6  -5   3 277.141 36.0138   4 
  -6  -5  -3 270.015 31.3297   6 
  -6  -5  -3 276.560 31.2820   8 
   6   5   3 334.249 29.6816   7 
  -6   5  -3 334.336 39.3157   1 
   6  -5  -3 365.194 35.4219   7 
  -7   5  -3 418.637 50.4350   1 
   0  -6  -3 3289.61 187.138   1 
   0  -6  -3 2662.29 181.694   8 
   0   6   3 3077.25 181.570   6 
   0   6  -3 3045.20 180.862   6 
   0   6  -3 2574.10 182.744   1 
   0   6  -3 2571.33 178.826   7 
   0   6   3 2555.70 180.445   7 
   0  -6  -3 2789.93 183.157   3 
   0  -6   3 2796.48 180.842   8 
   0   6   3 2841.00 181.868   8 
   0  -6   3 2703.35 183.040   1 
   0  -6   3 2224.46 178.926   6 
   0   6   3 2730.47 183.673   1 
   0   6  -3 3020.28 184.568   1 
   0  -6  -3 2803.83 180.837   2 
   0  -6  -3 2572.54 183.265   1 
   1   6  -3 583.466 40.0507   6 
  -1  -6  -3 557.212 42.3191   3 
   1  -6   3 552.263 38.9844   8 
   1  -6   3 515.063 40.2610   7 
  -1  -6  -3 535.836 41.4446   8 
  -1  -6  -3 622.733 44.2999   1 
   1   6  -3 526.865 36.9314   7 
   1  -6   3 571.484 43.4368   1 
  -1   6   3 505.823 40.9367   2 
  -1  -6  -3 519.843 42.4539   1 
  -1   6   3 639.426 41.9888   6 
   1   6  -3 544.130 42.8370   1 
  -1  -6  -3 565.922 40.3573   2 
  -1  -6  -3 536.440 39.4806   6 
   1   6  -3 578.570 43.0523   1 
  -1   6   3 586.972 40.9534   8 
  -1   6   3 540.109 42.6935   1 
  -1  -6   3 472.529 41.6716   3 
  -1  -6   3 513.552 42.2773   1 
   1   6   3 449.680 40.8587   1 
   1   6   3 549.764 39.6630   6 
  -1  -6   3 490.756 40.4431   8 
  -1   6  -3 585.593 44.6159   1 
  -1   6  -3 439.434 38.7814   7 
   1   6   3 542.079 41.6720   8 
  -1  -6   3 479.570 38.8514   6 
   1  -6  -3 456.985 41.9032   1 
  -1   6  -3 519.064 39.7078   6 
  -1   6  -3 486.849 42.2106   1 
   1  -6  -3 468.834 40.1028   8 
   1  -6  -3 542.235 44.3771   1 
  -1   6  -3 481.315 42.6095   2 
   2   6  -3 313.632 32.8634   1 
  -2   6   3 364.840 33.8443   2 
   2   6  -3 439.460 35.9839   1 
  -2   6   3 394.901 32.2083   8 
   2   6  -3 362.171 27.4467   7 
   2  -6   3 351.351 28.7221   8 
   2   6  -3 377.733 31.3698   6 
  -2  -6  -3 347.066 32.8915   8 
  -2  -6  -3 423.268 35.4110   1 
  -2   6   3 361.192 34.4878   1 
   2  -6   3 397.344 35.8632   1 
  -2  -6  -3 397.707 34.8927   1 
   2  -6   3 368.393 32.6155   7 
  -2  -6  -3 386.843 31.5047   6 
  -2   6   3 449.403 34.0072   6 
  -2   6  -3 386.985 35.0349   1 
  -2  -6   3 375.381 34.2810   3 
  -2  -6   3 386.252 31.3507   6 
  -2   6  -3 391.787 35.5772   2 
  -2  -6   3 367.056 33.9218   1 
   2  -6  -3 476.968 38.2823   1 
  -2   6  -3 432.194 29.7081   8 
  -2   6  -3 452.146 32.6948   6 
  -2   6  -3 463.919 38.2855   1 
   2   6   3 375.612 33.6619   1 
   2   6   3 418.766 31.6525   6 
  -2  -6   3 375.636 33.1506   8 
   2  -6  -3 348.358 31.5021   8 
   2  -6  -3 372.021 35.9568   1 
  -3   6   3 443.226 40.0071   1 
   3   6  -3 493.178 36.2731   6 
  -3  -6  -3 455.876 38.1763   8 
  -3   6   3 459.715 35.7176   8 
   3   6  -3 496.629 31.1425   7 
  -3  -6  -3 468.881 40.5719   1 
   3  -6   3 493.034 38.7081   7 
  -3  -6  -3 611.319 55.4554   1 
   3  -6   3 462.253 40.4650   1 
  -3  -6  -3 451.739 35.8964   6 
   3  -6   3 443.833 32.3836   8 
  -3   6   3 433.121 38.7862   2 
   3   6  -3 434.682 39.1598   1 
   3  -6  -3 423.892 41.4834   1 
   3  -6  -3 447.380 39.4313   7 
   3   6   3 412.358 37.7853   1 
   3  -6  -3 392.918 38.5105   4 
  -3   6  -3 439.492 40.0082   2 
   3  -6  -3 387.735 35.6952   8 
  -3   6  -3 469.987 37.0615   6 
  -3  -6   3 420.562 39.0838   1 
  -3   6  -3 431.212 32.0098   8 
  -3  -6   3 392.549 37.4597   8 
  -3   6  -3 387.490 39.1201   1 
  -3  -6   3 400.479 35.6464   6 
   4  -6   3 649.905 54.3538   4 
  -4  -6  -3 635.938 55.9664   1 
  -4   6   3 691.927 50.6077   8 
  -4  -6  -3 659.828 52.9465   8 
  -4  -6  -3 649.171 51.1661   6 
   4  -6   3 723.924 53.9999   7 
  -4   6   3 647.622 55.3576   1 
   4   6  -3 671.084 56.3271   1 
   4  -6  -3 658.723 55.0492   7 
  -4   6  -3 659.046 55.7481   2 
  -4   6  -3 638.363 55.8867   1 
  -4  -6   3 627.057 53.6489   8 
   4  -6  -3 645.839 56.0751   4 
  -4  -6   3 666.651 54.5943   6 
  -4  -6   3 694.676 46.5439   5 
   4  -6  -3 679.742 58.6186   1 
   4  -6  -3 631.447 50.9495   8 
   5   6  -3 373.996 39.9055   1 
  -5  -6  -3 367.207 34.3376   6 
  -5  -6  -3 378.276 36.3711   8 
   5  -6   3 448.160 37.9031   7 
   5  -6   3 372.442 38.2664   4 
  -5  -6  -3 345.181 38.8947   1 
   5  -6  -3 351.407 36.9747   7 
  -5  -6   3 361.115 38.0976   8 
   5   6   3 380.270 32.2895   7 
   5  -6  -3 357.276 38.8055   4 
  -5   6  -3 368.326 41.0109   1 
  -6  -6  -3 830.692 74.5553   1 
  -6  -6  -3 834.256 67.8644   6 
  -6   6  -3 842.007 74.6838   1 
   6   6   3 952.274 65.6411   7 
   0  -7  -3 586.014 47.3853   3 
   0  -7  -3 574.506 45.8293   8 
   0   7  -3 548.224 46.5738   1 
   0   7   3 549.263 46.8638   1 
   0  -7   3 575.511 43.7793   6 
   0   7  -3 539.420 42.3958   7 
   0  -7  -3 555.485 47.3766   1 
   0  -7  -3 664.120 50.5772   1 
   0  -7   3 575.288 44.4763   8 
   0   7  -3 623.596 44.5750   6 
   0   7  -3 657.325 49.1523   1 
   0   7   3 628.291 44.9502   6 
   0  -7   3 562.177 46.7492   1 
   1   7  -3 380.767 31.2917   7 
  -1   7   3 470.674 36.2321   6 
  -1   7   3 343.784 35.1492   2 
  -1   7   3 367.652 36.4881   1 
  -1  -7  -3 414.636 36.1775   8 
   1  -7   3 377.073 34.6037   7 
   1  -7   3 434.442 38.3002   1 
  -1  -7  -3 493.241 40.0649   1 
   1   7  -3 429.224 37.7124   1 
   1   7  -3 437.293 34.6198   6 
  -1  -7  -3 406.039 34.3871   6 
  -1  -7  -3 422.369 37.1840   3 
  -1  -7  -3 376.462 36.7826   1 
   1  -7   3 404.073 33.6069   8 
   1   7  -3 371.085 36.4764   1 
  -1   7  -3 541.368 41.4424   1 
   1   7   3 425.834 36.9279   1 
   1  -7  -3 450.740 35.8154   8 
  -1   7  -3 430.386 38.0961   1 
   1   7   3 481.962 35.1006   6 
  -1   7  -3 480.590 35.4218   6 
  -1  -7   3 457.186 38.6604   3 
   1  -7  -3 446.063 39.0897   1 
  -1   7  -3 459.640 39.3080   2 
  -1  -7   3 480.438 38.4425   1 
  -1  -7   3 469.117 34.9707   6 
  -1   7  -3 417.575 34.3772   7 
  -1  -7   3 476.420 36.5896   8 
   2   7  -3 437.674 32.0980   7 
  -2  -7  -3 451.794 40.1313   1 
   2  -7   3 488.001 45.3448   1 
  -2   7   3 449.144 39.5779   2 
  -2  -7  -3 467.959 39.2789   8 
   2   7  -3 498.463 36.9871   6 
  -2  -7  -3 480.389 37.0387   6 
   2  -7   3 418.821 37.5867   7 
  -2   7   3 472.460 41.0946   1 
  -2   7   3 560.963 39.9842   6 
   2  -7   3 448.683 34.0149   8 
   2   7  -3 449.203 39.9511   1 
  -2  -7   3 403.521 38.4121   1 
  -2  -7   3 449.202 40.0818   3 
  -2  -7   3 442.758 38.5022   8 
  -2   7  -3 442.913 40.7422   1 
  -2   7  -3 509.572 37.9696   6 
   2  -7  -3 409.053 36.2094   8 
  -2   7  -3 431.616 40.9177   2 
   2  -7  -3 449.346 41.8262   1 
  -2  -7   3 402.343 35.5769   6 
   2   7   3 408.841 38.5763   1 
   3  -7   3 1813.73 120.762   8 
  -3  -7  -3 1762.63 129.046   1 
  -3   7   3 1883.13 130.103   1 
  -3   7   3 1846.38 128.560   2 
   3  -7   3 1920.22 126.963   7 
  -3  -7  -3 1842.31 124.745   6 
   3   7  -3 1788.45 128.777   1 
  -3  -7  -3 1882.79 127.826   8 
  -3  -7   3 1796.61 126.616   6 
   3  -7  -3 1788.87 124.938   8 
  -3   7  -3 1905.03 125.554   8 
  -3  -7   3 1763.02 127.240   8 
   3  -7  -3 1843.37 129.323   4 
  -3   7  -3 1877.15 130.924   2 
   3  -7  -3 1856.39 131.573   1 
  -3   7  -3 1765.28 129.511   1 
  -4  -7  -3 197.601 25.1614   8 
  -4  -7  -3 188.091 23.1403   6 
   4  -7   3 189.527 25.4279   4 
  -4   7   3 192.046 26.4392   2 
  -4  -7  -3 194.936 27.2123   1 
   4  -7   3 209.861 25.3527   7 
   4   7  -3 172.081 26.4748   1 
  -4  -7   3 217.002 26.1681   8 
   4  -7  -3 236.353 24.0611   8 
   4  -7  -3 268.726 32.3301   1 
   4  -7  -3 229.548 27.8341   4 
   4  -7  -3 233.071 27.8849   7 
  -4   7  -3 225.507 28.0442   2 
  -4   7  -3 230.528 29.4536   1 
  -5  -7  -3 85.1132 18.4927   6 
   5  -7   3 110.346 23.0392   7 
  -5  -7  -3 95.3758 21.9702   1 
  -5   7  -3 118.197 22.8843   2 
  -5   7  -3 113.092 23.4226   1 
   5   7   3 112.265 16.4091   7 
  -6   7  -3 341.683 43.1253   1 
   0  -8  -3 2022.35 141.889   1 
   0  -8  -3 2073.70 139.632   8 
   0   8  -3 2032.42 141.672   1 
   0  -8   3 2161.07 142.801   3 
   0  -8  -3 2091.47 141.361   3 
   0   8  -3 2020.02 136.151   7 
   0   8   3 2094.40 141.879   1 
   0  -8   3 1938.44 140.572   6 
   0  -8   3 1999.02 137.870   8 
  -1  -8  -3 73.4601 16.3195   1 
   1   8  -3 93.7999 11.3785   7 
  -1   8   3 69.3377 14.8218   1 
   1  -8   3 77.6791 12.7158   8 
  -1  -8  -3 101.247 15.8969   8 
   1   8  -3 87.2143 16.6442   1 
  -1  -8  -3 82.5862 15.7104   3 
  -1   8   3 106.200 17.3388   6 
  -1  -8  -3 82.5193 13.9076   6 
   1  -8  -3 75.3328 17.1928   1 
   1  -8  -3 77.7074 17.0020   3 
   1   8   3 66.0804 14.6357   1 
  -1  -8   3 65.2041 15.0507   3 
  -1   8  -3 65.0613 15.9177   1 
  -1  -8   3 78.5260 14.2583   8 
   1  -8  -3 75.0150 13.6901   8 
   2   8  -3 506.118 45.2323   1 
   2  -8   3 542.660 43.7298   7 
   2  -8   3 505.754 38.4966   8 
  -2   8   3 545.161 50.0501   1 
  -2  -8  -3 507.178 45.3759   1 
  -2  -8  -3 530.547 43.7458   8 
  -2   8   3 516.701 44.5037   2 
  -2  -8  -3 522.712 41.5328   6 
  -2  -8   3 470.732 42.9789   8 
  -2   8  -3 491.083 46.0204   2 
   2  -8  -3 474.164 40.8307   8 
  -2  -8   3 471.432 44.1841   3 
  -2   8  -3 471.864 45.4027   1 
   2  -8  -3 469.376 46.1612   1 
   3  -8   3 365.648 35.4233   7 
  -3  -8  -3 342.479 33.3671   6 
  -3   8   3 340.138 36.8927   2 
  -3  -8  -3 346.230 37.9839   1 
   3   8  -3 312.287 36.6095   1 
  -3  -8  -3 354.297 36.0121   8 
   3  -8  -3 370.471 39.7330   1 
  -3   8  -3 433.004 41.5765   2 
  -3  -8   3 392.592 36.6612   8 
   3  -8  -3 407.270 38.9026   4 
   3  -8  -3 371.575 33.5026   8 
  -3   8  -3 408.241 39.2158   1 
   4  -8   3 897.859 64.1055   7 
  -4  -8  -3 785.487 60.1539   6 
  -4   8   3 738.646 63.1614   2 
  -4  -8  -3 757.863 65.4922   1 
  -4   8  -3 775.283 66.5295   1 
  -4   8  -3 703.717 64.4044   2 
   4  -8  -3 706.889 58.6595   8 
  -5   8   3 34.6931 18.1417   2 
  -5   8  -3 24.5815 19.0354   1 
   0  -9  -3 148.924 23.1501   1 
   0  -9  -3 163.940 21.0872   8 
   0  -9  -3 160.760 23.6911   3 
   0  -9   3 166.863 24.8495   3 
   0   9  -3 148.972 22.7297   1 
   0  -9   3 152.930 19.5295   8 
  -1  -9  -3 681.429 50.4459   6 
  -1  -9  -3 664.766 52.6427   8 
  -1  -9  -3 619.791 53.8810   1 
   1  -9   3 645.352 48.6421   8 
  -1  -9  -3 693.592 54.4646   3 
   1   9  -3 626.519 54.0720   1 
  -1  -9   3 575.698 52.8879   3 
  -1   9  -3 588.433 53.8748   1 
   1  -9  -3 591.066 50.4925   8 
   1  -9  -3 628.866 54.8015   3 
  -1  -9   3 609.980 50.8403   8 
   1  -9  -3 595.102 54.5403   1 
  -2  -9  -3 203.872 23.5480   6 
   2   9  -3 189.339 26.4558   1 
  -2   9   3 198.513 26.7524   2 
  -2  -9  -3 201.809 25.4364   8 
  -2  -9  -3 199.441 27.2791   1 
   2  -9   3 194.711 20.8053   8 
  -2   9  -3 219.156 29.1848   2 
  -2  -9   3 211.836 25.5276   8 
   2  -9  -3 200.372 23.9437   8 
  -2  -9   3 217.435 28.6386   3 
  -2   9  -3 214.951 27.9658   1 
   3   9  -3 1447.14 112.306   1 
   3  -9   3 1567.60 109.230   7 
  -3   9   3 1421.61 111.071   2 
  -3  -9  -3 1523.76 112.928   1 
  -3  -9  -3 1497.47 106.472   6 
  -3   9  -3 1544.05 113.559   2 
   3  -9  -3 1427.39 105.743   8 
  -3   9  -3 1611.90 114.097   1 
  -4   9   3 183.667 27.2813   2 
  -4   9  -3 182.812 29.5843   1 
   0 -10  -3 1120.03 82.6519   3 
   0 -10   3 1025.44 77.2903   8 
   0 -10   3 1035.59 83.4386   3 
   0  10  -3 964.286 81.4510   1 
   1 -10   3 90.1038 16.5809   8 
  -1 -10  -3 87.4889 20.8362   3 
   1  10  -3 93.4530 20.0196   1 
  -1 -10   3 93.9712 22.3517   3 
  -1 -10   3 119.995 20.7905   8 
   1 -10  -3 96.9267 17.8584   8 
  -1  10  -3 100.796 21.6182   1 
   1 -10  -3 110.579 23.7524   3 
  -2  10  -3 152.738 25.7258   1 
  -2  10  -3 155.235 27.8138   2 
  -2 -10   3 179.533 26.5659   3 
   2 -10  -3 162.706 22.9198   8 
  -3  10   3 334.726 38.8093   2 
  -3  10  -3 344.490 39.6284   1 
   3 -10  -3 324.531 33.3455   8 
   0 -11   3 89.6595 23.7341   3 
   0 -11  -3 102.060 24.3545   3 
  -1 -11  -3 365.227 39.8930   3 
   1 -11   3 312.703 39.9258   3 
  -1 -11   3 364.370 42.0585   3 
   1 -11  -3 349.395 41.6932   3 
  -2 -11   3 288.165 37.7582   3 
   2 -11  -3 303.078 39.7738   3 
   0 -12   3 459.447 52.4920   3 
   0 -12  -3 496.556 51.6015   3 
  -1 -12  -3 142.418 30.1622   3 
   1 -12   3 168.074 34.3634   3 
   1 -12  -3 216.821 34.8932   3 
  -1 -12   3 223.739 33.1619   3 
   0   0  -4 73.3985 7.19914   8 
   0   0   4 65.8163 7.04016   8 
   0   0   4 55.8935 5.30331   2 
  -1   0  -4 317.402 22.1527   6 
  -1   0  -4 356.010 22.8585   1 
  -1   0   4 362.989 25.3781   8 
   1   0  -4 332.265 22.0827   3 
   1   0   4 349.175 21.8969   1 
  -1   0  -4 320.318 22.8087   1 
   1   0  -4 298.867 23.4633   5 
   1   0  -4 295.965 24.0587   1 
   1   0   4 356.407 23.2273   8 
   1   0   4 341.387 21.7911   1 
   1   0  -4 338.947 24.1529   1 
  -1   0   4 330.311 23.6814   5 
  -1   0   4 343.736 24.2548   1 
  -1   0  -4 333.602 23.2347   8 
   2   0   4 3.66809 2.67447   7 
   2   0  -4 8.99505 3.50483   7 
   2   0  -4 7.10191 4.81030   1 
  -2   0   4 3.83562 3.23556   1 
  -2   0   4 8.06385 5.36243   4 
   2   0  -4 1.90417 2.10484   5 
  -2   0   4 2.15002 2.29327   5 
   2   0   4 12.4862 2.60032   8 
  -2   0   4 3.22166 2.13689   7 
  -2   0  -4 1.56382 2.37972   1 
  -2   0  -4 10.1776 2.69862   8 
  -2   0  -4 4.93856 3.77870   1 
   2   0   4 4.87673 3.19418   1 
   2   0   4 6.36578 3.05712   4 
  -3   0  -4 5237.10 341.236   1 
   3   0  -4 4762.86 338.943   1 
   3   0  -4 5488.58 348.459   7 
   3   0  -4 5306.04 338.723   1 
  -3   0   4 4807.11 335.547   7 
   3   0   4 5092.07 336.494   1 
  -3   0  -4 5194.96 335.358   4 
  -3   0   4 5809.72 340.014   4 
   3   0   4 5089.00 341.061   7 
  -3   0  -4 5745.63 341.027   8 
  -3   0   4 5174.06 341.166   5 
  -4   0   4 6.47346 4.17688   5 
  -4   0  -4 0.30803 5.45816   1 
  -4   0  -4 6.20090 3.38973   8 
  -4   0   4 7.34314 7.38013   4 
   4   0   4 28.6884 8.05837   7 
   4   0  -4 2.27564 4.98939   1 
  -4   0  -4 5.50592 5.76217   4 
   4   0  -4 5.62760 6.42023   1 
   4   0   4 3.35770 4.82297   1 
  -4   0   4 3.10598 3.66227   7 
   4   0  -4 11.2356 5.59801   7 
   5   0  -4 383.666 38.6541   1 
  -5   0  -4 410.271 30.0045   8 
   5   0  -4 373.501 32.1568   7 
   5   0   4 418.857 34.8410   7 
  -5   0  -4 427.406 34.9331   4 
   6   0   4 74.3756 15.0376   7 
   6   0  -4 68.6426 13.3847   7 
   6   0  -4 58.9537 18.0215   1 
  -6   0  -4 70.4206 15.4147   6 
   7   0  -4 1517.77 103.291   7 
  -7   0  -4 1347.17 105.742   6 
   7   0   4 1509.27 106.580   7 
  -8   0  -4 7.13281 13.8790   1 
  -8   0  -4 5.58585 12.0956   6 
   0   1   4 4905.39 311.447   1 
   0  -1  -4 4392.82 314.324   1 
   0  -1   4 4545.32 306.974   6 
   0  -1  -4 4595.91 317.712   8 
   0  -1   4 5114.74 306.510   1 
   0  -1  -4 4985.71 314.558   1 
   0  -1   4 5251.18 305.855   1 
   0   1  -4 4658.24 310.200   1 
   0  -1  -4 4762.33 313.346   4 
   0   1   4 4817.63 312.782   5 
   0   1   4 4873.83 311.083   8 
   0   1  -4 4970.74 310.909   1 
   0   1   4 5062.51 310.922   1 
   0  -1  -4 4467.43 311.072   5 
   0   1  -4 4974.95 308.017   6 
   0   1   4 4764.54 310.225   6 
   0  -1   4 4381.25 315.292   2 
   1  -1   4 333.440 21.8818   1 
  -1   1   4 308.680 23.3392   1 
   1  -1   4 330.145 22.0478   1 
  -1  -1  -4 332.503 22.8392   1 
   1  -1   4 328.618 23.6340   7 
  -1   1   4 347.827 25.1223   8 
  -1   1   4 354.238 24.7922   1 
  -1   1   4 336.942 24.4947   4 
   1   1  -4 334.917 23.7070   1 
   1  -1   4 332.485 22.3553   8 
  -1  -1  -4 332.891 23.2087   1 
  -1   1   4 307.958 23.0774   5 
  -1  -1  -4 341.323 23.4208   8 
  -1   1   4 322.586 23.4996   7 
  -1  -1  -4 331.024 22.0618   6 
   1   1  -4 315.687 23.8809   1 
   1   1   4 328.445 22.0287   5 
   1  -1  -4 297.987 23.9522   4 
   1  -1  -4 276.917 22.8035   5 
  -1  -1   4 347.384 23.8025   1 
   1   1   4 315.388 23.1289   8 
  -1  -1   4 286.596 22.5028   3 
  -1   1  -4 322.102 23.0673   1 
  -1  -1   4 346.169 22.7980   6 
   1  -1  -4 321.314 25.2215   8 
   1   1   4 332.687 22.3923   1 
  -1   1  -4 307.709 22.8456   1 
   1   1   4 341.158 22.1885   6 
   1  -1  -4 310.581 24.8352   1 
  -1  -1   4 327.003 23.2933   1 
   1  -1  -4 339.527 24.3815   1 
   2   1  -4 1571.07 101.442   7 
  -2   1   4 1698.14 106.344   1 
   2  -1   4 1623.09 103.437   1 
   2  -1   4 1549.09 103.343   4 
  -2  -1  -4 1721.73 104.263   1 
  -2  -1  -4 1642.43 102.488   8 
  -2   1   4 1503.17 102.562   5 
  -2   1   4 1648.54 105.646   4 
  -2   1   4 1806.83 105.799   8 
   2   1  -4 1541.73 105.586   1 
  -2  -1  -4 1667.61 102.576   6 
  -2   1   4 1422.27 102.976   7 
  -2  -1  -4 1658.18 102.049   4 
   2   1  -4 1569.55 103.002   3 
   2  -1   4 1673.61 104.243   7 
  -2   1   4 1597.57 104.644   1 
  -2  -1   4 1526.52 102.460   5 
   2   1   4 1541.09 102.192   8 
   2  -1  -4 1430.66 104.769   4 
   2  -1  -4 1507.40 103.210   7 
  -2   1  -4 1387.53 103.804   1 
  -2  -1   4 1643.54 105.282   1 
  -2  -1   4 1384.38 101.600   7 
  -2   1  -4 1491.75 104.226   1 
   2  -1  -4 1745.88 105.744   1 
   2  -1  -4 1425.96 105.870   1 
  -2   1  -4 1611.03 100.636   8 
  -2  -1   4 1658.56 104.998   1 
   2   1   4 1479.86 102.750   1 
  -3   1   4 91.4966 11.9198   1 
   3   1  -4 74.9443 8.38818   7 
  -3   1   4 80.8040 11.5582   8 
   3  -1   4 77.8876 10.4714   4 
   3  -1   4 80.7945 10.6807   1 
  -3   1   4 76.9216 10.2156   7 
   3   1  -4 94.6762 12.2438   1 
  -3  -1  -4 81.0611 10.0014   6 
   3   1  -4 77.8424 12.6449   1 
  -3  -1  -4 77.8011 8.95891   8 
  -3  -1  -4 84.1337 9.66196   4 
  -3   1   4 90.8683 9.45089   5 
   3  -1   4 78.3718 10.6405   7 
  -3   1   4 79.8182 11.9092   4 
  -3   1  -4 78.8696 6.34387   8 
  -3   1  -4 84.8394 13.2570   1 
   3  -1  -4 105.823 13.2711   1 
  -3  -1   4 74.5532 10.9869   1 
  -3   1  -4 76.8835 10.9618   7 
  -3  -1   4 82.1119 9.01271   5 
  -3  -1   4 71.8482 8.63207   7 
   3   1   4 83.3641 10.5860   1 
   3  -1  -4 82.0478 10.3971   7 
  -3   1  -4 84.8077 11.8786   1 
   3  -1  -4 78.1448 12.7754   1 
   3   1   4 82.1312 10.3744   7 
   4  -1   4 2259.04 156.659   4 
  -4   1   4 2783.54 158.219   8 
  -4   1   4 2581.34 161.395   4 
  -4  -1  -4 2488.06 153.713   8 
  -4   1   4 2297.87 156.690   7 
   4   1  -4 2363.13 153.575   7 
  -4  -1  -4 2662.48 159.920   1 
   4   1  -4 2156.76 159.438   1 
   4  -1   4 2306.02 157.576   1 
   4  -1   4 2561.32 157.309   7 
   4   1  -4 2413.55 159.450   1 
  -4  -1  -4 2227.69 155.073   6 
  -4  -1  -4 2509.28 155.673   4 
  -4   1  -4 2259.45 150.577   8 
  -4  -1   4 2133.66 153.727   7 
   4  -1  -4 2148.71 160.275   1 
  -4  -1   4 2241.76 158.219   1 
  -4   1  -4 2383.91 158.897   1 
   4  -1  -4 2327.62 155.452   7 
   4   1   4 2358.91 157.264   1 
  -4  -1   4 2508.10 160.821   4 
   4  -1  -4 2392.53 159.383   1 
  -4  -1   4 2173.74 152.651   5 
   4   1   4 2077.19 149.971   5 
   4   1   4 2351.74 155.737   7 
   5  -1   4 124.645 16.8722   7 
   5   1  -4 114.556 13.6674   7 
  -5   1   4 156.682 21.1083   8 
  -5  -1  -4 103.354 15.5198   6 
   5   1  -4 115.161 19.8495   1 
  -5  -1  -4 119.363 13.1894   8 
  -5  -1  -4 130.844 16.3933   4 
  -5   1  -4 109.641 10.6967   8 
   5  -1  -4 111.501 14.9877   7 
   5   1   4 122.899 15.9452   7 
   5  -1  -4 108.193 19.8326   1 
  -5  -1   4 110.061 12.8077   5 
  -5  -1   4 105.067 14.0881   7 
  -5  -1   4 112.682 18.0877   1 
   6  -1   4 1845.31 120.446   7 
   6   1  -4 1569.60 124.633   1 
  -6  -1  -4 1610.60 124.385   1 
   6   1  -4 1637.71 115.682   7 
  -6  -1  -4 1620.51 119.041   6 
  -6  -1  -4 1742.88 115.038   8 
   6  -1  -4 1731.81 127.133   1 
   6   1   4 1817.23 119.146   7 
   6  -1  -4 1831.46 118.652   7 
  -7  -1  -4 43.8366 18.8258   1 
   7   1  -4 60.5719 13.8002   7 
  -7  -1  -4 39.0515 16.1298   6 
   7   1   4 53.6251 16.7697   7 
  -8  -1  -4 3.13652 19.4108   1 
  -8  -1  -4 0.10983 10.9536   6 
  -8   1  -4 5.25737 17.8044   6 
   0   2   4 40.7302 4.58520   5 
   0   2  -4 39.0916 4.22019   6 
   0  -2   4 37.3658 4.67345   1 
   0   2   4 33.0785 4.47205   3 
   0  -2   4 35.1505 4.09927   6 
   0  -2   4 40.7257 4.59084   1 
   0  -2  -4 39.3082 4.15884   3 
   0  -2  -4 36.9361 5.28934   1 
   0  -2  -4 37.6327 5.81744   8 
   0   2   4 37.3107 4.45519   6 
   0   2  -4 42.7381 5.11468   1 
   0  -2   4 38.0928 5.72401   2 
   0  -2  -4 41.0945 5.75630   1 
   0  -2   4 38.4519 4.34994   7 
   0   2   4 34.3820 5.75400   8 
   0   2   4 42.0147 5.21924   1 
   0   2  -4 42.6305 5.04058   1 
   0   2   4 45.9547 5.56819   1 
   0  -2  -4 32.3547 4.33880   5 
  -1  -2  -4 1140.94 76.9001   6 
  -1   2   4 1126.90 78.7351   1 
  -1   2   4 1248.18 79.7922   8 
  -1  -2  -4 1086.15 78.0845   1 
  -1   2   4 1212.05 79.5702   1 
  -1  -2  -4 1141.89 76.1619   5 
  -1  -2  -4 1078.92 78.0970   8 
   1   2  -4 1144.25 78.7661   1 
   1  -2   4 1253.44 77.6045   1 
   1  -2   4 1148.76 78.0695   7 
   1   2  -4 1133.18 78.4595   1 
  -1  -2  -4 1273.29 78.6323   1 
  -1   2   4 1033.15 77.2512   5 
   1  -2   4 1167.35 78.4010   1 
   1   2  -4 1230.11 77.5186   6 
  -1   2   4 1127.85 78.5765   7 
  -1  -2   4 1059.19 77.6139   3 
  -1  -2   4 1236.27 78.3744   1 
  -1   2  -4 1195.28 78.3069   7 
   1  -2  -4 1178.14 79.2571   4 
   1   2   4 1276.00 78.3087   1 
  -1   2  -4 1309.85 77.2103   6 
  -1   2  -4 1146.58 78.1842   1 
  -1   2  -4 1170.67 79.3629   2 
   1   2   4 1258.39 77.0702   6 
  -1   2  -4 1204.20 78.9984   1 
   1  -2  -4 1148.72 79.5746   8 
   1   2   4 1252.72 78.1289   1 
  -1  -2   4 1233.82 77.3488   6 
  -1  -2   4 1403.08 79.1163   1 
   1   2   4 1239.12 78.5937   8 
   1   2   4 1156.23 76.0324   5 
   1  -2  -4 1112.29 79.8840   1 
   1  -2  -4 1165.52 77.7920   5 
  -2   2   4 671.110 49.0060   7 
   2   2  -4 742.800 50.7473   1 
  -2  -2  -4 715.785 47.9296   6 
  -2   2   4 647.680 49.9242   1 
   2   2  -4 732.545 45.6078   7 
   2   2  -4 717.970 48.6553   3 
   2   2  -4 690.437 50.7302   1 
   2  -2   4 758.818 49.9524   7 
  -2  -2  -4 764.718 49.7663   1 
  -2   2   4 774.329 50.5740   8 
  -2   2   4 757.846 51.4209   4 
  -2  -2  -4 733.980 48.9581   8 
   2  -2   4 710.599 49.5661   1 
  -2   2   4 692.898 48.1303   5 
  -2  -2  -4 711.931 50.1686   1 
  -2  -2   4 712.611 47.7116   5 
   2   2   4 668.763 48.1573   8 
   2   2   4 690.574 47.7816   6 
   2  -2  -4 709.638 51.0716   1 
  -2   2  -4 703.191 50.7191   1 
  -2  -2   4 714.513 50.3376   1 
  -2   2  -4 686.915 49.9415   7 
  -2   2  -4 657.019 50.0853   1 
   2  -2  -4 662.770 50.5037   8 
   2  -2  -4 711.073 51.0894   4 
   2  -2  -4 656.318 49.2257   7 
  -2  -2   4 685.339 48.3978   6 
   2  -2  -4 645.046 52.0310   1 
   2   2   4 721.002 49.0610   1 
   3  -2   4 5674.52 354.370   7 
   3  -2   4 4969.34 353.932   4 
  -3   2   4 5828.80 356.755   4 
  -3  -2  -4 5629.65 360.346   8 
   3   2  -4 5376.56 353.230   3 
  -3   2   4 4931.82 353.148   7 
  -3   2   4 5317.13 355.392   1 
  -3  -2  -4 5347.64 352.538   6 
  -3   2   4 6183.73 355.176   8 
  -3  -2  -4 5216.17 355.579   1 
   3   2  -4 5235.96 356.261   1 
   3   2  -4 5092.27 358.467   7 
   3  -2   4 5351.30 354.623   1 
   3  -2  -4 5219.40 358.144   1 
   3  -2  -4 5990.52 354.401   7 
   3  -2  -4 6085.39 357.496   1 
   3   2   4 6006.33 367.652   1 
  -3   2  -4 5746.68 364.735   1 
   3   2   4 5742.40 361.424   8 
  -3  -2   4 5440.45 352.954   6 
  -3  -2   4 5598.80 359.816   7 
  -3  -2   4 4999.48 355.149   1 
   3  -2  -4 5602.49 356.274   4 
  -3   2  -4 5469.39 354.962   7 
  -3  -2   4 5754.16 353.980   5 
  -4  -2  -4 237.970 21.4728   4 
   4   2  -4 208.197 18.5344   7 
  -4   2   4 214.851 23.4572   1 
  -4   2   4 254.251 22.9848   8 
  -4  -2  -4 207.909 21.0047   6 
  -4  -2  -4 202.268 23.8582   1 
  -4  -2  -4 214.349 20.2143   8 
   4   2  -4 217.612 24.6392   1 
  -4  -2  -4 237.637 24.1143   1 
   4   2  -4 197.858 24.0985   1 
   4  -2   4 223.356 23.3428   4 
   4  -2   4 201.235 22.5640   1 
   4  -2   4 219.327 22.1217   7 
  -4   2  -4 271.694 26.5218   1 
   4  -2  -4 230.728 24.5399   4 
  -4  -2   4 250.798 24.4705   1 
  -4  -2   4 236.287 19.0184   5 
   4  -2  -4 229.672 26.7288   1 
   4  -2  -4 267.618 25.7787   1 
   4  -2  -4 232.312 21.9096   7 
  -4  -2   4 255.618 22.3720   6 
  -4  -2   4 223.376 18.9424   7 
   4   2   4 280.960 22.5021   7 
   4   2   4 245.568 22.9873   1 
  -4   2  -4 231.385 24.6278   1 
   5   2  -4 297.664 25.1945   7 
  -5  -2  -4 291.663 26.4808   8 
  -5  -2  -4 325.274 28.8477   4 
  -5   2   4 292.373 31.6243   1 
  -5   2   4 349.367 29.2834   8 
   5  -2   4 308.010 29.4704   7 
   5  -2   4 295.304 30.3301   4 
  -5  -2  -4 291.897 32.3214   1 
   5   2  -4 261.775 31.4697   1 
  -5  -2  -4 278.559 27.9169   6 
   5  -2  -4 331.795 35.2094   1 
  -5  -2   4 337.448 24.9271   5 
   5   2   4 329.448 28.2201   7 
  -5   2  -4 304.689 20.7844   8 
  -5   2  -4 285.488 32.2324   1 
   5  -2  -4 317.854 29.3534   7 
  -5  -2   4 316.626 29.0251   6 
  -5  -2   4 311.154 31.6514   1 
  -5   2  -4 335.763 20.9914   8 
   6   2  -4 28.9262 9.79939   7 
  -6  -2  -4 22.6746 16.1602   1 
  -6  -2  -4 30.2573 12.1246   6 
   6   2  -4 27.2194 15.0378   1 
   6  -2   4 31.4760 13.0821   7 
  -6  -2  -4 29.0592 10.7824   8 
   6  -2  -4 42.3823 12.5156   7 
   6   2   4 31.5231 11.5251   7 
   6  -2  -4 39.0137 18.5149   1 
  -7  -2  -4 1221.13 99.3672   1 
  -7  -2  -4 1109.65 90.2159   6 
   7   2   4 1274.19 89.9553   7 
   7  -2  -4 1293.96 90.6792   7 
   0  -3   4 2527.96 160.492   6 
   0  -3   4 2400.93 162.829   2 
   0  -3  -4 2436.29 162.385   1 
   0   3   4 2699.25 162.940   8 
   0   3  -4 2441.68 162.038   1 
   0  -3   4 2483.77 162.493   7 
   0   3  -4 2637.68 160.615   6 
   0  -3  -4 2443.21 162.395   8 
   0  -3  -4 2392.55 160.351   5 
   0  -3   4 2426.24 161.697   1 
   0   3   4 2426.85 162.258   1 
   0   3   4 2813.41 163.175   1 
   0  -3  -4 2210.98 163.821   3 
   0   3  -4 2548.84 162.199   1 
   0   3  -4 2469.39 161.755   7 
   0   3   4 2668.40 161.052   6 
   1  -3   4 685.237 52.6762   7 
  -1  -3  -4 676.640 50.6213   5 
  -1  -3  -4 657.189 51.6667   6 
   1  -3   4 709.825 51.0510   8 
   1   3  -4 730.528 52.1917   6 
   1   3  -4 677.528 53.4897   1 
  -1   3   4 661.153 53.6732   1 
  -1   3   4 677.209 53.2349   7 
  -1   3   4 721.167 53.8339   8 
  -1  -3  -4 644.121 53.1272   1 
  -1  -3  -4 672.259 53.2295   8 
   1  -3   4 708.622 54.0578   1 
   1   3   4 869.609 52.4023   6 
  -1   3  -4 808.189 54.2530   1 
   1   3   4 831.259 53.8178   8 
   1  -3  -4 915.610 56.7120   1 
   1   3   4 841.810 53.7597   1 
  -1   3  -4 811.212 53.2586   7 
  -1  -3   4 858.821 52.5375   6 
  -1   3  -4 889.007 52.3465   6 
  -1  -3   4 833.651 53.8544   3 
  -1  -3   4 856.636 53.9653   1 
  -1   3  -4 910.474 55.2128   1 
  -1   3  -4 837.403 55.3858   2 
   1  -3  -4 815.166 55.4364   1 
   1  -3  -4 852.683 55.0220   8 
   1  -3  -4 833.595 54.6046   4 
  -2   3   4 981.728 61.7386   8 
   2  -3   4 872.967 56.1128   8 
   2   3  -4 922.298 62.3873   1 
   2   3  -4 921.797 62.3640   1 
  -2  -3  -4 891.766 60.8396   8 
  -2   3   4 808.427 60.5177   7 
   2  -3   4 904.462 61.1866   7 
  -2   3   4 892.080 62.4733   1 
   2  -3   4 849.791 62.0522   1 
  -2  -3  -4 889.027 62.0270   1 
   2   3  -4 840.712 59.6812   3 
  -2  -3  -4 853.375 59.2153   6 
  -2  -3   4 859.290 61.4050   1 
  -2   3  -4 947.079 63.5483   1 
  -2  -3   4 857.475 59.5879   6 
  -2   3  -4 849.972 61.1244   7 
   2   3   4 863.782 60.0878   8 
   2   3   4 855.943 60.5263   1 
  -2   3  -4 844.466 61.9144   1 
   2  -3  -4 893.464 62.7063   4 
   2  -3  -4 850.079 61.8555   8 
   2  -3  -4 859.690 64.1829   1 
  -2   3  -4 870.270 62.4926   2 
  -2  -3   4 735.794 59.9290   3 
   2   3   4 869.669 59.1063   6 
   2  -3  -4 980.034 64.1707   1 
   3   3  -4 174.295 16.9069   3 
  -3  -3  -4 153.431 15.5020   6 
   3  -3   4 171.974 18.2353   4 
  -3  -3  -4 167.277 18.5530   1 
  -3   3   4 186.157 17.8757   8 
   3  -3   4 166.334 17.4949   7 
  -3   3   4 164.136 17.1654   7 
  -3  -3  -4 160.935 16.6519   8 
   3   3  -4 160.178 12.4851   7 
   3   3  -4 158.935 18.7591   1 
  -3  -3  -4 180.110 18.1481   1 
  -3   3   4 157.160 18.1279   1 
   3  -3   4 146.860 17.6805   1 
   3   3   4 155.611 15.5377   8 
  -3  -3   4 164.131 16.5167   6 
   3  -3  -4 181.232 21.7160   1 
  -3  -3   4 169.535 14.5836   5 
   3  -3  -4 169.674 17.7890   7 
   3  -3  -4 181.240 19.5221   1 
  -3   3  -4 168.571 19.4416   1 
  -3  -3   4 162.886 18.3224   1 
  -3   3  -4 153.228 17.7593   7 
   3  -3  -4 168.581 19.6613   4 
   3   3   4 172.841 17.5005   1 
  -4   3   4 1394.82 83.8591   8 
  -4  -3  -4 1149.30 85.8207   1 
  -4  -3  -4 1374.89 86.4123   1 
  -4  -3  -4 1197.03 81.8777   6 
   4   3  -4 1091.19 85.7871   1 
   4  -3   4 1192.56 85.4866   1 
  -4   3   4 1160.72 85.4550   1 
   4  -3   4 1171.34 84.7061   4 
  -4  -3  -4 1207.41 81.8069   8 
   4  -3   4 1237.84 83.9101   7 
   4   3  -4 1177.17 77.8796   7 
  -4  -3   4 1191.12 78.6139   5 
   4  -3  -4 1309.89 87.5857   1 
   4  -3  -4 1137.37 83.0449   7 
   4   3   4 1159.64 81.1736   7 
  -4  -3   4 1159.41 85.0410   1 
   4  -3  -4 1119.77 88.2732   1 
  -4  -3   4 1108.53 81.6659   6 
   4  -3  -4 1128.16 85.4621   4 
  -4   3  -4 956.108 84.7723   1 
  -4   3  -4 1202.12 86.8213   1 
   4   3   4 1087.11 82.8748   1 
  -5  -3  -4 357.893 31.8788   6 
   5   3  -4 382.261 37.6972   1 
  -5  -3  -4 361.568 31.0421   8 
   5  -3   4 393.565 33.9448   7 
  -5  -3  -4 414.296 32.7712   4 
  -5   3   4 456.122 37.3442   8 
   5   3  -4 359.382 27.5477   7 
  -5  -3  -4 377.307 37.3509   1 
   5  -3   4 361.559 35.0539   4 
   5  -3  -4 312.562 34.7704   4 
   5  -3  -4 323.713 37.9220   1 
   5  -3  -4 313.589 31.6060   7 
  -5  -3   4 341.243 27.3804   5 
  -5  -3   4 323.490 31.5038   6 
  -5  -3   4 316.019 34.2352   1 
   5   3   4 335.934 30.4418   7 
  -5   3  -4 313.625 35.9728   1 
   6  -3   4 1194.26 92.1381   4 
   6   3  -4 1090.16 93.1523   1 
  -6  -3  -4 1145.26 87.7023   6 
  -6  -3  -4 1167.77 85.7729   8 
  -6  -3  -4 1180.17 94.6679   1 
   6  -3   4 1313.31 89.8309   7 
  -6  -3   4 1296.91 82.1724   5 
   6  -3  -4 1183.26 100.745   1 
   6   3   4 1253.02 86.5094   7 
   6  -3  -4 1224.80 88.1359   7 
  -6   3  -4 1221.95 95.4037   1 
  -7  -3  -4 160.289 30.4632   1 
  -7  -3  -4 143.834 23.8393   6 
   7   3   4 190.040 23.0237   7 
   0  -4   4 22.1788 4.82252   6 
   0  -4   4 33.8022 7.17950   2 
   0  -4   4 20.4981 4.75864   7 
   0  -4  -4 61.4008 6.02853   5 
   0  -4  -4 37.1477 6.95168   3 
   0   4   4 22.8660 5.39091   6 
   0  -4  -4 23.3183 4.91567   2 
   0   4  -4 28.2463 5.45983   6 
   0  -4  -4 31.0350 6.84995   8 
   0   4  -4 26.5418 4.81920   7 
   0  -4   4 25.5806 6.03171   1 
   0   4  -4 30.0551 6.79961   1 
   0   4   4 23.5996 6.50676   8 
   0   4   4 23.5839 6.33709   1 
   0  -4   4 19.5772 5.50366   8 
   0  -4  -4 24.9191 6.44201   1 
   0  -4  -4 25.7111 6.78575   1 
  -1  -4  -4 784.020 54.7564   5 
   1  -4   4 857.377 57.3952   7 
  -1   4   4 755.765 56.9329   2 
  -1   4   4 763.855 57.7116   7 
   1  -4   4 814.727 59.1186   1 
   1   4  -4 804.169 53.7414   7 
  -1   4   4 815.515 59.2327   1 
   1   4  -4 862.369 58.9966   1 
  -1  -4  -4 923.498 59.7357   1 
   1   4  -4 790.366 58.3032   1 
  -1  -4  -4 818.124 58.2921   8 
  -1   4   4 953.762 58.3266   6 
  -1  -4  -4 811.744 58.7744   1 
  -1  -4  -4 797.574 56.3668   6 
  -1  -4  -4 884.159 56.5835   2 
   1  -4   4 852.701 55.6800   8 
  -1   4   4 886.771 58.7556   8 
  -1  -4   4 877.929 58.6793   1 
  -1  -4   4 888.771 59.6742   2 
   1  -4  -4 886.622 61.5119   1 
  -1   4  -4 777.680 56.9581   7 
   1   4   4 853.115 58.2065   8 
  -1   4  -4 792.329 56.3062   6 
  -1  -4   4 820.501 56.3469   6 
   1   4   4 852.887 56.5434   6 
  -1   4  -4 820.997 59.7658   2 
  -1   4  -4 767.154 58.5924   1 
  -1  -4   4 896.681 58.9686   3 
   1  -4  -4 791.248 59.6474   1 
   1  -4  -4 792.357 58.1890   8 
   1   4   4 779.638 57.9329   1 
   2   4  -4 2881.33 183.912   6 
  -2  -4  -4 2924.78 186.130   1 
  -2  -4  -4 2557.17 182.874   6 
  -2  -4  -4 2801.80 185.301   8 
  -2  -4  -4 2644.42 179.805   5 
  -2  -4  -4 2700.86 186.186   1 
  -2   4   4 2522.11 184.508   7 
  -2   4   4 2680.54 186.543   1 
   2   4  -4 2946.30 186.875   1 
  -2   4   4 2743.80 184.734   8 
   2  -4   4 2722.99 184.478   7 
   2   4  -4 2598.58 185.861   1 
   2  -4   4 2646.16 181.602   8 
   2  -4   4 2682.11 186.525   1 
  -2  -4   4 2634.79 184.807   3 
   2  -4  -4 2883.34 189.183   1 
  -2   4  -4 2982.56 187.564   2 
  -2  -4   4 3002.65 186.439   1 
   2  -4  -4 3203.58 189.330   1 
   2   4   4 3024.25 185.871   1 
   2  -4  -4 3009.12 187.219   4 
   2   4   4 3218.91 183.927   6 
  -2   4  -4 2810.51 185.179   7 
   2  -4  -4 2930.73 185.916   8 
  -2  -4   4 3096.05 183.962   6 
   2   4   4 2980.63 184.776   8 
  -2   4  -4 2604.34 185.956   1 
  -3   4   4 2451.07 154.730   8 
   3   4  -4 2178.89 148.489   7 
  -3  -4  -4 2258.42 153.134   6 
   3  -4   4 2256.78 157.566   1 
  -3   4   4 2150.51 156.160   1 
   3  -4   4 2337.77 155.105   7 
  -3  -4  -4 2440.34 156.797   1 
  -3  -4  -4 2195.03 154.263   8 
  -3  -4  -4 2158.09 156.473   1 
   3   4  -4 2202.92 156.810   1 
   3   4  -4 2367.81 157.012   1 
   3   4   4 2257.97 154.917   1 
  -3   4  -4 2690.25 165.605   1 
  -3  -4   4 2367.24 156.834   1 
   3   4   4 2512.96 154.444   8 
   3  -4  -4 2319.06 157.198   4 
   3   4   4 2432.01 160.086   6 
   3  -4  -4 2504.53 159.064   1 
   3  -4  -4 2265.85 155.530   8 
   3  -4  -4 2326.20 160.083   1 
  -3  -4   4 2203.88 153.307   6 
   3  -4  -4 2495.10 156.575   7 
  -3   4  -4 2332.06 158.023   1 
   4   4  -4 625.070 40.9809   7 
  -4  -4  -4 658.449 47.1905   8 
   4  -4   4 629.525 50.5955   1 
  -4  -4  -4 608.406 50.2219   1 
   4  -4   4 592.213 48.9331   4 
   4  -4   4 685.531 48.3544   7 
  -4  -4  -4 692.956 50.0185   1 
  -4   4   4 553.567 48.4710   1 
  -4  -4  -4 649.307 46.3957   6 
  -4   4   4 718.452 47.2677   8 
   4   4  -4 648.149 50.9590   1 
   4   4   4 538.560 46.9799   1 
  -4  -4   4 577.578 42.2351   5 
   4  -4  -4 532.507 49.1169   4 
  -4   4  -4 597.212 51.0821   1 
  -4  -4   4 556.201 45.7242   6 
  -4  -4   4 557.027 48.8262   1 
   4  -4  -4 533.790 51.6502   1 
   4  -4  -4 551.771 47.3824   7 
  -4   4  -4 501.044 48.7270   1 
  -5  -4  -4 102.715 20.1120   1 
   5   4  -4 105.856 11.4133   7 
  -5  -4  -4 98.5260 15.3580   8 
  -5  -4  -4 101.813 16.1331   6 
   5  -4   4 113.982 19.3588   4 
   5  -4   4 125.167 17.8141   7 
   5   4  -4 103.615 19.2991   1 
   5  -4  -4 85.7503 20.3370   1 
   5  -4  -4 98.9174 17.1271   7 
  -5  -4   4 79.5678 11.1457   5 
   5  -4  -4 93.4540 18.1843   4 
   5   4   4 95.0256 14.3337   7 
  -5   4  -4 84.1515 19.0719   1 
   6  -4   4 31.1885 16.4461   4 
   6   4  -4 27.7347 20.0447   1 
  -6  -4  -4 31.0774 17.5144   1 
  -6  -4  -4 24.5374 12.6147   6 
  -6  -4  -4 26.8582 13.1011   8 
   6  -4   4 27.9177 14.4769   7 
  -6  -4   4 18.9633 11.9379   8 
  -6   4  -4 31.9974 18.3901   1 
   6   4   4 28.7148 11.1745   7 
   6  -4  -4 18.1230 10.0728   7 
  -7  -4  -4 725.983 61.8924   6 
  -7  -4  -4 734.742 69.3792   1 
   7   4   4 757.654 59.5811   7 
  -7   4  -4 808.984 73.5207   1 
   0  -5   4 942.878 63.7700   8 
   0  -5  -4 882.385 64.7066   8 
   0   5   4 918.087 65.8041   1 
   0   5  -4 870.696 65.3026   1 
   0   5  -4 977.471 66.0988   1 
   0  -5   4 900.181 62.3538   7 
   0  -5   4 874.225 64.9971   1 
   0  -5  -4 869.656 65.5392   1 
   0  -5   4 864.814 62.8108   6 
   0   5   4 996.596 65.4004   8 
   0   5   4 1008.04 63.8373   6 
   0  -5  -4 903.930 64.6514   3 
   0  -5  -4 967.826 63.2440   2 
   0  -5  -4 1005.90 67.8122   1 
   0   5  -4 880.985 61.9725   7 
  -1  -5  -4 2164.47 133.601   1 
   1   5  -4 2026.96 132.470   1 
   1   5  -4 1876.81 132.142   1 
  -1   5   4 1828.41 130.605   7 
  -1  -5  -4 2089.30 129.706   2 
   1   5  -4 1852.83 126.643   7 
   1  -5   4 1938.46 128.544   8 
  -1   5   4 1816.30 130.336   2 
  -1   5   4 1776.09 131.881   1 
  -1   5   4 2053.82 131.627   8 
  -1  -5  -4 1893.29 127.487   5 
  -1  -5  -4 1944.21 130.867   3 
  -1  -5  -4 1926.82 131.698   8 
   1  -5   4 1893.20 130.097   7 
   1  -5   4 1930.18 132.373   1 
  -1   5   4 2194.55 131.286   6 
  -1  -5  -4 1835.33 131.768   1 
  -1  -5  -4 1854.16 129.359   6 
  -1  -5   4 1972.36 132.186   3 
   1   5   4 1978.45 131.912   1 
   1  -5  -4 2231.46 135.633   1 
  -1  -5   4 1994.50 131.954   1 
   1  -5  -4 1914.42 133.108   1 
  -1  -5   4 1923.93 129.277   6 
  -1   5  -4 2090.27 129.856   6 
   1   5   4 2157.82 131.925   8 
  -1   5  -4 1852.39 132.341   1 
   1  -5  -4 1912.86 131.231   8 
  -1   5  -4 1957.33 133.577   2 
  -1   5  -4 2167.56 134.853   1 
  -1  -5   4 2011.33 131.292   8 
  -1   5  -4 1943.51 129.985   7 
   1   5   4 2141.84 129.929   6 
   2   5  -4 637.776 45.8205   7 
  -2  -5  -4 705.355 52.9945   8 
   2   5  -4 651.569 53.5681   1 
   2   5  -4 696.186 50.7051   6 
   2  -5   4 695.977 47.9608   8 
   2  -5   4 703.938 51.9383   7 
  -2  -5  -4 655.333 53.4090   1 
  -2   5   4 659.230 52.3688   2 
  -2   5   4 737.953 52.1838   8 
   2  -5   4 698.223 54.5462   1 
   2   5  -4 698.905 53.7049   1 
  -2  -5  -4 682.282 47.1286   5 
  -2   5   4 677.719 53.9811   1 
  -2  -5  -4 668.137 50.4009   6 
  -2  -5  -4 797.617 54.9393   1 
   2  -5  -4 820.112 57.7144   1 
  -2  -5   4 668.412 52.7408   1 
  -2   5  -4 734.645 55.1144   2 
  -2   5  -4 781.943 56.1494   1 
   2   5   4 797.018 51.3102   6 
  -2  -5   4 725.429 50.9435   6 
  -2  -5   4 683.163 53.1280   3 
   2   5   4 748.119 52.4993   8 
  -2  -5   4 714.466 53.0610   8 
   2  -5  -4 696.086 52.2462   8 
   2  -5  -4 706.094 56.0675   1 
  -2   5  -4 877.441 52.3809   6 
   2   5   4 693.954 52.6834   1 
   2  -5  -4 725.023 54.1496   4 
  -2   5  -4 689.082 51.9599   7 
  -2   5  -4 673.142 53.8694   1 
  -3  -5  -4 136.350 16.2565   8 
   3  -5   4 132.491 17.8228   1 
  -3   5   4 123.096 17.1421   1 
   3   5  -4 119.635 17.6131   1 
   3   5  -4 121.626 8.41216   7 
   3   5  -4 135.259 14.8094   6 
   3   5  -4 134.147 17.6049   1 
   3  -5   4 117.469 9.79920   8 
   3  -5   4 129.589 15.6055   7 
  -3  -5  -4 130.486 17.7917   1 
  -3  -5  -4 133.352 16.9478   1 
  -3  -5  -4 125.266 14.5194   6 
  -3   5   4 130.231 14.5090   8 
   3  -5  -4 83.2886 17.2566   1 
  -3  -5   4 78.4649 14.2105   8 
   3  -5  -4 73.8502 14.8446   7 
   3  -5  -4 85.4387 15.4554   4 
  -3  -5   4 80.7030 14.5994   1 
   3  -5  -4 101.817 17.2474   1 
  -3   5  -4 93.4722 17.0211   1 
  -3  -5   4 81.4757 12.6784   6 
   3  -5  -4 73.9630 13.4115   8 
   3   5   4 98.1406 15.0329   1 
  -3   5  -4 90.6518 16.1368   1 
  -3   5  -4 79.7378 15.8235   2 
  -4   5   4 420.154 41.9019   1 
  -4  -5  -4 440.189 42.8477   1 
  -4  -5  -4 448.857 40.3094   8 
   4   5  -4 437.814 42.8381   1 
  -4   5   4 509.951 39.2058   8 
  -4  -5  -4 426.902 38.3553   6 
   4   5  -4 428.997 32.9558   7 
   4  -5   4 508.695 41.1125   7 
   4  -5   4 414.538 40.7589   4 
  -4  -5   4 504.879 42.1953   8 
   4  -5  -4 536.575 47.2724   1 
   4  -5  -4 524.865 44.2519   4 
  -4  -5   4 559.881 36.1703   5 
  -4  -5   4 547.319 40.5314   6 
  -4   5  -4 533.663 45.7167   1 
  -4  -5   4 505.211 43.2295   1 
   4  -5  -4 559.297 43.5888   7 
   5  -5   4 1194.14 83.5694   7 
   5   5  -4 1021.49 85.8932   1 
  -5  -5  -4 1069.02 86.8847   1 
   5  -5   4 989.843 83.9554   4 
  -5  -5  -4 1023.73 80.6020   6 
  -5  -5  -4 1062.43 81.7039   8 
  -5  -5   4 1147.64 84.9117   8 
   5  -5  -4 1174.25 90.9104   1 
   5  -5  -4 1176.00 87.1960   4 
  -5  -5   4 1247.86 76.3953   5 
   5   5   4 1146.29 79.6512   7 
   5  -5  -4 1212.37 84.9942   7 
  -5   5  -4 1137.32 88.3694   1 
  -6  -5  -4 616.118 54.2117   6 
   6  -5   4 660.312 59.0149   4 
  -6  -5  -4 644.817 60.8373   1 
  -6  -5  -4 662.317 54.8946   8 
   6  -5  -4 759.607 63.5999   7 
   6   5   4 655.050 51.9702   7 
  -6   5  -4 658.069 61.9477   1 
  -7  -5  -4 325.233 52.3099   6 
  -7   5  -4 332.883 45.0397   1 
   0  -6   4 111.111 13.1976   8 
   0   6  -4 122.129 15.3643   1 
   0   6   4 111.828 15.1947   1 
   0  -6  -4 102.641 14.1025   8 
   0   6  -4 104.203 11.7245   7 
   0  -6   4 103.326 12.3424   6 
   0  -6  -4 108.020 14.4557   3 
   0  -6   4 117.331 14.9203   1 
   0   6   4 118.683 14.7154   8 
   0   6   4 127.668 13.9967   6 
   0  -6  -4 126.040 17.0864   1 
   0  -6  -4 115.423 12.8218   2 
   0  -6  -4 112.576 15.7793   1 
   0   6  -4 107.566 15.0435   1 
  -1  -6  -4 91.3670 13.2540   8 
  -1  -6  -4 97.1830 13.4666   3 
   1  -6   4 102.131 14.0517   1 
  -1  -6  -4 98.0436 11.8789   6 
   1   6  -4 84.4117 8.63740   7 
  -1  -6  -4 106.923 15.3849   1 
   1   6  -4 84.4235 13.4934   1 
   1   6  -4 108.892 12.2290   6 
   1  -6   4 84.8679 11.9358   7 
  -1   6   4 83.5722 12.3258   8 
   1   6  -4 95.4094 13.9769   1 
  -1   6   4 103.960 13.2250   6 
   1  -6   4 84.3363 10.7009   8 
  -1   6   4 80.9219 13.0414   1 
  -1   6   4 85.7327 11.9929   2 
  -1  -6  -4 90.2751 13.6547   1 
  -1  -6  -4 101.738 11.7997   2 
   1  -6  -4 73.8278 12.1030   8 
  -1   6  -4 59.8800 9.98892   7 
   1  -6  -4 71.5299 13.9603   1 
  -1  -6   4 69.4519 11.7171   8 
  -1  -6   4 70.6983 11.9487   1 
  -1   6  -4 80.2318 13.9241   2 
   1   6   4 80.5334 10.9079   6 
  -1  -6   4 82.1450 13.4457   3 
  -1   6  -4 68.6088 12.8127   1 
  -1  -6   4 70.4795 10.4085   6 
   1  -6  -4 66.9385 13.3030   1 
  -1   6  -4 70.9373 13.1674   1 
   1   6   4 59.3960 11.7644   1 
   2  -6   4 2688.95 181.847   8 
  -2  -6  -4 3354.65 190.966   1 
  -2  -6  -4 2630.95 187.924   1 
  -2   6   4 2723.76 188.619   1 
  -2   6   4 2854.02 185.945   8 
   2  -6   4 2952.56 186.584   7 
   2  -6   4 2936.25 189.798   1 
  -2  -6  -4 2723.23 180.681   5 
  -2   6   4 3409.06 188.490   6 
  -2  -6  -4 2636.32 184.272   6 
   2   6  -4 2637.44 187.614   1 
  -2  -6  -4 2685.61 186.668   8 
   2   6  -4 2972.59 185.047   6 
   2   6  -4 3086.27 189.748   1 
   2   6  -4 2616.63 179.563   7 
  -2   6   4 2606.74 186.850   2 
  -2  -6   4 2710.04 184.334   6 
  -2   6  -4 2773.90 188.985   1 
   2  -6  -4 3169.70 192.580   1 
   2  -6  -4 2605.16 185.963   8 
  -2  -6   4 2621.22 187.208   1 
  -2   6  -4 3128.94 191.664   1 
  -2   6  -4 2845.15 190.293   2 
  -2  -6   4 2717.04 186.941   8 
   2  -6  -4 2679.20 190.049   1 
  -2  -6   4 2618.15 187.258   3 
   2   6   4 2797.50 187.559   1 
  -3  -6  -4 1241.50 89.1772   1 
   3   6  -4 1242.30 77.8220   7 
   3   6  -4 1387.21 85.6930   6 
  -3   6   4 1166.38 88.3676   1 
   3  -6   4 1358.02 87.0854   7 
   3  -6   4 1228.29 80.1307   8 
   3   6  -4 1236.75 89.5591   1 
  -3  -6  -4 1254.77 87.4354   8 
  -3   6   4 1217.87 87.4379   2 
  -3  -6  -4 1237.70 84.5078   6 
   3   6  -4 1229.07 77.8431   7 
  -3  -6   4 1194.27 88.0389   1 
   3  -6  -4 1099.41 84.8599   8 
   3   6   4 1172.59 88.3879   1 
  -3   6  -4 1177.56 88.9812   2 
   3  -6  -4 1161.67 90.7534   1 
  -3  -6   4 1134.12 86.8554   8 
   3  -6  -4 1158.55 88.3632   4 
  -3  -6   4 1163.05 84.3838   6 
  -3   6  -4 1150.37 88.7311   1 
  -4  -6  -4 613.519 51.2809   8 
   4   6  -4 618.497 54.2062   1 
  -4  -6  -4 601.621 54.1135   1 
   4  -6   4 555.154 51.2428   4 
  -4  -6  -4 613.750 49.2453   6 
   4  -6   4 662.759 51.1835   7 
   4  -6  -4 650.788 50.4892   8 
   4  -6  -4 668.535 53.6565   7 
  -4   6  -4 635.227 54.2550   2 
  -4  -6   4 677.452 45.3949   5 
   4  -6  -4 694.391 58.0245   1 
  -4  -6   4 618.316 52.1826   8 
  -4   6  -4 627.318 54.7377   1 
   4  -6  -4 599.653 53.1902   4 
  -5  -6  -4 27.1682 12.7375   8 
  -5  -6  -4 24.7221 11.4111   6 
   5  -6   4 28.8539 13.4357   7 
  -5  -6  -4 14.0992 11.2008   1 
   5   6  -4 9.05867 11.0397   1 
   5  -6   4 15.4232 11.7922   4 
  -5   6  -4 32.9933 15.4612   2 
  -5   6  -4 17.5091 12.4673   1 
   5   6   4 25.6286 11.4407   7 
  -5  -6   4 9.80948 10.3812   8 
   5  -6  -4 17.0745 11.0345   7 
  -6  -6  -4 54.2772 19.6847   1 
  -6  -6  -4 43.5359 16.2818   6 
   6   6   4 71.8158 15.6643   7 
  -6   6  -4 87.3799 23.1632   1 
  -7   6  -4 234.432 39.3740   1 
   0   7  -4 296.098 29.8656   1 
   0   7  -4 299.124 25.7846   7 
   0  -7  -4 319.860 29.2709   8 
   0   7  -4 354.742 28.0834   6 
   0  -7   4 311.080 27.7219   8 
   0  -7  -4 315.032 30.9275   1 
   0   7   4 306.049 30.2954   1 
   0  -7  -4 318.469 29.9343   3 
   0   7  -4 352.190 31.9235   1 
   0  -7  -4 392.798 34.3740   1 
   0  -7   4 323.875 30.4971   1 
   0  -7   4 328.539 27.3910   6 
  -1   7   4 1598.57 120.916   2 
   1  -7   4 1732.64 118.874   8 
  -1   7   4 1745.58 123.982   1 
   1  -7   4 1846.34 121.242   7 
  -1  -7  -4 1682.70 121.675   3 
   1   7  -4 1641.75 122.989   1 
  -1  -7  -4 1721.59 123.557   1 
  -1   7   4 2059.85 123.305   6 
   1   7  -4 1939.23 120.589   6 
  -1  -7  -4 1753.57 120.101   6 
   1   7  -4 1883.31 125.111   1 
  -1  -7  -4 1987.88 126.202   1 
  -1  -7  -4 1716.70 122.342   8 
   1  -7   4 1841.30 124.572   1 
   1   7  -4 1606.67 116.269   7 
  -1  -7   4 1742.23 119.679   6 
  -1   7  -4 1726.43 124.781   2 
  -1  -7   4 1647.27 120.685   8 
   1  -7  -4 1719.80 121.483   8 
  -1   7  -4 2045.28 127.519   1 
  -1   7  -4 1649.64 119.274   7 
   1  -7  -4 1792.62 123.096   3 
   1   7   4 1718.46 122.737   1 
  -1  -7   4 1795.42 124.041   3 
   1  -7  -4 1743.53 124.707   1 
  -1   7  -4 1792.29 124.427   1 
  -1  -7   4 1772.21 123.095   1 
   1  -7  -4 2152.17 129.366   1 
  -2  -7  -4 37.8686 11.5422   8 
   2   7  -4 28.2470 13.9251   6 
   2  -7   4 30.7841 7.94711   8 
  -2  -7  -4 30.0957 9.58354   6 
   2   7  -4 30.7743 5.47637   7 
   2   7  -4 23.4852 11.2007   1 
   2  -7   4 28.9035 11.0242   7 
  -2   7   4 33.8584 11.8268   2 
  -2  -7  -4 32.0189 12.5472   1 
  -2   7   4 34.9022 11.7291   1 
  -2  -7   4 49.1538 13.0697   8 
  -2  -7   4 41.5635 15.6314   1 
   2  -7  -4 49.8332 12.1316   8 
   2  -7  -4 49.0299 14.5402   1 
  -2   7  -4 50.3378 13.9294   1 
  -2  -7   4 52.2962 10.7476   6 
  -2   7  -4 52.9060 14.2585   2 
  -2  -7   4 64.1725 14.4343   3 
   2   7   4 39.6685 14.6242   1 
   3   7  -4 80.7345 16.7423   1 
  -3  -7  -4 92.5489 16.7965   8 
   3  -7   4 86.9100 10.6751   8 
  -3  -7  -4 100.317 15.1696   6 
   3  -7   4 90.1895 15.8411   7 
  -3   7   4 95.5694 17.1730   2 
  -3  -7  -4 92.5906 18.4036   1 
   3  -7  -4 80.8083 17.8797   4 
  -3   7  -4 94.2810 18.6471   2 
   3  -7  -4 81.7176 18.5131   1 
  -3  -7   4 70.6522 15.8770   8 
  -3   7  -4 86.9888 18.5148   1 
   3  -7  -4 78.8879 14.2217   8 
   4   7  -4 64.9898 18.1247   1 
  -4   7   4 70.0705 17.3738   2 
  -4  -7  -4 90.4157 19.9971   1 
   4  -7   4 92.1181 18.1833   7 
  -4  -7  -4 79.7019 16.9333   8 
  -4  -7  -4 71.5446 15.0604   6 
   4  -7  -4 78.2243 20.4737   1 
  -4  -7   4 70.8747 16.5916   8 
  -4   7  -4 78.3986 18.4528   2 
   4  -7  -4 84.8761 15.6634   8 
  -4   7  -4 74.9167 18.3982   1 
   4  -7  -4 74.5721 18.1201   4 
  -5  -7  -4 922.853 74.7147   6 
  -5  -7  -4 968.765 81.9559   1 
   5   7   4 1070.91 73.3440   7 
  -5   7  -4 1037.71 81.3885   2 
  -5   7  -4 1007.63 82.1817   1 
  -6   7  -4 193.151 32.1576   1 
   0  -8  -4 10.3794 7.91857   1 
   0   8  -4 10.2544 7.82839   1 
   0  -8  -4 14.0662 10.1460   8 
   0  -8   4 16.5143 9.91554   8 
   0  -8  -4 25.0246 12.3103   3 
   0   8  -4 6.29186 4.73307   7 
   1  -8   4 32.0500 9.63289   8 
  -1  -8  -4 35.3171 12.7714   3 
   1   8  -4 20.9886 12.1530   1 
  -1  -8  -4 24.7101 10.2213   6 
  -1  -8  -4 30.7680 12.1258   1 
  -1  -8  -4 30.0689 11.5641   8 
  -1  -8   4 17.4964 11.0246   3 
  -1  -8   4 11.5624 7.71140   8 
   1  -8  -4 13.1956 8.15079   8 
   1  -8  -4 8.99748 8.81666   1 
  -1   8  -4 13.0054 8.92334   1 
   1  -8  -4 22.8226 13.1397   3 
   2   8  -4 2599.23 176.791   1 
  -2  -8  -4 2499.69 176.024   1 
   2  -8   4 2432.02 168.139   8 
   2  -8   4 2627.78 173.164   7 
  -2   8   4 2547.74 175.166   2 
  -2  -8  -4 2532.67 171.089   6 
  -2  -8  -4 2536.13 174.147   8 
   2  -8  -4 2596.86 178.667   1 
  -2  -8   4 2626.04 174.181   8 
  -2   8  -4 2611.64 177.134   1 
  -2  -8   4 2663.74 176.273   3 
  -2   8  -4 2510.64 177.585   2 
   2  -8  -4 2620.60 172.878   8 
   3   8  -4 42.0626 16.1740   1 
  -3  -8  -4 41.8971 16.2762   1 
   3  -8   4 48.8438 13.8878   7 
  -3  -8  -4 50.7987 16.1908   8 
  -3  -8  -4 44.3366 12.5868   6 
  -3   8   4 40.7621 15.1939   2 
  -3   8  -4 44.6600 18.4984   2 
   3  -8  -4 36.0352 14.6566   4 
  -3   8  -4 46.9285 17.0510   1 
   3  -8  -4 41.1311 16.7636   1 
  -3  -8   4 44.7248 14.5329   8 
   3  -8  -4 47.0502 12.7161   8 
   4   8  -4 732.977 63.4188   1 
  -4  -8  -4 705.635 63.2231   1 
  -4  -8  -4 745.433 58.2248   6 
   4  -8   4 833.234 60.9206   7 
  -4   8   4 712.687 61.1512   2 
  -4   8  -4 735.149 64.1208   2 
   4  -8  -4 728.177 58.3205   8 
  -4   8  -4 700.985 64.1082   1 
  -5  -8  -4 10.3964 12.1957   6 
  -5   8   4 9.58386 12.5243   2 
  -5  -8  -4 8.23871 13.3936   1 
  -5   8  -4 6.91181 11.9930   1 
  -6   8  -4 75.1583 33.7340   1 
   0   9  -4 10.8518 9.26140   1 
   0  -9  -4 11.3034 8.71658   8 
   0  -9  -4 11.4639 10.8173   3 
   0  -9  -4 9.18015 9.62352   1 
   0  -9   4 14.5349 9.69493   8 
   0  -9   4 14.3152 12.1757   3 
  -1  -9  -4 1514.80 106.258   3 
  -1  -9  -4 1462.44 108.041   1 
  -1  -9  -4 1497.75 103.331   6 
   1   9  -4 1417.44 107.240   1 
   1  -9   4 1424.06 101.253   8 
  -1  -9  -4 1499.80 106.087   8 
  -1   9  -4 1486.16 108.448   1 
   1  -9  -4 1429.96 108.762   1 
   1  -9  -4 1527.69 108.244   3 
  -1  -9   4 1409.35 106.877   3 
   1  -9  -4 1484.27 104.955   8 
  -1  -9   4 1487.83 104.362   8 
   2  -9   4 11.2020 9.84001   8 
  -2  -9  -4 8.07564 10.5989   1 
   2   9  -4 6.72165 9.60008   1 
   2  -9   4 11.5979 8.47470   7 
  -2  -9  -4 8.32875 8.70545   6 
  -2   9   4 16.2099 11.6599   2 
   2  -9  -4 12.8359 8.73244   8 
  -2   9  -4 22.5723 15.9269   1 
  -2   9  -4 15.9307 12.9405   2 
  -2  -9   4 13.5926 12.3966   3 
  -2  -9   4 19.1470 11.1061   8 
   2  -9  -4 24.7801 16.3612   1 
  -3  -9  -4 154.982 21.6871   6 
   3  -9   4 153.439 23.5664   7 
   3   9  -4 140.059 24.8214   1 
  -3   9   4 142.155 24.1131   2 
  -3  -9  -4 149.435 25.5282   1 
   3  -9  -4 134.777 20.1090   8 
  -3   9  -4 143.619 25.7963   2 
  -3   9  -4 140.299 25.4175   1 
  -4   9   4 6.04491 11.2670   2 
  -4   9  -4 6.39257 11.4335   1 
  -5   9  -4 894.567 79.6290   1 
   0 -10   4 37.4853 14.2884   8 
   0  10  -4 25.8240 15.2799   1 
   0 -10  -4 45.4702 18.1103   3 
   0 -10   4 27.4732 16.1161   3 
   1 -10   4 62.8004 14.4877   8 
  -1 -10  -4 65.3663 25.6863   1 
   1  10  -4 60.0224 18.5630   1 
  -1 -10  -4 78.7136 19.9050   3 
   1 -10  -4 61.6319 20.9624   3 
  -1  10  -4 57.7450 19.2910   1 
  -1 -10   4 70.2669 18.6927   8 
  -1 -10   4 72.9575 20.8100   3 
   2  10  -4 1432.89 114.248   1 
  -2 -10   4 1533.71 114.790   3 
  -2  10  -4 1549.85 116.538   1 
   2 -10  -4 1652.00 116.326   3 
   3 -10   4 112.955 20.7033   7 
  -3  10   4 89.6464 22.0615   2 
  -3  10  -4 89.9722 24.0941   1 
  -4  10   4 441.735 46.6032   2 
  -4  10  -4 423.341 49.3451   1 
   0  11  -4 188.858 41.0506   1 
   0 -11  -4 226.451 31.5834   3 
   0 -11   4 205.823 33.3484   3 
  -1 -11  -4 809.038 67.0387   3 
   1 -11   4 766.963 69.3971   3 
  -1  11  -4 704.143 67.6913   1 
   1 -11  -4 845.354 69.2737   3 
  -1 -11   4 744.423 68.2612   3 
   2 -11  -4 46.4508 23.4569   3 
  -2 -11   4 55.6307 22.1351   3 
   0   0   5 5.73636 2.07054   2 
   0   0  -5 4.56928 2.96126   8 
   0   0   5 4.97545 3.24418   8 
   0   0  -5 4.31891 1.18982   1 
   1   0  -5 2746.00 200.489   1 
  -1   0  -5 2798.74 197.334   1 
   1   0   5 3115.73 202.829   8 
  -1   0  -5 3096.94 198.156   1 
  -1   0  -5 2875.33 198.140   8 
   1   0  -5 3768.12 208.139   1 
  -1   0   5 3241.52 200.098   1 
  -1   0  -5 2908.93 194.774   6 
  -1   0   5 3083.46 194.297   5 
  -1   0   5 3212.51 196.368   8 
  -1   0   5 2561.80 193.987   1 
  -2   0  -5 820.590 54.7855   8 
   2   0   5 785.673 54.7847   4 
  -2   0   5 855.566 56.2475   5 
   2   0   5 856.778 57.2479   7 
  -2   0   5 874.032 59.2199   4 
   2   0   5 870.562 55.3759   1 
   2   0  -5 790.515 58.5188   1 
  -2   0   5 783.173 55.5833   7 
   2   0   5 886.751 54.6826   8 
  -2   0  -5 772.545 56.4373   1 
  -2   0  -5 852.285 56.8528   1 
  -3   0  -5 142.783 15.4273   1 
   3   0  -5 157.809 16.5319   1 
   3   0   5 147.609 15.0105   7 
  -3   0   5 147.851 13.2963   5 
   3   0  -5 126.251 16.4347   1 
   3   0  -5 143.071 13.2868   7 
   3   0   5 147.918 14.1585   1 
  -3   0   5 135.956 16.4036   4 
  -3   0   5 131.704 13.7323   7 
  -3   0  -5 137.072 11.6154   8 
  -4   0   5 47.9418 7.79912   5 
   4   0  -5 30.5524 9.72997   1 
   4   0  -5 27.4904 11.0273   1 
   4   0  -5 36.1354 7.84536   7 
   4   0   5 44.5788 9.37781   1 
   4   0   5 37.6955 9.47203   7 
  -4   0   5 26.3156 7.94796   7 
  -4   0  -5 40.3592 6.19592   8 
  -5   0  -5 1792.51 116.505   8 
   5   0   5 1848.29 121.992   7 
   5   0  -5 1652.48 126.635   1 
   5   0  -5 1829.15 119.904   7 
   6   0   5 2.60813 7.05625   7 
   6   0  -5 1.92723 5.26452   7 
   6   0  -5 5.17496 9.97033   1 
  -6   0  -5 0.75778 7.13217   6 
  -7   0  -5 427.407 40.9768   6 
   7   0  -5 439.371 38.1673   7 
  -8   0  -5 200.380 36.0451   1 
   0  -1  -5 60.8330 5.88268   1 
   0   1   5 51.8340 5.27979   4 
   0   1  -5 54.5481 4.74491   1 
   0   1   5 48.6796 4.17783   1 
   0   1  -5 49.7266 4.48986   1 
   0   1   5 59.7706 7.36532   8 
   0  -1  -5 55.0684 7.10460   8 
   0  -1   5 45.1802 5.85533   2 
   0   1  -5 48.9633 4.18345   6 
   0   1   5 49.1130 4.47744   6 
   0   1   5 51.5199 4.27727   1 
   0  -1  -5 48.9170 5.51156   5 
   0  -1   5 45.5799 4.01049   6 
   0   1   5 46.1455 5.58617   5 
   0  -1  -5 46.7807 5.00833   1 
   1  -1   5 1027.20 68.5058   7 
  -1   1   5 1017.53 68.5883   1 
   1   1  -5 898.123 68.3588   1 
  -1  -1  -5 1052.86 67.4069   1 
   1   1  -5 1061.08 68.5428   1 
  -1   1   5 1006.61 69.1401   4 
   1  -1   5 1053.70 67.7034   8 
  -1   1   5 1020.90 68.0170   1 
  -1  -1  -5 976.882 66.3592   6 
  -1   1   5 1081.31 70.5688   8 
  -1  -1  -5 1028.01 67.6147   1 
  -1   1   5 961.141 67.9300   5 
  -1  -1  -5 987.042 68.3478   8 
  -1  -1   5 1045.73 67.2289   6 
  -1   1  -5 1070.53 68.8652   2 
   1  -1  -5 1006.12 69.0415   4 
   1   1   5 1074.61 67.1220   5 
   1   1   5 1084.37 66.5069   1 
  -1   1  -5 979.601 67.1414   1 
   1  -1  -5 1028.71 70.4886   8 
  -1   1  -5 1028.79 67.3876   1 
  -1  -1   5 902.270 66.8931   3 
  -1  -1   5 1128.32 68.3188   1 
   1   1   5 1124.07 68.7681   8 
   1  -1  -5 990.136 69.7419   1 
   1  -1  -5 1064.95 69.2564   1 
   1   1   5 1098.04 66.6294   6 
  -1  -1   5 1052.25 67.7223   1 
   1  -1  -5 960.855 68.0001   5 
   1   1   5 1119.26 66.5884   1 
  -2  -1  -5 6076.28 385.809   1 
  -2  -1  -5 6347.02 388.910   1 
   2   1  -5 5587.86 382.169   1 
  -2  -1  -5 6093.22 375.147   4 
  -2   1   5 5457.88 371.825   7 
   2  -1   5 5720.21 376.384   4 
   2   1  -5 5330.09 378.567   3 
  -2   1   5 6004.51 377.549   5 
   2  -1   5 6452.62 383.695   7 
  -2   1   5 5760.67 376.148   4 
  -2  -1  -5 5413.41 378.857   6 
   2  -1   5 6259.64 382.995   1 
  -2   1   5 6598.73 383.173   8 
   2  -1   5 5711.08 370.748   8 
  -2   1   5 5458.74 379.761   1 
  -2  -1  -5 5461.78 376.346   8 
   2   1   5 6868.59 384.213   1 
  -2  -1   5 5362.44 372.679   7 
  -2  -1   5 6032.01 380.671   5 
   2  -1  -5 5173.07 371.566   1 
  -2  -1   5 6064.58 387.596   1 
  -2   1  -5 4092.47 368.402   1 
  -2   1  -5 5790.04 385.710   1 
   2   1   5 5979.82 380.983   8 
   3   1  -5 321.330 27.3974   3 
  -3  -1  -5 382.312 29.5209   1 
  -3   1   5 335.499 30.2645   4 
  -3   1   5 313.825 26.5968   5 
  -3   1   5 309.650 27.3571   7 
   3   1  -5 309.623 30.4139   1 
  -3  -1  -5 314.681 26.5580   6 
   3  -1   5 327.418 28.3028   7 
  -3  -1  -5 359.341 26.6908   4 
  -3  -1  -5 343.253 26.1623   8 
  -3   1   5 367.780 30.0800   8 
   3  -1   5 315.542 27.6320   1 
   3   1  -5 295.588 29.1591   1 
   3   1  -5 319.727 25.5254   7 
   3  -1   5 293.512 27.3135   4 
   3   1   5 384.880 28.7765   7 
  -3   1  -5 375.467 23.5862   8 
   3   1   5 409.953 28.4674   1 
   3  -1  -5 509.637 33.3222   1 
   3  -1  -5 353.971 31.7872   1 
  -3  -1   5 413.556 27.2325   5 
  -3   1  -5 369.391 30.0805   1 
   3   1   5 399.134 26.3600   8 
  -3  -1   5 345.906 26.3646   7 
   3  -1  -5 409.521 28.4721   7 
  -3   1  -5 375.399 30.0306   1 
  -3  -1   5 391.118 30.1230   1 
  -4  -1  -5 1454.30 94.4212   8 
  -4   1   5 1341.31 97.5146   7 
  -4  -1  -5 1529.66 96.3969   4 
  -4   1   5 1655.90 100.024   8 
  -4  -1  -5 1312.41 95.9497   6 
   4  -1   5 1464.10 97.7910   7 
  -4   1   5 1416.78 94.9443   5 
   4   1  -5 1305.31 100.769   1 
   4   1  -5 1383.01 94.3455   7 
   4  -1   5 1315.47 97.0398   4 
   4  -1   5 1360.94 97.6652   1 
   4   1  -5 1397.08 100.207   1 
   4  -1  -5 1613.23 101.911   1 
  -4   1  -5 1181.90 98.2057   1 
  -4  -1   5 1333.53 94.8116   7 
  -4  -1   5 1457.68 94.6679   5 
   4  -1  -5 1499.30 96.8249   7 
  -4   1  -5 1418.23 91.1135   8 
   4   1   5 1446.79 97.7895   1 
   4  -1  -5 1349.60 101.886   1 
   4   1   5 1574.85 97.9472   7 
  -4  -1   5 1470.64 99.6979   1 
   5   1  -5 82.2164 10.9537   7 
  -5  -1  -5 70.1733 12.6295   6 
   5   1  -5 70.7627 16.6368   1 
   5  -1   5 82.4609 13.8631   7 
  -5  -1   5 43.8229 9.04247   5 
  -5  -1   5 24.1149 8.85896   7 
   5   1   5 28.5978 10.0092   7 
  -5   1  -5 28.2992 5.16596   8 
  -5  -1   5 29.6098 11.5946   1 
   5  -1  -5 23.4389 12.7607   1 
   5  -1  -5 26.7002 9.94255   7 
   6   1  -5 129.273 16.7004   7 
   6   1  -5 126.531 23.1745   1 
  -6  -1  -5 128.371 22.7523   1 
  -6  -1  -5 117.908 17.9563   6 
   6  -1   5 152.044 20.0299   7 
   6  -1  -5 108.430 23.6684   1 
   6   1   5 125.676 18.5251   7 
   6  -1  -5 111.524 17.3103   7 
  -7  -1  -5 181.450 30.0823   1 
  -7  -1  -5 147.218 22.9077   6 
   7  -1  -5 177.068 21.7554   7 
  -8  -1  -5 1189.84 101.649   1 
   0   2   5 273.245 19.9356   6 
   0  -2  -5 268.041 20.9913   1 
   0  -2   5 282.695 20.1155   1 
   0  -2   5 257.661 21.7315   2 
   0   2   5 277.711 20.3621   5 
   0  -2   5 315.632 20.0716   1 
   0   2   5 309.834 20.9784   1 
   0  -2  -5 294.360 22.0458   1 
   0  -2   5 271.610 19.4852   6 
   0  -2  -5 282.648 20.6426   4 
   0   2  -5 260.102 20.2283   1 
   0   2   5 285.793 20.8268   1 
   0  -2   5 287.280 20.0914   7 
   0  -2  -5 270.121 22.3982   8 
   0  -2  -5 265.490 20.3808   5 
   0   2  -5 297.121 19.6778   6 
   0   2  -5 284.783 20.5898   1 
   0   2   5 292.556 22.6161   8 
   1   2  -5 3262.84 254.781   1 
   1   2  -5 3142.02 260.217   1 
   1   2  -5 4170.93 258.198   6 
  -1   2   5 3873.41 251.813   5 
  -1  -2  -5 3956.22 255.075   5 
  -1   2   5 5097.85 265.693   1 
  -1  -2  -5 3711.41 258.221   6 
  -1  -2  -5 3572.89 252.410   8 
   1  -2   5 4109.57 258.667   1 
  -1  -2  -5 3921.73 257.815   1 
   1  -2   5 4208.44 259.457   7 
  -1   2   5 4335.50 254.701   8 
  -1  -2  -5 4346.43 265.317   1 
   1   2   5 3960.08 259.741   8 
  -1   2  -5 3817.67 261.691   2 
   1  -2  -5 3866.11 259.548   1 
   1   2   5 4749.35 261.472   1 
  -1  -2   5 3911.78 260.839   1 
  -1   2  -5 3885.19 252.697   1 
   1  -2  -5 3996.92 258.562   1 
   1  -2  -5 4046.91 261.171   4 
   1  -2  -5 3919.98 254.406   8 
  -1   2  -5 3711.44 261.173   1 
  -1   2  -5 3098.53 250.207   6 
  -1  -2   5 3644.06 260.098   3 
   1   2   5 4492.30 258.680   6 
   1   2   5 3778.94 254.720   5 
  -1  -2   5 3936.46 256.830   6 
   2   2  -5 639.912 47.8254   1 
   2  -2   5 699.152 47.0093   7 
  -2   2   5 672.598 48.2938   4 
   2  -2   5 669.236 45.9033   1 
   2   2  -5 726.377 45.7153   3 
  -2   2   5 726.553 48.3884   8 
  -2  -2  -5 713.835 46.6687   1 
  -2  -2  -5 663.925 45.9243   8 
  -2  -2  -5 659.577 46.9787   1 
  -2  -2  -5 667.983 44.8764   6 
  -2   2   5 634.341 46.7529   1 
  -2   2   5 649.349 46.5058   7 
  -2   2   5 659.499 45.5190   5 
  -2   2  -5 616.633 46.7514   7 
   2   2   5 592.770 42.4139   5 
   2   2   5 646.350 45.4292   1 
  -2  -2   5 670.400 45.2061   5 
  -2   2  -5 659.035 47.5349   1 
   2  -2  -5 627.937 47.8146   4 
  -2  -2   5 656.397 46.9424   1 
   2  -2  -5 587.856 49.0197   1 
  -2  -2   5 603.519 42.4030   7 
   2  -2  -5 720.793 56.8254   1 
  -2   2  -5 596.716 46.7991   1 
   2  -2  -5 620.972 48.2546   8 
   2   2   5 700.806 44.9903   6 
   2   2   5 682.668 45.7755   8 
  -2  -2   5 650.574 45.4543   6 
  -3   2   5 569.857 42.8596   1 
   3   2  -5 550.744 40.4102   3 
  -3   2   5 554.448 42.3460   8 
   3  -2   5 490.383 40.7630   1 
  -3  -2  -5 553.592 41.9715   1 
  -3   2   5 485.163 40.4934   7 
   3   2  -5 534.886 43.8909   1 
  -3  -2  -5 533.901 42.6432   1 
   3  -2   5 509.756 41.3389   4 
  -3  -2  -5 556.098 40.2613   8 
   3  -2   5 546.841 41.7561   7 
  -3  -2  -5 501.283 39.4402   6 
  -3  -2  -5 553.319 39.2677   4 
   3   2  -5 521.632 37.1740   7 
  -3   2   5 578.775 44.2294   4 
   3  -2  -5 528.655 45.2389   1 
   3   2   5 575.471 39.5614   8 
  -3   2  -5 541.883 42.5504   7 
  -3   2  -5 621.649 43.9311   1 
  -3  -2   5 566.219 42.9462   1 
  -3  -2   5 576.154 39.3327   5 
  -3  -2   5 586.656 40.7251   6 
   3  -2  -5 630.933 44.9515   1 
   3  -2  -5 551.380 41.2203   7 
   3  -2  -5 598.674 44.6068   4 
   3   2   5 604.360 41.4375   1 
  -3   2  -5 537.036 43.2199   1 
  -3  -2   5 544.914 37.5227   7 
   4   2  -5 281.909 30.1891   1 
  -4  -2  -5 304.791 26.6523   6 
  -4  -2  -5 306.359 25.7717   8 
   4  -2   5 288.917 27.8535   1 
   4   2  -5 321.595 30.4536   1 
   4   2  -5 289.715 23.5437   7 
  -4  -2  -5 310.232 26.2951   4 
  -4   2   5 284.706 28.9756   1 
  -4  -2  -5 294.297 29.9616   1 
   4  -2   5 299.644 28.5491   4 
  -4   2   5 365.490 29.3234   8 
   4  -2   5 319.767 28.3924   7 
   4   2   5 320.338 27.7534   1 
   4  -2  -5 329.559 33.0898   1 
   4   2   5 323.545 27.2184   7 
   4  -2  -5 360.300 31.8945   1 
  -4  -2   5 323.911 24.6987   5 
   4  -2  -5 330.928 30.7562   4 
   4  -2  -5 340.895 27.9400   7 
  -4  -2   5 317.199 24.1347   7 
  -4   2  -5 289.603 29.8682   1 
  -4  -2   5 341.452 27.9726   6 
  -4  -2   5 312.381 29.3223   1 
   5   2  -5 1691.44 104.808   7 
   5  -2   5 1734.03 110.299   7 
   5   2  -5 1627.42 114.824   1 
  -5  -2  -5 1616.80 108.314   6 
  -5  -2  -5 1692.37 114.605   1 
  -5  -2  -5 1654.29 106.406   8 
   5  -2   5 1560.47 110.416   4 
  -5  -2  -5 1857.28 108.986   4 
  -5  -2   5 1474.92 108.196   6 
  -5  -2   5 1342.58 123.835   1 
   5  -2  -5 1450.76 115.251   1 
   5   2   5 1496.34 107.565   7 
   5  -2  -5 1480.68 108.005   7 
  -5  -2   5 1433.26 103.981   5 
  -5   2  -5 1392.76 112.254   1 
  -6  -2  -5 153.482 20.9342   6 
   6   2  -5 145.859 24.6958   1 
  -6  -2  -5 173.416 18.8389   8 
   6  -2   5 181.185 23.9308   7 
  -6  -2  -5 139.720 24.3956   1 
   6   2  -5 167.755 17.4514   7 
   6  -2  -5 141.649 25.9679   1 
   6   2   5 165.171 20.5266   7 
  -6  -2   5 163.558 16.9833   5 
   6  -2  -5 153.195 21.0234   7 
  -7  -2  -5 616.076 60.3475   1 
  -7  -2  -5 562.149 51.8427   6 
   7  -2  -5 653.154 51.6725   7 
   0  -3  -5 37.6940 6.90919   1 
   0  -3  -5 32.2081 5.03870   5 
   0  -3  -5 40.1450 7.05297   8 
   0  -3   5 28.7438 4.61643   6 
   0   3  -5 28.8038 5.67009   1 
   0   3   5 38.0981 5.26016   6 
   0  -3   5 27.3271 6.29908   2 
   0   3   5 36.9343 6.99071   8 
   0   3  -5 31.8103 4.48162   7 
   0   3  -5 31.8494 4.76632   6 
   0   3   5 28.2695 5.63419   1 
   0  -3  -5 32.9200 5.01419   3 
   0   3  -5 31.8654 5.91648   1 
   0  -3  -5 35.7346 6.37229   1 
   0  -3   5 30.2863 5.38424   1 
   0  -3   5 32.4180 4.70590   7 
  -1   3   5 385.291 25.5263   8 
  -1  -3  -5 323.090 23.8094   8 
   1   3  -5 325.313 23.9448   1 
   1   3  -5 354.922 24.2732   1 
  -1  -3  -5 368.249 24.4819   1 
  -1  -3  -5 327.790 23.6874   1 
  -1  -3  -5 313.936 20.6832   5 
  -1  -3  -5 317.492 21.8149   6 
   1   3  -5 343.146 22.2843   6 
   1  -3   5 340.106 23.0691   7 
  -1   3   5 330.888 24.1463   1 
   1  -3   5 350.217 24.1485   1 
  -1   3   5 340.647 24.0734   7 
  -1   3  -5 244.557 20.8651   6 
   1  -3  -5 239.650 23.6479   1 
  -1  -3   5 252.388 22.3727   1 
  -1  -3   5 227.665 21.9377   3 
   1   3   5 243.446 22.0468   1 
  -1   3  -5 257.493 23.9720   2 
  -1  -3   5 254.398 21.2440   6 
   1   3   5 252.498 21.0945   6 
   1   3   5 263.626 22.9768   8 
  -1   3  -5 252.450 22.7130   1 
  -1   3  -5 240.776 22.0187   7 
   1  -3  -5 252.117 23.0662   4 
   1  -3  -5 247.197 23.4746   8 
  -1   3  -5 256.354 22.9828   1 
  -2  -3  -5 3273.10 227.136   1 
   2  -3   5 3303.89 226.927   1 
   2  -3   5 3426.97 226.472   7 
   2  -3   5 3303.35 223.540   8 
   2   3  -5 3107.58 227.255   1 
  -2  -3  -5 3376.65 226.228   8 
  -2   3   5 3217.45 226.983   1 
  -2   3   5 3750.67 228.124   8 
  -2   3   5 3198.63 226.409   7 
   2   3  -5 3784.21 225.919   6 
  -2  -3  -5 3481.54 224.889   6 
  -2  -3  -5 3595.25 227.260   1 
   2  -3  -5 3699.82 229.997   1 
   2  -3  -5 3523.58 230.481   1 
   2   3   5 3825.12 226.763   1 
  -2  -3   5 3312.03 226.226   3 
  -2   3  -5 3614.71 228.797   1 
  -2   3  -5 3681.43 228.974   2 
   2  -3  -5 3434.95 228.402   8 
  -2  -3   5 3606.64 225.442   6 
   2   3   5 3780.95 225.020   6 
   2  -3  -5 3578.32 228.280   4 
  -2   3  -5 3475.89 227.934   1 
   2   3   5 3542.53 226.087   8 
  -2  -3   5 3549.75 227.093   1 
  -2   3  -5 3605.23 227.280   7 
   3  -3   5 1221.52 89.6369   4 
  -3  -3  -5 1359.62 88.9828   8 
   3  -3   5 1288.22 89.5456   7 
   3   3  -5 1295.70 83.3655   7 
  -3  -3  -5 1249.67 90.6788   1 
  -3  -3  -5 1207.96 87.2243   6 
  -3   3   5 1459.24 90.9737   8 
   3   3  -5 1317.89 88.6139   3 
   3   3  -5 1163.35 90.5879   1 
  -3   3   5 1144.07 88.3168   7 
   3  -3   5 1248.45 89.9636   1 
  -3   3   5 1204.83 90.0485   1 
  -3   3  -5 1263.30 91.7228   1 
  -3  -3   5 1374.14 86.6830   5 
   3   3   5 1398.93 88.2770   8 
   3   3   5 1297.44 88.6745   1 
   3  -3  -5 1357.72 90.1814   7 
  -3  -3   5 1308.86 88.3624   6 
  -3  -3   5 1291.77 90.5767   1 
   3  -3  -5 1361.35 92.3719   4 
  -3   3  -5 1404.55 92.7897   1 
   3  -3  -5 1479.78 93.5607   1 
   3  -3  -5 1265.64 94.2134   1 
  -3   3  -5 1263.15 90.9506   7 
  -4  -3  -5 983.691 72.8918   8 
  -4  -3  -5 930.205 76.3293   1 
  -4  -3  -5 1114.42 77.2070   1 
   4   3  -5 927.987 77.1411   1 
  -4   3   5 1109.25 75.3464   8 
   4   3  -5 951.008 68.5362   7 
   4  -3   5 950.746 75.5473   4 
   4  -3   5 914.834 74.9059   1 
  -4  -3  -5 944.773 72.3654   6 
  -4  -3  -5 1083.92 73.1204   4 
  -4   3   5 850.817 74.9128   1 
   4  -3   5 980.018 74.6146   7 
  -4  -3   5 1121.48 74.2146   6 
   4   3   5 1155.86 75.7070   1 
   4  -3  -5 1217.60 76.4002   7 
   4  -3  -5 1066.46 81.0337   1 
   4  -3  -5 1335.45 81.5464   1 
   4   3   5 1153.80 74.0031   7 
   4  -3  -5 1096.66 78.1163   4 
  -4  -3   5 1056.88 76.7585   1 
  -4  -3   5 1135.84 71.1163   5 
  -4   3  -5 914.183 77.2060   1 
  -5  -3  -5 89.4142 18.6676   1 
   5   3  -5 90.4215 10.6659   7 
  -5  -3  -5 96.8724 14.1880   4 
  -5  -3  -5 74.3829 14.2904   6 
   5  -3   5 83.5278 15.8156   4 
  -5  -3  -5 93.3270 14.0019   8 
   5   3  -5 73.7219 18.0839   1 
   5  -3   5 95.1963 16.3613   7 
  -5  -3   5 91.4823 11.6799   5 
   5  -3  -5 97.0235 20.2865   1 
   5  -3  -5 90.2236 17.4616   4 
  -5   3  -5 91.5638 19.4808   1 
   5  -3  -5 103.147 16.0413   7 
   5   3   5 102.234 14.9340   7 
  -6  -3  -5 187.250 28.3220   1 
   6  -3   5 184.468 26.7640   4 
   6   3  -5 183.122 29.1410   1 
  -6  -3  -5 180.252 23.5341   6 
  -6  -3  -5 183.134 21.7840   8 
   6  -3   5 201.383 25.3694   7 
  -6   3  -5 246.255 31.6798   1 
   6  -3  -5 209.154 31.4968   1 
   6  -3  -5 209.035 24.5564   7 
  -6  -3   5 231.618 19.9959   5 
   6   3   5 213.192 23.2341   7 
  -7  -3  -5 274.489 31.4996   6 
  -7  -3  -5 277.751 38.0459   1 
   0   4  -5 2594.42 164.206   1 
   0   4  -5 2402.38 160.921   7 
   0   4  -5 2585.51 164.159   1 
   0  -4   5 2499.13 161.610   6 
   0  -4  -5 2557.12 162.748   3 
   0   4   5 2662.35 164.910   8 
   0  -4   5 2386.70 161.185   7 
   0   4   5 2348.44 163.771   1 
   0   4   5 2691.75 162.688   6 
   0  -4  -5 2340.36 163.972   8 
   0  -4   5 2484.70 163.472   1 
   0  -4   5 2479.00 164.994   2 
   0   4  -5 2680.25 162.089   6 
   0  -4   5 2631.91 163.034   8 
   0  -4  -5 2268.31 163.835   1 
  -1   4   5 1589.94 93.4080   6 
   1  -4   5 1479.76 94.6580   1 
   1  -4   5 1430.21 92.2882   7 
   1   4  -5 1546.55 91.9870   6 
  -1  -4  -5 1373.72 93.6531   8 
  -1   4   5 1344.37 91.7857   2 
  -1  -4  -5 1409.52 91.6539   6 
  -1  -4  -5 1447.90 90.9258   2 
  -1   4   5 1340.61 94.0938   1 
  -1  -4  -5 1400.99 90.2331   5 
  -1   4   5 1501.34 94.5410   8 
  -1  -4  -5 1337.43 93.7160   1 
   1   4  -5 1257.50 93.0738   1 
  -1   4   5 1378.94 93.3175   7 
   1  -4   5 1493.05 90.8502   8 
  -1   4  -5 1371.42 94.0035   1 
  -1   4  -5 1384.25 91.2225   6 
  -1   4  -5 1323.67 94.5868   2 
   1   4   5 1351.26 91.3184   6 
   1  -4  -5 1499.23 97.2161   1 
   1  -4  -5 1326.40 94.8800   1 
   1  -4  -5 1303.98 93.9116   8 
  -1   4  -5 1293.18 91.8858   7 
  -1  -4   5 1310.94 92.9445   1 
   1   4   5 1279.14 92.7800   1 
  -1   4  -5 1464.97 94.5636   1 
  -1  -4   5 1251.28 92.7848   3 
  -1  -4   5 1321.12 91.1213   6 
   1   4   5 1396.40 93.5375   8 
  -1  -4   5 1332.99 94.2601   2 
  -2  -4  -5 459.928 38.3752   8 
   2  -4   5 474.949 39.7922   1 
   2   4  -5 424.885 39.0611   1 
  -2   4   5 445.414 38.3232   7 
  -2   4   5 440.110 39.1479   1 
   2  -4   5 448.398 38.0913   7 
   2   4  -5 503.753 40.0293   1 
  -2  -4  -5 463.882 39.3015   1 
  -2  -4  -5 429.392 36.2784   6 
  -2   4   5 497.019 39.1075   8 
   2  -4   5 439.976 33.8163   8 
  -2  -4  -5 443.620 33.5676   5 
   2  -4  -5 562.166 42.4871   1 
  -2   4  -5 593.268 41.5910   1 
  -2  -4   5 556.608 37.5778   6 
  -2   4  -5 561.539 41.4707   2 
  -2   4  -5 528.636 39.1049   7 
  -2  -4   5 507.239 38.7852   3 
  -2   4  -5 519.579 40.0554   1 
   2   4   5 587.942 37.6193   6 
   2  -4  -5 511.706 42.3124   1 
   2   4   5 569.125 38.8654   8 
  -2   4  -5 622.254 38.0597   6 
   2  -4  -5 537.502 40.5652   4 
   2  -4  -5 548.719 40.5610   8 
   2   4   5 557.494 39.1630   1 
  -2  -4   5 554.059 39.7493   1 
  -3  -4  -5 323.725 28.6031   1 
   3   4  -5 302.549 29.1059   1 
   3   4  -5 344.007 29.7174   1 
   3  -4   5 293.047 28.3562   1 
  -3  -4  -5 324.829 27.8090   8 
  -3   4   5 328.789 27.5698   8 
   3   4  -5 315.726 26.1411   3 
  -3  -4  -5 309.725 25.7780   6 
  -3  -4  -5 300.699 28.6300   1 
  -3   4   5 322.535 29.4520   1 
   3  -4   5 310.843 27.5613   7 
  -3   4  -5 293.649 28.9741   2 
   3  -4  -5 285.661 27.8462   8 
   3  -4  -5 326.479 30.3934   1 
   3  -4  -5 288.681 30.9342   1 
  -3  -4   5 301.091 25.7779   6 
  -3  -4   5 316.870 24.0787   5 
  -3   4  -5 287.543 29.0891   1 
  -3  -4   5 290.858 27.6901   1 
   3  -4  -5 295.357 28.9148   4 
   3   4   5 313.551 26.4782   8 
   3   4   5 310.814 27.1607   1 
  -4  -4  -5 403.295 37.1552   1 
  -4  -4  -5 407.914 33.4027   6 
   4   4  -5 387.749 37.3745   1 
  -4  -4  -5 402.235 34.0288   8 
   4  -4   5 448.401 36.1353   7 
   4  -4   5 405.852 36.3286   4 
   4   4  -5 406.798 27.5274   7 
  -4   4   5 349.133 35.0318   1 
  -4   4   5 516.608 39.7510   8 
   4  -4  -5 377.217 39.2879   1 
  -4  -4   5 407.643 33.8673   6 
  -4  -4   5 394.196 36.6457   1 
   4  -4  -5 386.384 36.9605   4 
   4  -4  -5 394.715 35.3416   7 
  -4   4  -5 364.464 36.9841   1 
  -4  -4   5 404.953 30.5562   5 
  -5  -4  -5 853.618 63.5717   6 
   5  -4   5 765.663 65.6905   4 
  -5  -4  -5 818.380 68.4295   1 
   5   4  -5 811.015 68.9039   1 
   5  -4   5 927.389 65.8645   7 
  -5  -4  -5 831.564 63.2744   8 
  -5  -4  -5 951.896 64.1787   4 
   5  -4  -5 884.861 65.9599   7 
   5   4   5 861.575 62.4523   7 
   5  -4  -5 820.992 68.1151   4 
  -5   4  -5 817.097 69.2879   1 
  -5  -4   5 873.150 59.0562   5 
   5  -4  -5 787.910 70.7633   1 
  -6  -4  -5 746.330 60.5861   6 
  -6  -4  -5 734.195 66.7104   1 
   6   4  -5 772.961 67.8542   1 
   6  -4   5 775.845 65.0055   4 
   6  -4   5 832.973 63.8350   7 
  -6  -4  -5 773.909 60.1519   8 
  -6   4  -5 803.630 69.6824   1 
   6   4   5 765.811 59.2153   7 
   6  -4  -5 773.856 62.2376   7 
  -7  -4  -5 338.248 42.2689   1 
  -7  -4  -5 336.920 35.7987   6 
  -7   4  -5 320.250 44.0996   1 
   0   5  -5 89.3116 10.3670   6 
   0  -5  -5 78.7872 11.7472   8 
   0   5   5 88.5923 10.5922   6 
   0  -5   5 84.7400 11.4495   1 
   0  -5   5 83.5999 9.52372   7 
   0   5  -5 96.0349 12.7156   1 
   0  -5   5 84.1757 10.0443   6 
   0  -5  -5 80.0465 12.1159   1 
   0   5   5 87.8267 12.1529   8 
   0  -5  -5 101.879 13.8643   1 
   0   5  -5 91.4931 9.33090   7 
   0   5   5 78.3388 11.7792   1 
   0  -5   5 90.8144 11.1807   8 
   0  -5  -5 79.1432 11.2130   3 
  -1   5   5 810.239 59.6738   1 
  -1  -5  -5 873.179 60.4592   1 
  -1  -5  -5 794.356 58.8802   8 
  -1  -5  -5 776.790 56.3283   6 
   1   5  -5 850.244 60.0143   1 
  -1  -5  -5 769.148 54.8335   5 
  -1  -5  -5 842.729 55.9824   2 
  -1   5   5 892.473 59.3738   8 
   1   5  -5 841.072 56.6571   6 
   1  -5   5 793.085 55.5414   8 
   1  -5   5 812.790 56.9653   7 
   1   5  -5 786.164 53.1541   7 
  -1   5   5 922.928 58.4228   6 
  -1  -5  -5 787.791 59.1392   1 
   1  -5   5 839.500 59.7834   1 
  -1   5   5 744.599 56.6813   2 
   1   5  -5 812.826 59.6295   1 
  -1   5  -5 769.873 56.6118   7 
  -1  -5   5 825.893 58.9846   3 
   1  -5  -5 779.567 58.6367   8 
   1  -5  -5 890.721 62.4160   1 
  -1  -5   5 728.746 55.8350   6 
  -1   5  -5 787.360 60.2205   2 
   1   5   5 864.510 56.7894   6 
   1  -5  -5 742.853 59.7203   1 
  -1  -5   5 868.005 59.3519   1 
   1   5   5 812.517 58.7233   1 
  -1   5  -5 880.240 56.7979   6 
  -1  -5   5 817.511 58.4492   8 
  -1   5  -5 757.542 59.2002   1 
   1   5   5 847.541 58.8454   8 
   1  -5  -5 765.020 57.8646   3 
   2   5  -5 1647.82 115.732   1 
  -2  -5  -5 1961.96 117.296   1 
  -2  -5  -5 1627.77 114.266   8 
  -2   5   5 1822.41 114.914   8 
  -2   5   5 1541.68 113.624   2 
   2  -5   5 1722.57 113.572   7 
   2   5  -5 1742.73 115.898   1 
  -2  -5  -5 1699.33 108.759   5 
   2  -5   5 1782.88 116.912   1 
   2  -5   5 1556.26 108.988   8 
  -2   5   5 1626.44 115.674   1 
  -2  -5  -5 1666.69 112.160   6 
  -2  -5  -5 1612.28 115.150   1 
  -2  -5   5 1660.07 114.591   1 
   2   5   5 1710.19 113.940   8 
  -2  -5   5 1655.10 112.195   6 
   2   5   5 1652.22 114.329   1 
   2  -5  -5 1908.36 119.921   1 
   2  -5  -5 1626.06 117.687   1 
  -2   5  -5 1811.06 112.823   6 
   2  -5  -5 1604.26 114.448   8 
  -2   5  -5 1701.76 116.941   2 
  -2   5  -5 1665.98 113.854   7 
  -2  -5   5 1734.74 115.199   8 
   2  -5  -5 1554.10 114.993   4 
  -2   5  -5 1602.63 115.677   1 
  -2  -5   5 1642.92 114.689   3 
   3  -5   5 2501.29 172.635   7 
  -3  -5  -5 2440.50 174.743   1 
   3   5  -5 2338.39 174.531   1 
  -3  -5  -5 2743.54 174.974   1 
   3   5  -5 2612.60 175.412   1 
  -3   5   5 2344.61 174.131   1 
  -3  -5  -5 2482.73 173.120   8 
   3   5  -5 2677.76 171.741   6 
   3  -5   5 2553.20 175.160   1 
   3  -5   5 2355.67 165.324   8 
  -3  -5  -5 2376.81 170.329   6 
  -3   5   5 2653.70 172.555   8 
   3  -5  -5 2627.31 174.064   8 
  -3   5  -5 2665.17 175.899   2 
  -3  -5   5 2651.17 171.291   6 
   3  -5  -5 2677.56 176.131   4 
  -3  -5   5 2743.23 175.011   1 
   3   5   5 2733.38 173.812   1 
  -3   5  -5 2566.25 175.844   1 
   3  -5  -5 2757.69 179.402   1 
   3  -5  -5 3114.40 179.614   1 
   4  -5   5 479.593 42.6981   4 
   4   5  -5 451.420 43.9462   1 
  -4  -5  -5 476.898 40.1713   6 
  -4  -5  -5 478.613 41.5771   8 
  -4  -5  -5 461.297 43.7076   1 
   4  -5   5 554.531 43.0070   7 
  -4   5   5 488.023 55.4116   1 
  -4  -5   5 562.374 37.6773   5 
  -4   5  -5 519.634 46.5154   1 
   4  -5  -5 559.008 44.7912   7 
   4  -5  -5 503.958 45.1041   4 
  -4   5  -5 502.210 44.6388   2 
   4  -5  -5 508.977 47.6018   1 
  -4  -5   5 478.737 42.9846   8 
  -5  -5  -5 110.649 18.1418   8 
   5   5  -5 101.544 20.0183   1 
  -5  -5  -5 116.827 21.7859   1 
   5  -5   5 141.796 19.8101   7 
  -5  -5  -5 106.117 16.3513   6 
   5  -5   5 113.636 20.3644   4 
   5   5   5 84.8613 15.3779   7 
  -5   5  -5 73.5619 19.4024   1 
   5  -5  -5 85.4843 19.0172   4 
  -5  -5   5 86.6454 11.9894   5 
   5  -5  -5 85.5547 20.8580   1 
  -5  -5   5 55.5146 16.1484   8 
   5  -5  -5 67.7583 17.0470   7 
  -6  -5  -5 124.179 20.9737   6 
  -6  -5  -5 131.845 21.4876   8 
   6  -5   5 134.335 24.8938   4 
  -6  -5  -5 123.654 26.0353   1 
  -6   5  -5 151.513 27.9916   1 
   6   5   5 166.264 20.1884   7 
  -7  -5  -5 634.744 63.3226   1 
  -7  -5  -5 603.926 55.0834   6 
  -7   5  -5 666.894 66.0510   1 
   0  -6   5 1700.95 112.737   7 
   0   6  -5 1619.43 112.062   7 
   0  -6  -5 1586.22 115.774   8 
   0  -6   5 1684.91 113.317   6 
   0   6  -5 1751.47 113.865   6 
   0  -6  -5 1587.93 116.811   1 
   0  -6   5 1690.84 114.312   8 
   0  -6  -5 2002.12 121.248   1 
   0   6  -5 1759.43 117.337   1 
   0   6   5 1648.64 116.575   1 
   0  -6  -5 1723.52 115.718   3 
   0   6  -5 1673.44 116.594   1 
   0  -6   5 1787.44 117.089   1 
  -1  -6  -5 533.716 46.4553   1 
  -1  -6  -5 585.193 43.4426   2 
   1  -6   5 541.138 44.0384   7 
  -1  -6  -5 539.152 45.7875   8 
  -1   6   5 553.729 46.6980   1 
  -1  -6  -5 586.331 45.5188   3 
  -1  -6  -5 634.964 48.4934   1 
   1   6  -5 581.741 46.8263   1 
  -1   6   5 521.558 44.0371   2 
   1  -6   5 595.638 47.1023   1 
   1   6  -5 532.804 46.5997   1 
  -1   6   5 661.189 49.3295   6 
  -1  -6  -5 571.460 44.1266   6 
   1  -6   5 572.489 42.9036   8 
   1   6  -5 535.707 40.2788   7 
  -1   6  -5 656.565 44.4281   6 
  -1  -6   5 651.740 47.0690   1 
   1  -6  -5 668.560 46.6879   3 
  -1   6  -5 602.647 43.9492   7 
  -1  -6   5 598.169 46.8718   3 
   1   6   5 581.686 46.2169   1 
   1  -6  -5 606.567 48.2997   1 
  -1  -6   5 608.582 43.7969   6 
  -1   6  -5 644.075 49.0953   2 
  -1   6  -5 574.152 47.2960   1 
   1  -6  -5 594.712 46.0040   8 
  -1  -6   5 613.714 45.8534   8 
   1  -6  -5 726.045 51.5701   1 
  -1   6  -5 752.313 54.3261   1 
  -2   6   5 386.442 35.3309   2 
   2   6  -5 426.867 34.4183   6 
   2  -6   5 405.371 37.1160   1 
  -2  -6  -5 391.897 37.0114   1 
   2   6  -5 362.502 36.0785   1 
   2  -6   5 386.876 30.7270   8 
   2   6  -5 411.586 37.0950   1 
  -2  -6  -5 465.393 38.5536   1 
  -2  -6  -5 389.375 35.7356   8 
  -2  -6  -5 402.273 30.2715   5 
  -2   6   5 419.305 37.6972   1 
   2  -6   5 410.518 34.6622   7 
  -2  -6  -5 437.265 34.2208   2 
  -2  -6  -5 391.637 33.5957   6 
  -2   6  -5 447.248 38.1680   1 
   2  -6  -5 445.142 37.6611   4 
  -2  -6   5 422.626 36.5019   3 
  -2  -6   5 422.120 36.0502   8 
   2  -6  -5 523.751 41.9337   1 
   2   6   5 450.012 36.3543   1 
   2  -6  -5 438.347 36.1684   8 
   2  -6  -5 411.785 38.9310   1 
  -2   6  -5 506.296 40.2909   1 
  -2  -6   5 435.230 36.5952   1 
  -2  -6   5 477.015 34.4830   6 
  -2   6  -5 490.295 34.9867   6 
  -2   6  -5 464.047 39.7955   2 
  -3  -6  -5 308.225 28.7498   8 
   3   6  -5 291.900 30.6354   1 
   3  -6   5 298.127 21.5183   8 
  -3  -6  -5 287.153 26.3443   6 
  -3   6   5 284.649 29.9950   1 
  -3  -6  -5 290.135 29.8566   1 
   3  -6   5 314.496 28.2562   7 
  -3   6   5 289.301 28.4485   2 
  -3   6  -5 289.251 30.9238   2 
  -3   6  -5 286.557 30.3656   1 
  -3  -6   5 293.369 26.8218   6 
  -3  -6   5 271.653 28.2511   8 
   3  -6  -5 273.655 31.7546   1 
  -3   6  -5 300.369 26.4739   6 
   3  -6  -5 268.739 27.6717   8 
   3  -6  -5 265.729 29.1702   4 
  -4  -6  -5 593.973 48.0827   6 
   4  -6   5 552.709 50.6018   4 
  -4  -6  -5 602.977 53.3399   1 
   4   6  -5 604.675 53.4205   1 
   4  -6   5 613.806 49.7633   7 
  -4  -6  -5 570.908 49.7986   8 
   4  -6  -5 607.355 49.9712   8 
  -4   6  -5 621.553 53.4032   2 
  -4  -6   5 605.465 51.0570   8 
  -4  -6   5 677.250 44.9052   5 
   4  -6  -5 647.168 56.6448   1 
  -4   6  -5 639.150 54.2577   1 
   4  -6  -5 627.380 52.9144   4 
  -5  -6  -5 306.207 34.5872   8 
   5  -6   5 385.037 36.4629   7 
   5   6  -5 317.094 38.5804   1 
   5  -6   5 338.895 36.6702   4 
  -5  -6  -5 341.913 33.3913   6 
  -5  -6  -5 329.441 37.7836   1 
   5   6   5 368.426 31.8646   7 
  -5  -6   5 382.266 29.1371   5 
   5  -6  -5 359.594 41.6629   1 
   5  -6  -5 377.467 37.4354   7 
  -5   6  -5 342.422 39.5755   1 
  -5   6  -5 372.899 38.6384   2 
  -6  -6  -5 930.011 77.9815   1 
  -6  -6  -5 914.183 70.4458   6 
   6   6   5 894.450 67.8169   7 
  -6   6  -5 852.766 77.1595   1 
   0  -7  -5 97.8275 15.2508   3 
   0   7  -5 87.1696 15.0351   1 
   0  -7   5 93.0899 13.0683   8 
   0  -7  -5 105.558 15.5792   8 
   0  -7   5 95.4883 20.0260   1 
   0   7  -5 93.9059 11.3543   7 
   0  -7  -5 87.6574 15.7328   1 
   0   7   5 91.0927 15.2477   1 
   0  -7  -5 101.344 24.1156   1 
   0   7  -5 107.163 17.9977   1 
   0  -7   5 109.220 13.2707   6 
  -1  -7  -5 565.678 37.7524   2 
  -1  -7  -5 503.875 40.1599   8 
  -1  -7  -5 536.416 39.7602   3 
  -1   7   5 486.418 40.4423   1 
  -1   7   5 454.799 37.9415   2 
   1   7  -5 500.188 41.0736   1 
  -1  -7  -5 465.254 36.9980   6 
  -1  -7  -5 467.553 40.3251   1 
   1  -7   5 491.061 37.6799   7 
   1  -7   5 485.082 36.0104   8 
   1   7  -5 485.962 33.2427   7 
  -1   7  -5 448.190 41.5263   6 
   1  -7  -5 460.709 39.5900   3 
  -1  -7   5 422.602 39.4801   3 
  -1   7  -5 435.705 41.3585   2 
   1  -7  -5 406.487 40.2324   1 
  -1  -7   5 451.136 38.4792   8 
  -1   7  -5 415.273 35.9584   7 
   1   7   5 433.616 39.6676   1 
  -1   7  -5 432.641 40.6383   1 
   1  -7  -5 457.171 39.2241   8 
  -1  -7   5 445.379 36.3684   6 
  -2  -7  -5 276.837 29.4642   1 
  -2   7   5 277.244 28.4282   2 
   2  -7   5 273.875 23.3631   8 
   2   7  -5 268.194 29.4719   1 
   2  -7   5 289.953 27.7204   7 
  -2  -7  -5 275.570 26.1628   6 
  -2  -7  -5 287.875 28.9278   8 
  -2  -7   5 315.021 30.1666   3 
  -2   7  -5 301.369 30.3247   1 
  -2   7  -5 310.582 31.7972   2 
   2  -7  -5 326.414 29.1907   8 
  -2  -7   5 308.592 29.4045   8 
   2  -7  -5 290.891 31.7642   1 
  -3  -7  -5 2384.80 165.658   6 
  -3   7   5 2280.68 168.088   2 
  -3  -7  -5 2390.78 168.499   8 
   3  -7   5 2742.94 168.693   7 
  -3  -7  -5 2414.87 170.624   1 
   3   7  -5 2277.61 169.921   1 
   3  -7  -5 2552.19 173.566   1 
   3  -7  -5 2552.63 171.293   4 
  -3   7  -5 2508.23 171.803   1 
  -3  -7   5 2504.99 169.508   8 
  -3   7  -5 2699.92 173.476   2 
   3  -7  -5 2533.02 168.116   8 
  -4  -7  -5 272.935 29.3297   8 
  -4  -7  -5 248.131 25.3207   6 
   4  -7   5 288.938 27.6908   7 
  -4   7   5 248.843 28.1904   2 
  -4  -7  -5 251.676 29.8483   1 
   4   7  -5 256.204 30.9751   1 
   4  -7  -5 206.435 25.3195   8 
   4  -7  -5 206.689 30.4963   1 
  -4   7  -5 188.195 27.7574   2 
  -4  -7   5 177.896 25.9848   8 
   4  -7  -5 185.508 28.0094   4 
  -4   7  -5 193.624 28.8536   1 
   5   7  -5 69.1454 21.8454   1 
  -5  -7  -5 64.5972 19.7037   1 
  -5  -7  -5 72.4894 17.1812   6 
  -5   7  -5 64.3017 19.2053   2 
  -5   7  -5 69.3058 21.1011   1 
  -6  -7  -5 73.6653 25.2531   1 
  -6  -7  -5 85.2070 20.1866   6 
  -6   7  -5 112.630 25.9033   1 
   0  -8  -5 1735.18 126.162   1 
   0  -8  -5 1899.86 125.268   3 
   0  -8   5 1806.39 122.412   8 
   0  -8  -5 1787.16 124.730   8 
   0   8  -5 1753.19 125.918   1 
  -1  -8  -5 19.4181 10.6145   6 
  -1  -8  -5 16.4998 12.1444   3 
  -1  -8  -5 15.6244 9.95414   1 
   1   8  -5 12.8040 9.32170   1 
   1  -8   5 14.7736 9.97213   7 
  -1  -8  -5 17.7812 11.0913   8 
   1  -8   5 15.6528 9.26139   8 
   1  -8  -5 44.5856 14.4657   3 
  -1  -8   5 43.9615 14.4131   3 
  -1   8  -5 45.1428 14.0698   1 
   1  -8  -5 47.9019 14.3904   1 
   1  -8  -5 57.1604 13.2507   8 
  -1  -8   5 50.9185 12.0858   8 
  -2  -8  -5 380.775 33.6304   6 
   2  -8   5 432.717 35.9537   7 
   2  -8   5 401.207 31.2290   8 
  -2  -8  -5 408.602 38.8114   1 
   2   8  -5 372.638 38.5157   1 
  -2   8   5 407.596 36.8152   2 
  -2  -8  -5 411.609 37.3417   8 
  -2   8  -5 389.778 39.8566   2 
  -2   8  -5 360.632 37.8919   1 
  -2  -8   5 373.600 37.4571   3 
   2  -8  -5 362.014 35.2673   8 
   2  -8  -5 397.115 40.4154   1 
  -2  -8   5 349.940 35.3017   8 
  -3  -8  -5 263.425 27.4208   6 
  -3  -8  -5 263.628 29.4755   8 
   3  -8   5 269.911 28.5030   7 
  -3   8   5 246.870 29.4357   2 
  -3  -8  -5 243.201 31.3165   1 
   3   8  -5 258.569 31.4404   1 
   3  -8  -5 278.234 31.1677   4 
  -3   8  -5 279.536 33.2605   2 
  -3   8  -5 251.420 31.2031   1 
  -3  -8   5 275.481 30.5349   8 
   3  -8  -5 270.868 33.4072   1 
  -3  -8   5 274.721 32.0681   3 
   3  -8  -5 267.124 27.9438   8 
   4   8  -5 703.364 61.5875   1 
  -4   8   5 651.430 57.9626   2 
   4  -8   5 760.575 58.1900   7 
  -4  -8  -5 671.092 61.0628   1 
  -4  -8  -5 671.664 55.1608   6 
  -4   8  -5 677.101 61.4693   2 
  -4   8  -5 721.179 62.4491   1 
   4  -8  -5 678.923 56.6199   8 
  -5  -8  -5 27.3738 20.3003   1 
  -5   8   5 38.4418 18.0376   2 
  -5  -8  -5 27.2912 15.8652   6 
  -5   8  -5 42.8325 21.3151   1 
   0  -9  -5 42.9957 15.3032   1 
   0  -9  -5 43.4376 15.0681   3 
   0  -9   5 35.3263 13.9286   3 
   0   9  -5 31.0313 14.9434   1 
   0  -9   5 44.4617 12.8471   8 
   0  -9  -5 51.1943 14.3513   8 
   1  -9   5 607.581 45.4580   8 
  -1  -9  -5 641.706 50.2616   3 
  -1  -9  -5 609.581 49.8332   8 
  -1  -9  -5 555.717 50.7023   1 
   1   9  -5 577.245 50.7955   1 
   1  -9  -5 586.984 50.7986   3 
  -1   9  -5 524.918 50.0510   1 
  -1  -9   5 527.482 46.5844   8 
   1  -9  -5 551.131 47.9646   8 
  -1  -9   5 535.400 49.8713   3 
   1  -9  -5 544.645 51.6086   1 
  -2  -9  -5 117.197 18.6316   6 
  -2   9   5 106.679 19.7919   2 
   2   9  -5 91.7103 20.5323   1 
   2  -9   5 102.768 18.2407   7 
  -2  -9  -5 90.1125 19.6795   1 
  -2   9  -5 104.753 20.7161   1 
   2  -9  -5 106.526 21.5915   3 
  -2   9  -5 94.1656 23.3677   2 
  -2  -9   5 91.7208 19.2615   3 
   2  -9  -5 100.384 22.1701   1 
  -2  -9   5 95.2562 18.1904   8 
   2  -9  -5 106.610 19.5337   8 
   3  -9   5 1784.44 115.354   7 
  -3   9   5 1512.80 115.652   2 
  -3  -9  -5 1538.38 112.353   6 
  -3  -9  -5 1564.98 118.555   1 
   3   9  -5 1542.58 119.063   1 
  -3   9  -5 1684.83 121.200   2 
   3  -9  -5 1557.40 113.752   8 
  -3   9  -5 1569.43 119.361   1 
  -3  -9   5 1615.21 118.408   3 
  -4   9   5 56.4070 19.0769   2 
  -4  -9  -5 63.0633 21.3445   1 
  -4  -9  -5 62.4140 17.8279   6 
  -4   9  -5 59.8083 21.1017   1 
   4  -9  -5 66.8885 18.2165   8 
  -5   9  -5 118.921 27.6658   1 
   0  10  -5 1034.01 81.9231   1 
   0 -10   5 993.998 81.5119   3 
   0 -10   5 961.063 75.1143   8 
   0 -10  -5 1042.25 79.5115   3 
   0 -10  -5 1033.94 82.2649   1 
   1  10  -5 42.6732 18.0200   1 
   1 -10   5 60.8524 16.2348   8 
  -1 -10  -5 55.0380 18.9725   1 
  -1 -10  -5 65.8292 18.7990   3 
  -1  10  -5 59.9472 18.2449   1 
   1 -10  -5 62.5121 19.5538   3 
  -1 -10   5 63.4984 20.0094   3 
  -2 -10  -5 288.249 35.3706   1 
   2  10  -5 276.347 34.9644   1 
  -2 -10  -5 256.051 29.9211   6 
   2 -10  -5 341.186 38.3845   3 
  -2  10  -5 307.349 36.4984   1 
  -2 -10   5 288.742 36.1664   3 
   3 -10   5 159.351 25.3226   7 
  -3  10   5 151.670 32.4988   2 
  -3  10  -5 161.793 28.6361   1 
  -3 -10   5 162.687 27.8374   3 
  -4  10  -5 576.804 58.1175   1 
   0 -11   5 41.7985 22.0219   3 
   0  11  -5 41.4341 21.0825   1 
   0 -11  -5 54.2456 20.2296   3 
   1  11  -5 230.017 41.0584   1 
  -1 -11  -5 256.530 33.6626   3 
   1 -11   5 243.461 35.2430   3 
  -1 -11   5 221.746 33.3900   3 
  -1  11  -5 220.384 33.0208   1 
   1 -11  -5 266.937 35.0747   3 
   2 -11  -5 291.797 38.6743   3 
  -2  11  -5 278.034 37.7995   1 
  -2 -11   5 268.866 35.2989   3 
   3 -11  -5 977.451 82.5805   3 
   0   0  -6 1475.44 99.3249   8 
   0   0   6 1366.99 96.5864   2 
   0   0   6 1531.01 97.6670   5 
   0   0   6 1632.24 99.8590   8 
   0   0  -6 1505.21 96.6718   1 
  -1   0  -6 2399.83 159.236   1 
   1   0  -6 2239.72 158.352   1 
  -1   0   6 2558.29 160.856   8 
  -1   0  -6 2388.91 157.630   2 
  -1   0  -6 2467.59 159.608   1 
   1   0  -6 2200.44 158.050   1 
   1   0   6 2571.04 158.555   8 
  -1   0  -6 2449.31 158.586   8 
  -1   0  -6 2360.10 157.091   6 
  -1   0   6 2535.76 158.472   5 
  -1   0   6 2851.53 162.053   1 
  -2   0  -6 1524.92 99.3322   1 
  -2   0  -6 1530.12 97.5912   6 
  -2   0   6 1513.67 99.2685   5 
   2   0   6 1362.39 96.9172   4 
  -2   0   6 1579.09 102.375   4 
   2   0   6 1558.80 97.6677   8 
   2   0  -6 1476.96 100.920   1 
  -2   0  -6 1500.34 98.0422   8 
  -2   0   6 1605.31 102.134   8 
  -2   0  -6 1424.30 99.1871   1 
   2   0  -6 1364.35 101.164   1 
  -2   0   6 1525.79 98.7183   7 
   2   0   6 1627.94 97.3624   1 
   3   0   6 2082.17 137.331   8 
   3   0   6 2226.19 141.890   7 
   3   0   6 2241.58 139.976   1 
  -3   0  -6 1999.87 139.239   6 
  -3   0  -6 2238.81 142.547   1 
   3   0  -6 2326.92 144.154   1 
  -3   0   6 1993.66 139.803   7 
  -3   0   6 2065.06 143.822   4 
  -3   0  -6 2058.85 137.671   8 
  -3   0   6 2392.58 144.199   8 
  -3   0   6 2135.59 139.854   5 
   3   0  -6 1938.29 143.570   1 
  -4   0  -6 976.005 72.9691   6 
  -4   0   6 1027.18 73.8422   7 
   4   0  -6 970.354 78.2656   1 
  -4   0   6 1033.67 72.3027   5 
  -4   0  -6 1134.77 77.6644   1 
   4   0   6 1039.30 74.2426   1 
   4   0  -6 1211.69 79.0702   1 
   4   0   6 1104.56 75.1538   7 
  -4   0  -6 1016.07 69.8503   8 
   4   0  -6 1098.40 72.8481   7 
  -5   0  -6 45.0455 7.40124   8 
  -5   0   6 60.3398 10.8134   5 
   5   0   6 47.7804 11.9287   7 
  -5   0  -6 44.8787 11.2043   6 
   5   0  -6 52.3493 10.6200   7 
   5   0  -6 31.0129 13.1955   1 
   6   0  -6 855.481 59.3174   7 
   6   0   6 816.928 61.7963   7 
  -6   0  -6 681.672 59.8513   6 
   6   0  -6 811.442 69.1412   1 
  -7   0  -6 487.912 44.7054   6 
   0  -1   6 3028.21 216.974   2 
   0  -1   6 3307.34 215.325   6 
   0   1  -6 3618.97 218.086   1 
   0  -1  -6 3064.74 220.333   1 
   0  -1  -6 3399.24 222.115   1 
   0   1   6 3376.74 221.089   4 
   0   1  -6 3220.65 217.428   1 
   0   1   6 3897.53 218.645   6 
   0  -1  -6 3105.18 216.031   8 
   0   1   6 3218.16 214.265   5 
   0   1   6 3527.40 216.733   8 
   0  -1   6 3483.74 216.134   8 
  -1   1   6 633.522 36.0841   5 
  -1  -1  -6 665.253 37.2039   8 
  -1  -1  -6 641.625 33.3064   6 
  -1   1   6 588.921 36.9060   4 
   1   1  -6 597.614 36.2016   1 
   1  -1   6 650.047 35.8929   8 
   1  -1   6 654.963 36.5703   7 
  -1   1  -6 461.114 32.4568   6 
  -1  -1   6 418.604 33.4034   3 
  -1   1  -6 428.793 33.5172   1 
  -1   1  -6 434.575 35.1776   2 
  -1   1  -6 409.318 33.4073   1 
  -1  -1   6 450.488 33.7590   1 
   1   1   6 479.344 32.9885   6 
  -1  -1   6 442.991 33.5389   6 
   1  -1  -6 440.288 37.1463   8 
   1   1   6 454.059 35.2765   8 
   1  -1  -6 438.478 36.1285   1 
   1   1   6 446.675 33.8817   5 
  -1  -1   6 423.776 34.6112   5 
   1  -1  -6 443.283 35.4978   1 
   2   1  -6 717.544 53.3031   1 
   2  -1   6 800.048 52.5093   7 
   2  -1   6 782.035 48.6064   8 
  -2   1   6 771.775 51.3302   5 
  -2  -1  -6 772.062 51.8235   1 
   2  -1   6 810.990 49.4965   1 
   2   1  -6 766.573 51.1346   3 
  -2   1   6 778.974 54.0443   4 
  -2  -1  -6 716.045 50.5854   8 
  -2  -1  -6 758.966 51.3658   1 
  -2  -1  -6 752.041 49.6682   6 
  -2   1   6 732.900 51.2054   7 
  -2   1   6 846.861 54.8558   8 
   2  -1  -6 757.726 53.2783   1 
  -2   1  -6 677.020 51.3104   1 
  -2  -1   6 647.207 49.2360   7 
   2   1   6 736.285 49.6321   1 
   2   1   6 706.167 50.2342   8 
   2  -1  -6 643.503 53.4697   1 
  -2  -1   6 756.488 50.8144   6 
  -2   1  -6 697.389 51.3649   1 
  -2  -1   6 730.215 50.9477   5 
  -2  -1   6 751.725 52.1768   1 
   3   1  -6 1927.50 122.236   3 
   3  -1   6 1894.81 122.170   1 
  -3  -1  -6 1929.06 124.348   1 
  -3  -1  -6 1932.52 120.479   4 
   3   1  -6 1617.35 125.264   1 
  -3   1   6 2094.55 126.340   8 
  -3  -1  -6 1843.31 121.384   6 
   3  -1   6 1814.21 122.351   4 
  -3   1   6 1788.34 122.474   7 
  -3  -1  -6 1805.76 120.707   8 
  -3   1   6 1974.13 126.562   4 
  -3   1   6 1836.91 121.884   5 
   3  -1   6 1894.19 123.748   7 
   3   1  -6 1761.70 125.135   1 
   3   1   6 1885.04 120.632   8 
  -3   1  -6 1622.08 123.475   1 
  -3  -1   6 1877.92 124.703   1 
   3   1   6 1892.00 122.082   1 
  -3   1  -6 1819.83 124.440   1 
   3   1   6 1860.77 123.341   7 
  -3  -1   6 1757.79 121.014   7 
  -3   1  -6 1980.13 118.328   8 
  -3  -1   6 1918.87 121.852   5 
   3  -1  -6 1714.21 126.449   1 
   3  -1  -6 1888.79 126.182   1 
  -4  -1  -6 867.799 55.9454   4 
   4   1  -6 849.340 57.5294   3 
  -4   1   6 852.691 55.9732   5 
  -4  -1  -6 838.885 54.6282   8 
  -4  -1  -6 914.283 60.9124   1 
   4   1  -6 876.821 54.9269   7 
   4  -1   6 857.085 58.0351   1 
   4   1  -6 1091.57 64.2149   1 
   4  -1   6 788.760 57.2564   4 
   4   1  -6 799.800 62.2271   1 
  -4  -1  -6 744.367 55.8160   6 
  -4   1   6 791.457 57.7540   7 
   4  -1   6 847.075 58.5322   7 
  -4   1   6 1019.63 62.6481   8 
  -4  -1   6 688.818 54.5912   5 
  -4   1  -6 744.783 59.7475   1 
   4  -1  -6 752.683 60.4376   1 
   4   1   6 712.537 57.2038   7 
   4  -1  -6 684.810 55.9410   7 
   4  -1  -6 696.393 61.4133   1 
  -4  -1   6 665.987 58.1731   1 
   4   1   6 692.940 56.3101   1 
  -4   1  -6 714.808 59.3249   1 
  -4   1  -6 685.819 50.8125   8 
  -4  -1   6 632.867 54.3411   7 
   5  -1   6 121.899 17.4839   7 
  -5  -1  -6 105.031 19.1927   1 
  -5  -1  -6 128.965 15.5410   4 
   5   1  -6 132.129 14.2442   7 
  -5  -1  -6 125.103 13.6419   8 
   5   1  -6 117.972 20.7238   1 
  -5  -1  -6 107.427 15.5585   6 
  -5  -1   6 110.677 14.6331   7 
  -5  -1   6 133.779 14.7606   5 
   5  -1  -6 116.460 20.5787   1 
   5   1   6 150.817 17.8049   7 
   5  -1  -6 134.859 16.6119   7 
   6   1  -6 930.764 63.5727   7 
  -6  -1  -6 763.546 65.1018   6 
  -6  -1  -6 812.880 71.6137   1 
   6   1  -6 786.734 71.9428   1 
   6  -1   6 907.050 67.9585   7 
   6  -1  -6 913.586 75.7343   1 
   6  -1  -6 947.589 65.9453   7 
   6   1   6 974.095 67.6504   7 
  -7  -1  -6 359.218 36.6291   6 
  -7  -1  -6 362.090 42.3726   1 
   7  -1  -6 406.044 35.7416   7 
  -7   1  -6 344.980 36.8400   6 
   0   2   6 1200.96 83.4749   5 
   0  -2  -6 1263.58 86.1102   8 
   0   2  -6 1255.11 83.2798   1 
   0  -2  -6 1230.95 83.9838   1 
   0   2   6 1346.93 86.3838   8 
   0   2   6 1307.31 83.5203   1 
   0  -2  -6 1315.36 85.2513   1 
   0   2  -6 1248.40 83.3524   1 
   0  -2  -6 1333.95 83.7435   4 
   0  -2   6 1345.06 82.6673   1 
   0  -2   6 1329.00 82.3813   6 
   0   2  -6 1303.59 82.4016   6 
   0  -2   6 1299.14 83.3612   7 
   0  -2  -6 1217.81 83.7127   5 
   0  -2   6 1211.69 85.2078   2 
   0   2   6 1244.62 82.8152   6 
  -1  -2  -6 2050.21 130.045   6 
  -1   2   6 2249.98 134.796   8 
   1  -2   6 2122.87 132.084   7 
   1  -2   6 2049.20 131.116   8 
   1   2  -6 2131.18 132.275   1 
   1   2  -6 1991.83 132.092   1 
   1  -2   6 2139.14 130.970   1 
  -1   2   6 2213.89 132.186   1 
  -1  -2  -6 2030.33 131.614   1 
  -1  -2  -6 2168.77 131.853   1 
  -1   2   6 1959.36 131.405   5 
  -1  -2  -6 1953.99 132.503   8 
  -1   2  -6 2115.29 131.878   1 
   1  -2  -6 1949.33 132.507   4 
   1  -2  -6 1907.13 133.478   1 
  -1  -2   6 2046.48 130.462   6 
  -1  -2   6 2084.71 131.160   1 
  -1   2  -6 1588.07 129.167   6 
   1   2   6 2050.23 132.597   8 
   1  -2  -6 1959.78 134.426   8 
   1   2   6 1971.54 130.067   5 
  -1   2  -6 1994.45 133.032   2 
  -1   2  -6 1913.92 131.093   1 
   1  -2  -6 2047.65 129.958   3 
   1  -2  -6 1953.76 133.507   1 
   1   2   6 2098.11 130.104   6 
   1   2   6 2086.27 130.702   1 
  -1  -2   6 1924.19 130.813   3 
   2   2  -6 635.773 46.7492   1 
   2  -2   6 700.818 45.6459   7 
  -2   2   6 760.831 48.0922   8 
   2  -2   6 668.454 43.5842   1 
  -2  -2  -6 703.161 45.3862   1 
  -2  -2  -6 675.018 45.6590   1 
  -2   2   6 674.003 44.4434   5 
  -2  -2  -6 639.048 44.5770   8 
  -2  -2  -6 651.233 43.0692   6 
  -2   2   6 655.330 45.3270   7 
  -2   2   6 689.703 47.4476   4 
   2  -2   6 680.074 40.9052   8 
   2  -2  -6 569.506 46.9124   8 
   2   2   6 619.480 44.2298   8 
   2   2   6 637.402 43.1989   6 
  -2  -2   6 599.063 45.0986   1 
  -2  -2   6 562.457 41.0995   7 
   2  -2  -6 554.900 45.9576   4 
   2  -2  -6 573.921 47.8766   1 
  -2   2  -6 565.367 45.0891   1 
  -2  -2   6 590.313 43.7637   5 
  -2   2  -6 551.742 45.0138   1 
   2   2   6 660.537 44.0572   1 
  -2   2  -6 605.917 46.1356   2 
   2   2   6 574.218 41.3306   5 
  -2  -2   6 617.722 43.8186   6 
   3  -2   6 2335.53 152.718   7 
  -3   2   6 2458.55 155.889   4 
  -3   2   6 2651.86 155.190   8 
  -3  -2  -6 2278.15 150.742   8 
  -3  -2  -6 2476.78 153.504   1 
   3   2  -6 2348.06 151.142   3 
  -3   2   6 1956.71 152.465   1 
   3  -2   6 2297.33 152.449   4 
  -3  -2  -6 2176.96 153.230   1 
  -3  -2  -6 2461.91 149.492   4 
  -3  -2  -6 2256.48 150.205   6 
   3  -2   6 2297.18 151.392   1 
  -3   2   6 2198.99 151.827   7 
   3   2  -6 2220.78 154.996   1 
  -3   2   6 2221.77 150.635   5 
  -3   2  -6 2282.75 153.688   1 
   3   2   6 2463.46 150.599   8 
   3   2   6 2378.91 151.524   1 
   3  -2  -6 2543.73 156.347   1 
   3  -2  -6 2370.90 155.076   4 
  -3  -2   6 2412.51 150.457   5 
  -3  -2   6 2124.63 147.811   7 
   3   2   6 2103.13 146.593   5 
  -3  -2   6 2367.68 153.725   1 
  -3   2  -6 2253.06 154.205   1 
   3  -2  -6 2201.52 156.705   1 
  -3  -2   6 2195.48 150.838   6 
  -4  -2  -6 604.249 41.6531   4 
   4   2  -6 557.992 39.3443   7 
  -4  -2  -6 572.803 41.7845   8 
   4  -2   6 510.822 43.9243   4 
   4  -2   6 591.243 44.7341   7 
   4   2  -6 599.355 43.5993   3 
  -4  -2  -6 545.454 46.3480   1 
  -4  -2  -6 538.674 42.2893   6 
  -4  -2  -6 630.522 46.9486   1 
  -4   2   6 499.626 44.7463   1 
   4   2  -6 518.395 46.9979   1 
   4  -2   6 525.812 43.4816   1 
   4   2  -6 718.565 48.8787   1 
  -4   2   6 738.649 51.9581   8 
  -4   2  -6 490.762 45.7254   1 
   4  -2  -6 549.573 43.4447   7 
   4  -2  -6 529.702 48.4466   1 
  -4   2  -6 578.640 47.1322   1 
  -4  -2   6 563.184 41.0744   5 
   4   2   6 563.186 43.3450   1 
  -4  -2   6 537.589 45.5689   1 
   4  -2  -6 610.768 48.1905   1 
   4   2   6 553.380 43.2626   7 
  -4  -2   6 550.486 43.0912   6 
  -4  -2   6 507.185 39.4188   7 
  -5  -2  -6 118.890 15.0414   8 
  -5  -2  -6 117.994 16.4090   6 
   5   2  -6 102.879 20.3948   1 
   5  -2   6 97.8046 17.0026   4 
  -5  -2  -6 135.378 16.5704   4 
   5  -2   6 112.345 17.8354   7 
   5   2  -6 119.454 13.4399   7 
  -5  -2  -6 117.635 20.2558   1 
   5  -2  -6 151.418 24.2257   1 
  -5   2  -6 166.947 22.5044   1 
   5  -2  -6 180.670 19.6893   7 
  -5  -2   6 174.487 16.0550   5 
   5   2   6 177.188 19.7546   7 
   6  -2   6 975.004 71.4428   7 
   6   2  -6 867.638 75.9583   1 
  -6  -2  -6 833.552 68.7389   6 
  -6  -2  -6 889.628 75.9136   1 
   6   2   6 910.942 68.8109   7 
  -6  -2   6 1007.40 65.7308   5 
   6  -2  -6 955.783 79.7664   1 
   6  -2  -6 946.182 69.3471   7 
  -7  -2  -6 495.221 53.6160   1 
  -7  -2  -6 497.273 46.6209   6 
   7  -2  -6 599.993 47.6491   7 
   0   3   6 2292.45 142.541   8 
   0  -3   6 2162.11 141.910   2 
   0  -3   6 2069.92 139.351   1 
   0   3  -6 2194.72 138.697   6 
   0   3   6 2022.31 138.905   5 
   0   3   6 2230.67 140.689   1 
   0  -3  -6 2225.08 140.052   4 
   0  -3   6 2159.49 138.790   7 
   0  -3  -6 1943.23 140.387   1 
   0  -3  -6 2302.12 142.358   1 
   0  -3   6 2215.57 138.628   6 
   0  -3  -6 2055.74 141.625   8 
   0   3  -6 2212.26 140.210   1 
   0   3  -6 2074.96 140.165   1 
   0  -3  -6 2040.04 140.721   5 
   0   3   6 2283.19 139.316   6 
   1   3  -6 948.056 59.6410   6 
  -1  -3  -6 892.345 60.9705   1 
  -1  -3  -6 875.905 59.2135   6 
  -1   3   6 948.600 61.6550   1 
   1   3  -6 930.412 61.3280   1 
  -1  -3  -6 890.941 61.6865   8 
  -1   3   6 879.209 59.9196   5 
  -1  -3  -6 907.861 58.7054   5 
   1   3  -6 852.117 61.2097   1 
  -1   3   6 1006.15 63.5729   8 
  -1  -3  -6 979.878 61.9080   1 
   1  -3   6 915.126 60.4393   1 
   1  -3   6 941.163 60.7624   7 
  -1   3  -6 814.868 62.0966   2 
   1   3   6 884.212 59.1037   6 
  -1  -3   6 845.655 60.2371   3 
  -1  -3   6 868.813 59.1765   6 
   1  -3  -6 778.167 61.8232   1 
   1   3   6 912.897 61.9117   8 
   1  -3  -6 896.580 61.9154   4 
   1  -3  -6 895.630 63.5454   1 
  -1  -3   6 846.475 56.8138   7 
  -1   3  -6 926.914 61.3118   1 
  -1  -3   6 850.527 60.2814   1 
  -1   3  -6 849.614 58.5783   6 
   1  -3  -6 836.547 62.6875   8 
  -1   3  -6 856.682 60.8793   1 
   1   3   6 894.802 60.5777   1 
   1   3   6 808.086 58.1660   5 
   1  -3  -6 889.853 59.5042   3 
  -2  -3  -6 869.665 57.9221   1 
  -2  -3  -6 903.258 57.7036   1 
  -2   3   6 873.747 58.1772   1 
   2   3  -6 867.485 59.0054   1 
  -2  -3  -6 874.991 55.1293   6 
   2  -3   6 826.726 51.9032   8 
   2  -3   6 871.500 56.6434   1 
   2  -3   6 871.655 52.6209   8 
   2  -3   6 913.869 57.6696   7 
  -2   3   6 841.872 57.4241   7 
  -2   3   6 984.770 59.8724   8 
  -2  -3  -6 818.695 56.7744   8 
   2   3   6 790.555 56.0117   1 
  -2   3  -6 729.892 56.6529   7 
  -2  -3   6 659.450 55.6076   3 
  -2  -3   6 789.753 57.0079   1 
  -2  -3   6 767.092 55.1806   6 
   2  -3  -6 699.515 58.2802   8 
   2  -3  -6 722.195 59.5999   1 
   2   3   6 722.629 55.7024   8 
  -2   3  -6 723.239 57.8550   2 
  -2   3  -6 762.382 57.7192   1 
   2  -3  -6 793.287 58.7216   4 
  -2   3  -6 716.834 57.1510   1 
   2   3   6 743.087 54.6524   6 
  -3  -3  -6 1245.16 89.7403   6 
  -3  -3  -6 1443.81 93.5745   1 
   3   3  -6 1272.34 94.5826   1 
  -3   3   6 1623.72 95.4426   8 
   3  -3   6 1313.13 92.0635   1 
   3   3  -6 1365.86 91.0198   3 
  -3  -3  -6 1325.68 91.2953   8 
   3  -3   6 1404.52 92.9854   7 
  -3   3   6 1384.85 93.5554   1 
  -3  -3  -6 1313.63 93.6986   1 
   3  -3  -6 1259.95 96.8139   1 
   3  -3  -6 1307.18 94.4756   4 
   3   3   6 1310.71 90.4919   8 
  -3   3  -6 1255.21 94.2828   1 
  -3  -3   6 1347.24 93.5341   1 
  -3   3  -6 1334.22 94.6679   1 
   3   3   6 1281.69 90.9752   1 
  -3  -3   6 1332.12 91.0637   6 
   3  -3  -6 1425.88 96.0977   1 
  -3  -3   6 1353.37 89.7502   5 
   4  -3   6 795.485 63.0032   4 
  -4  -3  -6 812.831 64.2607   1 
  -4  -3  -6 871.590 59.5130   4 
   4  -3   6 853.272 62.7958   7 
  -4  -3  -6 805.697 59.8300   6 
  -4   3   6 823.271 63.8063   1 
   4  -3   6 801.999 72.7273   1 
   4   3  -6 823.833 65.7598   1 
   4   3  -6 902.024 55.8875   7 
  -4  -3  -6 822.749 60.3563   8 
  -4  -3   6 837.216 64.0677   1 
  -4   3  -6 914.364 65.8755   1 
   4  -3  -6 788.978 64.7206   4 
   4   3   6 901.270 73.5378   1 
  -4   3  -6 819.410 65.8552   1 
   4  -3  -6 769.921 67.1206   1 
   4  -3  -6 848.018 62.5302   7 
  -4  -3   6 849.382 58.4090   5 
  -4  -3   6 851.134 61.1979   6 
   4  -3  -6 949.426 67.7672   1 
   4   3   6 821.724 60.8829   7 
  -5  -3  -6 491.083 37.2626   4 
   5  -3   6 457.993 38.6286   7 
   5  -3   6 419.695 38.8256   4 
   5   3  -6 425.015 31.1965   7 
  -5  -3  -6 407.583 35.6084   6 
   5   3  -6 405.419 41.3692   1 
  -5  -3  -6 444.745 35.7112   8 
  -5  -3  -6 417.650 41.0654   1 
  -5   3  -6 375.923 41.0774   1 
   5  -3  -6 391.499 43.1674   1 
  -5  -3   6 426.953 32.9429   5 
   5  -3  -6 415.868 37.5232   7 
   5   3   6 397.707 35.5423   7 
   6  -3   6 755.485 57.7866   7 
   6   3  -6 674.046 61.8902   1 
  -6  -3  -6 654.578 54.8096   6 
   6  -3   6 687.361 58.8331   4 
  -6  -3  -6 682.952 61.8487   1 
  -6  -3  -6 696.272 53.9272   8 
  -6   3  -6 701.745 62.7481   1 
  -6  -3   6 691.893 50.3231   5 
   6  -3  -6 697.080 56.0045   7 
   6   3   6 683.113 54.6057   7 
   6  -3  -6 673.234 64.6767   1 
  -7  -3  -6 354.337 37.5311   6 
  -7  -3  -6 404.566 46.1064   1 
   0   4  -6 505.186 39.5909   1 
   0  -4   6 510.416 40.6159   2 
   0   4  -6 534.170 37.5000   6 
   0  -4   6 531.525 39.3089   1 
   0   4   6 527.701 39.9946   1 
   0  -4  -6 548.923 49.1869   1 
   0  -4  -6 557.467 38.1587   3 
   0   4   6 594.438 41.5187   8 
   0   4  -6 557.904 39.9275   1 
   0  -4  -6 527.604 40.6197   8 
   0  -4   6 498.923 37.3197   6 
   0  -4   6 560.547 37.5543   7 
   0   4   6 579.092 38.5332   6 
   0  -4  -6 497.823 39.9536   1 
   0   4  -6 540.102 36.9986   7 
   1  -4   6 1511.05 94.3556   8 
  -1  -4  -6 1561.92 93.9014   2 
   1   4  -6 1397.91 97.1928   1 
  -1  -4  -6 1431.59 97.5402   8 
   1   4  -6 1544.50 95.3765   6 
  -1   4   6 1361.04 94.5703   2 
  -1  -4  -6 1419.95 93.8708   5 
  -1   4   6 1467.76 97.4098   7 
  -1   4   6 1463.22 97.9225   1 
   1   4  -6 1605.80 98.0745   1 
  -1  -4  -6 1492.08 97.6288   1 
   1  -4   6 1597.54 97.9110   1 
  -1  -4  -6 1341.22 94.6094   6 
  -1   4   6 1528.48 96.5976   6 
   1  -4   6 1467.81 95.8728   7 
  -1  -4  -6 1650.54 98.8584   1 
  -1   4   6 1604.41 98.8684   8 
   1   4   6 1392.60 97.1944   8 
  -1   4  -6 1424.89 97.4575   1 
   1   4   6 1390.42 96.7631   1 
  -1   4  -6 1319.52 95.3128   7 
   1  -4  -6 1404.57 95.6633   3 
  -1   4  -6 1397.88 97.4325   1 
  -1  -4   6 1335.48 94.4401   6 
  -1  -4   6 1400.76 96.4945   1 
   1  -4  -6 1331.59 97.9704   8 
  -1   4  -6 1447.66 99.0770   2 
   1  -4  -6 1340.75 98.2347   1 
  -1  -4   6 1267.15 95.9888   3 
   1  -4  -6 1373.61 97.1015   4 
   1   4   6 1459.28 94.9607   6 
  -1   4  -6 1304.11 94.1641   6 
  -2   4   6 1098.04 77.7351   1 
   2  -4   6 1196.17 77.5014   1 
  -2  -4  -6 1108.97 74.1723   6 
  -2  -4  -6 1150.93 77.4536   1 
   2  -4   6 1137.92 71.1993   8 
   2   4  -6 1197.93 75.1510   6 
  -2  -4  -6 1144.15 76.8254   8 
   2   4  -6 1101.11 77.8926   1 
  -2   4   6 1263.97 78.2097   8 
  -2  -4  -6 1298.01 79.3506   1 
  -2  -4  -6 1134.20 71.2323   5 
   2  -4   6 1201.20 76.6161   7 
  -2   4  -6 1064.76 77.6105   1 
  -2  -4   6 1044.17 76.0911   1 
  -2   4  -6 989.728 76.5169   1 
   2  -4  -6 976.141 76.9710   8 
   2   4   6 1068.47 75.7585   1 
  -2   4  -6 1029.82 75.9145   7 
  -2   4  -6 1043.38 78.1147   2 
   2  -4  -6 989.468 79.0610   1 
  -2  -4   6 982.861 75.5713   3 
   2  -4  -6 1124.57 80.1116   1 
  -2  -4   6 987.914 73.8914   6 
   2   4   6 1114.92 76.0681   8 
   2  -4  -6 1043.16 77.4689   4 
  -2   4  -6 1056.60 73.8235   6 
   3  -4   6 708.020 51.8247   7 
  -3  -4  -6 665.113 50.8181   8 
  -3   4   6 733.990 52.4261   8 
   3  -4   6 691.705 52.0940   1 
  -3  -4  -6 650.803 49.1223   6 
   3   4  -6 649.080 53.1328   1 
  -3  -4  -6 691.415 53.1263   1 
   3   4  -6 771.675 54.1546   1 
  -3   4   6 747.650 53.6779   1 
  -3   4  -6 677.728 53.6857   2 
  -3   4  -6 644.248 53.2600   1 
  -3  -4   6 694.208 49.7495   6 
   3  -4  -6 728.537 55.4891   1 
  -3   4  -6 683.381 53.4658   1 
   3  -4  -6 617.547 52.2248   8 
   3   4   6 679.340 50.8639   1 
   3  -4  -6 633.410 55.2612   1 
   3  -4  -6 693.385 54.2833   4 
   3   4   6 677.527 50.0173   8 
  -3  -4   6 650.261 51.6978   1 
  -3  -4   6 659.448 47.8968   5 
   4  -4   6 1053.74 72.0661   7 
  -4  -4  -6 959.310 68.6589   6 
   4   4  -6 918.678 73.9196   1 
  -4  -4  -6 1003.15 70.2756   8 
  -4  -4  -6 945.505 73.2858   1 
  -4   4   6 1000.11 82.4523   1 
   4  -4   6 926.784 71.8960   4 
  -4  -4   6 979.833 69.7945   6 
  -4   4  -6 888.710 73.4150   1 
   4  -4  -6 966.588 74.0920   4 
  -4  -4   6 1050.97 67.2112   5 
   4  -4  -6 933.880 76.7239   1 
   5  -4   6 321.254 35.7688   4 
  -5  -4  -6 362.871 34.2043   8 
   5   4  -6 349.205 39.7780   1 
   5  -4   6 377.543 36.0331   7 
  -5  -4  -6 334.572 33.2928   6 
  -5  -4  -6 324.480 37.8055   1 
   5  -4  -6 411.099 39.8240   4 
   5  -4  -6 416.384 42.7278   1 
  -5  -4   6 456.243 31.4440   5 
   5  -4  -6 475.083 38.3208   7 
  -5   4  -6 389.216 40.2062   1 
   5   4   6 425.688 34.6707   7 
  -6  -4  -6 546.078 46.1352   8 
   6  -4   6 499.344 49.2588   4 
  -6  -4  -6 536.425 46.7759   6 
  -6  -4  -6 551.515 53.7211   1 
   6   4  -6 565.547 54.9346   1 
   6  -4  -6 552.245 58.0626   1 
  -6   4  -6 480.823 52.8455   1 
   6   4   6 573.699 45.9497   7 
   6  -4  -6 587.611 49.2402   7 
  -6  -4   6 608.213 42.3843   5 
  -7  -4  -6 305.612 41.3604   1 
  -7  -4  -6 268.764 33.1569   6 
  -7   4  -6 373.185 45.4523   1 
   0  -5  -6 1039.58 69.0716   3 
   0   5  -6 1056.14 70.7670   1 
   0  -5  -6 921.553 70.5437   1 
   0  -5  -6 1002.64 76.9268   1 
   0  -5   6 978.029 70.0076   1 
   0  -5   6 1009.89 68.6862   8 
   0   5  -6 984.267 70.4567   1 
   0   5  -6 983.911 66.5534   7 
   0  -5   6 990.319 67.6877   6 
   0  -5  -6 961.556 70.5607   8 
   0   5   6 953.161 70.2232   1 
   0   5  -6 1049.86 67.8317   6 
   0   5   6 1080.61 71.6735   8 
   0  -5   6 954.496 66.9312   7 
   1  -5   6 1129.29 76.5037   7 
  -1  -5  -6 1250.71 75.5522   2 
   1   5  -6 1092.61 78.8823   1 
   1   5  -6 1131.85 76.1721   6 
  -1   5   6 1217.73 79.7231   8 
   1  -5   6 1128.06 75.1912   8 
  -1   5   6 1121.43 79.3102   1 
  -1  -5  -6 1145.47 76.5552   6 
  -1  -5  -6 1147.68 79.2647   1 
   1  -5   6 1126.55 78.9742   1 
  -1  -5  -6 1089.00 78.7201   8 
  -1   5   6 997.797 75.4354   2 
  -1   5  -6 1137.84 75.8226   6 
  -1   5  -6 1036.94 76.1093   7 
  -1   5  -6 1098.03 79.2703   1 
  -1  -5   6 1087.43 78.1536   3 
  -1  -5   6 1135.35 78.3047   8 
   1  -5  -6 1049.12 78.9817   8 
  -1   5  -6 1064.56 80.1399   2 
   1  -5  -6 1030.13 79.7426   1 
   1   5   6 1134.03 78.6856   1 
   1   5   6 1185.21 79.0844   8 
  -1   5  -6 1207.29 80.2023   1 
  -1  -5   6 1113.79 75.8144   6 
   1  -5  -6 1185.82 82.3990   1 
  -1  -5   6 1142.11 78.2192   1 
   1  -5  -6 1152.18 77.7281   3 
   2  -5   6 736.336 51.8693   7 
  -2   5   6 683.970 51.7774   2 
  -2  -5  -6 707.450 50.4801   6 
  -2  -5  -6 707.007 47.1491   5 
   2   5  -6 766.641 54.4058   1 
   2   5  -6 727.877 50.7151   6 
   2   5  -6 704.974 54.1723   1 
  -2   5   6 745.980 56.8023   8 
   2  -5   6 683.912 47.3146   8 
  -2  -5  -6 691.531 53.4515   1 
  -2   5   6 692.742 53.7268   1 
  -2  -5  -6 707.463 53.4079   8 
   2  -5   6 724.228 53.4798   1 
   2  -5  -6 674.754 55.7663   1 
  -2   5  -6 739.466 50.2607   6 
  -2   5  -6 707.083 52.3050   7 
  -2  -5   6 652.199 52.3971   3 
   2   5   6 683.079 51.9831   1 
   2  -5  -6 664.644 53.2584   8 
  -2   5  -6 712.738 55.2512   2 
  -2  -5   6 646.662 50.0016   6 
  -2   5  -6 721.396 54.7567   1 
   2  -5  -6 786.874 57.8783   1 
  -2   5  -6 684.742 54.0536   1 
   2  -5  -6 705.601 54.1592   4 
  -2  -5   6 690.471 52.7485   1 
   3   5  -6 561.393 48.8208   1 
   3   5  -6 679.992 50.8043   1 
   3  -5   6 650.144 47.2328   7 
  -3  -5  -6 708.312 49.8895   1 
  -3  -5  -6 619.833 49.2260   1 
  -3   5   6 583.093 47.8532   1 
  -3  -5  -6 579.638 46.7794   8 
  -3  -5  -6 578.721 44.4832   6 
  -3  -5   6 570.299 47.5617   1 
   3  -5  -6 603.845 53.8245   1 
  -3   5  -6 610.123 49.2814   1 
   3  -5  -6 584.267 48.0574   8 
   3  -5  -6 574.873 51.3107   1 
  -3   5  -6 599.894 44.7857   6 
   3  -5  -6 560.330 48.4915   4 
  -3   5  -6 519.859 48.1847   1 
  -3  -5   6 582.543 44.8227   6 
  -3   5  -6 586.375 49.2239   2 
   4  -5   6 714.357 51.3632   7 
   4  -5   6 644.449 51.8621   4 
  -4  -5  -6 657.137 50.3522   8 
  -4  -5  -6 667.608 49.0208   6 
  -4  -5  -6 642.604 53.2048   1 
   4   5  -6 626.468 53.7570   1 
   4  -5  -6 605.338 53.1185   4 
  -4  -5   6 635.536 45.9152   5 
  -4   5  -6 598.809 52.8401   2 
   4  -5  -6 574.729 55.0162   1 
  -4   5  -6 575.761 53.6723   1 
   5   5  -6 987.317 83.5257   1 
   5  -5   6 1026.39 81.5324   4 
  -5  -5  -6 963.084 76.7163   6 
   5  -5   6 1135.31 80.3655   7 
  -5  -5  -6 1058.44 83.7397   1 
  -5  -5  -6 1129.37 80.0350   8 
   5   5   6 1118.93 77.6956   7 
  -5  -5   6 1176.79 74.4195   5 
  -5   5  -6 1009.27 84.4450   1 
   5  -5  -6 1074.36 87.3779   1 
   5  -5  -6 1052.35 83.3752   4 
   6  -5   6 251.372 33.3029   4 
  -6  -5  -6 236.230 28.4471   6 
  -6  -5  -6 269.548 30.1472   8 
  -6  -5  -6 264.893 34.9191   1 
   6   5  -6 238.661 35.6283   1 
  -6   5  -6 290.539 37.4778   1 
   6   5   6 312.473 29.7753   7 
  -7  -5  -6 154.537 33.0323   1 
  -7   5  -6 267.869 39.4086   1 
   0  -6  -6 118.428 16.3086   1 
   0   6  -6 117.798 16.1456   1 
   0  -6   6 138.799 13.3016   7 
   0  -6   6 133.286 16.1571   1 
   0   6  -6 125.918 12.3943   7 
   0   6   6 116.241 15.8261   1 
   0  -6  -6 146.689 18.8987   1 
   0  -6   6 115.418 13.3008   6 
   0  -6  -6 122.515 16.2181   8 
   0  -6   6 120.203 14.5698   8 
   0   6  -6 137.316 14.1194   6 
   0  -6  -6 143.677 16.1234   3 
  -1   6   6 1010.42 78.1439   2 
  -1   6   6 1116.43 82.0180   1 
   1   6  -6 1110.54 74.4799   7 
  -1  -6  -6 1080.50 78.4842   6 
  -1  -6  -6 1046.16 80.8288   8 
   1  -6   6 1071.96 77.3373   8 
   1  -6   6 1124.90 78.9674   7 
   1   6  -6 1068.82 81.7836   1 
  -1  -6  -6 1181.53 77.8735   2 
   1   6  -6 1179.10 78.8229   6 
   1   6  -6 1231.64 82.7144   1 
  -1  -6  -6 1070.30 81.8750   1 
  -1  -6  -6 1237.94 84.1158   1 
   1  -6   6 1188.66 82.3589   1 
  -1   6  -6 1190.37 84.1495   2 
   1  -6  -6 1326.19 87.0211   1 
  -1  -6   6 1132.79 78.2724   6 
  -1   6  -6 1263.38 78.9283   6 
  -1   6  -6 1180.54 83.0486   1 
   1  -6  -6 1171.85 80.7313   3 
   1  -6  -6 1092.87 81.0776   8 
   1  -6  -6 1162.09 83.7385   1 
  -1   6  -6 1117.51 78.4801   7 
  -1  -6   6 1244.93 81.8466   1 
  -1  -6   6 1057.87 80.8381   3 
   1   6   6 1171.54 81.9287   1 
  -1  -6   6 1163.22 80.6375   8 
  -2   6   6 1265.58 90.2514   1 
  -2  -6  -6 1413.40 86.5797   2 
  -2  -6  -6 1250.58 86.2019   6 
  -2   6   6 1204.25 87.5603   2 
   2   6  -6 1367.10 91.2210   1 
  -2  -6  -6 1254.06 90.3317   1 
   2  -6   6 1206.83 83.0076   8 
  -2  -6  -6 1250.34 89.5401   8 
   2  -6   6 1319.52 87.3812   7 
  -2  -6  -6 1454.46 92.6819   1 
   2   6  -6 1171.86 89.4316   1 
   2  -6  -6 1197.70 89.4530   4 
   2  -6  -6 1167.00 91.4358   1 
  -2  -6   6 1247.17 86.0527   6 
   2  -6  -6 1145.98 88.4085   8 
  -2  -6   6 1237.32 92.1623   1 
  -2   6  -6 1130.10 89.3440   1 
  -2  -6   6 1195.26 88.6726   8 
   2  -6  -6 1460.89 101.816   1 
   2   6   6 1265.62 97.3514   1 
  -2   6  -6 1307.04 86.2610   6 
  -2  -6   6 1151.02 88.3946   3 
  -2   6  -6 1250.05 91.8223   2 
   3  -6   6 838.630 58.0260   7 
   3   6  -6 767.103 60.6933   1 
  -3  -6  -6 787.778 58.6537   8 
  -3  -6  -6 752.563 55.4757   6 
  -3   6   6 764.112 58.0186   2 
  -3  -6  -6 749.361 59.9562   1 
  -3   6  -6 925.572 66.9185   6 
  -3   6  -6 670.881 59.3411   1 
  -3   6  -6 738.208 60.9122   2 
   3  -6  -6 713.627 62.1341   1 
   3  -6  -6 681.482 58.1154   8 
  -3  -6   6 691.293 58.1324   8 
   3  -6  -6 768.398 60.9524   4 
  -4  -6  -6 756.790 60.8276   8 
  -4  -6  -6 804.585 64.7835   1 
   4   6  -6 742.970 64.6558   1 
   4  -6   6 851.351 61.4634   7 
  -4  -6  -6 744.951 58.4798   6 
  -4   6  -6 809.214 64.9920   2 
   4  -6  -6 777.750 66.9363   1 
  -4  -6   6 857.638 56.2396   5 
   4  -6  -6 748.212 60.9587   8 
  -4  -6   6 740.925 62.0050   8 
  -4   6  -6 761.830 64.5469   1 
   4  -6  -6 800.269 64.6575   4 
  -5  -6  -6 411.726 36.3542   6 
   5  -6   6 428.335 38.7322   7 
  -5  -6  -6 371.782 37.0494   8 
  -5  -6  -6 380.902 40.9314   1 
   5   6  -6 390.956 42.1082   1 
   5  -6   6 352.992 38.1804   4 
  -5   6  -6 329.083 40.7049   1 
  -5   6  -6 396.828 41.9374   2 
   5  -6  -6 363.868 43.2083   1 
  -5  -6   6 415.084 31.8077   5 
  -6  -6  -6 185.048 31.0900   1 
  -6  -6  -6 207.523 26.6852   6 
   6   6   6 213.229 25.4017   7 
  -6   6  -6 201.073 31.9110   1 
   0   7  -6 175.144 17.8573   6 
   0  -7   6 167.084 18.1541   8 
   0   7  -6 160.080 15.3744   7 
   0  -7  -6 169.767 20.9247   8 
   0  -7  -6 153.830 20.2352   1 
   0   7  -6 164.096 20.9493   1 
   0  -7  -6 175.862 20.0028   3 
  -1  -7  -6 814.997 61.8830   1 
  -1  -7  -6 783.996 57.7993   6 
  -1  -7  -6 913.547 57.5979   2 
  -1  -7  -6 827.633 60.9797   8 
   1  -7   6 849.610 58.3091   7 
   1   7  -6 806.735 61.9263   1 
   1   7  -6 812.518 61.5650   6 
   1   7  -6 796.674 54.1528   7 
   1  -7   6 865.315 56.8445   8 
   1  -7  -6 747.594 62.3401   1 
  -1  -7   6 707.943 59.9452   3 
  -1   7  -6 817.581 63.7543   2 
  -1   7  -6 684.654 55.8900   7 
  -1   7  -6 764.911 61.8098   1 
   1  -7  -6 762.245 60.3166   8 
  -1  -7   6 737.087 58.8382   8 
   1  -7  -6 814.906 60.5015   3 
  -1   7  -6 763.126 57.0281   6 
  -2  -7  -6 798.663 56.9084   6 
   2   7  -6 804.940 62.0245   1 
  -2  -7  -6 771.546 60.7687   1 
   2  -7   6 850.924 58.5594   7 
   2  -7   6 776.486 53.4403   8 
  -2  -7  -6 804.169 60.5060   8 
  -2   7   6 818.898 59.2720   2 
  -2  -7   6 704.228 59.1388   3 
   2  -7  -6 758.332 60.4382   4 
  -2  -7   6 742.298 59.1953   8 
  -2   7  -6 767.379 62.7431   2 
  -2   7  -6 744.232 60.9273   1 
   2  -7  -6 715.360 62.2358   1 
   2  -7  -6 709.555 58.8298   8 
  -3  -7  -6 257.936 25.1791   6 
  -3  -7  -6 258.048 27.8746   8 
   3   7  -6 225.063 28.7848   1 
   3  -7   6 277.597 26.6956   7 
  -3   7   6 254.320 27.1896   2 
  -3  -7  -6 256.016 29.2610   1 
  -3   7  -6 263.490 31.0561   2 
   3  -7  -6 226.644 29.5462   1 
  -3   7  -6 271.169 30.3835   1 
   3  -7  -6 249.542 27.5607   8 
  -3  -7   6 234.741 28.3534   3 
  -3  -7   6 242.745 27.8299   8 
   3  -7  -6 248.689 28.7020   4 
  -4  -7  -6 188.988 26.9043   8 
  -4   7   6 189.632 26.2991   2 
  -4  -7  -6 191.540 28.7798   1 
   4  -7   6 239.781 26.8910   7 
  -4  -7  -6 187.075 24.1321   6 
   4   7  -6 191.183 28.8115   1 
   4  -7  -6 265.697 30.4466   4 
  -4  -7   6 288.068 23.1160   5 
   4  -7  -6 296.492 29.3955   8 
   4  -7  -6 299.449 35.0235   1 
  -4   7  -6 278.187 31.9965   2 
  -4   7  -6 273.852 32.5318   1 
  -5  -7  -6 800.034 69.1039   1 
   5   7  -6 811.836 70.1321   1 
  -5  -7  -6 768.653 62.0076   6 
  -5   7  -6 781.021 68.7369   1 
  -6  -7  -6 52.5290 18.3816   6 
  -6  -7  -6 44.4908 21.2109   1 
  -6   7  -6 92.3173 25.7862   1 
   0  -8  -6 7.83370 7.96988   1 
   0   8  -6 6.20134 7.57278   1 
   0  -8  -6 17.3584 11.5828   3 
   0  -8  -6 9.64527 8.87683   8 
   0  -8   6 9.47771 7.14561   8 
  -1  -8  -6 758.855 56.6843   6 
   1  -8   6 754.679 56.2897   7 
   1  -8   6 722.625 54.4723   8 
  -1  -8  -6 781.596 61.0354   1 
   1   8  -6 697.669 59.7137   1 
  -1  -8  -6 744.703 59.3259   8 
  -1  -8   6 769.923 57.7570   8 
   1  -8  -6 745.220 58.8052   8 
  -1  -8   6 718.421 59.8113   3 
   1  -8  -6 789.730 59.3403   3 
   1  -8  -6 768.503 62.2508   1 
  -1   8  -6 715.353 60.4499   1 
  -2  -8  -6 1178.32 86.7749   1 
  -2   8   6 1085.69 82.6109   2 
  -2  -8  -6 1183.07 85.0978   8 
   2  -8   6 1262.59 82.7420   7 
   2   8  -6 1139.34 86.7063   1 
  -2  -8  -6 1206.01 81.8766   6 
   2  -8  -6 1161.59 84.6606   3 
   2  -8  -6 1045.58 86.8392   1 
  -2  -8   6 1049.84 84.1237   3 
   2  -8  -6 1174.49 85.9592   4 
   2  -8  -6 1040.70 82.7571   8 
  -2   8  -6 1141.61 87.8447   2 
  -2  -8   6 1147.23 83.7762   8 
  -2   8  -6 1050.17 85.1860   1 
   3   8  -6 187.473 27.3730   1 
  -3   8   6 161.570 23.0085   2 
  -3  -8  -6 181.929 21.9321   6 
  -3  -8  -6 184.149 26.1756   1 
  -3  -8  -6 166.383 27.1790   8 
   3  -8   6 218.771 24.6132   7 
  -3   8  -6 181.938 26.8618   2 
   3  -8  -6 156.503 23.1267   8 
  -3   8  -6 157.340 25.6819   1 
   3  -8  -6 151.179 24.1209   4 
  -3  -8   6 183.336 24.7029   3 
  -3  -8   6 159.336 23.7334   8 
   3  -8  -6 178.536 27.3329   1 
   4  -8   6 957.838 68.4095   7 
  -4  -8  -6 824.970 65.4409   6 
  -4  -8  -6 805.657 70.9039   1 
  -4   8   6 834.289 68.2197   2 
   4   8  -6 795.630 70.8966   1 
  -4   8  -6 887.653 72.9175   1 
   4  -8  -6 844.322 67.3700   8 
  -4   8  -6 859.065 72.5438   2 
  -5  -8  -6 312.632 39.5971   1 
  -5  -8  -6 339.327 34.3906   6 
  -5   8   6 321.661 36.2234   2 
  -5   8  -6 287.068 39.7369   1 
   0  -9   6 4.83420 10.3165   3 
   0  -9  -6 14.7899 9.89091   8 
   0   9  -6 5.55345 8.41824   1 
   0  -9  -6 8.27650 10.6817   3 
   0  -9  -6 7.71772 10.1083   1 
   0  -9   6 2.74281 7.17507   8 
   1   9  -6 650.790 58.4747   1 
   1  -9   6 685.360 53.0352   8 
  -1  -9  -6 689.492 60.0737   1 
   1  -9  -6 756.864 58.5259   3 
   1  -9  -6 719.546 61.1388   1 
  -1  -9   6 673.816 58.0981   3 
  -1   9  -6 711.569 60.2465   1 
   1  -9  -6 708.361 57.4600   8 
  -1  -9   6 720.545 56.4666   8 
   2   9  -6 583.588 55.6725   1 
  -2  -9  -6 596.699 55.7511   1 
  -2   9   6 587.508 52.7366   2 
  -2  -9  -6 649.321 51.4947   6 
   2  -9   6 701.235 53.1583   7 
   2  -9  -6 669.640 56.4254   4 
   2  -9  -6 619.533 57.8318   1 
  -2  -9   6 649.370 56.0349   3 
  -2   9  -6 700.363 60.6065   2 
  -2  -9   6 602.782 57.1599   8 
   2  -9  -6 699.933 56.7961   3 
  -2   9  -6 616.264 56.7189   1 
   2  -9  -6 635.805 53.9895   8 
   3  -9   6 31.9762 15.1923   7 
  -3   9   6 18.4028 13.6826   2 
  -3  -9  -6 21.8984 13.7951   6 
   3   9  -6 23.8725 17.8023   1 
  -3  -9  -6 26.6185 16.0298   1 
  -3   9  -6 49.2740 19.6905   1 
  -3   9  -6 46.8921 21.6737   2 
   3  -9  -6 38.7139 17.8143   8 
  -3  -9   6 40.7086 16.6010   3 
   4   9  -6 217.736 42.0650   1 
  -4  -9  -6 203.572 32.4044   1 
  -4  -9  -6 204.553 27.0305   6 
  -4   9  -6 263.512 34.5656   1 
  -5   9  -6 716.358 68.8564   1 
   0 -10   6 18.8556 13.8807   3 
   0 -10  -6 10.4371 12.3830   3 
   0 -10  -6 1.97676 10.0068   1 
   0  10  -6 11.8639 11.2749   1 
   0 -10   6 7.48341 9.03008   8 
  -1 -10  -6 441.667 45.3885   1 
   1  10  -6 438.986 44.5594   1 
   1 -10  -6 443.206 46.3693   1 
   1 -10  -6 485.590 44.5643   3 
  -1 -10   6 417.533 44.1082   3 
  -1  10  -6 435.505 45.3678   1 
   2  10  -6 577.744 57.6823   1 
  -2 -10  -6 666.680 53.8866   6 
  -2 -10  -6 594.006 58.2848   1 
  -2 -10   6 657.068 58.2244   3 
  -2  10  -6 640.728 59.9066   1 
   2 -10  -6 746.530 60.7133   3 
  -3 -10  -6 65.5863 19.2484   6 
  -3 -10  -6 49.0702 24.6037   1 
   3 -10   6 45.2107 18.2536   7 
   3  10  -6 43.0841 22.3787   1 
  -3 -10   6 61.2032 22.4827   3 
  -3  10  -6 59.3600 21.7781   1 
   3 -10  -6 73.0972 23.4529   3 
  -4  10  -6 454.494 50.5374   1 
   0 -11  -6 177.476 27.1248   3 
   0  11  -6 144.904 27.9913   1 
   0 -11   6 146.833 27.5576   3 
   1 -11   6 416.188 46.6903   3 
   1  11  -6 393.353 45.2938   1 
   1 -11  -6 487.621 46.8575   3 
  -1  11  -6 392.413 44.7743   1 
  -1 -11   6 445.084 46.7159   3 
  -2 -11   6 482.418 51.5391   3 
   2 -11  -6 561.752 53.1714   3 
   0   0   7 0.85087 2.29121   5 
   0   0  -7 5.10323 2.05189   1 
   0   0  -7 6.57796 1.85088   1 
   0   0   7 4.18564 2.61224   2 
   0   0   7 14.5290 5.85310   8 
   1   0  -7 319.480 22.8044   1 
   1   0  -7 264.897 22.4912   1 
  -1   0  -7 292.237 20.0875   1 
  -1   0   7 307.365 22.9748   5 
  -1   0  -7 290.795 23.3457   8 
   1   0   7 312.877 23.3577   8 
  -1   0  -7 316.488 22.0934   2 
  -1   0   7 275.258 23.3963   4 
  -1   0   7 299.187 25.2005   8 
  -1   0   7 307.051 20.8870   1 
   2   0   7 3262.95 218.541   8 
  -2   0  -7 3363.30 219.255   8 
   2   0  -7 3186.38 222.240   1 
  -2   0   7 3546.02 220.650   1 
  -2   0   7 3620.14 220.721   5 
   2   0  -7 3676.57 220.470   3 
  -2   0  -7 3349.13 217.871   6 
  -2   0  -7 2797.30 219.090   1 
  -2   0   7 3716.86 223.898   8 
  -2   0   7 3508.34 223.272   4 
  -2   0   7 3377.14 219.534   7 
   2   0  -7 3661.99 222.676   1 
  -3   0   7 56.8199 8.88815   5 
   3   0   7 56.5490 9.97913   7 
   3   0   7 56.7741 6.56987   8 
  -3   0  -7 55.8100 7.16431   8 
   3   0  -7 46.6292 10.7576   1 
  -3   0   7 64.9591 8.85062   7 
  -3   0  -7 56.6478 9.68684   1 
  -3   0   7 55.0524 9.76238   1 
  -3   0  -7 55.9031 7.82489   6 
   3   0  -7 58.3822 8.48490   3 
  -3   0   7 67.4154 11.4706   8 
  -3   0   7 52.4515 11.0014   4 
   3   0   7 56.8519 7.45761   1 
   4   0   7 1230.31 77.5261   1 
  -4   0  -7 1135.95 80.4115   1 
   4   0  -7 1024.54 81.8351   1 
  -4   0  -7 1037.79 76.1131   6 
  -4   0   7 1079.45 77.2452   7 
  -4   0  -7 1094.97 73.3057   8 
   4   0  -7 1130.55 81.2755   1 
   4   0   7 1130.96 78.5575   7 
  -4   0   7 1123.14 76.1590   5 
   5   0   7 509.687 40.7864   7 
  -5   0  -7 436.583 38.4293   6 
   5   0  -7 435.349 44.4214   1 
  -5   0   7 515.294 37.7503   5 
   5   0  -7 533.760 38.2208   7 
  -5   0  -7 468.882 34.2983   8 
   6   0  -7 61.3458 13.1854   7 
  -6   0  -7 46.4198 13.6313   6 
   6   0  -7 61.4335 19.0240   1 
   6   0   7 62.2095 16.7833   7 
  -7   0  -7 48.7521 16.1126   6 
   0  -1  -7 7.89412 2.93669   1 
   0  -1   7 14.0970 1.75254   6 
   0   1  -7 9.39190 2.56628   1 
   0  -1   7 9.57810 4.61626   8 
   0   1  -7 9.28975 2.26614   1 
   0   1   7 14.2681 5.55478   8 
   0   1   7 7.69322 3.10107   4 
   0   1   7 6.43251 1.99901   6 
   0  -1   7 13.0314 3.86505   2 
   0  -1  -7 11.6059 3.51041   1 
   0  -1  -7 1.39403 3.82704   8 
   0   1   7 8.44265 3.75072   5 
  -1   1   7 3073.79 206.782   4 
  -1  -1  -7 3004.92 206.613   8 
  -1  -1  -7 3047.16 208.049   2 
  -1  -1  -7 3408.77 210.225   1 
  -1   1   7 3481.36 209.654   8 
  -1  -1  -7 2957.70 205.731   6 
   1   1  -7 2822.43 205.650   1 
  -1   1   7 3062.79 205.956   5 
  -1  -1  -7 3514.36 210.370   1 
   1  -1   7 3202.99 206.154   8 
   1   1   7 3274.83 205.054   5 
  -1   1  -7 3018.42 206.069   1 
   1  -1  -7 3118.41 207.259   1 
   1  -1  -7 3128.24 208.887   8 
  -1   1  -7 3259.15 203.819   6 
   1   1   7 3267.52 206.855   8 
   1   1   7 3125.85 206.196   6 
  -1  -1   7 3620.69 210.890   6 
  -1   1  -7 3180.26 206.291   2 
  -1  -1   7 3152.32 209.153   3 
  -1  -1   7 3404.26 208.800   8 
  -1  -1   7 3355.34 206.212   5 
   1  -1  -7 3217.03 206.634   1 
  -1  -1   7 3529.62 210.163   1 
  -1   1  -7 2886.99 207.781   1 
  -2   1   7 1344.54 94.7267   4 
  -2   1   7 1311.17 92.1847   7 
   2  -1   7 1396.92 89.9332   8 
   2   1  -7 1218.52 93.6956   1 
  -2  -1  -7 1278.30 91.8832   1 
   2  -1   7 1405.61 93.3344   7 
  -2   1   7 1429.13 95.3956   8 
  -2  -1  -7 1357.11 90.0874   6 
  -2  -1  -7 1432.31 92.0915   1 
  -2   1   7 1357.82 92.3659   5 
  -2  -1  -7 1260.86 91.5832   8 
  -2   1  -7 1471.12 92.4991   1 
  -2  -1   7 1359.85 91.5173   6 
  -2  -1   7 1487.64 92.5254   5 
  -2  -1   7 1416.16 90.6628   7 
  -2  -1   7 1434.80 92.7448   1 
  -2   1  -7 1334.12 91.9796   1 
   2   1   7 1445.80 91.7672   8 
   2  -1  -7 1519.09 94.7740   1 
   2  -1  -7 1374.37 95.3642   1 
   2  -1  -7 1525.60 90.0035   3 
   3  -1   7 168.220 17.5330   7 
   3   1  -7 172.168 19.6227   1 
  -3  -1  -7 174.614 15.4119   8 
  -3  -1  -7 171.066 15.2797   6 
   3  -1   7 157.587 15.5833   4 
  -3   1   7 194.347 19.7929   8 
   3  -1   7 186.130 15.3247   1 
  -3   1   7 166.209 16.2821   5 
  -3  -1  -7 165.932 17.7115   1 
  -3   1   7 153.617 16.0687   7 
   3  -1   7 170.150 12.3283   8 
   3   1  -7 186.508 17.6701   3 
  -3   1   7 172.606 19.3368   4 
  -3  -1  -7 198.942 18.1701   1 
   3   1   7 163.572 17.3354   7 
  -3  -1   7 171.523 17.6409   1 
  -3   1  -7 182.637 18.1207   1 
   3   1   7 164.647 14.6028   8 
  -3   1  -7 159.806 17.2769   1 
  -3  -1   7 177.015 19.3050   4 
  -3  -1   7 154.180 14.8598   7 
   3   1   7 184.874 15.5640   1 
  -3  -1   7 165.241 16.0150   5 
   3  -1  -7 162.090 19.8960   1 
   4  -1   7 978.288 69.9466   7 
   4   1  -7 905.421 73.3931   1 
  -4  -1  -7 950.932 67.7111   6 
   4   1  -7 1020.48 68.5365   3 
  -4  -1  -7 953.321 72.1357   1 
   4   1  -7 1243.82 75.4135   1 
  -4  -1  -7 1083.40 72.4163   1 
   4  -1   7 1036.50 68.9083   1 
  -4   1   7 961.491 67.5079   5 
  -4  -1  -7 958.361 66.1789   8 
   4  -1   7 849.053 67.7239   4 
  -4   1   7 959.343 69.4173   7 
   4   1   7 997.246 68.5863   1 
   4  -1  -7 893.904 73.9240   1 
  -4  -1   7 976.491 67.6533   5 
   4  -1  -7 1066.77 73.8440   1 
  -4   1  -7 842.510 70.5649   1 
  -4  -1   7 896.689 66.9059   7 
   4   1   7 926.584 69.5664   7 
  -4  -1   7 988.985 71.6784   1 
  -4   1  -7 1003.81 72.2852   1 
   5   1  -7 1939.72 123.919   7 
   5   1  -7 1650.44 131.990   1 
  -5  -1  -7 1809.90 122.860   8 
   5  -1   7 1935.13 128.508   7 
  -5  -1  -7 1734.41 130.791   1 
  -5  -1  -7 1711.95 125.600   6 
   5  -1  -7 1833.58 134.428   1 
  -5  -1   7 1825.81 127.181   7 
   5  -1  -7 2117.19 127.097   7 
  -5  -1   7 1966.82 124.617   5 
   5   1   7 1999.29 128.301   7 
   6  -1   7 342.628 31.4092   7 
   6   1  -7 277.861 34.0448   1 
  -6  -1  -7 280.047 28.3299   6 
  -6  -1  -7 307.641 34.6454   1 
   6  -1  -7 282.755 27.8039   7 
   6   1   7 240.826 27.7820   7 
  -6  -1   7 245.914 24.5495   5 
   6  -1  -7 250.846 34.3703   1 
  -7  -1  -7 339.480 35.4011   6 
  -7  -1  -7 341.277 41.4853   1 
  -7   1  -7 330.842 36.0193   6 
   7  -1  -7 460.225 49.9625   7 
   0   2   7 255.129 19.2665   5 
   0   2  -7 242.113 17.2717   6 
   0   2   7 285.059 22.3524   8 
   0  -2  -7 244.200 21.5302   8 
   0  -2  -7 240.513 19.2247   1 
   0  -2  -7 253.806 20.3202   1 
   0   2  -7 241.816 18.2954   1 
   0  -2   7 234.760 18.5607   7 
   0  -2   7 240.794 17.2304   6 
   0  -2  -7 258.481 18.8013   4 
   0  -2   7 224.469 20.2026   2 
   0   2   7 250.259 17.8281   1 
   0   2   7 266.144 18.0159   6 
   0   2  -7 218.104 18.1718   1 
   1  -2   7 615.628 43.0716   8 
   1   2  -7 654.545 43.7548   1 
  -1   2   7 652.746 42.8077   1 
  -1  -2  -7 685.391 43.2466   1 
  -1  -2  -7 573.853 40.9415   6 
  -1  -2  -7 588.418 44.0646   8 
  -1   2   7 630.683 43.3519   5 
  -1  -2  -7 604.401 42.6025   1 
   1  -2   7 648.208 43.6453   7 
  -1   2   7 664.800 46.3098   8 
   1   2  -7 587.179 43.4243   1 
   1  -2  -7 606.051 44.1263   4 
  -1   2  -7 593.028 40.3963   6 
  -1  -2   7 598.957 41.9843   3 
   1   2   7 622.927 41.1933   1 
   1   2   7 620.506 44.4219   8 
   1   2   7 609.528 41.0863   6 
   1  -2  -7 606.777 44.9988   1 
  -1   2  -7 597.187 42.2299   1 
  -1   2  -7 657.505 42.7422   1 
  -1  -2   7 629.334 41.9839   1 
   1  -2  -7 591.723 45.0104   1 
   1  -2  -7 566.099 45.8450   8 
  -1  -2   7 629.590 41.6118   6 
  -1   2  -7 628.440 44.6401   2 
   1   2   7 563.856 41.5891   5 
  -2  -2  -7 1968.46 129.616   1 
   2  -2   7 2063.40 130.111   7 
  -2   2   7 1977.50 129.764   7 
  -2   2   7 1966.98 128.824   5 
  -2  -2  -7 1977.84 127.096   6 
  -2  -2  -7 1853.74 128.946   8 
  -2   2   7 1966.65 131.653   4 
  -2   2   7 2154.57 132.694   8 
   2  -2   7 2017.82 125.827   8 
  -2  -2  -7 2183.44 129.818   1 
  -2   2   7 1942.48 129.682   1 
   2   2  -7 1919.07 131.065   1 
  -2  -2   7 1964.60 128.496   5 
   2   2   7 1896.56 126.085   5 
   2   2   7 2051.08 127.690   1 
   2  -2  -7 2060.38 132.137   1 
   2  -2  -7 1879.28 132.552   8 
  -2  -2   7 1977.25 129.382   1 
  -2  -2   7 1833.36 125.627   7 
  -2   2  -7 1955.28 130.858   2 
   2   2   7 1994.46 129.014   8 
   2  -2  -7 1920.16 131.181   4 
  -2   2  -7 1768.83 129.351   1 
  -2  -2   7 2057.68 128.373   6 
   2  -2  -7 1755.97 132.300   1 
  -2   2  -7 1989.45 129.638   1 
   3  -2   7 310.921 28.9799   7 
  -3  -2  -7 341.301 25.2989   4 
  -3   2   7 321.459 31.1497   4 
  -3   2   7 280.640 27.7708   7 
  -3  -2  -7 309.954 26.6697   6 
  -3   2   7 345.143 29.8205   1 
   3  -2   7 320.057 27.1057   1 
  -3  -2  -7 319.603 29.0211   1 
   3   2  -7 345.214 27.3838   3 
  -3  -2  -7 296.567 29.3147   1 
   3   2  -7 309.158 30.9204   1 
  -3   2   7 360.608 31.4352   8 
  -3   2   7 295.767 27.3748   5 
  -3  -2  -7 293.054 27.0788   8 
   3  -2   7 298.008 28.1931   4 
   3  -2  -7 386.952 34.1817   1 
   3  -2  -7 449.164 34.0417   1 
  -3  -2   7 438.593 28.8249   5 
  -3   2  -7 401.923 31.3051   1 
  -3   2  -7 421.926 31.0879   1 
  -3  -2   7 403.138 28.5369   6 
  -3  -2   7 415.502 30.9876   1 
   3   2   7 424.363 28.3170   1 
   3   2   7 378.964 24.0751   5 
   3   2   7 408.379 28.0312   8 
  -3  -2   7 388.492 25.2433   7 
  -4  -2  -7 1068.09 79.6097   6 
  -4   2   7 1194.12 80.2959   5 
  -4  -2  -7 1232.91 78.8208   4 
   4  -2   7 1084.20 81.9073   4 
   4  -2   7 1223.91 83.2183   7 
  -4  -2  -7 1111.38 84.2900   1 
  -4  -2  -7 1133.14 79.5819   8 
   4   2  -7 1059.74 85.2672   1 
  -4  -2  -7 1200.76 83.8541   1 
   4  -2   7 1209.40 81.6139   1 
   4   2  -7 1443.98 87.4118   1 
   4   2   7 1189.55 84.0443   1 
   4   2   7 1166.04 78.8294   8 
  -4  -2   7 1111.71 80.6838   6 
  -4  -2   7 1198.42 79.4787   5 
  -4   2  -7 1053.41 84.2724   1 
  -4  -2   7 1101.91 83.3231   1 
   4   2   7 1107.17 81.5748   7 
  -4   2  -7 1318.93 86.2847   1 
   4  -2  -7 1123.50 87.5623   1 
   4  -2  -7 1252.79 86.9180   1 
  -4  -2   7 1065.89 77.1381   7 
  -5  -2  -7 772.393 62.4092   1 
   5  -2   7 768.099 58.6588   7 
   5   2  -7 708.582 62.6442   1 
   5   2  -7 770.503 52.6900   7 
   5  -2   7 666.611 57.1596   4 
  -5  -2  -7 744.613 54.4844   8 
  -5  -2  -7 682.906 55.7855   6 
  -5  -2   7 782.219 54.2580   5 
  -5   2  -7 798.125 62.4940   1 
   5   2   7 771.123 57.5908   7 
   5  -2  -7 748.495 65.0771   1 
   5  -2  -7 836.193 58.3127   7 
  -6  -2  -7 167.151 27.7041   1 
   6   2  -7 157.452 27.9270   1 
  -6  -2  -7 156.251 21.8488   6 
   6  -2   7 179.300 25.0444   7 
   6  -2  -7 212.263 31.8440   1 
   6   2   7 204.229 24.2742   7 
   6  -2  -7 207.093 23.6596   7 
  -6  -2   7 200.080 19.7371   5 
  -7  -2  -7 82.4761 19.0307   6 
  -7  -2  -7 127.598 26.4405   1 
   7  -2  -7 103.635 19.8990   7 
   0   3   7 1613.00 103.403   1 
   0  -3   7 1523.56 105.174   2 
   0   3  -7 1574.12 103.545   1 
   0   3  -7 1565.76 101.600   6 
   0  -3   7 1597.85 101.608   6 
   0  -3  -7 1588.56 105.255   1 
   0   3   7 1669.77 102.498   6 
   0  -3   7 1554.30 102.086   7 
   0  -3  -7 1507.85 104.079   1 
   0   3  -7 1589.46 103.249   1 
   0  -3   7 1582.66 102.315   1 
   0   3   7 1654.52 106.237   8 
   0  -3  -7 1485.27 105.725   8 
   0   3   7 1412.59 102.123   5 
   0  -3  -7 1614.52 103.228   4 
  -1  -3  -7 1900.39 137.263   1 
  -1  -3  -7 1981.53 138.668   8 
  -1   3   7 2057.41 137.682   1 
  -1  -3  -7 2156.12 134.671   2 
   1  -3   7 2048.51 136.328   1 
  -1   3   7 1974.18 136.775   5 
  -1  -3  -7 1958.51 135.536   5 
   1   3  -7 2044.99 138.058   1 
   1   3  -7 2070.66 136.184   6 
  -1   3   7 2309.48 141.065   8 
   1   3  -7 2010.16 138.106   1 
  -1  -3  -7 2076.66 138.345   1 
  -1  -3  -7 2055.17 135.902   6 
   1  -3   7 2096.01 137.322   7 
   1  -3  -7 2154.05 140.853   1 
  -1   3  -7 2253.50 135.385   6 
  -1   3  -7 2091.25 139.490   2 
  -1   3  -7 2089.62 137.788   1 
   1  -3  -7 2013.69 139.340   1 
  -1  -3   7 2172.31 139.775   2 
   1   3   7 1997.23 135.246   5 
  -1  -3   7 1986.05 136.807   3 
  -1  -3   7 2142.83 135.966   6 
  -1   3  -7 2325.29 138.229   1 
  -1  -3   7 2108.94 134.005   7 
   1  -3  -7 2092.14 140.530   8 
   1   3   7 2175.44 139.135   8 
   1   3   7 2085.63 136.810   1 
   1  -3  -7 2216.56 138.882   4 
  -1  -3   7 2155.82 137.021   1 
   1  -3  -7 2212.72 137.628   3 
   1   3   7 2281.65 136.300   6 
  -2  -3  -7 301.924 25.3563   6 
   2   3  -7 312.357 28.8856   1 
   2  -3   7 338.505 26.2258   1 
   2   3  -7 350.700 29.0709   1 
   2  -3   7 338.829 27.9853   7 
  -2   3   7 305.484 27.5067   1 
  -2   3   7 321.763 26.7922   5 
  -2  -3  -7 349.823 28.0257   1 
  -2   3   7 363.994 30.4505   8 
   2  -3   7 319.568 23.2827   8 
   2  -3   7 325.861 23.9264   8 
  -2  -3  -7 317.116 27.8141   8 
  -2   3   7 313.881 27.8078   7 
  -2  -3  -7 311.932 27.7057   1 
  -2   3  -7 363.804 28.9387   1 
   2   3   7 383.583 28.1061   8 
  -2  -3   7 354.493 26.4252   6 
  -2  -3   7 351.272 27.7011   1 
   2   3   7 338.627 23.7242   5 
   2  -3  -7 346.616 31.3217   1 
  -2   3  -7 396.392 29.2863   1 
  -2   3  -7 386.667 30.2412   2 
   2  -3  -7 362.954 30.9927   8 
  -2  -3   7 321.933 27.1159   3 
   2   3   7 395.440 27.1580   1 
  -2   3  -7 373.552 25.6657   6 
   2  -3  -7 373.559 29.6932   4 
   3  -3   7 200.055 20.2854   7 
  -3  -3  -7 198.546 20.9390   1 
  -3  -3  -7 227.854 21.0847   1 
  -3   3   7 211.033 21.0265   1 
  -3  -3  -7 200.862 17.9121   6 
  -3   3   7 268.904 27.3243   8 
  -3  -3  -7 217.512 16.6080   4 
   3   3  -7 194.646 22.0559   1 
   3  -3   7 203.060 18.8550   1 
  -3  -3  -7 195.844 19.3195   8 
  -3  -3   7 176.999 18.1710   6 
   3   3   7 199.159 18.8589   1 
   3  -3  -7 211.315 23.0434   1 
   3  -3  -7 187.575 23.2684   1 
  -3   3  -7 171.971 21.0683   1 
  -3  -3   7 198.578 17.9755   5 
  -3   3  -7 176.693 20.8086   1 
   3  -3  -7 176.189 21.1446   4 
   3   3   7 186.842 18.2719   8 
  -3  -3   7 191.855 20.2222   1 
  -3   3  -7 202.589 21.6495   2 
  -4  -3  -7 1231.57 85.0250   1 
  -4  -3  -7 1020.65 83.8473   1 
  -4  -3  -7 1198.01 79.2851   4 
  -4  -3  -7 1066.10 80.5288   8 
  -4  -3  -7 1083.29 80.1250   6 
   4   3  -7 1083.57 85.8420   1 
   4  -3   7 1131.06 83.0213   7 
   4  -3   7 1083.73 83.2097   4 
  -4   3  -7 1119.98 86.3182   1 
   4   3   7 1221.06 80.2486   8 
   4  -3  -7 1189.61 89.3300   1 
  -4  -3   7 1254.68 79.6785   5 
   4  -3  -7 1184.89 86.0622   4 
  -4  -3   7 1294.74 82.4151   6 
  -4   3  -7 1319.17 86.9258   1 
   5  -3   7 1500.76 101.414   7 
  -5  -3  -7 1297.45 102.994   1 
   5  -3   7 1262.38 100.222   4 
  -5  -3  -7 1319.70 97.4291   6 
  -5  -3  -7 1333.01 96.7960   8 
   5   3  -7 1250.67 103.510   1 
   5   3   7 1509.44 99.4039   7 
  -5   3  -7 1469.87 106.124   1 
   5  -3  -7 1558.47 100.688   7 
   5  -3  -7 1449.06 108.378   1 
  -5  -3   7 1561.51 95.9873   5 
   6   3  -7 554.369 53.1030   1 
  -6  -3  -7 556.424 52.5974   1 
  -6  -3  -7 546.638 45.4840   6 
   6  -3   7 561.163 49.6199   4 
  -6   3  -7 459.107 51.0211   1 
   6   3   7 534.775 45.4106   7 
   6  -3  -7 526.921 55.2547   1 
   6  -3  -7 564.564 47.5562   7 
  -6  -3   7 564.406 41.8180   5 
  -7  -3  -7 307.034 40.2234   1 
   0   4  -7 824.215 58.2387   1 
   0  -4  -7 794.574 59.0528   1 
   0  -4   7 802.274 56.0091   7 
   0  -4  -7 760.338 59.3455   8 
   0  -4   7 858.363 58.0041   1 
   0   4   7 882.691 60.5605   8 
   0   4  -7 795.486 58.4579   1 
   0   4  -7 836.983 56.2274   6 
   0  -4  -7 862.611 60.6935   1 
   0   4   7 854.269 58.7123   1 
   0  -4   7 879.713 56.5064   6 
  -1  -4  -7 639.724 39.8162   2 
   1   4  -7 612.087 41.7375   6 
  -1  -4  -7 560.189 44.1084   8 
  -1   4   7 601.466 44.1149   1 
   1   4  -7 625.597 44.2554   1 
  -1   4   7 649.745 45.9380   8 
  -1  -4  -7 646.118 45.0750   1 
  -1  -4  -7 545.988 40.6362   5 
  -1  -4  -7 570.811 43.6490   1 
  -1  -4  -7 532.835 41.1867   6 
   1  -4   7 616.627 42.7454   7 
  -1   4   7 535.730 40.4481   2 
   1  -4   7 673.236 43.9072   1 
   1   4  -7 579.038 44.0439   1 
  -1  -4   7 575.360 42.7125   1 
  -1  -4   7 539.389 38.0575   7 
  -1   4  -7 546.733 43.5227   1 
   1  -4  -7 622.727 51.4148   1 
  -1   4  -7 629.464 44.0598   1 
   1  -4  -7 610.745 44.2595   4 
  -1   4  -7 585.157 45.3847   2 
   1  -4  -7 559.118 44.8859   1 
   1  -4  -7 609.528 41.5689   3 
  -1  -4   7 536.998 40.8621   6 
  -1   4  -7 562.915 40.7346   6 
   1   4   7 582.980 43.0199   1 
  -1  -4   7 580.984 42.8573   3 
   1  -4  -7 557.998 45.0038   8 
   1   4   7 599.402 44.5774   8 
   2  -4   7 1627.68 111.900   1 
   2  -4   7 1612.88 111.953   7 
  -2  -4  -7 1481.67 109.579   6 
   2   4  -7 1530.45 113.427   1 
  -2  -4  -7 1510.47 112.112   8 
   2   4  -7 1623.51 114.017   1 
  -2  -4  -7 1638.84 113.342   1 
   2   4  -7 1781.78 111.316   6 
   2  -4   7 1542.16 107.085   8 
  -2   4   7 1572.75 112.517   1 
  -2   4   7 1736.52 114.420   8 
  -2  -4  -7 1539.11 112.664   1 
   2   4   7 1814.13 112.191   1 
   2  -4  -7 1703.61 116.550   1 
   2  -4  -7 1880.51 121.503   1 
  -2  -4   7 1658.56 112.164   1 
  -2   4  -7 1764.30 115.378   2 
   2  -4  -7 1682.14 115.139   8 
  -2  -4   7 1566.27 111.968   3 
  -2  -4   7 1752.38 110.635   6 
  -2   4  -7 1708.26 112.576   7 
  -2   4  -7 1635.40 113.137   1 
   2   4   7 1768.32 112.630   8 
   2  -4  -7 1726.45 114.257   4 
  -2   4  -7 1809.59 114.705   1 
  -2   4  -7 1722.35 109.624   6 
   3   4  -7 824.648 64.2779   1 
  -3  -4  -7 849.033 63.3004   1 
  -3   4   7 923.037 63.5647   1 
  -3  -4  -7 833.747 61.6438   8 
  -3  -4  -7 865.435 59.6523   6 
   3  -4   7 897.837 62.2578   1 
  -3  -4  -7 953.637 63.6148   1 
   3  -4   7 859.771 62.2845   7 
   3   4  -7 976.020 65.1740   1 
   3   4   7 884.275 61.5246   1 
  -3  -4   7 877.153 63.0711   1 
   3  -4  -7 787.131 63.6713   4 
   3  -4  -7 770.160 63.5905   8 
  -3  -4   7 816.297 58.7715   5 
   3  -4  -7 781.641 66.2650   1 
   3  -4  -7 887.603 66.3276   1 
  -3   4  -7 835.125 64.1116   2 
  -3  -4   7 792.931 59.7584   6 
  -3   4  -7 769.749 63.5108   1 
  -3   4  -7 804.691 63.3901   1 
   3   4   7 791.522 60.3503   8 
  -4  -4  -7 668.869 53.2975   1 
   4  -4   7 666.440 51.5993   4 
   4  -4   7 726.166 51.8788   7 
  -4  -4  -7 675.859 49.8628   8 
   4   4  -7 647.300 54.1672   1 
  -4  -4  -7 712.263 47.1301   4 
  -4  -4  -7 667.723 48.0630   6 
  -4   4  -7 508.270 51.3840   1 
   4  -4  -7 546.812 54.5780   1 
   4  -4  -7 573.113 51.9569   4 
  -4  -4   7 612.398 46.2806   5 
  -5  -4  -7 443.937 38.8038   6 
   5   4  -7 464.998 45.7503   1 
   5  -4   7 490.449 42.0629   7 
   5  -4   7 456.559 42.2528   4 
  -5  -4  -7 470.380 44.9138   1 
  -5  -4  -7 457.812 39.3231   8 
  -5   4  -7 419.439 44.5477   1 
  -5  -4   7 523.872 37.1512   5 
   5  -4  -7 493.104 45.5829   4 
   5  -4  -7 471.611 47.7612   1 
   5   4   7 471.274 39.6242   7 
   6  -4   7 276.868 33.2659   4 
  -6  -4  -7 270.122 29.7877   6 
  -6  -4  -7 277.814 36.3748   1 
   6   4  -7 281.829 37.1477   1 
  -6   4  -7 307.954 38.7622   1 
   6  -4  -7 289.890 39.9002   1 
  -6  -4   7 307.017 26.8007   5 
   6   4   7 295.443 29.8226   7 
  -7  -4  -7 278.714 39.9163   1 
  -7   4  -7 298.586 42.1997   1 
   0  -5   7 1628.86 111.704   6 
   0   5  -7 1729.92 111.981   6 
   0   5   7 1718.27 114.851   1 
   0  -5   7 1733.05 113.308   8 
   0  -5  -7 1596.21 115.153   8 
   0   5  -7 1820.50 115.342   1 
   0   5  -7 1565.66 114.442   1 
   0  -5  -7 1664.35 115.491   1 
   0  -5   7 1725.23 111.338   7 
   0  -5   7 1662.62 113.636   1 
   0  -5  -7 1841.40 112.555   3 
   1  -5   7 1054.84 74.8386   8 
  -1   5   7 1056.30 78.4855   1 
   1  -5   7 1124.76 78.3628   1 
  -1  -5  -7 1066.41 75.5916   6 
  -1  -5  -7 1103.02 73.9421   2 
   1   5  -7 1108.22 75.9317   6 
   1   5  -7 937.736 77.4713   1 
   1   5  -7 1101.25 78.6508   1 
  -1   5   7 966.806 74.4838   2 
   1  -5   7 1068.42 76.0361   7 
  -1  -5  -7 993.847 77.9412   1 
  -1  -5  -7 952.327 77.7587   8 
  -1  -5  -7 993.320 87.5714   1 
  -1   5  -7 1158.14 76.2978   7 
   1  -5  -7 1214.72 79.0878   4 
   1  -5  -7 1242.11 76.9313   3 
  -1  -5   7 1183.78 78.3030   3 
  -1   5  -7 1216.93 75.5862   6 
  -1   5  -7 1227.16 79.6793   1 
   1   5   7 1201.31 78.5244   1 
   1  -5  -7 1143.21 79.8938   8 
  -1   5  -7 1186.02 79.7464   1 
  -1  -5   7 1227.31 78.4028   1 
  -1  -5   7 1179.02 75.7538   6 
  -1   5  -7 1208.17 81.2700   2 
   1  -5  -7 1123.76 80.2204   1 
   2  -5   7 319.890 29.5361   1 
  -2  -5  -7 303.163 24.1476   5 
   2  -5   7 318.602 28.2956   7 
  -2  -5  -7 287.380 29.1405   8 
   2   5  -7 292.976 30.1163   1 
  -2  -5  -7 308.879 27.0222   6 
  -2   5   7 278.363 27.4965   2 
  -2   5   7 316.361 30.1179   1 
   2   5  -7 330.775 27.8253   6 
   2  -5   7 299.210 24.0747   8 
  -2  -5  -7 295.976 29.5804   1 
   2  -5  -7 434.525 36.0166   1 
   2  -5  -7 384.394 32.2900   4 
  -2   5  -7 401.136 32.3931   1 
  -2   5  -7 378.588 31.8162   1 
   2  -5  -7 353.850 32.9978   1 
  -2   5  -7 369.229 29.5638   7 
   2  -5  -7 349.840 31.7530   8 
  -2  -5   7 370.128 29.9943   1 
  -2  -5   7 359.708 27.6891   6 
  -2   5  -7 385.381 33.4458   2 
  -2  -5   7 341.710 29.6203   3 
   2   5   7 372.356 29.5036   1 
  -2   5  -7 368.810 27.3235   6 
   3   5  -7 650.314 53.8710   1 
   3  -5   7 707.795 52.0345   7 
  -3  -5  -7 690.258 49.6324   6 
  -3  -5  -7 708.598 54.1009   1 
  -3  -5  -7 688.211 52.5465   8 
  -3   5  -7 641.045 48.5665   6 
  -3   5  -7 681.497 53.8796   1 
  -3  -5   7 652.088 53.3767   6 
   3  -5  -7 651.540 53.8155   4 
   3  -5  -7 644.493 53.5332   8 
   3  -5  -7 650.464 56.1210   1 
  -3   5  -7 659.892 54.6485   2 
  -3   5  -7 677.783 54.3241   1 
   4  -5   7 700.906 60.3542   4 
   4   5  -7 668.819 62.2114   1 
  -4  -5  -7 719.492 59.5499   8 
   4  -5   7 801.807 61.1832   7 
  -4  -5  -7 708.087 57.6278   6 
  -4  -5  -7 713.501 62.0797   1 
  -4   5  -7 861.974 66.3394   1 
   4  -5  -7 854.712 68.1752   1 
  -4  -5   7 941.589 57.5341   5 
  -4   5  -7 921.862 65.9328   2 
   4  -5  -7 835.935 64.1724   4 
  -5  -5  -7 482.279 43.6672   8 
   5  -5   7 459.897 46.0048   4 
   5   5  -7 468.883 48.3379   1 
   5  -5   7 522.619 45.4042   7 
  -5  -5  -7 490.762 43.0052   6 
  -5  -5  -7 483.074 48.2849   1 
   5   5   7 530.817 43.0982   7 
   5  -5  -7 544.810 52.5978   1 
  -5   5  -7 541.286 49.1569   2 
  -5   5  -7 577.139 52.0032   1 
   5  -5  -7 570.242 54.7491   4 
  -5  -5   7 573.776 40.5629   5 
   6   5  -7 564.745 57.3013   1 
  -6  -5  -7 567.494 49.3830   6 
   6  -5   7 572.933 54.2919   4 
  -6  -5  -7 584.111 49.8607   8 
  -6  -5  -7 581.723 56.4780   1 
  -6   5  -7 677.946 60.7589   1 
  -7  -5  -7 221.412 36.6293   1 
  -7   5  -7 204.963 37.5475   1 
   0  -6  -7 734.695 59.0587   8 
   0   6  -7 812.145 55.9188   6 
   0  -6   7 754.413 56.6100   8 
   0   6   7 805.536 59.5673   1 
   0   6  -7 726.714 58.6601   1 
   0  -6  -7 756.712 59.4849   1 
   0   6  -7 760.265 54.0114   7 
   0  -6  -7 845.747 57.2043   3 
   0  -6   7 771.280 57.8946   1 
   0  -6   7 826.010 56.0976   6 
   0  -6   7 757.470 54.7039   7 
   0   6  -7 848.311 59.9434   1 
   0  -6  -7 901.349 63.5470   1 
   1  -6   7 825.648 57.6884   7 
   1  -6   7 781.806 56.3637   8 
  -1  -6  -7 764.075 60.4198   8 
  -1  -6  -7 751.058 57.2969   6 
  -1   6   7 684.154 56.2054   2 
   1  -6   7 874.045 64.5805   1 
  -1  -6  -7 876.981 56.2632   2 
   1   6  -7 745.389 60.5454   1 
  -1  -6  -7 896.078 64.1916   1 
   1   6  -7 890.830 57.9874   6 
  -1  -6  -7 747.644 60.6034   1 
  -1   6   7 775.256 60.4715   1 
   1  -6  -7 814.540 60.6135   4 
   1   6   7 776.624 60.9847   1 
  -1  -6   7 797.703 56.9528   6 
  -1   6  -7 895.594 61.9330   1 
   1  -6  -7 893.170 65.5487   1 
  -1  -6   7 866.961 64.6646   1 
  -1   6  -7 827.783 57.1026   6 
   1  -6  -7 772.284 60.8929   8 
  -1   6  -7 863.083 63.7826   2 
  -1   6  -7 794.838 57.3281   7 
  -1   6  -7 785.609 61.3144   1 
   1  -6  -7 818.604 58.6652   3 
  -1  -6   7 803.415 59.6828   8 
  -1  -6   7 780.557 59.8541   3 
   1  -6  -7 776.175 62.1027   1 
  -2  -6  -7 350.371 34.1035   6 
  -2  -6  -7 359.207 37.1104   1 
   2   6  -7 365.267 34.1345   6 
  -2   6   7 345.025 34.8148   2 
  -2  -6  -7 383.945 37.1805   8 
   2  -6   7 381.996 35.0617   7 
   2  -6   7 347.787 31.2863   8 
   2   6  -7 347.682 37.3212   1 
  -2  -6  -7 404.526 33.6144   2 
  -2   6  -7 499.186 40.1064   1 
  -2  -6   7 545.542 39.7953   8 
   2  -6  -7 530.886 40.4420   8 
  -2   6  -7 611.809 43.4753   1 
  -2   6  -7 561.094 42.5312   2 
   2  -6  -7 568.245 41.3237   4 
   2  -6  -7 530.492 42.6897   1 
  -2  -6   7 530.819 38.8876   3 
  -2   6  -7 561.042 36.0433   6 
  -3  -6  -7 1248.44 87.6244   8 
  -3   6   7 1155.91 85.4739   2 
  -3  -6  -7 1153.21 87.8166   1 
   3  -6   7 1317.83 86.2179   7 
   3   6  -7 1204.11 89.2564   1 
  -3  -6  -7 1179.63 83.5464   6 
   3  -6  -7 1179.15 88.0947   4 
  -3   6  -7 1134.78 88.2223   1 
  -3   6  -7 1264.68 90.4210   2 
  -3  -6   7 1144.70 87.1667   8 
   3  -6  -7 1181.81 87.5012   8 
   3  -6  -7 1201.89 91.5985   1 
  -4  -6  -7 236.991 28.7654   1 
  -4  -6  -7 245.381 24.1571   6 
   4  -6   7 262.299 26.6385   7 
   4   6  -7 208.921 28.2633   1 
  -4  -6  -7 250.674 27.2557   8 
   4  -6  -7 215.489 30.4932   1 
  -4   6  -7 204.655 28.0665   1 
  -4  -6   7 201.711 26.1443   8 
   4  -6  -7 208.197 27.9436   4 
   4  -6  -7 226.516 26.2726   8 
  -4   6  -7 229.012 28.4895   2 
  -4  -6   7 222.433 21.7169   5 
  -5  -6  -7 267.344 29.5756   8 
   5  -6   7 297.274 32.5022   7 
  -5  -6  -7 263.510 33.9959   1 
   5  -6   7 270.213 31.7092   4 
   5   6  -7 267.875 35.1086   1 
  -5  -6  -7 266.100 28.5060   6 
  -5  -6   7 291.101 25.3781   5 
  -5   6  -7 273.089 33.3088   2 
   5  -6  -7 261.122 35.5852   1 
  -5   6  -7 286.328 35.8389   1 
  -6  -6  -7 204.234 32.0286   1 
  -6  -6  -7 210.525 26.9901   6 
  -6   6  -7 214.417 33.5441   1 
   0  -7   7 2181.15 138.865   7 
   0  -7   7 2134.70 141.215   8 
   0  -7  -7 2070.62 144.053   8 
   0  -7  -7 1996.00 144.252   1 
   0   7  -7 2029.53 137.836   7 
   0   7  -7 2265.82 140.701   6 
   0   7  -7 2013.95 144.093   1 
   0  -7  -7 2182.16 141.590   3 
  -1  -7  -7 532.647 45.4627   6 
   1   7  -7 523.678 48.5398   1 
  -1  -7  -7 580.433 49.0562   8 
  -1  -7  -7 537.583 48.8918   1 
   1  -7   7 604.959 45.5933   7 
   1  -7   7 568.562 44.2956   8 
   1  -7  -7 669.845 48.2837   3 
  -1  -7   7 620.018 49.2207   3 
  -1   7  -7 632.293 45.5071   7 
   1  -7  -7 606.412 49.5543   8 
  -1   7  -7 626.531 50.9118   1 
  -1   7  -7 669.738 49.1216   6 
  -1  -7   7 642.699 48.3821   8 
   1  -7  -7 673.488 52.3863   1 
  -2   7   7 265.986 27.3065   2 
   2   7  -7 266.751 30.4750   1 
   2  -7   7 310.059 27.8721   7 
   2  -7   7 282.620 23.5837   8 
  -2  -7  -7 251.035 25.9990   6 
  -2  -7  -7 266.962 29.3128   8 
  -2  -7  -7 259.646 29.4798   1 
   2  -7  -7 339.379 31.9988   4 
  -2   7  -7 324.483 31.8604   1 
   2  -7  -7 318.804 30.3952   8 
  -2   7  -7 324.692 33.2985   2 
   2  -7  -7 315.760 29.6484   3 
   2  -7  -7 307.778 32.7209   1 
  -2  -7   7 289.133 29.3466   3 
  -2  -7   7 321.883 30.1702   8 
  -3  -7  -7 517.418 42.3931   6 
  -3  -7  -7 533.634 45.9193   8 
  -3  -7  -7 522.664 46.9618   1 
  -3   7   7 508.926 44.0271   2 
   3  -7   7 583.485 44.6928   7 
   3   7  -7 508.122 47.1018   1 
  -3   7  -7 602.665 51.3012   2 
  -3  -7   7 494.927 45.5516   3 
  -3   7  -7 518.459 47.5342   1 
  -3  -7   7 484.828 45.2312   8 
   3  -7  -7 540.583 47.5591   4 
   3  -7  -7 525.877 49.4560   1 
   3  -7  -7 477.042 44.5586   8 
  -4  -7  -7 570.092 49.5432   6 
  -4  -7  -7 594.253 55.4457   1 
   4   7  -7 608.525 57.3009   1 
  -4  -7  -7 607.598 53.4816   8 
  -4   7   7 586.496 52.2150   2 
   4  -7   7 660.309 52.2546   7 
   4  -7  -7 611.853 52.8090   8 
  -4   7  -7 650.861 57.3304   1 
  -4   7  -7 694.181 57.9563   2 
   4  -7  -7 646.141 59.0236   1 
  -4  -7   7 711.744 47.9682   5 
   5   7  -7 99.3133 25.3807   1 
  -5  -7  -7 112.120 24.7403   1 
  -5  -7  -7 112.041 19.6235   6 
  -5   7  -7 121.139 24.7174   1 
  -6  -7  -7 728.749 69.6763   1 
  -6   7  -7 779.643 71.5807   1 
   0  -8   7 571.828 44.6538   8 
   0  -8  -7 564.982 48.2586   8 
   0  -8  -7 535.479 48.2770   1 
   0   8  -7 539.536 47.9981   1 
   0  -8  -7 601.026 46.1613   3 
  -1  -8  -7 347.239 33.9828   8 
   1  -8   7 330.792 28.1817   8 
   1  -8   7 347.650 29.6895   7 
  -1  -8  -7 324.482 33.6620   1 
   1   8  -7 330.017 34.0374   1 
   1  -8  -7 303.548 31.5563   8 
   1  -8  -7 308.029 34.3503   1 
  -1  -8   7 310.988 30.9700   8 
  -1  -8   7 312.437 32.9193   3 
  -1   8  -7 311.475 33.7040   1 
   1  -8  -7 324.375 31.3809   3 
  -2   8   7 60.9821 13.3123   2 
  -2  -8  -7 59.6475 17.4841   1 
   2  -8   7 59.4049 13.8692   7 
  -2  -8  -7 63.2129 13.8562   6 
  -2  -8  -7 64.6693 15.9423   8 
   2   8  -7 47.4708 16.8801   1 
   2  -8  -7 91.2544 18.4992   3 
   2  -8  -7 66.0199 16.2002   4 
   2  -8  -7 80.1638 17.2090   8 
   2  -8  -7 77.9368 19.5650   1 
  -2   8  -7 91.1829 19.9066   2 
  -2   8  -7 76.5748 17.7506   1 
  -2  -8   7 72.7026 16.6301   3 
  -2  -8   7 66.7093 15.2416   8 
   3  -8   7 1377.02 94.8665   7 
  -3   8   7 1167.57 94.6342   2 
   3   8  -7 1193.48 98.4719   1 
  -3  -8  -7 1196.04 97.7183   1 
  -3  -8  -7 1218.31 92.7177   6 
  -3   8  -7 1367.59 100.477   1 
  -3   8  -7 1440.69 101.960   2 
   3  -8  -7 1342.94 96.5605   8 
  -3  -8   7 1332.78 97.6774   3 
   3  -8  -7 1406.55 102.103   1 
   3  -8  -7 1361.23 98.9188   4 
  -4  -8  -7 186.897 24.0788   6 
  -4  -8  -7 205.746 29.7637   1 
  -4   8   7 187.386 25.6283   2 
   4   8  -7 193.514 29.5975   1 
  -4   8  -7 186.870 29.4261   1 
   4  -8  -7 177.987 29.7616   8 
   4  -8  -7 198.491 30.5273   1 
  -5  -8  -7 42.1192 16.6979   6 
  -5  -8  -7 51.1008 21.1798   1 
  -5   8  -7 53.0518 22.3459   1 
   0  -9   7 1286.50 89.4002   8 
   0   9  -7 1152.80 93.1031   1 
   0  -9   7 1101.61 91.9550   3 
   0  -9  -7 1388.77 91.7475   3 
   0  -9  -7 1308.57 95.9136   1 
  -1  -9  -7 337.645 37.2143   1 
   1  -9   7 338.548 32.7201   8 
   1   9  -7 297.252 34.5306   1 
  -1  -9   7 349.047 33.6208   8 
  -1  -9   7 320.704 35.2598   3 
  -1   9  -7 348.242 37.3335   1 
   1  -9  -7 354.307 38.2368   1 
   1  -9  -7 370.939 35.1303   3 
   2  -9   7 270.091 27.3993   7 
  -2  -9  -7 237.756 26.2462   6 
  -2  -9  -7 242.726 31.2268   1 
   2   9  -7 240.301 31.3515   1 
   2  -9  -7 252.781 30.7789   3 
  -2   9  -7 233.937 32.7722   2 
   2  -9  -7 252.148 30.2964   4 
   2  -9  -7 227.114 32.3866   1 
  -2  -9   7 216.577 29.3921   3 
  -2   9  -7 222.985 30.9818   1 
  -3  -9  -7 295.089 31.1081   6 
   3  -9   7 322.065 32.0382   7 
  -3  -9  -7 280.839 35.8745   1 
   3   9  -7 267.850 36.5071   1 
   3  -9  -7 301.353 38.2134   1 
   3  -9  -7 365.006 37.2736   3 
  -3  -9   7 307.843 35.8068   3 
  -3   9  -7 315.007 38.0307   1 
   4   9  -7 430.072 47.6681   1 
  -4  -9  -7 433.239 47.4925   1 
  -4  -9  -7 444.860 41.4972   6 
  -4   9  -7 453.435 48.3790   1 
   0  10  -7 415.757 44.7160   1 
   0 -10   7 425.829 44.7256   3 
   0 -10  -7 493.101 43.1289   3 
   0 -10   7 429.215 39.0711   8 
   0 -10  -7 415.899 44.7494   1 
  -1 -10  -7 413.939 43.5779   1 
   1  10  -7 379.982 41.7997   1 
  -1 -10   7 402.768 41.5636   3 
   1 -10  -7 435.446 41.4026   3 
   1 -10  -7 417.362 44.6879   1 
  -1  10  -7 388.655 43.0325   1 
  -2 -10  -7 67.1098 21.7535   1 
   2  10  -7 71.2219 19.8763   1 
  -2 -10  -7 67.4658 17.2518   6 
  -2 -10   7 69.1626 20.8701   3 
  -2  10  -7 65.6716 22.0233   1 
   2 -10  -7 68.1546 21.1118   3 
  -3 -10  -7 771.195 71.2856   1 
  -3 -10  -7 750.968 64.2307   6 
   3  10  -7 713.370 70.4956   1 
  -3 -10   7 818.643 70.4526   3 
   3 -10  -7 972.959 72.5079   3 
  -3  10  -7 840.095 72.8974   1 
   0  11  -7 913.732 80.5075   1 
   0 -11  -7 1034.71 77.6886   3 
   0 -11   7 934.097 80.7592   3 
   1  11  -7 298.710 37.6469   1 
   1 -11  -7 275.719 34.1936   3 
  -1  11  -7 241.711 35.2076   1 
  -1 -11   7 236.401 34.7240   3 
   2  11  -7 104.641 27.0951   1 
   2 -11  -7 163.320 29.1348   3 
  -2  11  -7 139.997 28.9018   1 
  -2 -11   7 125.527 27.0734   3 
   0   0  -8 6906.07 433.242   1 
   0   0   8 7487.17 436.821   8 
   0   0  -8 6438.20 432.683   1 
   0   0   8 7048.98 439.080   5 
   0   0   8 5838.98 437.677   2 
   1   0  -8 89.3531 8.98253   1 
   1   0  -8 62.8231 8.35921   1 
  -1   0   8 63.0037 9.23628   4 
   1   0   8 73.1894 9.51430   8 
  -1   0  -8 59.2502 9.07807   8 
  -1   0  -8 85.4628 8.31748   2 
  -1   0  -8 73.2165 5.94923   1 
  -1   0   8 74.9424 9.17518   5 
  -2   0  -8 363.827 25.7806   6 
  -2   0   8 364.889 28.0061   7 
  -2   0   8 374.031 29.1013   5 
  -2   0   8 370.488 31.0294   4 
  -2   0  -8 381.680 28.4083   8 
   2   0  -8 409.128 30.8765   1 
  -2   0   8 414.582 32.5476   8 
   2   0   8 368.000 27.4578   8 
   2   0  -8 331.678 30.0777   1 
  -2   0  -8 383.440 27.9833   1 
  -2   0   8 406.155 28.9874   1 
   3   0  -8 176.078 20.3905   1 
  -3   0  -8 157.829 15.0701   6 
   3   0   8 179.458 18.4390   7 
  -3   0   8 188.053 20.6262   4 
   3   0   8 181.346 14.5785   8 
  -3   0   8 188.688 17.5220   5 
   3   0  -8 191.321 15.6118   3 
  -3   0   8 193.457 17.0061   7 
  -3   0  -8 182.844 18.1385   1 
  -3   0  -8 177.055 15.4401   8 
   3   0  -8 199.253 20.0103   1 
  -3   0   8 167.224 17.7783   1 
   4   0  -8 1461.38 112.397   1 
   4   0   8 1589.69 109.256   7 
   4   0  -8 1892.54 114.010   1 
  -4   0  -8 1528.25 103.800   8 
  -4   0  -8 1427.09 105.835   6 
  -4   0  -8 1694.54 111.022   1 
  -4   0   8 1622.08 107.158   5 
  -4   0   8 1512.39 107.297   7 
  -5   0   8 22.2247 9.19729   5 
   5   0   8 23.9534 11.1660   7 
  -5   0  -8 17.7544 9.48143   6 
   5   0  -8 25.5881 14.2136   1 
   6   0   8 1513.77 99.9360   7 
  -6   0  -8 1208.02 96.1255   6 
   6   0  -8 1406.13 107.196   1 
  -7   0  -8 7.19954 11.7685   1 
   0   1   8 112.928 10.3970   4 
   0   1   8 116.792 8.72952   6 
   0  -1   8 115.096 11.3506   2 
   0  -1  -8 122.172 10.7794   1 
   0  -1   8 117.574 7.98499   6 
   0  -1  -8 114.782 13.9854   8 
   0   1   8 104.052 11.0148   5 
   0  -1   8 113.045 13.2121   8 
   0   1  -8 119.585 9.07303   1 
   0   1  -8 110.991 9.18237   1 
   0   1   8 124.059 13.6587   8 
   0  -1  -8 118.932 10.1355   1 
  -1  -1  -8 1821.05 109.411   1 
  -1   1   8 1897.83 115.298   8 
  -1  -1  -8 1895.01 110.621   2 
  -1  -1  -8 1785.76 109.360   1 
  -1  -1  -8 1680.99 112.490   8 
  -1   1   8 1786.93 112.404   4 
  -1   1   8 1820.74 111.807   5 
   1   1  -8 1627.79 110.976   1 
   1  -1   8 1812.68 112.110   8 
  -1   1  -8 1671.40 111.236   2 
  -1  -1   8 1459.09 108.550   3 
   1  -1  -8 1494.70 111.524   1 
   1  -1  -8 1599.92 114.436   8 
  -1  -1   8 1683.17 113.924   8 
   1   1   8 1643.06 110.224   5 
  -1   1  -8 1533.25 108.485   1 
  -1  -1   8 1696.83 109.014   6 
   1   1   8 1720.94 112.463   8 
  -1   1  -8 1615.04 108.596   1 
  -1  -1   8 1607.12 111.111   5 
   1  -1  -8 1713.91 111.800   1 
  -2  -1  -8 43.4246 5.40678   6 
   2   1  -8 38.1562 8.56958   1 
   2  -1   8 39.9152 5.78469   8 
  -2   1   8 68.0331 10.5763   4 
  -2   1   8 45.5381 9.79858   8 
  -2   1   8 39.0694 7.72028   5 
  -2   1   8 37.7272 7.25415   7 
  -2  -1  -8 44.4214 6.98071   1 
   2  -1   8 38.3997 8.00725   7 
  -2  -1  -8 41.1059 7.15197   1 
  -2  -1  -8 49.9632 7.99151   8 
  -2   1  -8 47.7493 7.11208   1 
   2   1   8 42.4738 6.13664   5 
  -2  -1   8 45.6852 6.13357   7 
  -2   1  -8 40.9604 8.33374   2 
  -2  -1   8 44.8696 7.19971   1 
   2  -1  -8 41.2022 9.18673   1 
  -2   1  -8 42.6395 6.97772   1 
  -2  -1   8 51.1655 8.09162   5 
  -2  -1   8 39.3475 6.51148   6 
   2   1   8 48.2000 7.58713   8 
   2  -1  -8 46.2084 8.73917   1 
   3   1  -8 3354.20 217.658   1 
   3  -1   8 3256.93 215.952   7 
  -3  -1  -8 3457.51 215.994   1 
  -3   1   8 3400.00 218.808   4 
  -3   1   8 3356.69 214.652   5 
   3   1  -8 3006.68 217.697   1 
  -3  -1  -8 3218.82 212.426   6 
  -3  -1  -8 3128.30 215.557   1 
  -3   1   8 3008.62 214.065   7 
   3  -1   8 3029.16 210.787   8 
   3   1  -8 3574.03 212.590   3 
   3  -1   8 3104.40 213.091   4 
  -3  -1  -8 3090.91 213.031   8 
   3  -1  -8 3110.16 218.726   1 
  -3  -1   8 3547.13 218.884   4 
  -3  -1   8 3243.28 212.774   7 
   3  -1  -8 3696.17 224.198   1 
  -3  -1   8 3575.12 214.768   5 
  -3  -1   8 3349.97 214.143   6 
  -3  -1   8 3447.37 216.575   1 
  -3   1  -8 3569.96 216.494   1 
   3   1   8 3345.58 212.632   8 
  -3   1  -8 3176.47 215.501   1 
   4  -1   8 59.6918 12.1280   7 
   4   1  -8 57.3996 13.6743   1 
  -4  -1  -8 54.6734 9.49761   6 
  -4  -1  -8 46.4694 12.0229   1 
  -4  -1  -8 51.4589 8.84328   8 
   4  -1   8 44.8348 9.26987   4 
  -4   1   8 49.2916 10.2869   5 
  -4  -1  -8 61.0574 12.2165   1 
  -4   1   8 45.5540 10.6068   7 
   4   1  -8 48.1165 13.7856   1 
  -4  -1   8 56.1227 10.0235   5 
   4   1   8 57.4682 11.6445   7 
  -4   1  -8 56.1995 12.3852   1 
  -4  -1   8 51.1757 9.22339   7 
  -4   1  -8 54.0471 12.4181   1 
   4  -1  -8 49.5186 13.6531   1 
   4   1   8 54.3224 7.82228   8 
   4  -1  -8 62.4452 14.9919   1 
  -4  -1   8 61.8778 10.8820   6 
   5   1  -8 104.325 20.0699   1 
  -5   1   8 155.842 17.3621   5 
  -5  -1  -8 113.378 15.6068   6 
   5  -1   8 143.776 18.6659   7 
  -5  -1  -8 110.520 19.1469   1 
  -5  -1  -8 125.277 13.5791   8 
  -5  -1   8 107.122 15.2455   5 
   5  -1  -8 102.569 20.4474   1 
   5   1   8 105.194 16.9191   7 
  -6  -1  -8 2.18695 7.65395   6 
  -6  -1  -8 2.38234 9.44316   1 
   6   1  -8 5.44981 10.0531   1 
   6  -1   8 -0.8358 7.14886   7 
   6  -1  -8 7.47355 11.7280   1 
  -6   1  -8 4.14606 7.89796   6 
  -6  -1   8 7.84811 6.58530   5 
   6   1   8 5.18056 7.66292   7 
  -7  -1  -8 612.449 59.7934   1 
   0   2   8 6366.76 379.802   8 
   0   2  -8 6033.36 383.914   1 
   0  -2  -8 5844.59 379.165   8 
   0  -2   8 5996.75 378.272   8 
   0  -2   8 5776.10 384.473   2 
   0  -2   8 6088.34 385.173   7 
   0   2   8 5714.05 379.567   5 
   0   2   8 5652.37 381.499   6 
   0  -2   8 5853.52 378.157   6 
   0   2  -8 5263.48 383.389   1 
   0  -2  -8 6555.98 393.416   1 
   0  -2  -8 5656.98 389.526   1 
  -1   2   8 737.819 48.3438   5 
  -1  -2  -8 720.945 45.5575   6 
  -1   2   8 733.699 49.3011   4 
  -1  -2  -8 742.421 47.3387   1 
   1   2  -8 764.904 48.3516   1 
   1  -2   8 741.079 48.6030   8 
  -1  -2  -8 702.921 49.6901   8 
  -1   2   8 783.639 47.3289   1 
  -1  -2  -8 799.082 47.9720   1 
   1  -2   8 749.179 48.5404   7 
  -1   2   8 807.396 52.1592   8 
   1   2  -8 743.800 48.5675   1 
  -1  -2   8 607.211 48.7370   2 
   1  -2  -8 640.673 49.4431   1 
  -1  -2   8 588.807 45.9171   3 
  -1   2  -8 617.483 46.2851   1 
  -1   2  -8 633.362 48.8168   2 
   1   2   8 598.957 46.2251   5 
   1  -2  -8 576.498 50.4162   8 
   1  -2  -8 588.177 48.9383   1 
   1   2   8 649.348 49.2737   8 
  -1   2  -8 653.829 46.5087   1 
  -1   2  -8 622.723 44.4067   6 
  -1  -2   8 645.422 45.7453   6 
  -2   2   8 142.758 15.8537   8 
  -2  -2  -8 114.650 10.0176   6 
  -2  -2  -8 116.553 12.2634   1 
   2  -2   8 141.360 10.1809   8 
   2  -2   8 133.435 13.8584   7 
  -2   2   8 124.599 12.9146   7 
  -2   2   8 114.876 12.3331   1 
  -2   2   8 121.955 12.5560   5 
  -2  -2  -8 113.656 12.8065   8 
  -2  -2  -8 122.014 12.2013   1 
  -2   2   8 136.524 15.1373   4 
   2   2  -8 112.321 13.7070   1 
  -2   2  -8 82.6118 11.7027   1 
   2  -2  -8 94.3948 13.4349   1 
  -2  -2   8 95.5161 11.6490   5 
   2   2   8 89.1317 11.2945   8 
   2  -2  -8 87.7814 14.4846   8 
  -2   2  -8 112.227 12.1876   1 
  -2  -2   8 114.559 11.0973   6 
   2  -2  -8 85.7244 14.0480   1 
  -2   2  -8 90.4260 13.0297   2 
  -2  -2   8 84.6581 8.77346   7 
   2   2   8 89.0029 9.40279   5 
  -2  -2   8 83.1616 10.8332   1 
  -3   2   8 81.0452 11.0010   7 
  -3  -2  -8 85.2341 12.4786   1 
  -3   2   8 93.9827 14.2081   4 
  -3  -2  -8 76.3274 9.17590   6 
   3   2  -8 72.4436 13.0465   1 
   3  -2   8 68.8162 11.2613   7 
  -3  -2  -8 87.5942 11.7675   1 
   3  -2   8 79.1091 10.8483   4 
  -3   2   8 88.9388 11.1304   5 
  -3  -2  -8 66.5176 10.0715   8 
  -3  -2   8 51.7405 6.99722   7 
  -3  -2   8 57.6391 9.29277   6 
  -3  -2   8 57.8795 10.3391   5 
  -3  -2   8 57.7467 10.4387   1 
  -3   2  -8 57.3173 11.3227   1 
   3   2   8 46.7131 6.10774   5 
   3  -2  -8 56.8071 13.3615   1 
  -3   2  -8 62.7082 11.1491   1 
   3   2   8 52.9472 8.76463   8 
  -4  -2  -8 850.894 60.9655   1 
   4  -2   8 821.784 59.9284   7 
  -4  -2  -8 766.743 60.9272   1 
   4   2  -8 767.560 62.9006   1 
  -4  -2  -8 777.700 56.5615   6 
  -4  -2  -8 802.376 56.9311   8 
  -4   2   8 821.648 57.7208   5 
   4  -2   8 766.558 58.7589   4 
   4   2   8 795.696 55.8914   8 
  -4  -2   8 751.414 54.0777   7 
  -4  -2   8 820.389 60.4145   6 
   4  -2  -8 799.053 65.0228   1 
  -4   2  -8 919.227 62.5971   1 
   4   2   8 739.759 51.4661   5 
  -4   2  -8 745.570 61.1526   1 
   4   2   8 823.759 59.6981   7 
  -4  -2   8 832.692 57.0615   5 
  -5  -2  -8 322.926 28.6051   8 
   5   2  -8 313.295 36.3152   1 
  -5  -2  -8 311.978 34.6204   1 
   5  -2   8 318.725 31.3112   4 
   5  -2   8 330.453 32.6710   7 
  -5  -2  -8 306.332 29.6524   6 
   5  -2  -8 393.653 40.2485   1 
  -5  -2   8 397.454 30.0534   5 
   5   2   8 379.700 32.7887   7 
  -5   2  -8 404.909 37.6511   1 
  -6  -2  -8 1115.32 83.7935   6 
  -6  -2  -8 1074.67 90.2238   1 
   6   2  -8 1128.65 92.6678   1 
   6   2   8 1190.52 85.5239   7 
  -6  -2   8 1246.77 81.7488   5 
   6  -2  -8 1225.40 96.0520   1 
  -7  -2  -8 102.898 25.3722   1 
   0   3  -8 38.3114 6.92999   1 
   0  -3   8 33.2659 5.78303   7 
   0  -3  -8 34.6445 6.49423   4 
   0  -3  -8 30.3283 8.37381   8 
   0   3   8 35.3269 9.56549   8 
   0  -3  -8 36.3930 7.87907   1 
   0   3   8 38.4268 6.45349   5 
   0   3   8 42.5891 6.36772   1 
   0   3  -8 56.3591 7.28880   1 
   0  -3   8 31.9234 5.14889   6 
   0  -3   8 35.4459 7.80395   2 
   0   3  -8 37.9736 5.50849   6 
   0  -3  -8 31.1343 7.09225   1 
  -1   3   8 1759.07 109.611   8 
  -1   3   8 1530.65 104.786   5 
   1  -3   8 1654.44 105.529   7 
  -1  -3  -8 1740.77 106.796   1 
  -1  -3  -8 1693.12 102.761   4 
   1   3  -8 1618.67 105.815   1 
   1   3  -8 1476.11 105.658   1 
  -1   3   8 1711.87 105.735   1 
  -1  -3  -8 1450.97 105.114   1 
  -1  -3  -8 1523.22 106.849   8 
  -1  -3  -8 1466.75 103.248   6 
  -1  -3   8 1566.95 104.502   3 
  -1   3  -8 1556.85 102.522   6 
   1  -3  -8 1592.16 106.237   4 
   1   3   8 1509.88 103.333   5 
  -1   3  -8 1636.08 105.059   1 
  -1  -3   8 1721.66 104.473   1 
  -1   3  -8 1577.20 105.365   1 
   1   3   8 1651.22 107.444   8 
  -1  -3   8 1572.56 102.009   7 
   1   3   8 1653.17 104.124   1 
   1  -3  -8 1659.75 109.057   1 
   1  -3  -8 1442.88 107.092   1 
  -1  -3   8 1611.66 107.577   2 
  -1   3  -8 1540.95 107.308   2 
   1  -3  -8 1472.22 108.159   8 
  -1  -3   8 1486.07 103.182   6 
  -2   3   8 717.825 52.3382   5 
   2   3  -8 768.312 54.3997   1 
  -2  -3  -8 733.769 53.3371   1 
   2  -3   8 760.322 49.7081   8 
   2   3  -8 699.912 54.4071   1 
  -2   3   8 721.614 56.4292   7 
  -2   3   8 836.768 56.9352   8 
  -2   3   8 759.993 53.4051   1 
   2  -3   8 753.799 53.5220   7 
  -2  -3  -8 691.610 53.2639   8 
  -2  -3  -8 811.748 53.8033   1 
  -2  -3  -8 717.391 50.5644   6 
  -2  -3   8 758.746 52.8008   1 
  -2  -3   8 629.263 51.7337   3 
  -2  -3   8 770.669 51.6467   6 
   2  -3  -8 730.850 54.7493   4 
   2   3   8 680.008 49.1191   5 
   2  -3  -8 739.719 57.2215   1 
   2  -3  -8 766.706 57.4424   8 
  -2   3  -8 657.575 53.1531   1 
   2   3   8 772.922 51.7203   1 
  -2   3  -8 765.270 55.3790   2 
  -2   3  -8 784.484 54.1382   1 
   2   3   8 748.265 53.2533   8 
   2  -3  -8 747.477 56.6735   1 
  -2   3  -8 762.885 50.3000   6 
   3  -3   8 2005.06 125.347   7 
  -3  -3  -8 1793.82 121.378   6 
  -3  -3  -8 1947.30 119.074   4 
  -3  -3  -8 1918.88 125.062   1 
  -3   3   8 1847.07 125.070   1 
  -3   3   8 1983.96 123.281   5 
   3   3  -8 1729.94 126.628   1 
  -3  -3  -8 1830.96 125.184   1 
  -3  -3  -8 1805.63 123.417   8 
   3  -3  -8 1727.00 128.733   1 
  -3   3  -8 1919.77 126.702   2 
  -3  -3   8 1866.94 122.201   5 
   3  -3  -8 1884.71 127.511   4 
   3   3   8 1780.89 122.453   8 
   3   3   8 1916.95 122.637   1 
  -3  -3   8 1790.09 124.273   1 
  -3  -3   8 1687.31 121.950   6 
  -3   3  -8 1847.46 125.865   1 
  -3   3  -8 1731.41 126.172   1 
   4  -3   8 695.720 53.8280   4 
  -4  -3  -8 684.897 50.5059   6 
  -4  -3  -8 735.827 49.2122   4 
  -4  -3  -8 686.236 51.4897   8 
   4   3  -8 679.338 56.8323   1 
  -4  -3  -8 664.923 54.7979   1 
   4  -3   8 757.267 54.5286   7 
   4   3   8 680.876 50.2547   8 
  -4   3  -8 723.915 56.1507   1 
  -4   3  -8 580.940 54.8282   1 
  -4  -3   8 732.522 50.6100   5 
   4  -3  -8 691.405 59.2362   1 
  -5  -3  -8 123.229 17.3238   8 
   5  -3   8 130.200 19.6178   7 
  -5  -3  -8 124.969 21.5417   1 
   5   3  -8 108.437 22.0031   1 
   5  -3   8 131.756 19.9211   4 
  -5  -3  -8 136.686 17.7459   6 
   5   3   8 147.605 19.0951   7 
  -5   3  -8 137.003 22.8281   1 
  -5  -3   8 160.091 17.1394   5 
   5  -3  -8 160.759 25.6071   1 
  -6  -3  -8 74.4920 19.9291   1 
  -6  -3  -8 73.9598 15.6822   6 
   6   3  -8 75.0916 22.0405   1 
   6  -3  -8 59.3374 21.2458   1 
   6   3   8 55.9079 15.1270   7 
  -6  -3   8 66.2625 13.6066   5 
  -6   3  -8 71.2731 21.7752   1 
  -7  -3  -8 456.129 50.1562   1 
   0   4   8 3699.17 239.205   1 
   0  -4  -8 3806.30 238.863   4 
   0  -4   8 3500.22 236.797   6 
   0   4  -8 3922.82 239.673   1 
   0   4   8 4125.41 243.156   8 
   0   4  -8 3431.95 239.302   1 
   0   4  -8 3692.57 236.918   6 
   0  -4  -8 3903.12 242.296   1 
   0  -4   8 3649.34 237.123   7 
   0  -4  -8 3477.04 241.562   8 
   0  -4  -8 3505.08 240.009   1 
   1   4  -8 886.427 64.7852   1 
  -1   4   8 856.499 60.9779   2 
  -1  -4  -8 985.597 66.5486   1 
   1   4  -8 859.918 65.0090   1 
  -1   4   8 984.202 65.3219   1 
  -1  -4  -8 928.684 62.6199   6 
  -1  -4  -8 881.443 65.8491   8 
   1   4  -8 918.868 62.5910   6 
   1  -4   8 917.045 63.6192   7 
  -1  -4  -8 929.884 65.1216   1 
  -1   4   8 1080.81 71.9134   8 
   1   4   8 980.738 66.8522   8 
   1  -4  -8 877.243 66.4270   1 
   1  -4  -8 862.906 67.0112   8 
   1  -4  -8 892.818 64.9242   4 
   1  -4  -8 973.393 61.2284   3 
   1  -4  -8 1034.02 70.0000   1 
   1   4   8 934.904 64.0031   1 
  -1  -4   8 845.305 59.5391   7 
  -1  -4   8 967.276 63.9285   1 
  -1   4  -8 904.851 66.8587   2 
  -1   4  -8 855.956 64.6698   1 
  -1  -4   8 820.390 63.3906   3 
  -1   4  -8 940.284 61.8004   6 
  -1   4  -8 1010.92 65.3282   1 
  -1  -4   8 898.947 62.2020   6 
   2   4  -8 297.840 26.3964   1 
   2  -4   8 304.008 25.2961   7 
  -2  -4  -8 325.732 26.7719   1 
  -2   4   8 342.715 26.7950   1 
   2  -4   8 301.836 21.5902   8 
   2  -4   8 286.590 20.3958   8 
  -2  -4  -8 283.661 22.8321   6 
  -2  -4  -8 283.866 25.6348   1 
  -2  -4  -8 282.407 25.5538   8 
   2   4  -8 276.841 26.4246   1 
  -2  -4   8 262.806 24.2981   1 
  -2  -4   8 226.581 23.7041   3 
   2  -4  -8 266.061 27.9716   1 
   2   4   8 264.231 24.8586   8 
  -2   4  -8 293.006 26.1814   1 
  -2   4  -8 276.276 27.7964   2 
  -2  -4   8 268.131 22.7531   6 
   2  -4  -8 296.977 28.2441   8 
   2   4   8 269.811 23.7535   1 
  -2   4  -8 257.781 25.1912   1 
  -2   4  -8 279.242 22.1086   6 
   2  -4  -8 274.285 26.7395   4 
  -3  -4  -8 15.0443 8.78618   1 
  -3  -4  -8 7.50264 5.15600   6 
  -3  -4  -8 11.9261 9.24701   1 
   3  -4   8 6.51828 5.99500   7 
   3   4  -8 10.9699 7.92904   1 
  -3  -4  -8 8.40246 6.80198   8 
  -3  -4   8 18.1417 7.59840   6 
  -3   4  -8 24.2321 7.51482   6 
  -3  -4   8 22.5701 7.64394   5 
   3  -4  -8 16.7575 11.6512   8 
   3  -4  -8 26.3910 11.6743   1 
  -3   4  -8 17.5217 10.3215   1 
   3  -4  -8 24.6908 12.4963   1 
  -3   4  -8 19.9767 10.4164   2 
   3  -4  -8 16.3673 9.91668   4 
  -3   4  -8 20.7387 9.60170   1 
  -4  -4  -8 690.183 55.2361   1 
   4   4  -8 707.573 56.9421   1 
   4  -4   8 654.604 52.9123   4 
   4  -4   8 709.557 53.3547   7 
  -4  -4  -8 698.605 51.8668   8 
  -4  -4  -8 672.497 49.9320   6 
  -4   4  -8 660.905 54.8048   2 
   4  -4  -8 617.311 57.4320   1 
  -4  -4   8 678.105 49.0879   5 
   4  -4  -8 655.375 55.5020   4 
  -4   4  -8 595.387 54.8952   1 
  -5  -4  -8 952.163 70.7655   6 
   5  -4   8 897.099 73.7915   4 
   5   4  -8 946.398 78.4269   1 
  -5  -4  -8 986.202 77.3013   1 
  -5  -4  -8 987.874 72.1921   8 
   5  -4   8 1027.25 74.8239   7 
  -5   4  -8 889.737 77.1191   1 
   5   4   8 1052.72 73.1828   7 
  -5  -4   8 1050.91 69.3735   5 
   5  -4  -8 979.994 81.4220   1 
  -6  -4  -8 689.877 64.4874   1 
   6   4  -8 671.659 64.6804   1 
  -6  -4  -8 636.202 56.2410   6 
  -6  -4   8 798.531 54.4332   5 
   6  -4  -8 779.151 70.2702   1 
  -6   4  -8 775.232 68.0091   1 
  -7  -4  -8 128.470 29.7253   1 
  -7   4  -8 148.364 32.0599   1 
   0   5  -8 121.185 12.5941   6 
   0  -5   8 115.148 11.7637   7 
   0   5  -8 125.029 14.8438   1 
   0  -5  -8 135.248 17.3674   1 
   0   5   8 121.781 14.5775   1 
   0  -5  -8 105.619 15.0190   1 
   0  -5   8 124.349 13.9528   1 
   0   5  -8 112.043 14.5901   1 
   0  -5  -8 117.883 13.8889   4 
   0  -5  -8 112.884 16.2303   8 
   0  -5   8 117.758 12.1113   6 
  -1   5   8 499.308 40.5812   1 
  -1  -5  -8 482.088 37.9673   6 
  -1  -5  -8 465.520 40.5590   1 
  -1  -5  -8 534.117 35.7042   2 
   1   5  -8 459.906 40.1515   1 
   1  -5   8 497.779 38.3765   7 
   1  -5   8 473.692 37.0964   8 
  -1   5   8 423.680 36.0152   2 
  -1  -5  -8 556.237 42.6020   1 
   1   5  -8 497.505 40.7517   1 
   1   5  -8 513.945 38.1439   6 
  -1  -5  -8 469.731 41.0524   8 
  -1   5  -8 561.565 37.7291   6 
  -1  -5   8 573.211 40.3104   1 
  -1   5  -8 544.756 43.3482   2 
  -1   5  -8 535.492 41.7933   1 
  -1  -5   8 536.852 37.8506   6 
   1  -5  -8 559.320 41.3011   4 
   1  -5  -8 496.946 41.9571   8 
   1  -5  -8 582.627 38.2504   3 
  -1   5  -8 562.682 41.4121   1 
  -1  -5   8 520.395 40.0482   3 
   1  -5  -8 522.797 42.5571   1 
   1   5   8 567.024 40.6238   1 
   2  -5   8 1476.94 94.6048   7 
  -2   5   8 1249.14 92.1096   2 
   2   5  -8 1497.53 93.3126   6 
  -2  -5  -8 1322.45 95.3057   1 
   2   5  -8 1598.17 97.8646   1 
  -2  -5  -8 1408.43 92.3949   6 
  -2  -5  -8 1594.30 98.0043   1 
  -2   5   8 1471.36 107.545   1 
   2   5  -8 1315.08 96.3668   1 
   2  -5   8 1391.79 89.1680   8 
  -2  -5  -8 1315.51 95.3923   8 
   2  -5  -8 1369.40 92.5279   3 
  -2  -5   8 1372.53 92.1276   6 
  -2   5  -8 1240.79 95.4409   1 
  -2   5  -8 1411.93 96.5784   1 
  -2   5  -8 1279.57 90.9961   6 
   2  -5  -8 1302.99 95.6104   4 
   2  -5  -8 1522.48 101.335   1 
  -2  -5   8 1168.04 93.4380   3 
  -2   5  -8 1306.85 97.2893   2 
   2  -5  -8 1199.22 95.7641   8 
   2  -5  -8 1249.54 97.8870   1 
  -3  -5  -8 682.292 52.3734   8 
  -3  -5  -8 675.017 49.1502   6 
  -3  -5  -8 670.889 53.4989   1 
   3  -5   8 754.647 52.7574   7 
   3   5  -8 673.315 54.6743   1 
  -3   5  -8 663.992 54.6483   2 
   3  -5  -8 650.445 54.2266   8 
  -3   5  -8 595.974 53.3858   1 
   3  -5  -8 640.082 53.8815   4 
   3  -5  -8 627.392 55.6495   1 
  -3   5  -8 725.687 49.2766   6 
  -4  -5  -8 796.111 58.4571   6 
   4  -5   8 760.662 61.4011   4 
  -4  -5  -8 769.314 63.0662   1 
   4   5  -8 719.907 63.5989   1 
   4  -5   8 897.815 63.0700   7 
  -4  -5  -8 798.511 60.8544   8 
  -4  -5   8 793.990 56.9547   5 
  -4   5  -8 806.433 65.8624   1 
   4  -5  -8 835.495 65.1076   4 
   4  -5  -8 751.346 66.6692   1 
  -4   5  -8 788.803 63.8661   2 
  -5  -5  -8 82.6391 20.6169   1 
   5   5  -8 76.8184 20.9279   1 
  -5  -5  -8 88.4339 16.4756   6 
   5  -5   8 103.827 19.9927   4 
  -5  -5  -8 89.7178 16.7310   8 
   5  -5   8 89.3323 18.3931   7 
  -5  -5   8 107.198 14.7982   5 
   5  -5  -8 111.364 24.8280   1 
   5   5   8 103.241 18.0726   7 
  -5   5  -8 110.816 21.5261   2 
  -5   5  -8 90.6818 21.8315   1 
  -6  -5  -8 192.221 25.0428   6 
   6   5  -8 195.932 31.8687   1 
  -6  -5  -8 201.770 31.2577   1 
  -6   5  -8 200.574 32.8160   1 
   0  -6  -8 830.710 66.4277   1 
   0   6  -8 999.498 67.4031   1 
   0   6  -8 945.671 63.1504   6 
   0  -6  -8 872.669 67.0828   8 
   0   6  -8 813.732 65.7192   1 
   0  -6   8 979.079 63.2045   6 
   0  -6   8 883.955 61.7052   7 
   0  -6   8 892.666 64.0119   8 
  -1  -6  -8 1346.64 101.146   1 
   1   6  -8 1378.16 101.502   1 
   1  -6   8 1542.47 98.3738   7 
   1   6  -8 1595.76 98.8100   6 
   1   6  -8 1557.22 102.473   1 
  -1  -6  -8 1367.39 101.579   8 
   1  -6   8 1396.41 96.9781   8 
  -1  -6   8 1528.24 100.991   6 
   1  -6  -8 1396.40 102.940   1 
  -1   6  -8 1354.46 101.794   1 
  -1   6  -8 1532.82 104.765   2 
   1  -6  -8 1312.33 101.634   8 
  -1  -6   8 1400.70 100.373   3 
  -1  -6   8 1385.05 99.9688   8 
   1  -6  -8 1527.09 98.6618   3 
  -1   6  -8 1583.62 102.610   1 
   1  -6  -8 1457.29 101.082   4 
  -1   6  -8 1385.72 97.7166   7 
  -1   6  -8 1532.07 97.6880   6 
  -2  -6  -8 125.107 19.1131   1 
  -2  -6  -8 158.884 20.1070   8 
   2   6  -8 124.661 19.2368   1 
   2  -6   8 136.306 13.3967   8 
  -2   6   8 133.059 16.4336   2 
   2  -6   8 144.473 17.4915   7 
   2   6  -8 160.293 17.7623   6 
  -2  -6  -8 126.882 16.1663   6 
  -2   6  -8 165.355 22.3795   2 
   2  -6  -8 160.631 21.9881   1 
   2  -6  -8 197.590 19.4358   3 
  -2   6  -8 156.924 16.2647   6 
   2  -6  -8 185.484 21.7162   4 
  -2  -6   8 152.055 18.6536   3 
   2  -6  -8 154.424 20.3777   8 
  -2   6  -8 163.005 20.5404   1 
  -3  -6  -8 17.3761 9.55286   6 
  -3  -6  -8 28.4839 11.8175   8 
  -3   6   8 22.0374 10.6100   2 
  -3  -6  -8 15.4515 12.2263   1 
   3   6  -8 18.3367 13.1417   1 
   3  -6   8 20.3292 12.0167   7 
   3  -6  -8 55.8865 14.3822   4 
  -3   6  -8 47.0519 14.4473   1 
   3  -6  -8 45.7901 15.4748   1 
   3  -6  -8 37.9271 14.6300   8 
  -3   6  -8 52.4556 15.6333   2 
   4  -6   8 259.573 27.2223   7 
  -4  -6  -8 221.239 28.5503   1 
  -4  -6  -8 232.460 24.4219   6 
  -4  -6  -8 231.670 26.4991   8 
   4   6  -8 220.790 29.7334   1 
   4  -6  -8 225.182 27.5225   8 
  -4  -6   8 253.681 23.2009   5 
  -4   6  -8 241.390 30.9654   2 
   4  -6  -8 232.045 28.9702   4 
  -4   6  -8 228.582 29.7156   1 
   4  -6  -8 232.036 31.9736   1 
   5  -6   8 1351.85 104.525   4 
   5   6  -8 1387.10 109.143   1 
  -5  -6  -8 1405.54 108.349   1 
  -5  -6  -8 1421.44 103.776   8 
  -5  -6  -8 1339.15 100.445   6 
  -5   6  -8 1414.86 107.456   2 
  -5   6  -8 1512.12 111.276   1 
   5  -6  -8 1438.13 112.201   1 
  -5  -6   8 1563.69 98.4202   5 
  -6  -6  -8 168.007 29.7513   1 
   6   6  -8 137.957 34.0566   1 
  -6   6  -8 196.793 31.3320   1 
   0   7  -8 3.56752 6.46737   1 
   0  -7  -8 6.98066 7.72541   8 
   0  -7   8 5.05495 4.29592   7 
   0  -7   8 3.54268 6.09553   8 
   0  -7  -8 4.49417 6.89791   1 
   1   7  -8 46.6037 13.8254   1 
   1  -7   8 58.8867 11.2928   7 
   1  -7   8 49.8118 10.2297   8 
  -1  -7  -8 59.7595 14.4319   8 
  -1  -7  -8 52.5486 14.4359   1 
   1  -7  -8 87.3734 17.1100   1 
   1  -7  -8 88.5301 14.3050   3 
  -1  -7   8 92.2790 15.3159   3 
  -1   7  -8 86.2174 16.5785   1 
  -1  -7   8 79.2515 13.8622   8 
   1  -7  -8 82.3112 14.5827   4 
  -1   7  -8 59.6047 14.9334   7 
   1  -7  -8 83.8698 15.9924   8 
  -2  -7  -8 1692.42 120.118   1 
  -2   7   8 1534.58 114.885   2 
   2  -7   8 1876.76 116.700   7 
  -2  -7  -8 1715.64 115.681   6 
  -2  -7  -8 1662.98 119.288   8 
   2   7  -8 1704.69 120.894   1 
   2  -7  -8 1757.03 120.007   4 
  -2   7  -8 1777.14 122.717   2 
   2  -7  -8 1658.44 122.243   1 
  -2  -7   8 1674.40 118.145   8 
  -2  -7   8 1545.10 117.363   3 
  -2   7  -8 1625.77 119.857   1 
   2  -7  -8 1664.29 119.826   8 
   2  -7  -8 1836.76 117.732   3 
  -3  -7  -8 209.062 27.0604   1 
  -3  -7  -8 224.007 25.9797   8 
   3  -7   8 234.927 24.3890   7 
   3   7  -8 191.027 26.1763   1 
  -3  -7  -8 208.011 22.3597   6 
  -3   7   8 213.953 23.6269   2 
  -3   7  -8 217.833 28.4291   2 
  -3   7  -8 180.502 25.9371   1 
  -3  -7   8 185.877 25.5660   8 
   3  -7  -8 201.273 25.6627   4 
   3  -7  -8 186.039 25.1436   8 
   3  -7  -8 201.505 28.0429   1 
  -3  -7   8 198.477 25.1859   3 
  -4  -7  -8 885.000 69.1323   6 
  -4  -7  -8 858.578 74.1407   1 
   4   7  -8 884.711 76.5298   1 
  -4   7   8 841.990 70.5876   2 
   4  -7   8 1010.24 72.3840   7 
  -4   7  -8 1014.55 77.7017   2 
  -4   7  -8 917.853 76.2352   1 
   4  -7  -8 907.687 73.0541   8 
  -4  -7   8 1029.98 67.5493   5 
   4  -7  -8 971.008 79.6480   1 
   5   7  -8 41.6720 21.4077   1 
  -5  -7  -8 46.6947 20.3756   1 
  -5  -7  -8 51.0592 15.8673   6 
   5  -7  -8 49.5487 28.0576   1 
  -5   7  -8 38.8424 19.4786   1 
  -5  -7   8 42.5960 13.0830   5 
  -6  -7  -8 225.870 36.0267   1 
  -6   7  -8 259.947 37.3920   1 
   0   8  -8 94.5664 18.2585   1 
   0  -8  -8 89.2467 18.8000   1 
   0  -8  -8 110.160 17.1853   3 
   0  -8  -8 102.280 18.0342   8 
   0  -8   8 101.253 15.3358   8 
   1  -8   8 1110.40 83.0870   8 
   1   8  -8 1129.60 89.5968   1 
  -1  -8  -8 1110.79 88.6277   8 
  -1  -8  -8 1116.57 89.3809   1 
   1  -8   8 1249.56 84.8991   7 
   1  -8  -8 1245.86 90.0633   8 
   1  -8  -8 1242.89 91.8699   1 
  -1   8  -8 1222.26 90.7670   1 
  -1  -8   8 1177.80 89.0093   3 
   1  -8  -8 1342.47 86.9010   3 
  -1  -8   8 1213.14 87.1016   8 
   1  -8  -8 1300.74 89.8601   4 
  -2  -8  -8 60.5944 13.9801   6 
   2   8  -8 54.5560 17.5557   1 
  -2  -8  -8 72.6240 22.1287   8 
   2  -8   8 73.7730 14.6096   7 
  -2  -8  -8 51.7468 17.5061   1 
   2  -8  -8 86.4744 20.2721   1 
  -2   8  -8 82.2753 20.0574   2 
   2  -8  -8 73.2189 16.7652   8 
  -2  -8   8 76.4657 16.2866   8 
  -2   8  -8 85.0282 18.8859   1 
   2  -8  -8 86.4269 17.6507   4 
   2  -8  -8 87.6870 17.9754   3 
  -2  -8   8 69.8209 16.6186   3 
  -3  -8  -8 4.03497 8.06275   6 
  -3  -8  -8 6.03236 9.90360   1 
   3  -8   8 4.14075 7.98404   7 
   3   8  -8 4.45894 9.82026   1 
  -3   8  -8 29.1661 17.3453   2 
  -3   8  -8 22.4404 15.8077   1 
   3  -8  -8 26.9412 16.7472   1 
   3  -8  -8 21.4291 16.5050   4 
  -3  -8   8 25.0549 15.1796   3 
   3  -8  -8 30.9096 16.0662   3 
  -4  -8  -8 78.6737 17.1665   6 
  -4  -8  -8 72.0094 21.5257   1 
   4   8  -8 81.5541 22.0498   1 
   4  -8   8 98.9179 19.9428   7 
  -4  -8   8 86.5046 14.2667   5 
   4  -8  -8 88.2280 23.5600   1 
  -4   8  -8 90.1930 22.8909   1 
   5   8  -8 1169.78 97.8238   1 
  -5  -8  -8 1203.22 96.9000   1 
  -5   8  -8 1234.15 98.3227   1 
   0  -9  -8 9.96168 10.2451   3 
   0  -9   8 4.29840 9.53763   3 
   0  -9   8 8.56284 7.40299   8 
   0   9  -8 3.84315 8.87596   1 
   0  -9  -8 8.05855 9.70798   1 
  -1  -9  -8 11.0387 11.0104   1 
   1   9  -8 6.65216 9.42457   1 
   1  -9  -8 19.8025 14.5314   3 
  -1   9  -8 14.8555 11.5874   1 
   1  -9  -8 16.4905 11.7926   1 
  -1  -9   8 17.1733 12.2643   3 
  -1  -9   8 16.4357 9.98731   8 
   2   9  -8 1030.08 83.2055   1 
  -2  -9  -8 1056.60 77.3448   6 
  -2  -9  -8 1065.90 83.4705   1 
  -2  -9   8 975.018 80.5099   3 
   2  -9  -8 1097.05 79.7389   3 
   2  -9  -8 1051.09 83.0529   4 
   2  -9  -8 1025.53 84.8745   1 
  -2   9  -8 1038.89 83.5800   1 
   3  -9   8 28.3006 14.7325   7 
  -3  -9  -8 29.6255 17.3826   1 
   3   9  -8 29.1048 18.7369   1 
  -3  -9  -8 23.4594 14.9543   6 
   3  -9  -8 39.9360 19.9607   1 
  -3  -9   8 47.0451 18.3856   3 
   3  -9  -8 46.0976 19.5487   3 
  -3   9  -8 43.3381 19.2915   1 
  -4  -9  -8 704.462 66.8190   1 
   4   9  -8 686.431 67.5711   1 
  -4   9  -8 849.008 70.3132   1 
   0 -10  -8 65.6390 20.6059   1 
   0  10  -8 75.6546 21.2982   1 
  -1 -10  -8 911.023 75.6779   1 
   1  10  -8 890.289 74.7476   1 
  -1  10  -8 907.713 75.8950   1 
  -1 -10   8 833.540 73.6621   3 
   1 -10  -8 876.423 76.3654   1 
   1 -10  -8 999.154 72.4749   3 
  -2 -10  -8 11.6819 12.9445   1 
   2  10  -8 11.4616 11.9715   1 
   2 -10  -8 19.0472 14.2935   1 
  -2  10  -8 19.2681 13.5326   1 
   2 -10  -8 28.6548 15.7122   3 
  -2 -10   8 22.3496 15.2017   3 
   3  10  -8 17.1955 14.6753   1 
  -3 -10  -8 16.1496 13.9211   1 
  -3 -10   8 14.6393 15.2589   3 
  -3  10  -8 18.0947 14.2994   1 
   3 -10  -8 17.9930 15.6711   3 
   0  11  -8 15.5254 13.2944   1 
   1  11  -8 38.1443 21.5667   1 
   1 -11  -8 54.2435 20.2275   3 
  -1  11  -8 53.7556 21.7593   1 
   0   0   9 2.91768 3.22681   5 
   0   0   9 2.13897 2.50621   2 
   0   0  -9 8.22707 2.78484   1 
   0   0  -9 2.53429 1.73435   1 
   0   0   9 1.16582 4.24313   8 
   1   0  -9 132.082 12.5125   1 
  -1   0  -9 133.529 13.9405   8 
   1   0  -9 109.677 12.2525   1 
  -1   0   9 146.159 15.9068   8 
  -1   0   9 131.465 13.3435   5 
  -1   0  -9 137.937 12.0585   2 
  -1   0   9 133.231 13.9979   4 
   1   0   9 147.131 14.4754   8 
  -1   0  -9 122.115 9.43886   1 
  -2   0   9 2993.19 200.478   4 
  -2   0  -9 3063.64 197.694   2 
   2   0  -9 2834.67 199.399   1 
  -2   0   9 3072.63 198.403   5 
   2   0   9 2996.60 196.816   8 
  -2   0   9 3268.61 197.523   1 
  -2   0  -9 3013.24 196.468   1 
  -2   0  -9 3026.16 197.856   8 
  -2   0   9 2982.83 197.287   7 
   2   0  -9 3118.52 199.526   1 
  -2   0  -9 3007.94 195.380   6 
  -2   0   9 3268.41 202.568   8 
   3   0   9 64.4715 7.04562   8 
  -3   0   9 23.1138 10.0479   4 
   3   0  -9 30.3999 10.1934   1 
  -3   0  -9 34.8515 8.36546   1 
   3   0   9 34.0084 9.33288   7 
  -3   0   9 40.4897 7.75207   7 
  -3   0  -9 31.9159 6.10649   6 
  -3   0   9 31.5328 8.58540   5 
  -3   0   9 31.9842 8.17908   1 
   3   0  -9 36.0153 9.84707   1 
  -3   0  -9 33.0919 6.96117   8 
  -4   0  -9 1699.72 120.022   6 
  -4   0   9 1919.27 122.202   5 
  -4   0  -9 1836.74 118.808   8 
  -4   0  -9 1881.69 125.093   1 
   4   0  -9 1734.58 127.612   1 
  -4   0   9 1820.66 122.151   7 
   4   0   9 1833.62 124.172   7 
   5   0  -9 267.193 31.7082   1 
  -5   0  -9 242.822 24.4811   6 
   5   0   9 272.118 27.7450   7 
  -5   0   9 297.690 26.1185   5 
  -6   0   9 219.224 22.8722   5 
   6   0  -9 213.396 31.6454   1 
  -6   0  -9 167.015 21.7785   6 
   7   0  -9 6.77947 13.3634   1 
  -7   0  -9 3.86338 10.9871   1 
   0  -1  -9 58.7956 7.03056   1 
   0  -1   9 43.0233 6.83962   2 
   0  -1  -9 41.2904 9.16318   8 
   0   1   9 44.7956 6.19387   4 
   0  -1   9 42.1519 9.13372   8 
   0   1  -9 41.9985 5.03114   1 
   0  -1  -9 46.0472 6.12474   1 
   0   1   9 47.1175 9.40038   8 
   0   1   9 49.8553 4.92009   6 
   0   1  -9 46.8928 5.11959   1 
   0   1   9 49.8161 7.45817   5 
   1   1  -9 2574.53 167.298   1 
  -1  -1  -9 2521.05 167.800   1 
  -1  -1  -9 2746.85 168.618   1 
  -1  -1  -9 2562.09 169.248   8 
  -1   1   9 2857.74 171.974   8 
  -1  -1  -9 2769.33 166.988   2 
  -1   1   9 2738.33 168.149   5 
   1  -1   9 2806.98 169.067   8 
  -1   1   9 2582.65 168.414   4 
   1   1   9 2472.67 166.552   5 
   1  -1  -9 2334.38 167.801   1 
  -1   1  -9 2648.45 167.747   2 
  -1  -1   9 2519.61 167.637   5 
  -1   1  -9 2525.65 165.829   1 
   1  -1  -9 2547.89 167.919   1 
  -1  -1   9 2223.69 164.431   3 
  -1  -1   9 2609.63 170.888   8 
   1   1   9 2655.15 169.379   8 
  -1  -1   9 2585.28 164.864   6 
  -1  -1   9 2621.77 168.154   2 
  -1   1  -9 2286.71 164.969   1 
  -2   1   9 56.2849 10.4857   4 
   2  -1   9 55.7762 9.93316   7 
   2   1  -9 65.7303 10.2728   1 
  -2  -1  -9 63.2609 9.27795   8 
  -2   1   9 66.6662 9.21093   7 
  -2  -1  -9 57.0562 7.91139   1 
   2   1  -9 56.5661 9.90858   1 
  -2   1   9 83.3994 12.6192   8 
  -2  -1  -9 63.3716 7.90689   1 
  -2   1   9 55.4693 9.13271   5 
   2  -1   9 63.2185 7.37621   8 
  -2  -1  -9 61.0640 5.64122   6 
  -2   1  -9 33.6253 6.76318   1 
  -2  -1   9 35.6917 8.16642   5 
   2   1   9 42.8006 6.68327   5 
  -2   1  -9 30.0573 6.32107   1 
  -2   1  -9 35.6696 4.72579   6 
  -2   1  -9 41.7034 8.91504   2 
   2   1   9 46.7986 7.87531   8 
   2  -1  -9 32.3712 9.29133   1 
  -2  -1   9 40.4037 6.78514   6 
   2  -1  -9 35.9927 9.01211   1 
  -2  -1   9 48.5267 11.2033   8 
  -2  -1   9 41.3283 6.44981   7 
  -2  -1   9 43.9890 7.13116   1 
  -3   1   9 23.7817 9.10156   4 
   3  -1   9 30.1773 9.07333   7 
   3  -1   9 25.4365 4.35816   8 
  -3  -1  -9 31.7099 6.02303   6 
  -3   1   9 28.0970 8.36270   5 
  -3  -1  -9 32.8456 7.79299   8 
  -3  -1  -9 31.5455 8.08901   1 
   3  -1   9 25.5008 5.98094   4 
   3   1  -9 28.9821 9.97670   1 
  -3   1   9 26.6111 7.51709   7 
  -3  -1  -9 33.5208 8.37006   1 
  -3   1  -9 12.8265 7.12279   1 
  -3  -1   9 21.8855 7.41023   1 
  -3   1  -9 13.5366 5.27565   6 
   3  -1  -9 20.4026 9.79197   1 
   3   1   9 12.6954 5.78050   8 
  -3   1  -9 17.3660 7.26341   1 
  -3  -1   9 17.2002 7.67144   5 
   3  -1  -9 20.9545 8.91942   1 
  -3  -1   9 16.0700 5.68674   7 
   3  -1  -9 22.0378 4.74281   3 
  -3  -1   9 23.6056 6.90137   6 
  -4   1   9 369.220 29.8718   5 
   4  -1   9 361.826 31.2532   7 
  -4  -1  -9 325.020 31.1621   1 
  -4  -1  -9 328.016 27.2034   6 
  -4  -1  -9 368.318 31.8134   1 
   4   1  -9 316.111 33.6908   1 
  -4  -1  -9 325.313 26.8441   8 
  -4  -1   9 331.977 27.4792   7 
   4   1   9 343.301 25.9827   8 
  -4   1  -9 367.718 31.9748   1 
   4  -1  -9 319.703 34.2675   1 
   4   1   9 343.616 30.6867   7 
  -4  -1   9 354.289 29.0739   5 
  -4   1  -9 322.576 27.4144   6 
  -5   1   9 2725.49 172.289   5 
  -5  -1  -9 2510.20 171.806   6 
   5   1  -9 2494.56 180.020   1 
  -5  -1  -9 2441.44 176.863   1 
   5  -1   9 2706.65 175.416   7 
   5   1   9 2612.23 174.745   7 
   5  -1  -9 2645.82 181.708   1 
  -5   1  -9 2417.47 171.817   6 
  -5  -1   9 2823.58 172.346   5 
   6   1  -9 62.4048 20.4100   1 
  -6  -1  -9 61.5045 19.2886   1 
  -6  -1  -9 58.3897 14.1276   6 
  -6   1  -9 84.0143 15.6411   6 
  -6  -1   9 101.785 15.7579   5 
   6  -1  -9 109.688 24.9140   1 
   7   1  -9 430.260 49.9363   1 
  -7  -1  -9 397.001 46.5929   1 
   0  -2   9 10.4472 2.65264   6 
   0   2   9 12.8328 7.31298   8 
   0  -2   9 9.77946 5.53486   2 
   0  -2  -9 8.67569 5.65541   8 
   0  -2  -9 9.41014 4.73864   1 
   0  -2   9 13.4234 6.69899   8 
   0   2   9 7.70942 4.16578   5 
   0  -2  -9 7.89660 5.17909   1 
   0   2  -9 10.6118 3.91594   1 
   0   2  -9 14.9026 4.01160   1 
  -1   2   9 267.598 21.1380   5 
  -1  -2  -9 245.809 19.2906   1 
  -1  -2  -9 261.886 22.8150   8 
  -1   2   9 262.327 21.7554   4 
   1   2  -9 248.003 20.6447   1 
   1  -2   9 261.991 21.2584   8 
  -1  -2  -9 265.857 20.0420   1 
   1  -2   9 280.049 21.3646   7 
   1   2  -9 263.736 20.7581   1 
  -1   2   9 296.595 24.8677   8 
  -1  -2   9 222.290 21.2881   2 
  -1   2  -9 235.765 18.4772   1 
   1  -2  -9 210.790 21.4711   1 
   1  -2  -9 237.684 22.1555   1 
  -1   2  -9 231.022 16.3240   6 
   1  -2  -9 240.236 24.1283   8 
   1   2   9 237.907 19.4812   5 
   1   2   9 261.711 22.4609   8 
  -1   2  -9 222.137 18.6143   1 
  -1  -2   9 221.195 17.8609   6 
  -1  -2   9 209.850 18.2029   3 
  -1   2  -9 245.956 21.6003   2 
   2  -2   9 1796.53 115.881   8 
   2  -2   9 1846.03 119.495   7 
  -2  -2  -9 1731.94 115.239   6 
   2   2  -9 1666.30 119.783   1 
  -2   2   9 1803.54 118.660   5 
  -2  -2  -9 1738.60 117.955   1 
  -2   2   9 1809.07 121.171   4 
  -2  -2  -9 1710.00 119.006   8 
  -2  -2  -9 1869.72 118.084   1 
  -2   2   9 1831.68 119.439   7 
   2   2   9 1851.31 119.064   8 
  -2  -2   9 1844.64 116.954   6 
   2   2   9 1750.13 115.805   5 
   2  -2  -9 1747.28 121.981   1 
  -2  -2   9 1851.85 117.456   1 
  -2   2  -9 1600.73 117.847   1 
  -2   2  -9 1828.75 114.631   6 
   2  -2  -9 1941.69 122.318   1 
  -2  -2   9 1773.28 118.128   5 
  -2  -2   9 1669.87 114.861   7 
  -2   2  -9 1742.49 118.028   1 
  -2   2  -9 1833.10 120.093   2 
   3   2  -9 239.121 25.6518   1 
  -3  -2  -9 265.659 20.8569   6 
  -3   2   9 242.954 22.8179   5 
   3  -2   9 234.926 22.2900   4 
  -3  -2  -9 243.152 23.6571   1 
  -3  -2  -9 252.312 22.5615   8 
   3  -2   9 242.340 17.1304   8 
  -3  -2  -9 271.399 23.9235   1 
   3  -2   9 257.158 24.2578   7 
  -3   2  -9 277.545 24.5627   1 
  -3   2  -9 244.239 24.0499   1 
  -3  -2   9 247.963 19.6125   7 
  -3  -2   9 264.746 22.7109   5 
   3  -2  -9 271.352 27.8877   1 
   3   2   9 238.485 18.8056   5 
  -3  -2   9 269.455 23.8793   1 
   3  -2  -9 299.228 27.8147   1 
  -3  -2   9 260.124 22.1130   6 
  -3   2  -9 268.625 25.3805   2 
   3   2   9 285.222 22.4215   8 
   4  -2   9 1092.29 82.3537   4 
   4   2  -9 1098.21 87.2895   1 
  -4  -2  -9 1138.40 85.6154   1 
   4  -2   9 1199.82 84.6038   7 
  -4   2   9 1234.40 82.6985   5 
  -4  -2  -9 1218.41 85.1432   1 
  -4  -2  -9 1069.35 80.9282   8 
  -4  -2  -9 1086.49 80.3630   6 
  -4   2  -9 1072.06 85.1593   1 
  -4   2  -9 1335.68 86.3088   1 
   4   2   9 1260.30 84.5709   7 
   4  -2  -9 1261.96 90.6449   1 
   4   2   9 1215.48 80.5113   8 
  -4  -2   9 1305.25 82.3429   5 
  -5  -2  -9 173.689 24.4906   1 
   5  -2   9 201.641 23.4191   7 
   5   2  -9 171.535 26.4723   1 
  -5  -2  -9 189.131 19.8982   6 
  -5  -2  -9 188.596 20.1618   8 
   5  -2   9 169.343 27.7012   4 
   5  -2  -9 162.886 26.6341   1 
  -5  -2   9 196.038 20.2758   5 
  -5   2  -9 164.739 24.1137   1 
   5   2   9 164.674 21.4436   7 
  -6  -2  -9 214.732 24.6546   6 
  -6  -2  -9 224.367 30.7846   1 
   6   2  -9 228.145 33.0521   1 
  -6  -2   9 245.751 23.6070   5 
   6  -2  -9 240.129 33.8052   1 
  -7  -2  -9 70.1541 23.1085   1 
   7   2  -9 69.5035 33.2481   1 
  -7  -2   9 63.2976 15.4608   5 
   0   3  -9 1668.01 110.955   6 
   0  -3  -9 1577.01 113.682   1 
   0  -3  -9 1735.35 115.450   1 
   0  -3   9 1711.44 112.481   7 
   0  -3  -9 1823.12 113.054   4 
   0   3  -9 1793.27 113.158   1 
   0  -3  -9 1638.58 116.864   8 
   0   3   9 1631.25 112.919   5 
   0   3   9 1859.45 117.782   8 
   0   3  -9 1638.14 113.035   1 
   0  -3   9 1701.34 115.880   2 
   0  -3   9 1867.27 111.283   6 
   1   3  -9 2249.63 152.594   1 
  -1   3   9 2506.28 151.695   1 
  -1   3   9 2365.60 152.228   5 
  -1  -3  -9 2607.68 153.775   1 
  -1  -3  -9 2346.51 154.978   8 
   1  -3   9 2362.96 152.157   7 
  -1  -3  -9 2459.33 148.790   4 
  -1   3   9 2141.78 148.870   2 
  -1   3   9 2643.43 157.487   8 
   1   3  -9 2392.43 152.715   1 
   1  -3   9 2284.14 152.393   8 
  -1  -3  -9 2322.11 152.161   1 
   1  -3  -9 2215.64 154.415   1 
   1   3   9 2281.36 150.561   5 
  -1   3  -9 2208.37 151.705   1 
  -1   3  -9 2335.25 151.394   1 
  -1  -3   9 2008.40 150.465   3 
   1   3   9 2380.34 154.628   8 
   1  -3  -9 2247.86 155.530   1 
  -1  -3   9 2255.63 149.782   6 
   1  -3  -9 2235.03 156.277   8 
  -1  -3   9 2251.78 149.042   7 
  -1   3  -9 2351.85 154.599   2 
  -1   3  -9 2302.66 148.805   6 
   1  -3  -9 2413.70 153.459   4 
   2   3  -9 243.338 21.9287   1 
  -2  -3  -9 227.426 21.5480   8 
  -2   3   9 229.456 20.1367   5 
  -2   3   9 250.969 20.7975   1 
  -2  -3  -9 252.624 20.9710   1 
   2  -3   9 249.808 17.8160   8 
   2  -3   9 234.508 21.1538   7 
   2   3  -9 200.798 21.3863   1 
  -2  -3  -9 233.411 17.9098   6 
  -2  -3  -9 242.530 21.0203   1 
  -2   3  -9 192.678 20.0820   1 
   2  -3  -9 223.568 23.6158   1 
  -2   3  -9 193.064 16.5882   6 
   2   3   9 223.608 20.8826   8 
   2  -3  -9 192.598 23.1447   8 
   2   3   9 198.895 16.7725   5 
  -2  -3   9 208.395 18.3793   6 
  -2   3  -9 210.838 20.3251   1 
   2  -3  -9 222.942 22.5120   4 
  -2  -3   9 193.890 19.0968   3 
  -2  -3   9 206.318 19.3193   5 
  -2  -3   9 210.824 19.2288   1 
   2  -3  -9 203.106 23.2778   1 
  -2   3  -9 204.469 22.1017   2 
   3   3  -9 45.5933 12.4733   1 
  -3  -3  -9 51.8515 11.7621   1 
  -3  -3  -9 52.4519 10.9964   1 
  -3  -3  -9 42.9221 10.6828   8 
   3  -3   9 43.1509 11.0146   7 
  -3   3   9 49.9390 10.6200   5 
  -3  -3  -9 50.9330 8.74023   6 
  -3   3  -9 58.4154 12.5882   1 
   3   3   9 67.5082 10.7350   8 
   3   3   9 64.3682 6.23867   5 
  -3  -3   9 67.5719 10.0679   6 
  -3   3  -9 70.5862 12.1260   1 
   3  -3  -9 66.1067 15.2414   1 
  -3   3  -9 70.9074 13.9220   2 
  -3  -3   9 67.6823 10.7266   5 
  -4  -3  -9 731.559 55.6783   8 
   4  -3   9 796.796 58.4146   7 
  -4  -3  -9 752.649 59.3827   1 
   4  -3   9 730.887 57.3492   4 
  -4  -3  -9 708.333 53.7722   6 
   4   3  -9 723.870 60.7470   1 
  -4  -3   9 785.896 55.0136   5 
   4   3   9 776.138 54.8367   8 
   4  -3  -9 768.028 63.5046   1 
  -4   3  -9 801.598 60.0564   2 
  -4   3  -9 720.623 59.6007   1 
   5   3  -9 1742.07 128.791   1 
   5  -3   9 1955.69 125.514   7 
  -5  -3  -9 1808.31 127.330   1 
  -5  -3  -9 1790.69 120.824   8 
   5  -3   9 1595.13 122.835   4 
  -5  -3  -9 1746.68 120.441   6 
  -5   3  -9 1793.26 128.698   1 
   5  -3  -9 1787.87 132.000   1 
   5   3   9 1756.01 122.613   7 
  -5  -3   9 1767.54 119.415   5 
   6   3  -9 312.813 40.5871   1 
  -6  -3  -9 334.523 39.8042   1 
  -6  -3  -9 342.727 33.6516   6 
   6  -3  -9 385.257 45.2695   1 
  -6  -3   9 413.794 33.0161   5 
  -6   3  -9 405.582 43.0913   1 
  -7  -3  -9 227.231 34.8876   1 
   0  -4   9 73.1807 8.99079   7 
   0  -4  -9 81.5909 12.7438   1 
   0  -4  -9 74.3936 10.1847   4 
   0  -4  -9 68.1420 11.1740   1 
   0   4   9 86.6328 10.5008   1 
   0   4  -9 83.4371 9.21953   6 
   0   4  -9 80.1846 11.1788   1 
   0  -4  -9 81.2720 13.9130   8 
   0   4  -9 80.3237 10.7685   1 
   0   4   9 74.5501 9.65988   5 
   0  -4   9 82.1126 8.74203   6 
  -1  -4  -9 620.273 50.7010   8 
   1  -4   9 694.439 48.9081   7 
   1   4  -9 717.893 50.4538   1 
  -1   4   9 600.864 44.6938   2 
  -1  -4  -9 700.975 51.1887   1 
  -1   4   9 685.230 48.5583   5 
   1   4  -9 614.253 49.6446   1 
   1   4  -9 679.867 47.4707   6 
  -1  -4  -9 636.210 49.4987   1 
  -1   4   9 689.266 49.0579   1 
  -1  -4  -9 708.853 46.8152   4 
  -1   4  -9 683.022 50.0492   1 
   1  -4  -9 751.582 51.2233   4 
   1  -4  -9 650.100 51.2912   1 
  -1  -4   9 635.222 46.6493   6 
   1  -4  -9 733.114 54.6707   1 
  -1  -4   9 679.212 44.8324   7 
  -1   4  -9 683.770 46.3223   6 
  -1   4  -9 731.523 49.7074   1 
  -1   4  -9 709.820 52.3854   2 
   1  -4  -9 673.083 52.7780   8 
  -1  -4   9 675.583 48.6254   3 
   2   4  -9 963.549 76.1716   1 
   2  -4   9 1045.51 71.6103   8 
   2  -4   9 1122.18 75.5798   7 
   2  -4   9 1018.92 70.3125   8 
  -2  -4  -9 1168.66 77.0619   1 
   2   4  -9 1167.72 77.5512   1 
  -2  -4  -9 1023.12 76.1432   8 
  -2  -4  -9 1033.66 72.4601   6 
  -2  -4  -9 1032.39 75.3756   1 
  -2   4   9 1192.89 76.0254   1 
   2  -4  -9 1015.83 78.5624   1 
  -2  -4   9 969.337 74.2061   3 
  -2   4  -9 998.967 75.4126   1 
   2  -4  -9 1171.85 71.6196   3 
   2  -4  -9 1034.81 78.9921   8 
  -2  -4   9 1102.37 74.5936   1 
  -2   4  -9 1070.72 71.5349   6 
   2  -4  -9 1073.69 79.8760   1 
  -2   4  -9 1103.43 75.7776   1 
  -2   4  -9 1110.65 78.3463   2 
   2  -4  -9 1061.29 76.8678   4 
  -2  -4   9 1101.98 73.1424   6 
  -3  -4  -9 643.867 48.8420   1 
   3  -4   9 640.973 47.8912   7 
  -3  -4  -9 606.893 47.4018   8 
  -3  -4  -9 600.192 44.2824   6 
   3   4  -9 609.619 49.9831   1 
  -3  -4  -9 691.221 48.8958   1 
  -3   4  -9 629.599 48.8704   1 
  -3   4  -9 546.567 43.0732   6 
  -3   4  -9 648.978 50.4472   2 
   3  -4  -9 556.013 50.0334   8 
   3  -4  -9 627.422 50.2905   4 
  -3   4  -9 550.636 48.6927   1 
   3  -4  -9 574.476 51.7652   1 
  -3  -4   9 591.599 44.8373   5 
  -4  -4  -9 905.475 64.9587   6 
   4  -4   9 873.798 68.1398   4 
  -4  -4  -9 851.731 69.6143   1 
   4   4  -9 878.956 71.7159   1 
  -4  -4  -9 854.708 66.6147   8 
   4  -4   9 959.446 69.2607   7 
  -4  -4   9 975.456 65.3058   5 
  -4   4  -9 924.645 72.3679   1 
  -4   4  -9 957.980 71.1688   2 
   4  -4  -9 913.626 74.7999   1 
   4  -4  -9 937.233 71.4522   4 
  -5  -4  -9 193.082 22.0384   6 
   5   4  -9 183.865 27.6359   1 
   5  -4   9 170.746 24.3044   4 
  -5  -4  -9 189.084 27.2552   1 
   5  -4   9 211.462 25.5910   7 
  -5  -4  -9 196.487 22.8467   8 
   5   4   9 215.296 24.0638   7 
  -5   4  -9 170.107 26.8693   1 
  -5   4  -9 219.672 28.4369   2 
   5  -4  -9 200.240 29.6901   1 
  -5  -4   9 241.167 22.3507   5 
  -6  -4  -9 197.761 30.2460   1 
   6   4  -9 185.149 30.3397   1 
  -6  -4  -9 195.467 24.9925   6 
   6  -4  -9 189.389 32.4416   1 
  -6   4  -9 202.761 32.2527   1 
  -6  -4   9 202.671 22.0964   5 
   0  -5  -9 2409.31 175.894   8 
   0  -5  -9 2850.05 178.178   1 
   0   5  -9 2417.43 173.750   1 
   0  -5   9 2586.31 170.835   6 
   0   5  -9 2699.90 174.237   1 
   0  -5  -9 2393.03 174.270   1 
   0  -5   9 2661.77 170.612   7 
   0   5  -9 2706.01 171.072   6 
   0   5   9 2800.95 174.207   1 
   0  -5  -9 2824.02 173.362   4 
   1  -5   9 988.832 64.9398   8 
  -1  -5  -9 954.241 68.6188   1 
   1   5  -9 918.485 67.8972   1 
  -1  -5  -9 938.631 69.3074   8 
  -1  -5  -9 1105.23 70.9539   1 
   1   5  -9 1089.45 69.3206   1 
   1   5  -9 1038.89 65.4626   6 
   1  -5   9 1029.71 66.4248   7 
   1  -5  -9 850.463 69.1177   1 
  -1  -5   9 845.586 66.2208   3 
   1  -5  -9 891.322 67.4381   4 
  -1   5  -9 947.685 64.2138   6 
  -1   5  -9 874.025 68.0666   1 
  -1   5  -9 927.077 70.4697   2 
  -1  -5   9 836.727 63.9793   6 
   1  -5  -9 827.845 69.2293   8 
  -1   5  -9 968.724 67.6849   1 
   1  -5  -9 937.793 72.1346   1 
   1   5   9 965.241 69.0918   1 
  -2  -5  -9 169.314 19.7095   1 
  -2  -5  -9 161.933 19.8552   8 
   2   5  -9 170.033 16.7253   6 
   2  -5   9 192.039 18.7527   7 
   2   5  -9 170.844 19.6087   1 
   2  -5   9 152.601 12.7975   8 
  -2  -5  -9 148.107 15.2668   6 
  -2  -5  -9 173.777 16.2595   2 
  -2  -5  -9 150.250 18.7840   1 
   2   5  -9 144.429 19.1690   1 
  -2   5   9 146.689 15.2202   2 
   2  -5  -9 135.436 15.0516   3 
   2  -5  -9 125.954 17.9111   4 
   2  -5  -9 121.478 20.0319   1 
  -2   5  -9 127.958 13.9953   6 
   2  -5  -9 127.844 19.5309   8 
  -2   5  -9 128.220 17.4765   1 
  -2   5  -9 125.286 19.8322   2 
  -2   5  -9 129.703 18.0361   1 
  -2  -5   9 110.546 16.2616   3 
  -3  -5  -9 9.64183 7.51557   1 
  -3  -5  -9 14.2508 10.0248   8 
   3   5  -9 8.61219 7.71862   1 
  -3  -5  -9 7.23288 5.93071   6 
   3  -5   9 13.2695 7.96536   7 
   3  -5  -9 15.0741 9.29232   8 
  -3   5  -9 13.4923 7.12087   6 
   3  -5  -9 13.5767 10.5177   4 
  -3  -5   9 9.45173 5.82440   5 
   3  -5  -9 7.89064 8.41814   1 
  -3   5  -9 11.0299 7.98786   1 
  -3   5  -9 12.7710 10.6948   2 
   4   5  -9 548.469 50.5310   1 
  -4  -5  -9 607.931 47.9892   8 
   4  -5   9 624.274 48.4718   7 
  -4  -5  -9 607.443 50.6212   1 
  -4  -5  -9 606.635 45.0134   6 
   4  -5   9 581.027 48.0024   4 
  -4   5  -9 569.756 50.7834   2 
   4  -5  -9 539.176 50.3167   4 
   4  -5  -9 514.808 52.5552   1 
  -4  -5   9 565.292 43.9750   5 
  -4   5  -9 535.657 50.6433   1 
  -5  -5  -9 647.544 53.6881   6 
   5  -5   9 671.322 58.4483   4 
   5  -5   9 713.443 58.8148   7 
  -5  -5  -9 674.047 59.9747   1 
  -5  -5  -9 679.568 55.9174   8 
   5   5  -9 645.379 61.1876   1 
  -5   5  -9 740.185 63.8724   1 
   5   5   9 693.141 55.5961   7 
  -5   5  -9 718.518 60.5873   2 
  -5  -5   9 780.046 52.9206   5 
   5  -5  -9 719.330 64.7093   1 
   6   5  -9 568.445 61.9537   1 
  -6  -5  -9 616.747 62.3277   1 
  -6  -5   9 809.620 56.5105   5 
  -6   5  -9 719.997 66.6363   1 
   6  -5  -9 728.012 68.7279   1 
   0   6  -9 119.252 13.4805   6 
   0   6  -9 96.9687 15.5990   1 
   0  -6  -9 107.416 17.1259   8 
   0  -6   9 113.127 12.3284   7 
   0  -6  -9 122.130 15.7343   4 
   0  -6   9 114.470 14.7872   8 
   0  -6  -9 96.0663 15.9527   1 
   0   6  -9 122.082 16.1334   1 
   1   6  -9 878.201 58.9955   6 
   1  -6   9 772.453 57.6764   8 
  -1  -6  -9 778.509 62.1430   1 
   1  -6   9 816.624 58.4826   7 
   1   6  -9 756.030 61.9357   1 
  -1  -6  -9 787.842 63.0407   8 
   1  -6  -9 805.024 63.8225   1 
  -1   6  -9 880.798 63.0816   1 
  -1  -6   9 775.065 60.6197   3 
  -1   6  -9 908.180 58.4918   6 
   1  -6  -9 757.646 62.7835   8 
  -1   6  -9 851.705 63.4085   1 
   1  -6  -9 849.248 61.9291   4 
   1  -6  -9 922.502 58.1738   3 
  -2  -6  -9 306.979 31.6395   1 
  -2  -6  -9 309.137 31.9019   8 
  -2  -6  -9 308.612 28.5594   6 
   2   6  -9 303.821 32.0053   1 
   2  -6   9 346.017 29.8061   7 
  -2   6   9 299.209 27.9999   2 
   2  -6   9 312.139 25.5937   8 
  -2   6  -9 366.277 28.2211   6 
   2  -6  -9 348.881 33.6651   8 
  -2   6  -9 389.433 35.8269   2 
  -2  -6   9 356.933 31.5110   3 
  -2   6  -9 361.769 33.2771   1 
   2  -6  -9 371.977 33.2819   4 
   2  -6  -9 399.419 29.8686   3 
   2  -6  -9 353.767 35.3863   1 
  -3  -6  -9 1409.36 103.677   1 
  -3  -6  -9 1429.58 102.932   8 
   3  -6   9 1570.56 101.839   7 
  -3  -6  -9 1430.42 98.8013   6 
   3   6  -9 1376.31 104.744   1 
  -3   6   9 1337.92 99.6979   2 
   3  -6  -9 1550.41 105.665   4 
  -3   6  -9 1600.68 107.916   2 
  -3   6  -9 1385.98 104.237   1 
   3  -6  -9 1393.64 107.467   1 
   3  -6  -9 1354.27 104.134   8 
   4  -6   9 297.578 29.8189   7 
  -4  -6  -9 258.255 28.5222   8 
   4   6  -9 257.418 32.1919   1 
  -4  -6  -9 280.283 26.3024   6 
  -4  -6  -9 274.270 31.5469   1 
  -4  -6   9 241.352 24.0700   5 
   4  -6  -9 243.421 33.5858   1 
   4  -6  -9 227.638 29.6313   8 
  -4   6  -9 253.394 32.4484   2 
   4  -6  -9 258.555 31.9926   4 
  -4   6  -9 252.857 31.4728   1 
  -5  -6  -9 84.5516 21.9379   1 
  -5  -6  -9 78.6038 20.8935   8 
   5   6  -9 62.5563 21.6679   1 
  -5  -6  -9 78.7512 16.8361   6 
   5  -6   9 71.5641 18.5169   4 
  -5   6  -9 126.782 25.5001   1 
   5  -6  -9 102.701 25.3825   1 
  -5  -6   9 109.283 16.0711   5 
   6   6  -9 72.9256 24.8905   1 
  -6  -6  -9 81.1212 24.3606   1 
  -6   6  -9 52.6153 22.2519   1 
   0  -7   9 2198.57 144.113   8 
   0  -7  -9 2037.66 147.194   8 
   0  -7  -9 2211.77 148.662   1 
   0   7  -9 2137.94 147.440   1 
   1   7  -9 171.504 22.6811   1 
   1  -7   9 222.120 20.2687   7 
  -1  -7  -9 197.166 24.6220   8 
   1  -7   9 194.733 18.3834   8 
  -1  -7  -9 190.324 23.5178   1 
   1  -7  -9 157.945 22.5629   8 
   1  -7  -9 181.716 22.4657   4 
   1  -7  -9 192.561 24.6338   1 
  -1  -7   9 176.013 21.3610   8 
  -1  -7   9 159.504 21.2299   3 
   1  -7  -9 186.586 19.4151   3 
  -1   7  -9 174.965 23.5293   1 
  -2  -7  -9 385.946 37.4852   1 
   2   7  -9 414.637 38.9778   1 
  -2  -7  -9 420.136 33.7342   6 
   2  -7   9 459.797 34.8627   7 
  -2  -7  -9 417.713 38.6536   8 
  -2  -7   9 353.616 35.6343   8 
   2  -7  -9 404.849 37.6680   4 
  -2   7  -9 403.109 40.0885   2 
   2  -7  -9 368.098 37.2742   8 
  -2   7  -9 369.457 37.5944   1 
  -2  -7   9 350.251 35.0979   3 
   2  -7  -9 396.189 33.9278   3 
   2  -7  -9 382.158 40.0799   1 
   3   7  -9 11.7388 9.95333   1 
  -3  -7  -9 17.8472 9.40891   6 
  -3  -7  -9 14.2603 10.0556   1 
   3  -7   9 15.5944 8.79395   7 
  -3  -7  -9 22.6157 13.3199   8 
   3  -7  -9 39.3922 17.2609   1 
  -3   7  -9 31.0759 14.6567   1 
   3  -7  -9 25.8195 13.6697   4 
  -3   7  -9 31.2718 15.6429   2 
   3  -7  -9 29.0920 13.3370   3 
   3  -7  -9 20.3001 13.5921   8 
  -3  -7   9 29.6915 13.6874   3 
  -3  -7   9 26.0273 12.9345   8 
  -4  -7  -9 680.321 59.8700   1 
   4  -7   9 757.989 57.0155   7 
  -4  -7  -9 651.356 53.6994   6 
   4   7  -9 675.391 61.8433   1 
  -4  -7   9 697.333 52.0689   5 
   4  -7  -9 691.643 63.2642   1 
  -4   7  -9 647.517 60.4053   1 
  -4   7  -9 704.019 61.9075   2 
  -5  -7  -9 155.713 28.5167   1 
   5   7  -9 160.310 30.4203   1 
  -5   7  -9 177.228 29.7015   1 
   5  -7  -9 175.255 31.7353   1 
  -5  -7   9 184.133 21.3440   5 
   0  -8  -9 309.163 33.5825   1 
   0   8  -9 291.809 31.6355   1 
   0  -8  -9 273.826 31.6594   8 
   0  -8   9 306.687 28.2564   8 
   1   8  -9 691.401 59.2272   1 
  -1  -8  -9 715.437 59.9281   1 
  -1  -8   9 701.915 63.3192   3 
  -1  -8   9 677.001 55.9723   8 
   1  -8  -9 764.565 58.6928   4 
   1  -8  -9 694.880 60.6351   1 
   1  -8  -9 716.817 64.2820   8 
   1  -8  -9 779.483 54.8852   3 
  -1   8  -9 693.605 59.3926   1 
  -2  -8  -9 75.3042 14.6075   6 
   2  -8   9 89.9548 15.0577   7 
  -2  -8  -9 70.5483 17.5562   1 
   2   8  -9 72.1100 18.6449   1 
  -2   8  -9 56.6242 19.1109   2 
  -2  -8   9 40.3108 15.1039   3 
  -2  -8   9 51.7533 15.2381   8 
  -2   8  -9 48.1379 16.7704   1 
   2  -8  -9 51.0818 16.9234   4 
   2  -8  -9 52.2939 18.8690   1 
   2  -8  -9 52.1264 14.9061   3 
  -3  -8  -9 1093.44 83.3642   6 
  -3  -8  -9 1132.45 89.6233   1 
   3  -8   9 1200.66 84.8639   7 
   3   8  -9 1102.85 90.5784   1 
  -3   8  -9 1167.95 90.9111   1 
  -3  -8   9 1055.49 86.8185   3 
   3  -8  -9 1329.98 87.5298   3 
  -3   8  -9 1157.26 91.7345   2 
   3  -8  -9 1181.55 93.0731   1 
   4   8  -9 20.5883 13.4524   1 
  -4  -8  -9 32.3203 18.8751   1 
  -4  -8  -9 28.0652 14.0474   6 
  -4   8  -9 41.7894 19.4727   1 
  -4  -8   9 47.9421 13.7682   5 
   4  -8  -9 39.4064 21.1024   1 
   5   8  -9 17.7810 14.9774   1 
  -5  -8  -9 21.8927 15.5844   1 
  -5   8  -9 45.3239 21.2478   1 
   0  -9  -9 1811.25 129.127   1 
   0  -9   9 1824.35 122.735   8 
   0   9  -9 1684.91 127.220   1 
  -1  -9  -9 119.182 23.0960   1 
   1   9  -9 107.662 21.1689   1 
  -1  -9   9 106.659 19.5646   8 
  -1   9  -9 100.223 21.9442   1 
   1  -9  -9 118.217 21.6507   4 
   1  -9  -9 124.303 19.4226   3 
   1  -9  -9 111.465 23.5915   1 
  -2  -9  -9 154.621 26.2094   1 
   2   9  -9 154.920 26.5763   1 
   2  -9  -9 172.576 29.3579   1 
   2  -9  -9 194.133 25.0559   3 
  -2   9  -9 184.338 28.5824   1 
  -3  -9  -9 21.3844 17.6068   1 
  -3  -9  -9 26.7611 14.2621   6 
   3   9  -9 22.7817 18.7030   1 
   3  -9  -9 38.8263 18.9766   1 
  -3   9  -9 26.6416 18.5896   1 
   3  -9  -9 37.0774 18.2722   3 
   4   9  -9 491.681 54.6606   1 
  -4  -9  -9 502.576 53.1961   1 
   4  -9  -9 596.763 51.4220   3 
  -4   9  -9 551.008 55.3768   1 
   0  10  -9 83.8993 22.6077   1 
   0 -10  -9 81.8659 22.0708   1 
  -1 -10  -9 453.946 47.8696   1 
   1  10  -9 443.821 46.7182   1 
   1 -10  -9 455.927 48.8442   1 
  -1  10  -9 449.603 47.6784   1 
   1 -10  -9 550.061 44.1877   3 
   2  10  -9 40.7334 18.8866   1 
  -2 -10  -9 45.4329 21.5032   1 
   2 -10  -9 55.9700 18.7474   3 
  -2  10  -9 46.1320 21.1789   1 
   2 -10  -9 56.3331 23.2711   1 
   3  10  -9 819.093 77.8829   1 
  -3 -10  -9 857.274 77.5601   1 
   3 -10  -9 1027.59 75.0133   3 
  -3  10  -9 932.263 79.9290   1 
   0   0  10 2598.99 162.460   8 
   0   0  10 2351.53 157.866   4 
   0   0  10 2443.42 158.912   5 
   0   0 -10 2308.83 155.758   1 
   0   0 -10 2494.64 156.909   1 
   1   0  10 1011.84 68.9206   8 
   1   0 -10 937.050 66.4900   1 
   1   0  10 901.037 63.4321   4 
  -1   0 -10 988.617 62.9551   1 
  -1   0  10 1038.03 71.2123   8 
  -1   0 -10 1025.01 69.1436   8 
  -1   0  10 942.527 66.0760   2 
  -1   0  10 968.850 68.1355   4 
   1   0  10 948.021 66.2933   5 
  -1   0 -10 998.449 62.9836   1 
  -1   0  10 979.112 67.4605   5 
   1   0 -10 1032.50 66.6785   1 
   2   0  10 492.181 35.6254   8 
  -2   0  10 496.861 38.9586   4 
  -2   0 -10 511.305 35.8595   2 
  -2   0  10 469.976 35.4884   7 
  -2   0 -10 481.125 34.4018   1 
  -2   0  10 477.387 36.6944   5 
   2   0 -10 485.219 37.5424   1 
  -2   0 -10 475.348 36.3877   8 
   2   0 -10 444.606 37.4815   1 
   3   0  10 445.304 33.7045   8 
  -3   0 -10 473.668 36.9230   1 
  -3   0 -10 493.513 35.5353   8 
  -3   0  10 470.610 36.9323   1 
  -3   0  10 448.762 35.5194   7 
   3   0 -10 578.660 41.2061   1 
  -3   0  10 477.153 36.9784   5 
  -3   0 -10 457.508 33.0657   6 
   3   0 -10 434.176 39.6958   1 
   3   0  10 484.660 38.5291   7 
   4   0  10 647.091 50.9214   7 
   4   0 -10 642.587 54.2972   1 
  -4   0  10 675.903 49.1833   5 
  -4   0  10 631.233 48.4973   7 
  -4   0 -10 678.490 51.1746   1 
  -4   0 -10 654.552 45.7211   8 
  -4   0 -10 616.934 46.2446   6 
  -5   0  10 26.7435 12.5340   5 
   5   0 -10 28.4935 15.8542   1 
   5   0  10 30.1026 12.5017   7 
  -5   0 -10 28.0500 9.39488   6 
  -6   0 -10 1461.80 110.845   1 
  -6   0 -10 1263.91 101.338   6 
   6   0 -10 1529.41 114.591   1 
  -6   0  10 1628.83 103.050   5 
  -7   0 -10 121.810 26.7074   1 
   7   0 -10 137.910 30.2852   1 
   0  -1 -10 2095.05 139.320   1 
   0  -1  10 2277.36 143.843   8 
   0   1 -10 2190.02 137.479   1 
   0  -1 -10 2155.38 144.000   8 
   0   1  10 2236.68 140.741   5 
   0   1  10 2352.65 144.792   8 
   0  -1 -10 2038.68 138.632   1 
   0  -1  10 1947.28 139.917   2 
   0   1 -10 2073.19 137.433   1 
   0   1  10 2138.18 139.244   4 
  -1  -1 -10 557.484 43.9494   8 
   1  -1  10 572.271 43.5042   8 
  -1   1  10 531.762 42.1088   5 
   1   1 -10 542.739 41.3713   1 
  -1   1  10 601.875 46.0940   8 
  -1  -1 -10 582.572 39.4310   1 
  -1  -1 -10 540.998 39.0815   1 
  -1   1  10 540.118 42.4810   4 
   1  -1 -10 556.698 42.5445   1 
  -1   1 -10 627.691 42.5022   2 
   1   1  10 618.208 44.4944   8 
  -1   1 -10 598.099 38.3592   1 
  -1  -1  10 532.378 38.8714   3 
   1  -1 -10 607.230 42.8603   1 
  -1  -1  10 629.956 39.2066   6 
  -1  -1  10 613.014 42.7052   5 
  -1  -1  10 620.843 42.7407   2 
  -1  -1  10 641.662 46.4195   8 
  -1   1 -10 591.423 38.5921   1 
   1   1  10 577.369 41.3752   5 
  -2   1  10 118.851 14.7098   4 
  -2  -1 -10 115.073 11.2957   1 
  -2  -1 -10 137.342 11.5871   2 
   2  -1  10 123.709 11.5073   8 
   2   1 -10 115.969 14.0085   1 
  -2  -1 -10 109.539 11.1803   1 
   2   1 -10 161.186 15.1769   1 
  -2   1  10 119.170 12.8653   7 
  -2  -1 -10 113.711 8.40167   6 
  -2  -1 -10 115.859 13.3525   8 
   2  -1  10 114.476 13.6087   7 
  -2   1  10 122.842 13.4427   5 
   2   1  10 86.1197 11.5243   8 
  -2   1 -10 77.5541 10.0587   1 
  -2  -1  10 87.9182 10.4041   7 
   2   1  10 75.6622 10.2158   5 
  -2  -1  10 88.3067 10.1393   6 
  -2   1 -10 73.6310 9.89385   1 
   2  -1 -10 75.9902 12.9399   1 
  -2   1 -10 86.3552 12.2299   2 
   2  -1 -10 87.8821 13.3736   1 
  -2  -1  10 85.2955 12.0295   5 
   3  -1  10 2358.02 160.564   8 
  -3  -1 -10 2339.87 161.092   6 
  -3  -1 -10 2360.36 163.811   8 
  -3  -1 -10 2430.30 165.285   1 
  -3  -1 -10 2545.77 165.270   1 
   3   1 -10 2560.45 168.193   1 
  -3   1  10 2523.99 165.076   5 
   3  -1  10 2122.97 161.095   4 
  -3   1  10 2408.64 164.638   7 
   3  -1  10 2457.31 166.473   7 
   3   1 -10 2286.51 167.954   1 
  -3   1  10 2648.68 169.103   1 
   3   1  10 2554.39 161.912   5 
  -3  -1  10 2585.42 163.781   6 
  -3   1 -10 2433.93 164.971   1 
   3  -1 -10 2414.35 169.004   1 
  -3   1 -10 2428.39 161.030   6 
   3  -1 -10 2920.30 170.299   1 
  -3  -1  10 2513.49 162.960   7 
   3   1  10 2460.51 162.945   8 
  -3  -1  10 2760.67 166.575   1 
  -3   1 -10 2632.60 165.301   1 
  -3   1 -10 2786.12 166.882   2 
  -3  -1  10 2617.17 165.182   5 
  -4  -1 -10 262.075 22.4627   6 
  -4  -1 -10 272.720 27.1088   1 
  -4  -1 -10 303.607 27.6165   1 
  -4   1  10 279.671 25.2537   5 
   4  -1  10 263.811 26.6034   7 
   4   1 -10 269.655 29.8888   1 
  -4  -1 -10 271.414 23.3169   8 
   4  -1 -10 263.021 30.1678   1 
  -4  -1  10 253.513 24.4150   5 
  -4   1 -10 287.277 27.0954   1 
  -4   1 -10 241.506 22.3274   6 
   4   1  10 269.674 26.6310   7 
  -5  -1 -10 79.8107 12.4974   6 
   5  -1  10 76.5809 15.4626   7 
  -5  -1 -10 80.9769 16.7760   1 
   5   1 -10 84.9260 19.4758   1 
  -5   1  10 105.444 16.0784   5 
   5  -1 -10 42.6234 16.8682   1 
  -5  -1  10 40.6400 13.1709   5 
  -5   1 -10 36.5522 10.8347   6 
   5   1  10 39.9587 13.8661   7 
  -6  -1 -10 422.139 44.3292   1 
   6   1 -10 431.490 46.1264   1 
  -6  -1 -10 386.713 36.5264   6 
  -6  -1  10 459.376 36.5391   5 
   6  -1 -10 460.245 48.1030   1 
  -6   1 -10 417.891 37.2705   6 
   7   1 -10 430.174 49.6291   1 
  -7  -1 -10 404.827 47.2227   1 
   7  -1 -10 420.344 51.1532   1 
   0   2  10 1755.22 112.772   5 
   0   2 -10 1761.56 110.701   1 
   0  -2 -10 1570.90 111.583   1 
   0   2 -10 1641.58 110.547   1 
   0  -2 -10 1799.29 113.572   1 
   0   2  10 1917.27 117.594   8 
   0  -2 -10 1602.75 116.012   8 
   0  -2  10 1558.39 113.242   2 
   0  -2  10 1742.35 115.576   8 
   1   2 -10 877.617 57.9761   1 
  -1  -2 -10 874.969 57.2323   1 
  -1   2  10 890.521 63.2527   8 
  -1   2  10 803.341 58.7384   4 
  -1   2  10 811.992 58.3425   5 
  -1  -2 -10 771.434 60.0235   8 
   1  -2  10 809.982 58.2069   7 
  -1  -2 -10 815.179 56.4636   1 
   1  -2  10 806.965 58.8747   8 
   1   2 -10 776.943 57.5344   1 
   1   2  10 845.487 57.2229   5 
   1  -2 -10 807.212 59.4885   1 
   1  -2 -10 848.471 62.8542   8 
  -1  -2  10 867.214 59.7390   2 
  -1   2 -10 841.664 55.4138   1 
  -1   2 -10 867.406 59.5241   2 
   1   2  10 893.078 60.7279   8 
  -1  -2  10 851.781 55.0694   6 
  -1  -2  10 771.232 55.4614   3 
  -1   2 -10 767.064 55.5341   1 
   1  -2 -10 852.012 60.2218   1 
  -1  -2  10 884.391 61.6801   8 
  -2  -2 -10 433.922 33.9890   1 
   2  -2  10 430.634 35.5893   7 
   2  -2  10 437.395 32.6761   8 
  -2  -2 -10 402.087 31.0731   6 
  -2  -2 -10 387.701 34.9346   8 
   2   2 -10 407.446 35.8159   1 
  -2   2  10 422.610 34.9461   5 
  -2   2  10 415.575 36.6410   4 
  -2  -2 -10 395.976 33.4646   1 
   2  -2 -10 530.719 38.9174   1 
   2   2  10 511.610 36.2992   8 
   2   2  10 462.438 32.7048   5 
  -2  -2  10 463.945 31.8341   7 
  -2   2 -10 511.234 37.1745   2 
  -2  -2  10 496.368 33.2155   6 
   2  -2 -10 481.361 38.6345   1 
  -2   2 -10 467.382 34.0267   1 
  -2   2 -10 482.937 30.2999   6 
  -2   2 -10 451.887 34.4523   1 
  -2  -2  10 501.408 35.5066   5 
  -3  -2 -10 631.179 50.6203   8 
  -3   2  10 674.652 51.0418   5 
  -3  -2 -10 647.452 47.6604   6 
   3   2 -10 631.920 53.7690   1 
  -3  -2 -10 679.205 51.1471   1 
   3  -2  10 641.297 45.3779   8 
   3  -2  10 616.016 49.5081   4 
   3  -2  10 676.522 52.2113   7 
  -3  -2 -10 609.242 50.8898   1 
   3  -2 -10 838.245 57.2693   1 
  -3  -2  10 764.785 51.2369   5 
  -3   2 -10 792.820 53.9495   2 
   3   2  10 683.062 46.9927   5 
  -3  -2  10 747.393 50.0830   6 
   3   2  10 750.920 50.2887   8 
   3  -2 -10 719.492 56.2835   1 
  -3  -2  10 734.203 47.8270   7 
  -3   2 -10 635.737 51.2629   1 
  -3   2 -10 771.655 52.5644   1 
  -4  -2 -10 714.366 53.1913   6 
   4   2 -10 742.641 61.0895   1 
  -4  -2 -10 756.611 58.8556   1 
   4  -2  10 682.259 54.6008   4 
   4  -2  10 743.256 57.7051   7 
  -4   2  10 764.610 56.0275   5 
  -4  -2 -10 719.464 54.7750   8 
  -4   2 -10 848.793 59.3785   1 
  -4  -2  10 826.466 56.1432   5 
   4   2  10 757.613 57.5416   7 
   4   2  10 768.729 53.8547   8 
  -4   2 -10 744.528 58.7314   1 
   4  -2 -10 764.821 62.8899   1 
   5   2 -10 154.272 25.2664   1 
  -5  -2 -10 153.681 23.9230   1 
   5  -2  10 151.732 22.0730   7 
  -5  -2 -10 149.098 18.3783   6 
  -5   2 -10 176.285 25.1458   1 
   5   2  10 196.222 22.8913   7 
   5  -2 -10 194.483 28.5162   1 
  -5  -2  10 205.520 20.3671   5 
  -6  -2 -10 758.832 63.6248   6 
  -6  -2 -10 836.290 71.3353   1 
   6   2 -10 853.764 73.1698   1 
   6  -2 -10 884.457 75.6231   1 
  -6  -2  10 886.246 62.2863   5 
  -6   2 -10 798.750 73.8402   6 
  -7  -2 -10 167.707 30.9364   1 
   7   2 -10 176.808 32.7215   1 
  -7  -2  10 125.764 20.4098   5 
   0  -3 -10 1404.87 93.4813   1 
   0   3  10 1402.13 91.4431   5 
   0   3 -10 1341.43 90.7707   1 
   0  -3 -10 1325.25 95.1700   8 
   0  -3 -10 1320.86 91.9224   1 
   0  -3  10 1413.71 90.5157   7 
   0   3 -10 1329.27 90.2137   1 
  -1  -3 -10 829.152 60.3362   1 
   1  -3  10 875.909 61.8308   8 
  -1  -3 -10 803.390 62.9532   8 
   1   3 -10 956.642 61.9152   1 
  -1  -3 -10 957.178 62.0545   1 
  -1   3  10 840.456 60.6715   5 
   1   3 -10 844.358 61.0751   1 
   1  -3  10 889.413 60.9718   7 
   1  -3 -10 780.723 64.5723   8 
  -1  -3  10 850.794 57.9530   7 
  -1   3 -10 923.258 59.8482   1 
   1   3  10 934.922 64.0839   8 
  -1  -3  10 880.796 58.1616   6 
   1  -3 -10 879.858 64.5682   1 
   1   3  10 831.750 59.2938   5 
  -1  -3  10 785.381 58.9252   3 
  -1   3 -10 880.466 56.9384   6 
  -1   3 -10 863.541 60.1902   1 
  -1   3 -10 959.760 63.9297   2 
   1  -3 -10 845.962 63.1055   1 
   2   3 -10 582.531 47.4970   1 
  -2  -3 -10 592.444 45.7594   1 
   2  -3  10 559.322 43.1602   8 
  -2  -3 -10 531.408 46.4757   8 
  -2  -3 -10 554.936 45.3803   1 
  -2  -3 -10 547.298 42.4903   6 
  -2   3  10 557.388 45.2562   5 
   2  -3  10 573.770 46.0932   7 
  -2   3  10 616.254 45.4039   1 
   2   3  10 697.180 47.8992   8 
  -2  -3  10 650.639 45.7514   5 
  -2   3 -10 656.565 45.5981   1 
   2  -3 -10 637.273 49.9494   1 
  -2  -3  10 593.202 44.9768   3 
  -2  -3  10 686.777 44.4399   6 
  -2   3 -10 657.842 41.9015   6 
   2  -3 -10 744.885 51.5668   1 
  -2   3 -10 628.971 46.3836   1 
  -2  -3  10 620.770 40.7827   7 
  -2   3 -10 714.728 49.5079   2 
   2  -3 -10 624.544 50.7659   8 
   2   3  10 621.709 42.9599   5 
  -2  -3  10 661.363 40.7415   7 
   3   3 -10 958.868 76.6167   1 
  -3  -3 -10 924.482 73.3427   8 
  -3  -3 -10 940.849 70.4705   6 
  -3   3  10 1070.44 73.8208   5 
  -3  -3 -10 1116.76 75.2937   1 
   3  -3  10 1023.40 74.8848   7 
  -3  -3 -10 1038.10 75.1037   1 
  -3   3 -10 1124.46 75.7070   1 
  -3   3 -10 983.688 75.2400   1 
  -3   3 -10 1142.31 70.4352   6 
  -3  -3  10 1122.07 73.4793   5 
  -3   3 -10 1167.85 77.4604   2 
   3  -3 -10 1027.73 79.1272   1 
   3   3  10 1077.43 73.6286   8 
   3   3  10 992.572 68.5132   5 
   4  -3  10 427.621 38.7848   4 
  -4  -3 -10 458.478 38.3543   8 
   4  -3  10 480.037 40.5450   7 
  -4  -3 -10 485.957 41.6089   1 
   4   3 -10 452.935 43.2086   1 
  -4  -3 -10 459.153 36.3623   6 
  -4   3 -10 530.907 43.4216   2 
   4  -3 -10 480.246 45.6059   1 
  -4   3 -10 450.226 41.5204   1 
  -4  -3  10 508.686 38.1153   5 
   5   3 -10 227.806 30.5102   1 
  -5  -3 -10 212.311 22.8994   6 
  -5  -3 -10 233.516 28.9020   1 
   5  -3  10 228.886 27.0789   7 
  -5   3 -10 233.238 30.0422   1 
   5   3  10 250.422 27.1827   7 
   5  -3 -10 237.640 32.8972   1 
  -5  -3  10 255.692 24.3330   5 
   6   3 -10 281.140 36.8763   1 
  -6  -3 -10 289.113 35.5721   1 
  -6  -3  10 274.036 27.6160   5 
  -6   3 -10 260.056 36.8949   1 
   6  -3 -10 286.218 39.2987   1 
   0  -4  10 2004.97 131.162   7 
   0   4 -10 2200.36 133.607   1 
   0  -4 -10 2128.42 132.649   4 
   0  -4 -10 1847.43 133.763   1 
   0  -4 -10 1792.67 135.816   8 
   0   4  10 1901.28 131.785   5 
   0   4 -10 1927.57 133.190   1 
   0  -4 -10 2145.32 136.544   1 
   0   4 -10 1980.39 130.310   6 
   0  -4  10 2153.38 130.618   6 
  -1  -4 -10 1026.07 69.6273   1 
  -1   4  10 892.938 66.6141   5 
  -1  -4 -10 907.715 70.1081   8 
   1   4 -10 953.334 67.9778   1 
   1  -4  10 959.753 67.0494   7 
  -1  -4 -10 1043.06 64.6601   4 
  -1  -4 -10 906.121 67.9653   1 
   1   4 -10 859.665 67.7638   1 
   1  -4  10 926.763 67.5492   8 
   1  -4 -10 1111.59 74.1733   1 
  -1   4 -10 1024.56 67.4215   1 
  -1  -4  10 962.325 63.2706   7 
   1   4  10 930.234 65.1458   5 
  -1  -4  10 905.279 66.2839   3 
   1  -4 -10 1054.73 69.1086   4 
  -1   4 -10 991.220 64.2267   6 
   1  -4 -10 951.845 70.3443   1 
  -1  -4  10 1001.20 65.0369   6 
  -1   4 -10 1002.85 68.3411   1 
   1  -4 -10 854.993 70.4575   8 
  -2   4  10 420.194 36.0607   5 
  -2  -4 -10 404.909 33.9049   6 
  -2  -4 -10 405.941 36.7550   1 
   2   4 -10 478.543 38.8789   1 
   2   4 -10 389.033 37.7440   1 
   2  -4  10 437.735 37.0193   7 
  -2  -4 -10 406.485 37.7434   8 
  -2  -4 -10 455.633 38.1413   1 
   2  -4  10 445.337 33.8383   8 
   2  -4 -10 489.726 41.9861   8 
   2  -4 -10 522.187 39.9876   4 
  -2   4 -10 476.854 38.0392   1 
  -2   4 -10 546.102 38.2312   1 
  -2  -4  10 502.077 35.1488   6 
   2  -4 -10 510.464 42.5196   1 
  -2   4 -10 523.566 33.5886   6 
   2  -4 -10 477.249 41.3022   1 
  -2  -4  10 441.754 36.2077   3 
  -2   4 -10 555.440 41.0527   2 
   3  -4  10 374.489 34.5583   7 
  -3  -4 -10 362.934 34.9560   1 
  -3  -4 -10 363.700 31.1007   6 
   3   4 -10 334.728 35.7029   1 
  -3  -4 -10 353.279 34.3855   8 
  -3  -4  10 424.865 33.1030   5 
  -3   4 -10 448.721 36.4961   1 
   3  -4 -10 414.416 39.0759   8 
  -3   4 -10 412.718 30.3086   6 
   3  -4 -10 467.498 30.8654   3 
  -3   4 -10 408.271 36.5891   1 
   3  -4 -10 431.676 37.5695   4 
   3  -4 -10 432.732 40.4064   1 
  -3   4 -10 441.544 37.7822   2 
  -4  -4 -10 689.351 52.5959   6 
  -4  -4 -10 697.716 55.5666   8 
   4   4 -10 710.476 60.2845   1 
  -4  -4 -10 715.044 58.2696   1 
   4  -4  10 732.158 56.8609   7 
   4  -4  10 700.196 56.1908   4 
   4  -4 -10 745.508 63.5803   1 
  -4  -4  10 765.968 53.8152   5 
  -4   4 -10 764.617 59.8614   2 
  -4   4 -10 722.145 60.1496   1 
  -5  -4 -10 455.458 39.6131   8 
   5  -4  10 425.427 41.0175   7 
   5   4 -10 459.990 46.5471   1 
  -5  -4 -10 443.721 37.8238   6 
  -5  -4 -10 454.824 44.3184   1 
   5  -4 -10 446.941 47.9498   1 
   5   4  10 441.988 40.8418   7 
  -5  -4  10 481.177 38.0037   5 
  -5   4 -10 422.299 44.4420   1 
  -5   4 -10 489.107 45.3991   2 
  -6  -4 -10 534.287 54.3081   1 
   6   4 -10 563.903 57.1007   1 
   6  -4 -10 603.476 60.3231   1 
  -6  -4  10 624.415 46.2419   5 
  -6   4 -10 524.840 56.0496   1 
   0   5 -10 629.730 46.3444   1 
   0  -5  10 609.314 42.7735   7 
   0  -5 -10 578.626 48.8038   8 
   0  -5 -10 642.344 45.2417   4 
   0   5 -10 537.391 45.6327   1 
   0  -5 -10 655.659 50.0681   1 
   0  -5 -10 556.271 46.7838   1 
   0   5 -10 627.711 43.2773   6 
   1   5 -10 312.449 33.9964   1 
  -1  -5 -10 356.168 34.8046   1 
  -1  -5 -10 391.085 32.0450   4 
   1   5 -10 405.095 35.4887   1 
  -1  -5 -10 337.468 35.6907   8 
  -1  -5 -10 405.494 36.7113   1 
   1  -5  10 379.612 33.2582   7 
   1   5 -10 380.182 32.4369   6 
  -1  -5  10 473.276 28.9575   7 
   1  -5 -10 524.141 41.9356   1 
  -1  -5  10 453.990 34.8741   3 
   1  -5 -10 459.466 39.0640   8 
  -1  -5  10 492.465 33.0701   6 
   1  -5 -10 503.464 36.9122   4 
  -1   5 -10 455.312 31.8966   6 
  -1   5 -10 514.985 36.4494   1 
   1  -5 -10 434.928 37.5680   1 
  -1   5 -10 517.093 37.7049   1 
   2   5 -10 712.481 61.8226   1 
  -2   5  10 690.550 56.7360   2 
  -2  -5 -10 802.237 57.9809   6 
   2  -5  10 754.387 55.3940   8 
  -2  -5 -10 768.980 61.3868   1 
  -2  -5 -10 759.679 62.1824   8 
   2  -5  10 809.794 60.4780   7 
   2  -5 -10 831.553 65.4019   1 
  -2   5 -10 888.082 64.9610   2 
  -2  -5  10 776.520 60.1381   3 
  -2   5 -10 915.318 62.3481   1 
   2  -5 -10 1008.83 56.2841   3 
   2  -5 -10 846.197 65.3276   8 
  -2   5 -10 844.966 62.2986   1 
   2  -5 -10 894.803 63.2215   4 
  -2   5 -10 902.610 57.2281   6 
  -3  -5 -10 436.806 35.7588   6 
  -3  -5 -10 432.722 40.0866   1 
   3  -5  10 488.240 39.6340   7 
   3   5 -10 436.051 41.4468   1 
  -3  -5 -10 431.467 39.7673   8 
  -3   5 -10 440.396 34.5787   6 
  -3   5 -10 458.210 40.9982   1 
   3  -5 -10 464.975 41.2369   4 
   3  -5 -10 429.946 42.7664   1 
  -3   5 -10 527.472 43.8913   2 
   3  -5 -10 438.732 42.3128   8 
  -3  -5  10 450.440 36.3361   5 
   3  -5 -10 533.431 36.4522   3 
   4  -5  10 420.339 40.6051   4 
  -4  -5 -10 418.128 37.5532   6 
   4  -5  10 493.564 42.9147   7 
  -4  -5 -10 470.052 41.6371   8 
   4   5 -10 428.015 43.8545   1 
  -4  -5 -10 455.208 43.6002   1 
  -4  -5  10 523.431 39.1699   5 
  -4   5 -10 529.584 45.7946   2 
  -4   5 -10 479.616 44.8598   1 
   4  -5 -10 524.715 45.9578   4 
   4  -5 -10 507.950 48.3825   1 
  -5  -5 -10 391.498 41.3690   1 
  -5  -5 -10 363.727 35.0078   6 
   5   5 -10 407.792 43.1605   1 
  -5  -5 -10 414.486 38.6962   8 
  -5  -5  10 440.486 35.2310   5 
  -5   5 -10 429.496 43.9870   1 
   5  -5 -10 405.443 46.0646   1 
  -5   5 -10 411.387 42.8821   2 
  -6  -5 -10 197.727 32.2297   1 
   6   5 -10 205.390 33.9531   1 
  -6  -5  10 228.127 24.2500   5 
   6  -5 -10 217.411 35.2794   1 
  -6   5 -10 229.660 35.2271   1 
   0   6 -10 276.105 22.8383   6 
   0  -6  10 257.552 24.2922   8 
   0  -6 -10 267.896 24.6734   4 
   0  -6 -10 252.508 27.1292   1 
   0  -6 -10 240.489 27.5516   8 
   0  -6  10 280.243 21.9454   7 
   0   6 -10 244.760 25.7360   1 
   1   6 -10 1257.51 86.3634   6 
  -1  -6 -10 1195.13 90.1570   1 
  -1  -6 -10 1131.26 90.6515   8 
   1  -6  10 1307.39 87.0079   7 
  -1  -6 -10 1364.23 87.2091   4 
   1   6 -10 1139.49 89.8574   1 
   1  -6  10 1213.34 85.9240   8 
   1  -6 -10 1279.38 92.5790   1 
   1  -6 -10 1406.22 90.6092   4 
  -1   6 -10 1226.22 90.9794   1 
   1  -6 -10 1290.84 92.8783   8 
  -1   6 -10 1382.54 85.9455   6 
   2   6 -10 257.980 32.4333   1 
  -2  -6 -10 286.775 29.2009   6 
  -2  -6 -10 274.514 32.4332   1 
  -2  -6 -10 305.982 33.5748   8 
   2  -6  10 317.783 30.9729   7 
   2  -6 -10 394.619 36.8170   8 
  -2   6 -10 437.274 38.3449   2 
  -2   6 -10 423.414 29.8670   6 
   2  -6 -10 468.388 30.0473   3 
   2  -6 -10 435.466 36.3214   4 
  -2  -6  10 376.907 36.2331   3 
  -2   6 -10 417.571 36.3643   1 
   2  -6 -10 416.756 39.0317   1 
   3   6 -10 108.876 20.7416   1 
   3  -6  10 141.128 19.4465   7 
  -3  -6 -10 120.917 19.9895   1 
  -3  -6 -10 115.979 16.3388   6 
  -3  -6 -10 131.597 19.9152   8 
  -3   6 -10 147.795 24.0828   2 
   3  -6 -10 125.018 22.2681   1 
  -3   6 -10 117.644 20.0275   1 
   3  -6 -10 132.275 21.1353   4 
   3  -6 -10 146.420 17.6774   3 
   3  -6 -10 118.446 21.0359   8 
   4   6 -10 574.662 55.2145   1 
  -4  -6 -10 578.428 48.1013   6 
  -4  -6 -10 602.411 54.1845   1 
  -4  -6 -10 594.434 52.4907   8 
   4  -6  10 660.966 52.0599   7 
  -4   6 -10 703.651 57.2610   2 
   4  -6 -10 595.598 57.8327   1 
  -4   6 -10 605.312 55.4262   1 
  -4  -6  10 637.701 47.8975   5 
   4  -6 -10 663.455 56.8376   4 
   5   6 -10 678.379 63.5491   1 
  -5  -6 -10 687.521 61.9844   1 
   5  -6 -10 693.884 66.2656   1 
  -5  -6  10 706.216 53.3545   5 
  -5   6 -10 718.259 64.0772   1 
   0  -7  10 111.408 15.8140   8 
   0  -7 -10 114.819 16.5234   4 
   0  -7 -10 105.375 19.9605   8 
   0   7 -10 100.342 17.6310   1 
   0  -7 -10 102.739 18.8117   1 
   1  -7  10 422.908 33.6652   7 
   1   7 -10 354.980 35.7969   1 
   1  -7  10 394.766 31.5603   8 
  -1  -7 -10 387.580 36.7684   1 
  -1  -7 -10 393.975 37.4306   8 
   1  -7 -10 374.331 37.8916   1 
  -1   7 -10 370.240 36.8880   1 
   1  -7 -10 381.686 35.2562   4 
  -1  -7  10 381.425 34.8018   8 
   1  -7 -10 364.149 36.8509   8 
  -2  -7 -10 1041.57 79.5448   1 
   2   7 -10 962.562 78.9284   1 
  -2  -7 -10 969.018 78.5370   8 
   2  -7  10 1088.77 74.8995   7 
  -2  -7 -10 936.732 73.4807   6 
  -2   7 -10 1155.35 83.0591   2 
  -2  -7  10 984.376 77.0929   8 
   2  -7 -10 1078.51 82.5451   1 
   2  -7 -10 1140.13 73.2129   3 
  -2   7 -10 1046.86 79.7241   1 
   2  -7 -10 1080.80 78.7848   4 
   2  -7 -10 966.222 79.0239   8 
  -3  -7 -10 85.6253 19.5899   1 
   3  -7  10 108.985 18.1040   7 
  -3  -7 -10 81.5463 15.4409   6 
   3   7 -10 100.351 20.5424   1 
   3  -7 -10 121.986 18.2102   3 
  -3   7 -10 111.682 20.8223   1 
  -3   7 -10 125.681 22.9952   2 
   3  -7 -10 118.579 23.9708   1 
   3  -7 -10 120.100 22.0302   4 
   4  -7  10 521.202 43.8062   7 
   4   7 -10 459.277 48.0876   1 
  -4  -7 -10 463.694 45.9559   1 
  -4  -7 -10 425.144 39.5607   6 
  -4  -7  10 479.213 39.2368   5 
  -4   7 -10 470.166 47.0501   1 
   4  -7 -10 444.210 48.7793   1 
   5   7 -10 508.821 54.3507   1 
  -5  -7 -10 506.597 52.4042   1 
   5  -7 -10 526.365 55.0798   1 
  -5  -7  10 548.321 43.4887   5 
  -5   7 -10 534.072 53.6399   1 
   0  -8 -10 18.3503 13.8972   1 
   0   8 -10 17.6106 13.2079   1 
   0  -8  10 19.5285 10.9918   8 
   0  -8 -10 20.2138 12.2168   4 
   1   8 -10 857.494 74.2884   1 
  -1  -8 -10 889.561 75.0003   1 
  -1  -8  10 1014.43 73.2615   8 
   1  -8 -10 992.677 77.6273   1 
   1  -8 -10 1100.65 75.5505   4 
  -1   8 -10 949.955 75.7740   1 
   2   8 -10 247.320 31.9186   1 
  -2  -8 -10 262.349 31.8007   1 
  -2   8 -10 256.819 32.3040   1 
   2  -8 -10 275.455 34.8656   1 
   2  -8 -10 282.021 31.8196   4 
   2  -8 -10 299.018 27.3136   3 
   3   8 -10 57.1479 19.7397   1 
  -3  -8 -10 65.2848 19.2076   1 
   3  -8  10 66.7500 16.4443   7 
  -3  -8 -10 58.5785 15.5856   6 
   3  -8 -10 85.2269 23.4009   1 
  -3   8 -10 77.1333 20.5104   1 
   3  -8 -10 83.0832 17.6937   3 
  -4  -8 -10 412.989 45.0599   1 
   4   8 -10 360.822 44.0483   1 
   4  -8 -10 423.009 48.3237   1 
  -4  -8  10 427.587 37.1576   5 
  -4   8 -10 416.793 45.9938   1 
   4  -8 -10 477.366 41.1841   3 
   0  -9 -10 2.14463 9.63177   1 
   0   9 -10 1.32802 8.49852   1 
  -1  -9 -10 314.762 35.2042   1 
   1   9 -10 291.831 33.9706   1 
  -1   9 -10 281.699 34.5320   1 
   1  -9 -10 262.555 34.8239   1 
  -1  -9  10 281.788 34.7247   8 
   1  -9 -10 323.138 36.5883   4 
  -2  -9 -10 727.029 62.7155   1 
   2   9 -10 698.710 62.5650   1 
   2  -9 -10 776.624 56.6022   3 
  -2   9 -10 672.050 62.8153   1 
   2  -9 -10 664.011 64.3425   1 
  -3  -9 -10 13.9121 13.8002   1 
   3   9 -10 18.3406 14.0472   1 
  -3   9 -10 8.87432 11.9138   1 
   3  -9 -10 8.18966 12.3513   1 
   3  -9 -10 8.78080 11.7146   3 
   0 -10 -10 143.795 27.5582   1 
   0  10 -10 131.638 26.3300   1 
   1  10 -10 622.207 59.0398   1 
  -1 -10 -10 677.137 61.0621   1 
  -1  10 -10 661.354 60.5904   1 
   1 -10 -10 671.509 62.4006   1 
  -2 -10 -10 202.675 33.4748   1 
   2  10 -10 190.356 31.5553   1 
  -2  10 -10 236.323 34.4511   1 
   2 -10 -10 252.176 37.1072   1 
   2 -10 -10 262.331 28.6452   3 
   0   0 -11 4.91879 3.41796   1 
   0   0  11 15.9561 7.79538   8 
   0   0 -11 4.94540 3.26938   1 
   0   0  11 3.46137 3.67660   4 
   0   0  11 1.80464 3.98917   5 
   1   0  11 1453.97 95.6405   5 
  -1   0  11 1442.10 92.3309   6 
   1   0 -11 1453.46 95.3328   1 
  -1   0  11 1363.63 94.5413   2 
   1   0  11 1356.62 91.9591   4 
  -1   0  11 1497.12 100.981   8 
   1   0 -11 1411.25 95.2000   1 
  -1   0  11 1374.64 96.6678   4 
  -1   0  11 1415.28 96.2347   5 
   1   0  11 1538.44 98.4727   8 
   2   0  11 1331.15 92.3373   8 
   2   0 -11 1294.36 94.2648   1 
  -2   0 -11 1366.12 93.3575   8 
  -2   0 -11 1287.90 90.2531   1 
  -2   0  11 1281.46 93.1851   5 
  -2   0 -11 1543.05 92.7703   2 
   2   0 -11 1551.03 95.6756   1 
  -2   0  11 1342.17 92.3425   7 
  -2   0  11 1381.96 95.8898   4 
  -2   0 -11 1370.27 90.5265   1 
  -3   0  11 -0.3728 5.00503   5 
  -3   0 -11 12.4573 6.94369   8 
   3   0 -11 5.76900 6.25761   1 
  -3   0 -11 4.25081 5.77522   2 
  -3   0 -11 6.73960 3.88520   6 
  -3   0 -11 5.99464 4.71396   1 
   3   0  11 4.57122 3.58077   8 
   3   0  11 5.78440 5.84609   7 
  -3   0  11 2.28516 4.04117   7 
   3   0 -11 3.78496 5.78437   1 
   4   0 -11 174.710 24.0468   1 
   4   0  11 187.702 21.9099   7 
  -4   0 -11 187.557 21.0251   1 
  -4   0 -11 173.302 16.5540   6 
  -4   0  11 194.899 20.3556   5 
   5   0  11 998.939 73.4752   7 
  -5   0 -11 879.694 67.9802   6 
  -5   0  11 1025.76 70.9921   5 
   5   0 -11 986.410 78.7432   1 
  -6   0  11 33.5089 12.8444   5 
  -6   0 -11 21.1505 15.9362   1 
   6   0 -11 36.3832 19.3369   1 
   7   0 -11 283.854 39.3158   1 
  -7   0 -11 256.679 36.4663   1 
   0   1  11 8.61539 4.68392   4 
   0   1 -11 6.81484 3.37984   1 
   0  -1  11 19.5555 7.77575   8 
   0  -1 -11 13.4110 5.03767   1 
   0  -1 -11 6.47432 4.52802   1 
   0   1  11 12.8327 8.16329   8 
   0  -1  11 7.48378 5.02724   2 
   0  -1 -11 10.6091 6.63995   8 
   0  -1  11 4.45377 4.37833   5 
   0   1  11 3.88376 4.14458   5 
  -1   1  11 951.035 62.9199   5 
  -1   1  11 806.907 59.1476   2 
  -1  -1 -11 862.230 58.6734   1 
   1   1 -11 845.088 61.0424   1 
  -1  -1 -11 853.372 64.3801   8 
   1  -1  11 958.377 64.3484   8 
  -1  -1 -11 957.197 59.2868   1 
  -1   1  11 886.362 62.7608   4 
  -1   1 -11 876.079 57.6406   1 
   1  -1 -11 917.041 62.5763   1 
   1   1  11 910.362 61.5338   5 
  -1  -1  11 890.773 58.3410   6 
  -1  -1  11 936.472 66.5217   8 
  -1  -1  11 907.861 62.6096   5 
   1  -1 -11 877.314 62.2834   1 
  -1  -1  11 778.827 58.2675   3 
  -1  -1  11 883.069 62.2067   2 
   1   1  11 991.599 65.2959   8 
  -2  -1 -11 1957.24 132.533   8 
   2   1 -11 2221.63 133.629   1 
   2   1 -11 1894.59 132.551   1 
  -2   1  11 1980.51 131.774   5 
   2  -1  11 2053.85 130.222   8 
  -2  -1 -11 2005.78 129.332   1 
  -2  -1 -11 2194.46 129.385   2 
  -2  -1 -11 2058.94 129.451   1 
   2  -1  11 2016.70 132.817   7 
  -2   1  11 2005.52 131.674   7 
  -2   1  11 1999.84 133.894   4 
  -2  -1  11 1902.59 131.321   5 
  -2   1 -11 2058.89 132.012   2 
  -2   1 -11 1833.92 128.454   1 
   2   1  11 1913.21 129.491   5 
  -2  -1  11 1933.24 128.690   6 
   2  -1 -11 2089.35 133.970   1 
   2   1  11 1912.32 131.153   8 
  -2   1 -11 1946.97 128.813   1 
  -2  -1  11 1864.31 129.197   7 
   2  -1 -11 1728.53 132.413   1 
   3  -1  11 164.779 14.1330   8 
  -3  -1 -11 165.916 17.5471   1 
   3   1 -11 176.797 21.1202   1 
  -3   1  11 185.740 18.8568   5 
   3   1 -11 209.584 21.4766   1 
  -3  -1 -11 167.195 17.7194   8 
  -3  -1 -11 176.552 13.9345   6 
   3  -1  11 173.144 19.5928   7 
  -3  -1 -11 201.127 18.4175   1 
   3  -1  11 153.831 13.5202   4 
  -3   1 -11 170.480 17.4752   1 
   3   1  11 156.364 15.1057   5 
  -3  -1  11 164.252 18.1253   5 
  -3  -1  11 155.059 15.5666   7 
   3   1  11 145.574 15.6986   8 
   3  -1 -11 156.692 20.8098   1 
  -3   1 -11 179.120 18.8483   2 
  -3   1 -11 152.047 13.3015   6 
   4  -1  11 893.159 67.4284   7 
   4   1 -11 835.117 69.9274   1 
  -4  -1 -11 921.267 63.9733   8 
  -4  -1 -11 994.021 69.1836   1 
  -4  -1 -11 826.569 61.7241   6 
  -4  -1 -11 877.970 67.4548   1 
  -4   1  11 977.564 66.4238   5 
   4   1  11 905.316 65.3871   5 
   4  -1 -11 929.047 71.7390   1 
  -4   1 -11 957.214 67.6353   1 
   4   1  11 880.108 67.1197   7 
  -4  -1  11 940.520 65.4420   5 
  -4   1 -11 830.077 61.6785   6 
   5   1 -11 310.548 36.0171   1 
  -5  -1 -11 293.603 27.0315   6 
  -5   1  11 323.308 30.3247   5 
   5  -1  11 291.085 31.1333   7 
  -5  -1 -11 308.020 33.6510   1 
  -5   1 -11 308.813 27.2554   6 
   5  -1 -11 326.893 37.2591   1 
   5   1  11 353.861 32.6924   7 
  -5  -1  11 361.499 30.2681   5 
  -6  -1 -11 158.297 26.3639   1 
   6   1 -11 162.410 28.0021   1 
  -6  -1  11 161.955 20.3810   5 
   6  -1 -11 176.930 30.1521   1 
   0   2 -11 532.510 38.4963   1 
   0  -2  11 573.143 44.2652   8 
   0   2  11 586.272 41.5105   5 
   0  -2  11 511.335 41.4393   2 
   0  -2 -11 569.945 45.4080   8 
   0  -2 -11 553.113 40.4901   1 
   0  -2 -11 596.298 41.4519   1 
   0   2 -11 572.611 38.7653   1 
   1  -2  11 1435.10 93.0719   7 
  -1   2  11 1421.05 93.1566   5 
  -1  -2 -11 1487.60 91.5225   1 
  -1  -2 -11 1410.50 90.7550   1 
   1  -2  11 1505.17 94.4714   8 
   1   2 -11 1342.34 91.7199   1 
  -1   2  11 1288.70 87.8616   2 
  -1  -2 -11 1319.60 94.9495   8 
  -1  -2  11 1349.56 88.9560   6 
   1   2  11 1331.24 91.5688   5 
  -1  -2  11 1297.06 93.3861   2 
   1   2  11 1404.79 95.3066   8 
  -1  -2  11 1398.39 92.7893   5 
  -1  -2  11 1478.23 97.4631   8 
   1  -2 -11 1309.19 96.9647   8 
  -1  -2  11 1253.60 89.5043   3 
  -1   2 -11 1420.14 89.3085   1 
   1  -2 -11 1375.09 94.5818   1 
  -1   2 -11 1320.21 89.6350   1 
   1  -2 -11 1301.72 93.8270   1 
  -2  -2 -11 860.469 59.0039   1 
  -2  -2 -11 805.155 61.5168   8 
  -2   2  11 865.161 62.6511   4 
   2   2 -11 867.954 61.6250   1 
  -2   2  11 870.612 60.7185   5 
  -2  -2 -11 894.100 59.0730   1 
  -2  -2 -11 963.791 56.5795   2 
   2  -2  11 877.655 58.4042   8 
   2  -2  11 881.300 61.5116   7 
  -2  -2 -11 838.174 55.6981   6 
  -2   2 -11 817.430 58.1761   1 
  -2  -2  11 819.899 60.0141   5 
  -2   2 -11 879.721 61.9249   2 
   2  -2 -11 797.272 62.8239   1 
   2   2  11 802.190 60.5064   8 
  -2  -2  11 764.471 56.6248   7 
  -2  -2  11 842.137 57.6023   6 
   2   2  11 769.746 57.6174   5 
   2  -2 -11 878.168 63.5182   1 
  -2   2 -11 809.704 58.9185   1 
   3  -2  11 117.630 13.5140   4 
   3  -2  11 149.221 17.3171   7 
  -3  -2 -11 130.514 11.8170   6 
  -3  -2 -11 152.985 15.9038   1 
  -3  -2 -11 127.734 15.6279   8 
  -3   2  11 139.373 16.3017   5 
   3   2 -11 143.092 18.7951   1 
   3   2 -11 132.661 17.4869   1 
  -3  -2 -11 137.563 15.8453   1 
  -3   2 -11 98.7023 10.2571   6 
   3   2  11 106.975 11.5770   5 
  -3   2 -11 97.2026 14.1169   1 
   3  -2 -11 103.903 17.9042   1 
   3   2  11 109.755 13.8653   8 
  -3   2 -11 107.198 16.3480   2 
  -3   2 -11 102.492 14.1290   1 
  -3  -2  11 105.324 14.5808   5 
   4  -2  11 155.403 19.2997   7 
  -4  -2 -11 141.424 16.9317   8 
  -4   2  11 143.255 17.4636   5 
  -4  -2 -11 138.779 14.4014   6 
   4   2 -11 148.303 21.6424   1 
  -4  -2 -11 145.220 19.0447   1 
  -4   2 -11 108.196 17.2630   1 
   4   2  11 100.471 17.0528   7 
  -4   2 -11 109.828 18.8841   2 
   4  -2 -11 101.880 20.5189   1 
  -4  -2  11 115.955 17.0933   5 
  -5  -2 -11 1056.32 81.0770   1 
  -5  -2 -11 961.512 73.2712   6 
  -5   2  11 1124.60 76.6118   5 
   5   2 -11 1038.35 83.5570   1 
   5  -2  11 1102.44 79.4063   7 
   5   2  11 1006.54 78.1945   7 
  -5  -2  11 1113.49 76.1259   5 
   5  -2 -11 1123.76 86.3301   1 
  -5   2 -11 961.115 73.9666   6 
  -6  -2 -11 63.2252 20.4226   1 
   6   2 -11 61.0644 21.9759   1 
   6  -2 -11 102.845 25.4021   1 
  -6  -2  11 108.140 17.6369   5 
   0  -3  11 155.765 14.3249   7 
   0  -3 -11 153.194 16.4272   1 
   0  -3  11 135.133 16.8220   8 
   0   3  11 133.961 14.9887   5 
   0   3 -11 145.658 13.7105   1 
   0  -3 -11 124.425 17.5330   8 
   0  -3 -11 130.108 14.5316   1 
   0   3 -11 129.535 13.5670   1 
   1   3 -11 1054.85 71.8045   1 
   1  -3  11 1002.85 72.5267   8 
   1  -3  11 1006.31 71.3655   7 
   1   3 -11 931.472 71.0110   1 
  -1  -3 -11 998.945 71.0440   1 
  -1  -3 -11 1090.35 72.1354   1 
  -1   3  11 985.044 71.4380   5 
  -1  -3 -11 962.776 74.4376   8 
   1   3  11 1043.31 70.2480   5 
   1  -3 -11 1040.43 76.7533   8 
   1  -3 -11 1054.98 74.2720   1 
  -1   3 -11 1057.04 66.5390   6 
  -1  -3  11 996.578 69.5107   3 
  -1   3 -11 1092.97 69.7101   1 
  -1  -3  11 1055.63 68.4411   6 
  -1   3 -11 1093.95 70.7882   1 
   1  -3 -11 1069.55 75.6556   1 
  -1  -3  11 1041.53 68.6941   7 
  -2   3  11 1471.36 94.0146   5 
   2   3 -11 1419.93 95.5169   1 
   2  -3  11 1529.57 94.7236   7 
  -2  -3 -11 1700.47 87.9691   2 
  -2  -3 -11 1390.67 89.8097   6 
  -2  -3 -11 1618.21 94.5592   1 
  -2  -3 -11 1430.77 93.4197   1 
  -2  -3 -11 1379.48 95.5849   8 
   2  -3  11 1510.27 91.5485   8 
  -2  -3  11 1280.97 92.8031   5 
   2   3  11 1243.20 90.0925   5 
   2  -3 -11 1216.10 96.2069   1 
  -2   3 -11 1359.27 92.4415   1 
  -2  -3  11 1284.64 88.4356   7 
  -2   3 -11 1326.19 95.3960   2 
   2  -3 -11 1261.77 98.1348   8 
  -2   3 -11 1242.11 92.9031   1 
  -2  -3  11 1308.20 88.1526   7 
  -2   3 -11 1330.37 88.2229   6 
   2  -3 -11 1373.68 97.8076   1 
  -2  -3  11 1264.44 90.4770   6 
  -2  -3  11 1126.94 91.3198   3 
  -3  -3 -11 542.990 36.1827   6 
  -3  -3 -11 549.629 40.5930   1 
  -3  -3 -11 634.312 41.7312   1 
   3  -3  11 588.860 41.7849   7 
  -3  -3 -11 529.125 40.4526   8 
  -3   3  11 594.482 41.0249   5 
   3   3 -11 556.959 43.4273   1 
  -3   3 -11 441.065 38.8075   1 
  -3   3 -11 400.017 39.2012   1 
  -3  -3  11 432.119 37.8390   5 
   3  -3 -11 436.740 43.1437   1 
  -3   3 -11 455.279 41.3356   2 
  -3   3 -11 399.562 33.8492   6 
   3   3  11 396.847 33.8515   5 
  -4  -3 -11 669.458 52.2177   6 
   4   3 -11 682.892 60.1868   1 
   4  -3  11 729.620 57.7206   7 
  -4  -3 -11 682.032 55.2043   8 
  -4  -3 -11 688.812 57.6809   1 
  -4   3  11 696.844 55.2661   5 
  -4   3 -11 854.960 60.6115   2 
  -4  -3  11 820.060 55.2434   5 
  -4   3 -11 759.412 59.0935   1 
   4  -3 -11 812.104 63.9542   1 
   5  -3  11 232.170 27.8990   7 
  -5  -3 -11 214.475 28.5988   1 
  -5  -3 -11 220.051 22.9287   6 
   5   3 -11 214.421 30.7914   1 
  -5   3 -11 265.228 29.7073   2 
  -5   3 -11 233.679 30.1674   1 
  -5  -3  11 247.446 24.1702   5 
   5  -3 -11 247.672 33.5346   1 
   6   3 -11 176.467 30.8235   1 
  -6  -3 -11 164.161 28.2335   1 
   6  -3 -11 178.133 32.2909   1 
  -6  -3  11 175.698 22.1449   5 
   0  -4 -11 722.217 56.0183   1 
   0   4  11 730.054 53.9111   5 
   0  -4 -11 800.681 58.2295   1 
   0   4 -11 718.786 54.6550   1 
   0  -4  11 786.013 53.3578   7 
   0  -4 -11 840.507 54.4620   4 
   0  -4 -11 699.200 58.3163   8 
   0   4 -11 791.167 54.5713   1 
   0   4 -11 785.451 51.8476   6 
   1   4 -11 721.173 59.4206   1 
  -1  -4 -11 860.099 61.5865   1 
  -1  -4 -11 755.973 59.6017   1 
   1  -4  11 850.017 59.5718   7 
   1   4 -11 833.362 60.4076   1 
  -1   4  11 833.953 59.6387   5 
   1  -4  11 797.374 60.0048   8 
  -1  -4 -11 754.007 62.0872   8 
  -1   4 -11 903.451 59.4189   1 
   1   4  11 821.960 57.7563   5 
  -1  -4  11 832.212 55.6630   7 
   1  -4 -11 803.095 62.5565   1 
   1  -4 -11 930.000 61.4978   4 
  -1  -4  11 841.093 56.8545   6 
   1  -4 -11 849.637 65.0341   8 
  -1   4 -11 835.590 60.1339   1 
  -1   4 -11 895.961 56.0056   6 
   1  -4 -11 937.584 66.1957   1 
  -2  -4 -11 482.599 40.7880   1 
  -2  -4 -11 491.478 37.5247   6 
  -2  -4 -11 458.173 42.3129   8 
  -2   4  11 493.493 40.2502   5 
  -2  -4 -11 542.158 42.3089   1 
   2  -4  11 487.565 40.7328   7 
   2   4 -11 472.038 41.9290   1 
   2   4 -11 516.905 42.0158   1 
   2  -4 -11 555.819 45.8521   1 
   2  -4 -11 554.276 43.0768   4 
   2  -4 -11 510.970 45.4902   8 
   2   4  11 498.770 36.8236   5 
  -2   4 -11 537.573 36.2691   6 
  -2   4 -11 541.296 41.6392   1 
  -2   4 -11 587.560 41.2638   1 
  -2   4 -11 585.330 44.6347   2 
   3   4 -11 223.990 26.6710   1 
   3  -4  11 242.764 25.2916   7 
  -3  -4 -11 231.110 21.4554   6 
  -3  -4 -11 225.824 25.2306   1 
  -3  -4 -11 238.653 25.8757   8 
  -3   4 -11 268.709 27.2659   1 
  -3  -4  11 265.827 24.0547   5 
   3  -4 -11 261.593 30.2808   1 
  -3   4 -11 262.990 20.5186   6 
  -3   4 -11 276.884 29.2121   2 
  -3   4 -11 266.813 25.1921   1 
   4   4 -11 430.952 41.5367   1 
  -4  -4 -11 426.691 37.2264   8 
  -4  -4 -11 415.197 38.9292   1 
   4  -4  11 475.189 39.9255   7 
  -4  -4 -11 423.740 34.1007   6 
  -4   4 -11 459.726 41.6675   2 
  -4   4 -11 382.442 39.7847   1 
   4  -4 -11 410.170 43.7589   1 
  -4  -4  11 435.406 35.3063   5 
  -4   4 -11 396.842 35.5130   6 
  -5  -4 -11 636.420 56.9664   1 
  -5  -4 -11 608.737 49.7458   6 
   5   4 -11 652.141 59.7142   1 
  -5   4 -11 680.069 57.0711   2 
  -5  -4  11 715.821 51.5639   5 
  -5   4 -11 653.454 59.2034   1 
   5  -4 -11 640.189 61.4084   1 
   6   4 -11 220.993 35.6208   1 
  -6  -4 -11 224.653 33.4702   1 
   6  -4 -11 277.244 39.5218   1 
  -6  -4  11 301.089 27.9757   5 
  -6   4 -11 254.724 35.6577   1 
   0  -5 -11 465.870 33.4228   4 
   0   5 -11 378.090 33.5697   1 
   0  -5 -11 437.821 38.4704   1 
   0  -5  11 402.580 30.5917   7 
   0   5 -11 393.189 30.2990   6 
   0  -5 -11 394.432 35.1676   1 
   0   5 -11 392.432 33.1357   1 
   0  -5 -11 375.144 36.3109   8 
  -1  -5 -11 650.821 45.5579   4 
   1  -5  11 621.604 47.5870   7 
   1   5 -11 633.341 49.6110   1 
   1   5 -11 653.185 46.6416   6 
   1   5 -11 588.573 49.1504   1 
  -1  -5 -11 694.922 55.8832   1 
  -1  -5 -11 588.498 51.4689   8 
  -1  -5 -11 584.091 49.2121   1 
   1  -5 -11 674.815 49.7191   4 
   1  -5 -11 615.211 52.5630   8 
   1  -5 -11 630.874 51.8723   1 
  -1   5 -11 710.603 50.9095   1 
  -1   5 -11 710.620 49.5434   1 
  -1   5 -11 670.836 45.0803   6 
   2   5 -11 578.140 47.6837   1 
  -2  -5 -11 550.556 42.6140   6 
  -2  -5 -11 568.362 46.5415   1 
   2  -5  11 648.063 46.4283   7 
  -2  -5 -11 586.239 47.8766   8 
  -2   5 -11 549.842 46.3402   1 
   2  -5 -11 546.211 49.4779   1 
   2  -5 -11 577.849 50.6114   8 
   2  -5 -11 638.893 48.3544   4 
  -2   5 -11 625.869 50.2914   2 
  -2   5 -11 555.688 41.2026   6 
  -2   5 -11 589.332 46.0140   1 
  -3  -5 -11 1153.32 85.0334   1 
  -3  -5 -11 1201.97 80.5734   6 
   3  -5  11 1341.76 85.8324   7 
  -3  -5 -11 1189.45 85.6198   8 
   3   5 -11 1165.36 87.0027   1 
  -3   5 -11 1063.95 85.1040   1 
   3  -5 -11 1181.60 87.1353   4 
  -3   5 -11 1088.21 78.4631   6 
   3  -5 -11 1104.36 89.1958   1 
  -3   5 -11 1195.93 88.0763   2 
   3  -5 -11 1247.98 77.2743   3 
   3  -5 -11 1047.05 87.0914   8 
  -3  -5  11 1151.92 81.6808   5 
  -4  -5 -11 455.944 42.5979   1 
  -4  -5 -11 443.474 37.0428   6 
   4   5 -11 453.525 44.2650   1 
   4  -5  11 510.969 42.2992   7 
  -4  -5 -11 464.735 41.4952   8 
  -4   5 -11 418.883 42.5070   1 
  -4   5 -11 485.092 45.0769   2 
   4  -5 -11 437.593 46.3877   1 
  -4  -5  11 458.380 37.5862   5 
   4  -5 -11 453.876 43.5010   4 
  -5  -5 -11 123.131 23.4208   1 
   5   5 -11 111.829 24.3319   1 
  -5   5 -11 113.660 23.7313   1 
   5  -5 -11 124.615 27.0889   1 
  -5  -5  11 129.200 17.5421   5 
  -5   5 -11 121.709 23.4336   2 
   6   5 -11 272.587 38.6439   1 
  -6  -5 -11 260.448 36.3351   1 
  -6  -5  11 287.086 28.5683   5 
   6  -5 -11 271.848 41.2254   1 
  -6   5 -11 288.386 39.5932   1 
   0  -6 -11 823.972 68.3751   8 
   0  -6 -11 881.877 68.2281   1 
   0   6 -11 870.959 66.5526   1 
   0  -6 -11 963.440 65.1176   4 
   0   6 -11 939.628 62.7690   6 
   1  -6  11 356.762 27.7546   8 
   1   6 -11 373.088 29.0955   6 
   1  -6  11 389.088 28.7826   7 
  -1  -6 -11 369.928 34.8115   8 
  -1  -6 -11 347.822 32.0449   1 
   1   6 -11 331.469 31.7828   1 
  -1   6 -11 310.994 26.2913   6 
   1  -6 -11 308.446 30.4485   4 
  -1   6 -11 290.758 31.0530   1 
   1  -6 -11 277.231 32.9486   8 
   1  -6 -11 267.834 31.5185   1 
  -2  -6 -11 187.450 24.1154   8 
   2  -6  11 196.047 21.3225   7 
   2   6 -11 177.021 23.4599   1 
  -2  -6 -11 183.351 23.2056   1 
  -2   6 -11 211.091 18.7271   6 
   2  -6 -11 184.743 26.3613   8 
   2  -6 -11 207.410 24.2969   4 
   2  -6 -11 168.851 25.6049   1 
  -2   6 -11 203.764 24.3361   1 
  -2   6 -11 202.027 26.1175   2 
   3  -6  11 672.399 51.1280   7 
  -3  -6 -11 571.522 46.6076   6 
  -3  -6 -11 606.500 52.4357   1 
  -3  -6 -11 593.463 51.8511   8 
   3   6 -11 587.195 53.3826   1 
  -3   6 -11 658.459 55.0390   2 
  -3   6 -11 597.001 52.8539   1 
   3  -6 -11 603.220 52.7926   4 
   3  -6 -11 691.530 45.4892   3 
   3  -6 -11 610.366 55.6979   1 
   4  -6  11 377.307 35.3330   7 
  -4  -6 -11 316.171 35.2554   8 
  -4  -6 -11 334.964 30.5759   6 
   4   6 -11 333.579 38.0703   1 
  -4  -6 -11 332.160 36.0548   1 
  -4  -6  11 305.970 29.7170   5 
  -4   6 -11 320.381 37.3356   2 
   4  -6 -11 315.565 39.2348   1 
   4  -6 -11 353.330 30.0592   3 
  -4   6 -11 324.739 37.4737   1 
   5   6 -11 311.389 40.0781   1 
  -5  -6 -11 314.655 38.5298   1 
  -5  -6  11 377.707 31.9149   5 
  -5   6 -11 345.505 40.4355   1 
   5  -6 -11 350.906 43.7014   1 
   0   7 -11 248.010 27.8905   1 
   0  -7  11 256.524 25.0840   8 
   0  -7 -11 255.408 30.8358   8 
   0  -7 -11 260.326 29.0729   1 
   1   7 -11 518.241 46.5197   1 
  -1  -7 -11 539.545 47.2567   1 
  -1  -7 -11 502.635 47.9174   8 
  -1   7 -11 562.742 47.7464   1 
   1  -7 -11 578.300 45.9903   4 
   1  -7 -11 544.885 48.5122   1 
  -1  -7  11 533.530 44.6970   8 
  -2  -7 -11 393.593 37.7211   1 
   2   7 -11 384.826 38.0260   1 
   2  -7  11 479.202 35.1419   7 
  -2  -7  11 321.691 35.4224   8 
   2  -7 -11 348.906 39.6698   1 
  -2   7 -11 385.770 40.1849   2 
   2  -7 -11 365.147 36.7773   4 
  -2   7 -11 330.176 36.9796   1 
   3  -7  11 1029.37 72.2328   7 
   3   7 -11 888.824 75.4828   1 
  -3  -7 -11 914.799 69.3771   6 
  -3  -7 -11 944.632 75.0890   1 
  -3   7 -11 904.118 75.3552   1 
   3  -7 -11 925.855 78.9589   1 
  -3   7 -11 985.179 78.1627   2 
   3  -7 -11 1024.95 67.8791   3 
   3  -7 -11 945.150 75.1009   4 
  -4  -7 -11 338.241 40.1996   1 
   4   7 -11 333.274 41.3536   1 
   4  -7 -11 379.747 44.2385   1 
  -4   7 -11 379.024 41.6612   1 
   4  -7 -11 465.152 36.3774   3 
  -4  -7  11 402.736 34.9298   5 
  -5  -7 -11 46.5730 21.0576   1 
   5   7 -11 60.1640 23.2382   1 
  -5  -7  11 88.7336 17.2541   5 
   5  -7 -11 90.5691 26.3535   1 
  -5   7 -11 79.6760 24.0899   1 
   0  -8  11 1064.84 75.4448   8 
   0  -8 -11 984.882 79.4978   1 
   0   8 -11 1047.51 79.6286   1 
   1   8 -11 128.862 21.5778   1 
  -1  -8 -11 125.462 22.0979   1 
  -1   8 -11 116.114 21.5973   1 
   1  -8 -11 106.905 21.9191   1 
  -1  -8  11 107.051 19.1869   8 
   2   8 -11 155.167 25.3618   1 
  -2  -8 -11 162.237 25.2791   1 
  -2   8 -11 151.536 25.5603   1 
   2  -8 -11 145.669 23.7619   4 
   2  -8 -11 159.208 17.8812   3 
   2  -8 -11 142.284 26.7600   1 
   3   8 -11 364.139 41.5862   1 
  -3  -8 -11 338.655 39.5195   1 
  -3   8 -11 358.390 40.2711   1 
   3  -8 -11 368.460 43.8156   1 
   3  -8 -11 432.438 34.3005   3 
   4   8 -11 351.282 42.2380   1 
  -4  -8 -11 355.746 41.7767   1 
  -4  -8  11 361.256 34.0670   5 
  -4   8 -11 360.118 42.3182   1 
   4  -8 -11 356.054 44.8195   1 
   4  -8 -11 423.915 36.9932   3 
   0  -9 -11 269.218 33.9861   1 
   0   9 -11 280.949 33.1890   1 
  -1  -9 -11 263.763 32.9808   1 
   1   9 -11 242.779 31.2569   1 
   1  -9 -11 240.981 33.3040   1 
  -1   9 -11 247.975 32.5675   1 
  -2  -9 -11 149.505 26.4905   1 
   2   9 -11 135.367 26.1523   1 
   2  -9 -11 168.500 20.2922   3 
   2  -9 -11 156.278 29.7224   1 
  -2   9 -11 176.006 28.3865   1 
   3   9 -11 764.796 71.6394   1 
  -3  -9 -11 723.776 69.6149   1 
  -3   9 -11 810.111 72.0206   1 
   3  -9 -11 941.282 63.2836   3 
   3  -9 -11 857.747 75.2909   1 
   0 -10 -11 915.673 77.6511   1 
   0  10 -11 869.657 75.5650   1 
   1  10 -11 65.0886 20.8886   1 
  -1 -10 -11 70.9138 23.3536   1 
  -1  10 -11 59.0928 21.7979   1 
   1 -10 -11 56.0494 23.2378   1 
   0   0  12 283.987 23.9117   5 
   0   0 -12 279.909 20.6068   1 
   0   0 -12 266.582 19.9783   1 
   0   0  12 306.594 28.1458   8 
   0   0  12 259.191 21.9855   4 
  -1   0  12 424.788 33.0148   2 
   1   0 -12 488.471 34.1395   1 
  -1   0  12 433.282 35.2540   4 
   1   0 -12 439.984 33.5741   1 
   1   0  12 411.978 30.0761   4 
   1   0  12 490.705 37.4221   8 
  -1   0  12 453.950 35.0802   5 
   1   0  12 470.120 34.7321   5 
  -2   0  12 76.1918 12.4579   5 
  -2   0 -12 75.8325 8.81414   1 
  -2   0 -12 83.7009 9.10216   1 
  -2   0 -12 90.9894 11.2131   2 
   2   0  12 66.4080 10.5784   5 
  -2   0  12 83.5069 13.7118   4 
   2   0 -12 71.9357 12.2418   1 
   2   0 -12 85.0189 12.7907   1 
  -2   0  12 77.4214 10.8605   7 
   2   0  12 78.8541 11.6176   8 
  -3   0  12 2625.20 166.977   5 
  -3   0 -12 2706.67 166.405   2 
  -3   0 -12 2575.89 165.354   8 
   3   0 -12 2433.43 169.506   1 
  -3   0 -12 2368.92 164.958   1 
   3   0  12 2423.25 168.032   7 
  -3   0  12 2428.75 165.007   7 
   3   0 -12 2759.09 184.660   1 
  -3   0 -12 2309.43 159.959   6 
  -3   0 -12 2561.53 165.346   1 
   4   0  12 51.8925 13.8602   7 
  -4   0 -12 71.2836 15.4366   1 
   4   0 -12 61.3456 16.1956   1 
  -4   0  12 62.6925 13.1371   5 
  -4   0 -12 65.1448 13.3375   1 
  -4   0 -12 49.7237 8.27898   6 
  -5   0 -12 80.4504 12.1747   6 
   5   0 -12 84.0179 20.6136   1 
  -5   0 -12 78.2720 17.3229   1 
  -5   0  12 105.679 16.4275   5 
   6   0 -12 171.149 30.0239   1 
  -6   0  12 162.237 22.7853   5 
  -6   0 -12 153.822 25.6444   1 
   0   1  12 2642.89 174.461   5 
   0  -1 -12 2759.36 172.853   1 
   0  -1  12 2816.91 178.628   8 
   0  -1 -12 2558.27 172.192   1 
   0   1 -12 2577.07 170.413   1 
   0  -1  12 2722.63 174.902   5 
   0   1  12 2617.38 172.494   4 
  -1   1  12 179.437 19.6584   4 
  -1   1  12 172.862 16.3981   2 
   1  -1  12 186.847 20.9277   8 
   1   1 -12 179.923 18.1626   1 
   1   1 -12 201.288 18.5003   1 
  -1  -1 -12 178.850 21.5969   8 
  -1   1  12 196.399 20.0257   5 
  -1  -1 -12 202.546 16.3730   1 
  -1  -1 -12 181.966 15.8890   1 
  -1  -1  12 264.176 21.5887   5 
   1  -1 -12 258.481 20.5613   1 
   1   1  12 267.761 20.4977   5 
   1   1  12 297.355 24.0644   8 
  -1  -1  12 268.900 20.8289   2 
   1  -1 -12 284.149 21.6137   1 
  -2   1  12 626.492 47.0427   4 
   2   1 -12 582.536 45.4993   1 
   2  -1  12 613.296 45.9938   7 
  -2   1  12 627.466 45.3857   5 
   2   1 -12 592.612 45.4196   1 
   2  -1  12 641.168 43.8597   8 
  -2  -1 -12 628.636 42.1057   1 
  -2  -1 -12 636.043 46.7053   8 
  -2  -1 -12 615.851 42.0095   1 
  -2  -1 -12 663.476 41.9545   2 
   2  -1 -12 590.874 46.2952   1 
  -2  -1  12 571.935 44.5481   5 
  -2  -1  12 559.785 42.4539   7 
   2  -1 -12 537.153 45.5164   1 
   2   1  12 549.648 42.6143   5 
  -2  -1  12 556.799 46.4338   4 
   2   1  12 554.530 44.3456   8 
  -2  -1  12 574.973 41.3741   6 
  -2   1 -12 597.342 44.4773   2 
  -2   1 -12 566.133 41.2160   1 
  -3   1  12 193.945 19.6650   5 
   3  -1  12 174.762 20.0526   7 
   3   1 -12 173.199 21.2849   1 
  -3  -1 -12 167.280 13.0661   6 
  -3  -1 -12 198.100 17.8349   2 
  -3  -1 -12 177.039 17.8754   1 
  -3  -1 -12 176.441 18.8736   8 
  -3  -1 -12 188.957 18.0493   1 
  -3  -1  12 151.839 18.4101   5 
   3   1  12 149.213 16.0796   8 
  -3   1 -12 177.141 19.5748   2 
  -3   1 -12 142.149 11.7716   6 
  -3   1 -12 138.375 11.7789   6 
   3  -1 -12 156.129 21.1270   1 
  -3   1 -12 160.278 17.2178   1 
   3   1  12 151.958 15.6451   5 
   4  -1  12 880.702 66.5478   7 
   4   1 -12 877.429 69.6500   1 
  -4  -1 -12 783.257 64.6917   1 
  -4  -1 -12 855.761 59.8671   6 
  -4   1  12 880.791 64.5992   5 
   4  -1 -12 872.027 69.8686   1 
   4   1  12 849.241 66.2982   7 
  -4   1 -12 954.475 66.9516   2 
  -4   1 -12 830.240 59.5733   6 
  -4   1 -12 956.328 77.0139   1 
  -4  -1  12 953.949 65.0287   5 
  -5   1  12 46.5187 13.2470   5 
  -5  -1 -12 40.0336 9.93989   6 
   5   1 -12 50.2465 17.7126   1 
  -5  -1 -12 41.8420 15.3051   1 
  -5   1 -12 38.3710 9.74420   6 
   5  -1 -12 43.3007 17.8679   1 
  -5  -1  12 46.3342 14.5542   5 
   6   1 -12 1015.30 87.0240   1 
  -6   1  12 1086.82 78.2591   5 
  -6  -1 -12 949.975 83.0882   1 
   6  -1 -12 1136.60 90.0526   1 
  -6  -1  12 1120.58 78.0171   5 
   0   2 -12 162.798 13.6492   1 
   0  -2 -12 165.127 15.9363   1 
   0  -2  12 139.725 16.1300   2 
   0   2  12 149.312 16.0105   5 
   0  -2  12 150.886 18.0456   8 
   0   2 -12 148.887 13.1318   1 
   0  -2 -12 172.729 15.5833   1 
   0  -2 -12 151.816 20.4337   8 
  -1   2  12 576.769 40.7326   5 
  -1  -2 -12 552.652 37.4482   1 
   1  -2  12 576.356 40.3570   7 
   1  -2  12 558.656 41.1988   8 
  -1  -2 -12 543.144 42.9234   8 
   1   2 -12 548.820 38.6902   1 
  -1  -2 -12 619.317 38.4748   1 
  -1   2 -12 474.293 35.8763   1 
   1  -2 -12 447.227 39.6261   1 
   1  -2 -12 516.114 41.6575   1 
  -1  -2  12 502.191 39.8656   5 
   1  -2 -12 471.169 44.1314   8 
  -1   2 -12 468.812 35.2504   1 
  -1  -2  12 485.473 42.5174   2 
   1   2  12 490.133 38.4838   5 
  -2  -2 -12 148.697 19.1195   8 
   2   2 -12 177.978 19.2141   1 
  -2  -2 -12 183.830 13.6252   2 
  -2   2  12 162.205 18.5099   5 
  -2   2  12 161.637 19.4372   4 
   2  -2  12 160.758 16.2347   8 
  -2  -2 -12 154.385 16.1136   1 
   2  -2  12 150.839 18.3454   7 
  -2  -2 -12 174.826 16.4281   1 
   2  -2 -12 182.076 20.8406   1 
  -2  -2  12 171.333 15.3848   7 
  -2   2 -12 216.689 20.4887   2 
  -2  -2  12 181.830 18.6618   5 
  -2   2 -12 189.129 16.0088   1 
   2   2  12 178.429 19.2597   8 
   2   2  12 176.357 16.3179   5 
  -2  -2  12 177.546 15.3248   6 
  -2   2 -12 171.810 16.1952   1 
   2  -2 -12 163.629 19.9909   1 
   3  -2  12 2330.83 154.528   7 
  -3  -2 -12 2242.03 147.735   6 
   3   2 -12 2202.68 155.705   1 
  -3  -2 -12 2441.79 152.995   1 
  -3  -2 -12 2204.60 153.244   8 
  -3  -2 -12 2246.95 152.449   1 
  -3   2  12 2379.34 153.416   5 
   3   2  12 2295.64 151.728   8 
   3  -2 -12 2282.49 157.336   1 
   3   2  12 2216.93 148.898   5 
  -3   2 -12 2204.89 152.146   1 
  -3   2 -12 2185.96 146.319   6 
  -3   2 -12 2126.09 146.529   6 
  -3   2 -12 2355.04 152.551   1 
  -3   2 -12 2583.84 155.626   2 
  -3  -2  12 2411.77 152.853   5 
   4   2 -12 134.204 21.6454   1 
  -4  -2 -12 136.444 19.0327   1 
  -4  -2 -12 137.785 13.9319   6 
   4  -2  12 129.119 18.7529   7 
  -4  -2 -12 125.480 16.8865   8 
  -4   2  12 137.068 18.0389   5 
   4   2  12 138.648 19.2756   7 
  -4   2 -12 143.663 20.1720   2 
  -4   2 -12 128.308 18.2217   1 
  -4  -2  12 133.121 17.4375   5 
   4  -2 -12 133.939 22.6727   1 
  -4   2 -12 114.371 13.1650   6 
  -5  -2 -12 142.869 16.7942   6 
  -5   2  12 176.973 21.1418   5 
  -5  -2 -12 145.718 22.7681   1 
   5   2 -12 155.487 25.6675   1 
  -5   2 -12 131.915 16.5216   6 
   5  -2 -12 156.405 26.6984   1 
  -5  -2  12 156.521 19.6242   5 
  -5   2 -12 141.514 23.0683   2 
   6   2 -12 93.8132 24.2979   1 
  -6  -2 -12 73.5877 21.3144   1 
  -6  -2  12 112.974 18.9724   5 
   6  -2 -12 116.990 27.0646   1 
   0   3  12 1199.61 83.7559   5 
   0  -3 -12 1148.39 88.2167   8 
   0   3 -12 1280.97 82.4895   1 
   0   3 -12 1226.69 82.4719   1 
   0  -3 -12 1280.17 85.5529   1 
   0  -3  12 1255.02 83.0355   7 
   0  -3 -12 1174.07 84.2429   1 
   0  -3  12 1249.38 87.3495   8 
  -1   3  12 627.040 47.0785   5 
  -1  -3 -12 665.299 46.9037   1 
   1   3 -12 559.993 45.6496   1 
  -1  -3 -12 584.454 49.4307   8 
  -1  -3 -12 559.326 45.2264   1 
   1  -3  12 634.109 47.7673   8 
   1   3 -12 679.328 46.8954   1 
   1  -3  12 623.977 46.6063   7 
   1  -3 -12 680.098 50.9718   1 
   1  -3 -12 614.815 48.8099   1 
  -1  -3  12 649.084 44.0606   7 
  -1   3 -12 608.236 44.7455   1 
   1   3  12 655.178 45.6330   5 
   1  -3 -12 648.816 52.2390   8 
  -1   3 -12 668.367 44.3314   1 
  -2  -3 -12 592.387 42.8944   1 
   2  -3  12 567.850 43.7889   7 
  -2  -3 -12 560.733 42.0964   1 
   2   3 -12 533.859 43.6880   1 
  -2  -3 -12 526.647 44.5393   8 
  -2   3  12 582.927 43.6474   5 
  -2   3 -12 624.439 46.2682   2 
   2  -3 -12 563.776 46.9639   1 
   2   3  12 519.114 39.9300   5 
   2  -3 -12 583.010 47.8851   1 
  -2  -3  12 534.607 42.6457   5 
  -2   3 -12 536.637 42.1405   1 
  -2   3 -12 551.644 40.9345   1 
  -3  -3 -12 83.1615 14.8114   8 
  -3   3  12 81.8500 14.5771   5 
  -3  -3 -12 84.1992 14.1149   1 
  -3  -3 -12 93.1477 14.0669   1 
   3  -3  12 87.7770 15.6646   7 
  -3  -3 -12 83.5667 10.1293   6 
   3   3 -12 85.5705 15.7120   1 
  -3  -3  12 55.1992 12.5078   5 
  -3   3 -12 79.8253 16.4438   2 
  -3   3 -12 73.2184 14.0139   1 
  -3   3 -12 78.2189 12.8515   1 
  -3   3 -12 64.3032 7.98693   6 
   3  -3 -12 68.7438 16.9901   1 
  -4   3  12 857.847 63.2352   5 
   4   3 -12 820.834 67.8308   1 
   4  -3  12 796.684 64.3782   7 
  -4  -3 -12 797.184 58.8546   6 
  -4  -3 -12 817.586 63.1492   8 
  -4  -3 -12 813.601 64.6478   1 
  -4  -3  12 896.903 62.2940   5 
  -4   3 -12 848.404 66.1011   1 
   4  -3 -12 847.286 69.8167   1 
  -4   3 -12 839.786 57.8804   6 
  -4   3 -12 951.088 67.4971   2 
  -5  -3 -12 283.185 33.8278   1 
  -5  -3 -12 289.716 30.2067   6 
   5   3 -12 322.191 37.8383   1 
  -5   3 -12 373.157 36.6295   2 
  -5  -3  12 347.788 30.5155   5 
  -5   3 -12 307.694 35.1505   1 
   5  -3 -12 366.863 40.7217   1 
  -6  -3 -12 700.765 64.3001   1 
   6   3 -12 729.002 67.3712   1 
  -6  -3  12 741.988 56.7014   5 
   6  -3 -12 764.375 70.2752   1 
   0  -4  12 36.4393 8.00834   7 
   0  -4 -12 39.9951 9.93450   1 
   0   4 -12 35.6306 8.96332   1 
   0   4 -12 44.2006 9.05459   1 
   0   4  12 36.8134 8.69294   5 
   0  -4 -12 38.0125 12.5157   8 
   0  -4  12 42.1411 11.3563   8 
   0  -4 -12 44.5290 11.6364   1 
   1   4 -12 232.813 21.0762   1 
  -1   4  12 264.658 22.2682   5 
  -1  -4 -12 285.684 26.5799   8 
   1  -4  12 271.066 21.6925   7 
  -1  -4 -12 266.169 22.0250   1 
   1  -4  12 276.561 23.0886   8 
   1  -4 -12 157.199 24.2810   8 
   1  -4 -12 183.216 24.1262   1 
  -1   4 -12 175.921 19.7431   1 
  -1   4 -12 168.309 15.4300   6 
   1  -4 -12 163.171 21.9985   1 
  -1   4 -12 175.203 18.4470   1 
   1   4  12 177.444 18.1932   5 
   2  -4  12 883.752 64.7153   7 
  -2  -4 -12 848.659 64.0547   1 
   2   4 -12 835.672 65.4416   1 
  -2   4  12 863.989 64.0249   5 
  -2  -4 -12 798.913 66.0976   8 
  -2  -4 -12 946.934 65.8047   1 
   2  -4 -12 888.232 70.0793   8 
   2  -4 -12 902.271 69.0904   1 
  -2   4 -12 993.201 68.6455   2 
  -2   4 -12 859.718 58.5522   6 
  -2  -4  12 885.475 63.6285   5 
  -2   4 -12 881.954 64.6661   1 
  -2   4 -12 946.114 63.6119   1 
   2   4  12 863.420 60.4556   5 
   3   4 -12 1241.87 95.0366   1 
  -3  -4 -12 1183.39 87.7767   6 
   3  -4  12 1348.70 93.5187   7 
  -3  -4 -12 1265.38 93.9400   8 
  -3  -4 -12 1256.77 92.8594   1 
   3  -4 -12 1306.22 98.2976   1 
  -3   4 -12 1365.90 95.2316   1 
  -3   4 -12 1335.14 86.6961   6 
  -3  -4  12 1349.57 91.4006   5 
  -3   4 -12 1503.37 97.6000   2 
  -4  -4 -12 345.211 32.5033   8 
  -4  -4 -12 357.077 34.5520   1 
   4  -4  12 360.177 34.5669   7 
   4   4 -12 360.562 36.3048   1 
  -4  -4 -12 342.392 28.4574   6 
  -4  -4  12 310.719 30.2218   5 
  -4   4 -12 348.773 35.9929   2 
  -4   4 -12 303.094 29.3566   6 
   4  -4 -12 306.370 37.5910   1 
  -4   4 -12 322.141 34.8947   1 
   5   4 -12 71.6653 21.0360   1 
  -5  -4 -12 71.3711 19.2169   1 
   5  -4 -12 91.9005 24.2318   1 
  -5   4 -12 86.1169 19.8920   2 
  -5  -4  12 66.9130 16.0493   5 
  -5   4 -12 73.1023 20.1169   1 
  -6  -4 -12 46.5281 20.3329   1 
   6   4 -12 60.4238 23.7828   1 
  -6  -4  12 92.5567 16.6696   5 
  -6   4 -12 88.7790 24.7299   1 
   6  -4 -12 104.188 27.6741   1 
   0   5 -12 854.549 63.7026   1 
   0  -5 -12 778.522 63.7323   1 
   0  -5 -12 956.266 62.3583   4 
   0   5 -12 879.438 63.1468   1 
   0   5 -12 931.159 59.9323   6 
   0  -5  12 880.076 63.5824   7 
   0  -5 -12 813.385 66.8837   8 
  -1  -5 -12 850.575 73.1484   8 
   1  -5  12 979.379 69.7910   7 
   1   5 -12 900.583 71.5882   1 
  -1  -5 -12 908.897 71.4896   1 
   1  -5 -12 1002.70 76.5739   8 
  -1   5 -12 1039.60 72.6661   1 
   1  -5 -12 1011.58 74.9995   1 
   1  -5 -12 1142.19 72.8959   4 
  -1   5 -12 1010.67 66.7159   6 
  -1   5 -12 1073.46 71.0116   1 
   2  -5  12 177.764 20.4758   7 
  -2  -5 -12 161.153 20.4034   1 
   2   5 -12 155.440 20.9023   1 
  -2  -5 -12 155.840 22.6999   8 
  -2   5 -12 166.692 20.4904   1 
  -2   5 -12 184.559 24.5172   2 
  -2   5 -12 161.828 14.9771   6 
   2  -5 -12 175.425 25.4348   8 
   2  -5 -12 152.881 22.9336   1 
   2  -5 -12 180.121 22.0494   4 
   3  -5  12 96.8389 17.3540   7 
   3   5 -12 86.7025 17.8554   1 
  -3  -5 -12 83.1489 13.0071   6 
  -3  -5 -12 90.0416 16.7241   1 
  -3  -5 -12 90.8758 16.6701   8 
  -3   5 -12 84.2417 11.1846   6 
  -3  -5  12 89.1293 14.9521   5 
   3  -5 -12 81.2864 19.8290   1 
  -3   5 -12 89.4755 17.5528   1 
  -3   5 -12 101.271 20.3165   2 
  -4  -5 -12 273.254 31.3743   8 
   4  -5  12 310.933 32.2920   7 
  -4  -5 -12 270.281 27.0146   6 
  -4  -5 -12 276.752 32.7129   1 
   4   5 -12 273.387 34.4306   1 
  -4  -5  12 363.482 29.8508   5 
   4  -5 -12 340.448 38.5872   1 
  -4   5 -12 389.162 38.1114   2 
  -4   5 -12 325.673 35.0626   1 
  -5  -5 -12 588.434 54.6478   1 
   5   5 -12 569.462 55.7266   1 
  -5  -5  12 621.543 48.0700   5 
  -5   5 -12 574.659 54.2867   1 
   5  -5 -12 596.418 58.9794   1 
   0   6 -12 5.50514 5.16605   6 
   0  -6 -12 4.37152 7.04132   1 
   0   6 -12 6.55885 6.71759   1 
   0  -6 -12 2.66723 8.43934   8 
  -1  -6 -12 242.544 28.2769   8 
   1   6 -12 243.098 26.4456   1 
  -1  -6 -12 256.081 27.0459   1 
   1  -6 -12 235.778 28.6140   8 
  -1   6 -12 233.455 20.9131   6 
   1  -6 -12 258.036 25.2754   4 
  -1   6 -12 232.650 26.2601   1 
   1  -6 -12 240.861 28.3281   1 
   2   6 -12 1352.83 108.998   1 
  -2  -6 -12 1535.35 110.528   1 
  -2  -6 -12 1474.53 111.223   8 
   2  -6  12 1629.55 107.923   7 
   2  -6 -12 1660.41 110.842   4 
  -2   6 -12 1508.65 109.805   1 
  -2   6 -12 1528.53 103.209   6 
   2  -6 -12 1543.89 113.660   1 
  -2   6 -12 1742.40 115.236   2 
   3   6 -12 398.491 40.4437   1 
  -3  -6 -12 383.455 38.8445   8 
   3  -6  12 415.594 37.3868   7 
  -3  -6 -12 375.309 33.3888   6 
  -3  -6 -12 375.428 38.5554   1 
  -3   6 -12 407.771 39.6025   1 
   3  -6 -12 434.515 41.0099   4 
   3  -6 -12 387.466 41.5775   1 
  -3   6 -12 485.433 43.7115   2 
  -3  -6  12 425.102 35.1397   5 
   4  -6  12 407.660 38.7147   7 
   4   6 -12 362.726 40.4303   1 
  -4  -6 -12 337.108 37.4771   1 
  -4   6 -12 365.805 40.8927   2 
  -4  -6  12 364.032 32.7448   5 
  -4   6 -12 359.179 39.2803   1 
   4  -6 -12 350.569 41.8996   1 
  -5  -6 -12 114.766 24.4888   1 
   5   6 -12 108.415 26.3326   1 
   5  -6 -12 152.329 18.7880   3 
   5  -6 -12 140.005 29.6887   1 
  -5  -6  12 116.774 19.6109   5 
  -5   6 -12 133.795 27.1033   1 
   0  -7 -12 69.7945 17.0074   1 
   0   7 -12 86.6501 17.0376   1 
   0  -7  12 84.6929 14.8376   8 
  -1  -7 -12 794.834 63.5572   1 
   1   7 -12 773.737 62.9539   1 
  -1   7 -12 826.676 63.9746   1 
  -1  -7  12 796.672 61.5311   8 
   1  -7 -12 778.464 65.3528   1 
   2   7 -12 99.7247 20.5051   1 
  -2  -7 -12 124.965 21.2850   1 
  -2   7 -12 119.967 21.1345   1 
   2  -7 -12 127.613 20.6499   4 
   2  -7 -12 127.991 23.9333   1 
   3   7 -12 29.5351 17.0644   1 
   3  -7  12 57.0483 15.6001   7 
  -3  -7 -12 42.4721 16.9084   1 
   3  -7 -12 60.8816 18.3947   4 
  -3   7 -12 58.3304 18.0265   1 
  -3   7 -12 58.9121 21.4379   2 
   3  -7 -12 55.9372 20.4328   1 
  -4  -7 -12 53.4151 19.8979   1 
   4   7 -12 61.9811 21.5663   1 
  -4  -7  12 61.5399 14.8823   5 
   4  -7 -12 84.9713 23.7351   1 
  -4   7 -12 79.2143 20.8716   1 
   0   8 -12 -0.5054 8.06659   1 
   0  -8 -12 -0.1357 8.91084   1 
  -1  -8 -12 88.7715 20.0010   1 
   1   8 -12 82.5468 18.8117   1 
  -1  -8  12 51.4927 16.2623   8 
  -1   8 -12 67.1178 19.0337   1 
   1  -8 -12 65.7054 19.7098   1 
  -2  -8 -12 1464.94 109.250   1 
   2   8 -12 1444.90 109.847   1 
   2  -8 -12 1464.45 112.957   1 
  -2   8 -12 1521.79 110.592   1 
  -3  -8 -12 71.4335 21.5177   1 
   3   8 -12 64.3063 21.4446   1 
   3  -8 -12 75.8029 23.7016   1 
  -3   8 -12 82.5954 21.0205   1 
   0  -9 -12 -0.3033 10.8197   1 
   0   9 -12 -2.1869 9.24481   1 
   1   9 -12 826.283 69.0921   1 
  -1  -9 -12 851.033 70.7410   1 
  -1   9 -12 812.736 69.9558   1 
   1  -9 -12 820.472 71.9994   1 
  -2  -9 -12 67.7504 21.9649   1 
   2   9 -12 75.5128 21.6167   1 
   2  -9 -12 48.7557 22.2794   1 
  -2   9 -12 66.6303 20.7334   1 
   0   0  13 6.19743 4.68551   4 
   0   0  13 -1.2065 4.39657   5 
   0   0 -13 4.09812 2.96977   1 
   0   0 -13 2.17104 2.30983   1 
   1   0 -13 1719.75 116.922   1 
  -1   0  13 1758.73 118.716   5 
   1   0  13 1780.77 118.212   5 
  -1   0  13 1781.76 119.388   4 
   1   0 -13 1924.94 118.130   1 
   1   0  13 1887.01 121.628   8 
  -1   0  13 1538.91 117.453   2 
   2   0 -13 82.0804 13.5962   1 
  -2   0  13 88.4396 12.0591   7 
   2   0 -13 78.5336 13.1748   1 
  -2   0 -13 92.8112 11.8037   2 
  -2   0 -13 85.2224 9.07506   1 
  -2   0  13 93.1188 14.0150   5 
  -2   0 -13 84.2967 8.90406   1 
   2   0  13 79.3049 12.5526   8 
   2   0  13 80.0346 11.4619   5 
  -2   0  13 87.2901 14.6632   4 
  -3   0 -13 152.688 16.4790   1 
  -3   0 -13 151.126 16.0559   1 
   3   0 -13 155.715 20.5469   1 
  -3   0  13 147.920 18.2931   5 
   3   0  13 151.759 19.5229   7 
  -3   0 -13 167.693 18.0951   2 
  -4   0 -13 29.6922 11.5122   2 
  -4   0 -13 26.7050 10.7992   1 
   4   0 -13 29.7580 14.2352   1 
  -4   0 -13 32.9413 6.47618   6 
   4   0  13 33.7078 13.2569   7 
  -4   0  13 36.9065 13.9230   5 
   5   0 -13 920.512 73.5361   1 
  -5   0 -13 802.906 61.6358   6 
  -5   0  13 947.253 66.1220   5 
  -5   0 -13 811.229 67.0507   1 
  -6   0 -13 3.14431 9.58152   1 
  -6   0  13 2.94792 8.55954   5 
   6   0 -13 3.86695 11.5376   1 
   0  -1  13 34.3735 10.2126   5 
   0  -1 -13 33.4567 6.60328   1 
   0   1  13 35.7719 8.88091   5 
   0   1 -13 40.9600 5.53438   1 
   0  -1 -13 38.8279 7.37425   1 
   0   1 -13 33.2650 4.98643   1 
  -1   1  13 63.4169 10.9595   4 
  -1   1  13 70.3961 11.9380   5 
  -1  -1 -13 61.4288 7.16314   1 
   1   1 -13 50.0512 9.23397   1 
   1  -1  13 57.4777 12.0506   8 
  -1  -1 -13 60.5315 7.15567   1 
  -1  -1 -13 74.2933 14.1248   8 
   1   1 -13 72.3440 10.0470   1 
  -1  -1  13 73.4718 12.1604   5 
  -1  -1  13 73.4066 11.4732   4 
   1  -1 -13 74.7422 10.9400   1 
   1   1  13 79.0745 10.9300   5 
   1  -1 -13 78.5266 11.6755   1 
  -1  -1  13 61.9746 10.2894   2 
  -2  -1 -13 2636.83 178.215   8 
   2   1 -13 3029.46 178.764   1 
   2  -1  13 2538.82 177.619   7 
  -2   1  13 2875.26 179.992   4 
  -2  -1 -13 2731.92 173.171   1 
   2   1 -13 2570.98 177.188   1 
  -2  -1 -13 2881.61 173.725   1 
  -2   1  13 2723.01 177.212   5 
   2  -1  13 2711.99 175.835   8 
  -2   1 -13 2539.14 172.251   1 
  -2  -1  13 2609.10 176.579   5 
   2  -1 -13 2740.28 179.040   1 
   2   1  13 2460.28 174.424   5 
   2  -1 -13 2430.32 177.429   1 
   2   1  13 2586.34 176.863   8 
  -2  -1  13 2682.97 178.581   7 
  -2   1 -13 2820.59 176.683   2 
  -3  -1 -13 91.1141 15.0769   8 
  -3  -1 -13 93.6944 13.2759   1 
  -3  -1 -13 101.336 13.4699   1 
   3  -1  13 81.6328 16.5238   7 
   3   1 -13 86.3868 16.5305   1 
  -3   1  13 88.3527 15.0470   5 
  -3   1 -13 110.658 12.9392   1 
   3   1  13 122.684 13.2893   5 
  -3   1 -13 129.286 16.6937   2 
   3  -1 -13 117.977 17.7946   1 
  -3  -1  13 109.752 15.6065   5 
  -4   1  13 690.939 52.9834   5 
   4  -1  13 645.646 53.9469   7 
   4   1 -13 637.089 56.3618   1 
  -4  -1 -13 634.795 52.5996   1 
  -4  -1 -13 607.800 46.0694   6 
  -4   1 -13 803.102 55.0967   2 
  -4   1 -13 660.884 45.8540   6 
   4  -1 -13 694.808 58.0679   1 
   4   1  13 690.774 54.8123   7 
  -4  -1  13 729.327 52.6044   5 
   5   1 -13 20.5317 15.9526   1 
  -5   1  13 26.0943 12.9649   5 
  -5  -1 -13 17.9302 10.3475   1 
   5  -1 -13 4.52128 10.6484   1 
  -5   1 -13 11.5724 9.38662   6 
  -5   1 -13 7.06915 10.4755   2 
  -5  -1  13 9.15374 8.45220   5 
  -6  -1 -13 66.5377 20.5010   1 
  -6   1  13 83.3456 18.0569   5 
   6   1 -13 88.9743 24.2456   1 
  -6  -1  13 105.810 18.0726   5 
   6  -1 -13 127.480 27.4530   1 
   0   2  13 502.597 37.5399   5 
   0  -2 -13 484.716 41.8276   8 
   0  -2 -13 519.850 36.8426   1 
   0  -2 -13 472.376 36.3379   1 
   0   2 -13 470.395 33.7326   1 
   0  -2  13 447.752 37.8105   2 
   1  -2  13 1757.17 119.465   8 
  -1   2  13 1701.53 117.892   5 
  -1  -2 -13 1865.11 115.580   1 
  -1  -2 -13 1701.46 114.855   1 
   1   2 -13 1662.93 115.967   1 
   1  -2  13 1747.58 117.825   7 
  -1  -2 -13 1654.23 120.891   8 
   1  -2 -13 1736.30 118.374   1 
  -1   2 -13 1780.01 113.464   1 
   1   2  13 1768.48 116.801   5 
  -1   2 -13 1841.99 112.858   1 
   1  -2 -13 1783.04 119.677   1 
  -1  -2  13 1750.76 117.988   5 
  -2  -2 -13 103.925 12.4830   1 
  -2   2  13 89.4289 15.6129   4 
  -2   2  13 94.9461 14.8706   5 
   2  -2  13 96.8810 14.8208   7 
  -2  -2 -13 93.9734 11.8646   1 
  -2  -2 -13 97.9392 16.4571   8 
   2   2 -13 90.3475 14.6919   1 
   2   2 -13 93.3627 14.4563   1 
   2  -2 -13 122.536 17.6566   1 
  -2   2 -13 126.553 16.1410   2 
  -2   2 -13 116.072 11.4124   1 
   2   2  13 123.852 13.2338   5 
  -2  -2  13 112.839 15.1653   5 
  -2   2 -13 103.371 11.5244   1 
   2  -2 -13 113.109 16.7397   1 
  -3   2  13 118.490 17.1361   5 
   3  -2  13 118.024 17.5803   7 
   3   2 -13 131.068 18.8511   1 
  -3  -2 -13 110.980 15.1648   1 
  -3  -2 -13 114.371 10.7131   6 
  -3  -2 -13 103.733 16.9116   8 
  -3  -2 -13 129.690 15.8658   1 
  -3   2 -13 151.011 19.2714   2 
  -3   2 -13 128.996 15.3424   1 
   3   2  13 126.077 13.4851   5 
  -3   2 -13 131.515 15.1632   1 
   3  -2 -13 126.357 19.9275   1 
  -3  -2  13 142.728 17.2204   5 
   4   2 -13 122.867 21.1669   1 
  -4   2  13 132.381 18.3610   5 
   4  -2  13 120.861 18.6985   7 
  -4  -2 -13 119.507 17.9662   1 
  -4  -2 -13 116.485 12.5258   6 
  -4   2 -13 119.975 11.9638   6 
   4   2  13 131.560 19.3961   7 
  -4   2 -13 119.832 11.4658   6 
  -4   2 -13 143.870 20.4334   2 
  -4  -2  13 122.295 17.4658   5 
   4  -2 -13 129.796 22.3506   1 
  -5   2  13 1039.22 75.4904   5 
   5   2 -13 1025.67 81.9628   1 
  -5  -2 -13 941.819 77.5441   1 
  -5  -2  13 1013.80 74.3692   5 
   5  -2 -13 1030.38 83.6577   1 
  -5   2 -13 1057.66 78.7368   2 
  -6  -2 -13 140.170 25.1558   1 
   6   2 -13 134.144 27.7285   1 
   6  -2 -13 113.604 28.3147   1 
  -6  -2  13 128.094 20.9864   5 
  -6   2 -13 125.106 26.9785   2 
   0   3 -13 4.30448 3.92691   1 
   0  -3 -13 3.69439 8.32957   8 
   0   3 -13 3.17093 3.86883   1 
   0  -3 -13 0.95756 4.59337   1 
   0   3  13 4.02979 5.74576   5 
   0  -3  13 4.42058 4.42177   7 
   0  -3 -13 5.63517 5.05026   1 
  -1  -3 -13 167.221 16.4417   1 
   1   3 -13 142.073 15.4311   1 
   1  -3  13 152.899 16.5404   7 
  -1  -3 -13 152.497 20.4874   8 
  -1   3  13 148.850 16.8326   5 
   1   3 -13 164.443 16.2332   1 
  -1  -3 -13 157.701 15.6335   1 
   1  -3  13 161.257 18.0803   8 
  -1   3 -13 118.868 13.4229   1 
  -1  -3  13 122.588 13.2718   7 
   1  -3 -13 113.165 19.5948   8 
   1  -3 -13 102.397 16.1697   1 
  -1   3 -13 122.777 12.7162   1 
   1   3  13 112.053 14.0887   5 
   1  -3 -13 123.024 18.3264   1 
  -2  -3 -13 1420.39 106.305   8 
  -2  -3 -13 1494.17 103.025   1 
  -2   3  13 1560.43 104.929   5 
  -2  -3 -13 1673.26 104.088   1 
   2  -3  13 1512.94 104.838   7 
   2   3 -13 1454.22 104.894   1 
  -2   3 -13 1515.56 101.362   1 
   2   3  13 1515.81 101.560   5 
   2  -3 -13 1457.50 107.695   1 
  -2  -3  13 1535.99 104.349   5 
  -2   3 -13 1458.24 102.981   1 
  -2   3 -13 1691.35 107.746   2 
  -3  -3 -13 393.888 30.4746   6 
  -3  -3 -13 391.247 35.0224   1 
  -3   3  13 386.426 35.5472   5 
   3   3 -13 394.115 37.6506   1 
   3  -3  13 371.401 35.9597   7 
  -3  -3 -13 370.588 36.2694   8 
   3  -3 -13 465.379 41.7657   1 
  -3   3 -13 428.321 28.6702   6 
  -3   3 -13 431.881 28.4362   6 
  -3   3 -13 441.467 36.4168   1 
  -3   3 -13 497.364 39.8084   2 
  -3  -3  13 449.503 35.8457   5 
  -3   3 -13 479.627 35.6774   1 
  -4  -3 -13 460.273 40.8230   1 
  -4   3  13 526.757 41.0814   5 
  -4  -3 -13 450.302 34.7854   6 
   4   3 -13 499.115 44.7403   1 
   4  -3  13 474.824 41.4782   7 
  -4   3 -13 514.266 43.7741   2 
   4  -3 -13 457.080 45.6892   1 
  -4   3 -13 478.648 41.8607   1 
  -4  -3  13 469.905 38.7785   5 
  -4   3 -13 425.298 33.8242   6 
  -4   3 -13 418.206 32.8493   6 
   5   3 -13 52.3395 19.5588   1 
  -5  -3 -13 50.6361 17.0117   1 
  -5  -3  13 26.3577 14.3008   5 
  -5   3 -13 34.2845 17.4912   2 
  -5   3 -13 38.8729 16.1108   1 
   5  -3 -13 33.4491 19.3457   1 
  -6  -3 -13 44.8245 19.3651   1 
   6   3 -13 42.6588 21.0662   1 
  -6  -3  13 70.3839 15.8562   5 
   6  -3 -13 84.6397 26.4580   1 
   0  -4 -13 706.675 55.4669   1 
   0  -4 -13 831.254 58.0264   1 
   0   4  13 717.680 53.5869   5 
   0  -4 -13 676.892 58.9211   8 
   0   4 -13 774.552 53.5890   1 
   0   4 -13 731.250 53.8032   1 
   0  -4  13 749.703 52.5869   7 
  -1  -4 -13 963.706 65.3985   1 
  -1  -4 -13 818.283 63.0103   1 
  -1  -4 -13 810.190 66.6620   8 
  -1   4  13 859.669 63.2544   5 
   1   4 -13 957.484 64.6493   1 
   1  -4  13 865.615 62.6112   7 
   1   4 -13 773.548 62.3780   1 
   1   4  13 884.003 61.5145   5 
  -1   4 -13 932.374 61.7164   1 
  -1   4 -13 886.166 62.6294   1 
   1  -4 -13 872.122 69.1840   8 
   1  -4 -13 892.915 66.8719   1 
  -2  -4 -13 302.939 27.0425   1 
  -2  -4 -13 306.798 30.5127   8 
  -2   4  13 311.969 27.7598   5 
   2   4 -13 320.749 28.9138   1 
   2  -4  13 325.168 28.3539   7 
  -2   4 -13 292.281 25.4914   1 
  -2  -4  13 264.826 26.3909   5 
   2  -4 -13 247.366 29.3096   1 
   2   4  13 263.487 23.2891   5 
  -2   4 -13 267.198 26.2559   1 
  -2   4 -13 270.530 19.9986   6 
   2  -4 -13 273.211 31.6015   8 
  -2   4 -13 293.740 30.5468   2 
   3   4 -13 147.151 21.6253   1 
  -3  -4 -13 168.153 21.9778   8 
  -3  -4 -13 148.946 15.2318   6 
  -3   4  13 180.729 21.0088   5 
   3  -4  13 162.206 20.5267   7 
  -3  -4 -13 155.851 19.9690   1 
  -3   4 -13 144.345 20.0969   1 
   3  -4 -13 155.424 24.2522   1 
  -3   4 -13 150.262 13.2393   6 
  -3   4 -13 169.332 23.4457   2 
  -3  -4  13 157.872 19.3795   5 
  -4  -4 -13 360.373 36.3287   1 
   4  -4  13 383.175 36.5294   7 
   4   4 -13 365.117 38.4803   1 
  -4  -4 -13 367.711 35.9898   8 
  -4  -4 -13 339.981 30.0564   6 
  -4   4 -13 447.627 39.7417   2 
   4  -4 -13 398.849 42.0023   1 
  -4   4 -13 370.181 28.5632   6 
  -4   4 -13 358.501 36.6725   1 
  -4  -4  13 415.197 34.5015   5 
   5   4 -13 437.142 45.9242   1 
  -5  -4 -13 413.848 42.6696   1 
  -5   4 -13 450.773 45.1846   2 
  -5  -4  13 462.415 38.8970   5 
  -5   4 -13 479.136 46.0053   1 
   5  -4 -13 444.028 48.9537   1 
   0   5 -13 8.37218 6.28952   1 
   0   5 -13 6.32267 5.96007   1 
   0  -5 -13 9.43716 7.45524   1 
   0  -5 -13 9.41409 9.05417   8 
  -1  -5 -13 261.168 25.2014   1 
   1  -5  13 290.959 23.7055   7 
  -1  -5 -13 260.247 27.8581   8 
   1   5 -13 252.703 24.7241   1 
   1  -5 -13 189.807 25.2516   1 
  -1   5 -13 200.400 22.8906   1 
  -1   5 -13 213.937 22.0807   1 
  -1   5 -13 207.817 18.0270   6 
   1  -5 -13 219.208 28.7883   8 
  -2  -5 -13 724.817 63.1478   8 
   2   5 -13 760.986 62.3738   1 
  -2  -5 -13 763.940 61.2377   1 
   2  -5  13 804.704 60.4110   7 
  -2   5 -13 795.860 54.4911   6 
  -2   5 -13 1011.14 67.5915   2 
   2  -5 -13 810.124 65.8505   1 
  -2   5 -13 814.143 61.5000   1 
   3  -5  13 1516.14 104.316   7 
  -3  -5 -13 1383.77 98.4653   6 
  -3  -5 -13 1380.68 103.923   1 
   3   5 -13 1417.49 106.236   1 
  -3  -5 -13 1366.25 105.023   8 
  -3  -5  13 1511.64 101.889   5 
  -3   5 -13 1652.78 108.770   2 
  -3   5 -13 1444.66 96.3940   6 
  -3   5 -13 1476.88 105.194   1 
   3  -5 -13 1477.69 109.762   1 
  -4  -5 -13 210.897 27.5069   1 
   4   5 -13 220.087 30.1840   1 
  -4  -5 -13 208.394 26.9329   8 
  -4  -5  13 223.905 24.1046   5 
  -4   5 -13 228.890 29.7099   2 
   4  -5 -13 211.446 32.0348   1 
  -4   5 -13 244.340 30.0036   1 
  -5  -5 -13 33.1345 17.5779   1 
   5   5 -13 44.2059 19.6545   1 
  -5  -5  13 34.8128 13.6033   5 
   5  -5 -13 28.1178 20.2076   1 
  -5   5 -13 28.6682 17.8605   1 
   0  -6 -13 1012.94 77.4328   1 
   0   6 -13 1040.77 70.4144   6 
   0   6 -13 1023.64 75.6127   1 
  -1  -6 -13 293.726 31.5729   1 
   1   6 -13 329.310 32.2126   1 
  -1  -6 -13 360.849 40.2019   8 
  -1   6 -13 344.606 26.1718   6 
   1  -6 -13 316.785 34.3603   1 
  -1   6 -13 333.998 32.2198   1 
   2   6 -13 184.958 24.4446   1 
  -2  -6 -13 184.912 24.3788   1 
  -2   6 -13 205.441 18.3504   6 
   2  -6 -13 202.078 27.5582   1 
  -2   6 -13 201.867 24.6275   1 
   2  -6 -13 228.822 29.5674   4 
   3  -6  13 92.6334 16.8831   7 
  -3  -6 -13 70.2791 17.1549   1 
   3   6 -13 91.6441 20.1203   1 
   3  -6 -13 78.1224 21.5016   1 
  -3   6 -13 84.1551 19.9344   2 
   3  -6 -13 72.4172 18.5548   4 
  -3  -6  13 81.6417 15.6759   5 
  -3   6 -13 74.9288 17.7128   1 
   4   6 -13 381.699 41.7749   1 
  -4  -6 -13 371.819 39.1891   1 
  -4   6 -13 354.403 38.9198   1 
  -4  -6  13 398.081 35.2307   5 
   4  -6 -13 369.775 43.0158   1 
   0  -7 -13 17.6232 11.0665   1 
   0   7 -13 10.5614 8.67371   1 
  -1  -7 -13 378.535 38.3695   1 
   1   7 -13 383.657 37.8471   1 
  -1   7 -13 424.346 39.3632   1 
   1  -7 -13 420.754 41.8176   1 
  -1  -7  13 392.970 37.1726   8 
   2   7 -13 117.705 22.0869   1 
  -2  -7 -13 140.042 22.8309   1 
  -2   7 -13 181.404 24.2148   1 
   2  -7 -13 144.317 25.7283   1 
   3   7 -13 1108.26 91.0479   1 
  -3  -7 -13 1131.90 90.6598   1 
   3  -7 -13 1176.97 94.3048   1 
  -3   7 -13 1234.88 92.3544   1 
  -3  -7  13 1322.84 86.6943   5 
  -4  -7 -13 27.7353 18.4135   1 
   4   7 -13 23.3543 18.8033   1 
  -4   7 -13 43.7473 19.3960   1 
   4  -7 -13 36.9996 21.2974   1 
  -4  -7  13 32.2573 13.6597   5 
   0   8 -13 949.509 77.2350   1 
   0  -8 -13 1047.48 80.8004   1 
  -1  -8 -13 11.7921 10.8329   1 
   1   8 -13 8.69386 9.43037   1 
   1  -8 -13 17.0573 12.8457   1 
  -1   8 -13 9.83938 10.4705   1 
   2   8 -13 257.991 33.3888   1 
  -2  -8 -13 267.650 33.6996   1 
  -2   8 -13 336.522 35.7813   1 
   2  -8 -13 302.689 37.6968   1 
   3   8 -13 38.4884 19.7755   1 
  -3  -8 -13 34.7028 18.8997   1 
  -3   8 -13 58.6450 20.0232   1 
   3  -8 -13 53.6390 22.7804   1 
   0  -9 -13 4.11699 11.7503   1 
   0   9 -13 10.5191 11.6999   1 
  -1  -9 -13 210.737 31.9927   1 
   1   9 -13 200.713 30.1045   1 
  -1   9 -13 249.441 32.4166   1 
   1  -9 -13 253.138 35.1940   1 
   0   0 -14 82.8399 8.53280   1 
   0   0 -14 97.5122 9.43934   1 
   0   0  14 81.9701 12.9082   5 
   1   0 -14 979.134 70.0269   1 
  -1   0  14 999.212 72.5533   5 
  -1   0  14 1115.14 83.1220   4 
   1   0  14 995.327 71.6296   5 
   1   0 -14 1043.35 70.9498   1 
   2   0 -14 197.771 21.0361   1 
  -2   0 -14 190.854 15.1846   1 
   2   0  14 242.827 25.2412   8 
  -2   0 -14 195.441 15.5927   1 
  -2   0  14 186.115 21.0280   5 
   2   0 -14 206.761 21.2615   1 
   2   0  14 184.895 19.4106   5 
   3   0  14 1228.69 89.7121   7 
  -3   0 -14 1288.12 85.2538   1 
  -3   0 -14 1268.07 85.2965   1 
   3   0 -14 1249.05 90.6518   1 
  -3   0  14 1265.85 88.1579   5 
   3   0  14 1196.27 85.1878   5 
   4   0  14 123.863 19.7430   7 
  -4   0  14 137.797 18.6268   5 
  -4   0 -14 116.312 9.74559   6 
   4   0 -14 138.769 22.3950   1 
  -4   0 -14 126.798 17.9262   1 
   5   0 -14 54.5621 19.7347   1 
  -5   0 -14 40.9645 15.1782   1 
  -5   0  14 70.5039 17.4157   5 
  -6   0  14 386.264 36.0811   5 
  -6   0 -14 322.731 39.9706   1 
   6   0 -14 362.850 43.8825   1 
   0   1 -14 1519.42 94.7984   1 
   0  -1 -14 1410.61 96.1507   1 
   0   1  14 1407.75 99.0711   5 
   0   1 -14 1439.08 94.1782   1 
   0  -1 -14 1516.63 96.5792   1 
   0  -1  14 1457.83 99.8258   5 
  -1  -1 -14 235.639 17.8584   1 
   1   1 -14 236.329 20.5863   1 
  -1  -1 -14 238.306 17.5794   1 
   1   1 -14 252.419 20.8389   1 
  -1   1  14 238.695 23.0890   5 
   1  -1  14 237.231 22.2964   5 
   1   1  14 227.370 21.9370   5 
  -1  -1  14 230.860 23.4650   5 
   1  -1 -14 241.662 22.8284   1 
   1  -1 -14 221.618 21.1806   1 
  -1  -1  14 229.580 22.8458   4 
  -2  -1 -14 202.762 22.9284   8 
   2   1 -14 191.956 21.0399   1 
  -2   1  14 210.568 22.8259   5 
   2  -1  14 189.475 21.9591   7 
  -2  -1 -14 221.674 17.9279   1 
  -2  -1 -14 199.355 17.0447   1 
  -2   1  14 241.634 25.9789   4 
   2   1 -14 240.570 22.2992   1 
   2   1  14 194.022 19.7249   5 
  -2  -1  14 225.724 22.2753   5 
   2  -1 -14 223.375 23.0959   1 
  -2   1 -14 207.005 16.0079   1 
   2  -1 -14 196.796 21.9341   1 
  -3  -1 -14 684.859 50.3738   1 
   3  -1  14 669.572 54.6011   7 
  -3   1  14 690.948 53.2230   5 
   3   1 -14 650.530 54.8086   1 
  -3  -1 -14 714.102 50.7942   1 
  -3  -1 -14 688.745 53.1414   8 
   3   1  14 659.371 49.5242   5 
  -3   1 -14 762.085 53.7466   2 
   3  -1 -14 698.693 56.0223   1 
  -3   1 -14 681.932 49.9839   1 
  -3  -1  14 719.276 53.2967   5 
  -4  -1 -14 373.772 27.8144   6 
  -4   1  14 439.095 36.4353   5 
   4  -1  14 377.282 36.9976   7 
   4   1 -14 388.048 38.9220   1 
  -4  -1 -14 393.845 35.0482   1 
   4  -1 -14 425.047 40.5220   1 
  -4  -1  14 433.019 35.8566   5 
   5   1 -14 72.9378 20.4641   1 
  -5  -1 -14 68.0230 17.1743   1 
  -5   1  14 91.1504 17.2143   5 
  -5  -1  14 74.5627 16.0655   5 
   5  -1 -14 81.5917 22.1353   1 
  -6  -1 -14 672.040 66.5294   1 
  -6   1 -14 712.467 69.6157   1 
   0  -2 -14 98.2427 12.6304   1 
   0   2  14 110.232 14.8836   5 
   0  -2 -14 100.772 12.5520   1 
   0   2 -14 94.6900 10.1250   1 
   0  -2 -14 107.204 18.8295   8 
   0  -2  14 109.162 14.6189   5 
   0  -2  14 95.8559 13.0806   7 
   1  -2  14 655.406 48.7613   7 
   1  -2  14 706.155 51.2064   8 
  -1   2  14 660.529 49.1166   5 
   1   2 -14 642.971 46.4931   1 
  -1  -2 -14 630.520 45.2786   1 
  -1  -2 -14 654.469 52.2675   8 
  -1  -2 -14 720.011 46.2087   1 
   1   2  14 630.271 47.3934   5 
   1  -2 -14 631.823 49.8534   1 
   1  -2 -14 602.668 48.4296   1 
  -1   2 -14 603.844 43.1848   1 
  -1   2 -14 644.823 42.7704   1 
  -1  -2  14 605.346 48.5127   5 
   2   2 -14 485.308 38.6375   1 
   2  -2  14 479.963 39.1181   7 
   2   2 -14 568.250 39.6743   1 
  -2   2  14 495.809 38.9008   5 
  -2  -2 -14 490.533 41.2610   8 
  -2  -2 -14 479.687 35.0810   1 
  -2  -2 -14 495.445 35.4084   1 
   2  -2 -14 427.520 39.1761   1 
  -2   2 -14 424.161 33.3363   1 
   2   2  14 429.935 35.6269   5 
  -2   2 -14 435.387 32.8438   1 
  -2  -2  14 421.530 37.4453   5 
   3  -2  14 1477.98 102.957   7 
  -3  -2 -14 1385.87 102.083   8 
   3   2 -14 1400.06 103.414   1 
  -3  -2 -14 1453.11 99.6373   1 
  -3   2  14 1489.66 101.866   5 
  -3  -2 -14 1590.76 100.673   1 
  -3   2 -14 1546.80 102.925   2 
  -3  -2  14 1422.28 100.778   5 
   3  -2 -14 1415.79 105.023   1 
  -3   2 -14 1391.19 98.2131   1 
  -4  -2 -14 289.320 28.4478   1 
   4   2 -14 266.651 31.5522   1 
  -4   2  14 298.921 28.7396   5 
  -4  -2 -14 263.687 21.2182   6 
   4  -2  14 277.676 29.9360   7 
  -4  -2  14 279.152 27.5462   5 
   4  -2 -14 306.459 33.7989   1 
  -4   2 -14 261.415 19.2223   6 
  -4   2 -14 254.993 19.0431   6 
  -4   2 -14 311.692 30.5554   2 
   5   2 -14 92.5814 22.2737   1 
  -5  -2 -14 98.4703 19.5045   1 
  -5   2  14 94.8245 18.6121   5 
   5  -2 -14 115.295 24.7546   1 
  -5  -2  14 111.313 19.6311   5 
   0   3  14 835.982 60.8902   5 
   0  -3 -14 923.232 62.2529   1 
   0  -3  14 799.140 59.2566   7 
   0  -3 -14 801.809 65.8286   8 
   0   3 -14 831.960 58.3343   1 
   0  -3 -14 801.461 60.7460   1 
   0   3 -14 890.876 58.6023   1 
  -1  -3 -14 224.187 20.4762   1 
  -1  -3 -14 253.949 21.7401   1 
   1   3 -14 225.497 20.8905   1 
  -1  -3 -14 253.394 27.5835   8 
   1  -3  14 239.254 22.5764   7 
  -1   3  14 248.972 23.1834   5 
   1   3  14 201.100 20.6355   5 
  -1   3 -14 204.254 18.8126   1 
  -1  -3  14 195.701 21.8198   5 
   1  -3 -14 226.632 25.3118   1 
   1  -3 -14 208.162 27.3605   8 
  -1   3 -14 206.823 17.9041   1 
   1  -3 -14 198.298 23.2197   1 
  -2   3  14 449.531 36.3458   5 
   2  -3  14 412.241 35.9201   7 
  -2  -3 -14 419.022 33.6469   1 
   2   3 -14 413.187 35.7163   1 
  -2  -3 -14 476.384 34.7332   1 
  -2  -3 -14 397.899 37.7155   8 
  -2   3 -14 434.573 31.9372   1 
   2  -3 -14 408.308 38.1449   1 
   2   3  14 397.053 32.6337   5 
  -2   3 -14 401.899 33.3218   1 
  -2  -3  14 415.135 35.3854   5 
  -3  -3 -14 460.365 38.3618   1 
   3  -3  14 494.472 41.1826   7 
  -3   3  14 484.655 40.1178   5 
   3   3 -14 462.879 41.5103   1 
  -3  -3 -14 472.062 41.0919   8 
   3  -3 -14 443.950 43.1607   1 
  -3   3 -14 454.572 36.8591   1 
  -3   3 -14 522.144 42.7287   2 
  -3   3 -14 418.927 37.1064   1 
  -3  -3  14 469.836 38.9033   5 
   4  -3  14 447.733 40.2652   7 
   4   3 -14 419.659 41.1464   1 
  -4   3  14 479.891 39.8039   5 
  -4  -3 -14 434.690 38.4296   1 
  -4  -3 -14 417.962 31.5655   6 
  -4   3 -14 381.038 29.4591   6 
  -4   3 -14 436.479 41.2023   2 
  -4   3 -14 392.943 29.1589   6 
  -4   3 -14 417.053 38.3348   1 
  -4  -3  14 423.475 36.8771   5 
   4  -3 -14 457.038 44.4795   1 
   5   3 -14 223.458 31.1679   1 
  -5  -3 -14 242.535 29.3893   1 
   5  -3 -14 229.106 33.6999   1 
  -5  -3  14 231.061 25.5474   5 
  -5   3 -14 237.469 30.6290   2 
   0   4 -14 316.985 27.2403   1 
   0   4 -14 311.913 26.5948   1 
   0  -4 -14 288.866 28.4839   1 
   0  -4 -14 320.457 33.4520   8 
   0   4  14 337.752 28.1950   5 
   1  -4  14 394.972 32.5474   7 
  -1   4  14 389.522 32.9715   5 
  -1  -4 -14 386.616 32.7136   1 
   1   4 -14 412.869 33.3530   1 
  -1  -4 -14 360.963 36.2759   8 
   1   4 -14 366.320 32.0858   1 
  -1   4 -14 400.716 31.7951   1 
   1   4  14 389.840 31.4397   5 
   1  -4 -14 365.388 35.2077   1 
   1  -4 -14 371.860 38.2163   8 
  -1   4 -14 410.520 30.9324   1 
  -2  -4 -14 682.912 55.9291   8 
   2   4 -14 674.469 53.9325   1 
  -2  -4 -14 708.561 52.7845   1 
  -2   4  14 758.861 54.2460   5 
   2  -4  14 708.494 53.1303   7 
  -2   4 -14 721.359 50.4954   1 
   2  -4 -14 683.276 57.0338   1 
  -2   4 -14 661.367 52.0977   1 
   2   4  14 622.823 49.0997   5 
  -2  -4  14 680.776 52.4911   5 
   3  -4  14 618.161 47.5786   7 
  -3  -4 -14 562.228 47.5401   8 
   3   4 -14 563.458 48.0032   1 
  -3  -4 -14 582.456 46.0049   1 
  -3   4  14 634.324 46.7974   5 
  -3  -4  14 525.458 44.3675   5 
  -3   4 -14 519.937 45.5441   1 
   3  -4 -14 506.838 49.7298   1 
  -3   4 -14 498.034 36.5054   6 
  -3   4 -14 600.379 49.6454   2 
   4   4 -14 444.244 43.2891   1 
  -4  -4 -14 449.098 40.5719   1 
  -4   4 -14 470.270 43.6770   2 
  -4  -4  14 435.537 37.5548   5 
  -4   4 -14 407.754 39.9938   1 
  -4   4 -14 400.475 30.8184   6 
   4  -4 -14 439.150 45.5152   1 
  -5  -4 -14 68.1865 19.5956   1 
   5   4 -14 63.0947 21.2156   1 
   5  -4 -14 93.1683 24.9695   1 
  -5   4 -14 89.4189 21.0486   1 
  -5  -4  14 85.4761 18.0293   5 
   0   5 -14 726.701 53.6760   1 
   0  -5 -14 696.736 59.2071   8 
   0  -5 -14 691.044 55.4263   1 
  -1  -5 -14 607.983 46.8955   1 
  -1  -5 -14 645.247 51.5631   8 
   1   5 -14 608.399 46.6823   1 
  -1   5 -14 544.763 45.4405   1 
   1  -5 -14 487.973 47.8561   1 
   2  -5  14 355.184 31.3531   7 
  -2  -5 -14 344.401 34.8352   8 
  -2  -5 -14 334.498 31.8335   1 
   2   5 -14 349.939 32.8731   1 
  -2   5 -14 334.642 24.0093   6 
   2  -5 -14 325.803 35.7547   1 
  -2  -5  14 320.731 31.2691   5 
  -2   5 -14 329.502 31.4729   1 
   3   5 -14 209.410 27.2514   1 
  -3  -5 -14 217.618 27.8410   8 
  -3  -5 -14 214.998 25.7823   1 
   3  -5  14 233.511 26.3150   7 
  -3   5 -14 215.786 26.2412   1 
  -3   5 -14 228.474 29.5069   2 
   3  -5 -14 224.271 30.3875   1 
  -3  -5  14 221.627 24.3227   5 
  -3   5 -14 217.925 17.6032   6 
  -4  -5 -14 246.478 29.5570   1 
   4   5 -14 255.703 32.6549   1 
  -4   5 -14 253.538 31.2086   1 
  -4  -5  14 264.481 26.8497   5 
  -4   5 -14 258.021 31.6361   2 
   4  -5 -14 238.345 34.6321   1 
   0  -6 -14 72.1654 16.9953   1 
   0   6 -14 72.2374 15.3644   1 
   1   6 -14 347.874 33.1877   1 
  -1  -6 -14 328.055 32.9767   1 
  -1   6 -14 366.854 33.6613   1 
   1  -6 -14 330.650 35.9881   1 
  -1   6 -14 322.168 25.7393   6 
  -2  -6 -14 872.459 64.6431   1 
   2   6 -14 764.521 63.5733   1 
  -2   6 -14 772.875 55.2752   6 
  -2   6 -14 829.326 63.7197   1 
   2  -6 -14 808.994 68.0373   1 
   3   6 -14 205.963 27.8123   1 
  -3  -6 -14 211.585 27.2026   1 
  -3   6 -14 222.788 31.0405   2 
  -3   6 -14 208.264 26.9981   1 
   3  -6 -14 199.158 30.8111   1 
  -3  -6  14 204.575 25.1791   5 
   4   6 -14 398.279 43.7307   1 
  -4  -6 -14 360.600 40.6111   1 
   4  -6 -14 406.792 46.0877   1 
  -4   6 -14 430.565 42.4112   1 
  -4  -6  14 441.594 37.8934   5 
   0   7 -14 91.4184 18.0861   1 
   0  -7 -14 87.3629 19.9660   1 
   1   7 -14 623.850 54.6904   1 
  -1  -7 -14 650.921 56.2057   1 
   1  -7 -14 665.488 58.6252   1 
  -1   7 -14 717.323 56.7649   1 
   2   7 -14 344.714 36.5874   1 
  -2  -7 -14 352.944 36.5721   1 
   2  -7 -14 319.177 38.4699   1 
  -2   7 -14 355.829 36.4600   1 
   3   7 -14 67.0341 19.9966   1 
  -3  -7 -14 69.4861 20.2516   1 
  -3   7 -14 82.8544 19.6303   1 
   3  -7 -14 78.3689 22.6055   1 
  -3  -7  14 79.7399 17.0280   5 
   0   8 -14 1.89562 8.71402   1 
   0  -8 -14 0.77784 9.93214   1 
   1   8 -14 201.941 27.9155   1 
  -1  -8 -14 206.280 29.7756   1 
  -1   8 -14 256.164 30.7975   1 
   1  -8 -14 238.540 32.5741   1 
   2   8 -14 726.108 61.9224   1 
  -2  -8 -14 703.552 62.2357   1 
  -2   8 -14 726.602 62.0987   1 
   2  -8 -14 698.900 64.7196   1 
   0   0  15 3.24566 6.49049   5 
   0   0 -15 7.63773 4.48817   1 
   0   0 -15 5.01419 3.97174   1 
   1   0 -15 346.165 27.4090   1 
   1   0  15 348.300 29.6864   5 
   1   0 -15 348.539 28.2062   1 
  -1   0  15 304.592 29.3300   5 
   2   0 -15 1338.55 88.4089   1 
  -2   0  15 1231.82 87.0581   5 
   2   0 -15 1194.69 86.4652   1 
   2   0  15 1209.64 85.2140   5 
  -2   0 -15 1198.81 79.7928   1 
  -2   0 -15 1233.88 79.5237   1 
   3   0  15 9.34187 8.71126   7 
  -3   0 -15 7.93594 4.94230   1 
  -3   0 -15 6.53911 4.91892   1 
  -3   0  15 6.93500 8.58390   5 
   3   0  15 7.20198 5.95613   5 
   3   0 -15 10.6312 8.55545   1 
  -4   0 -15 558.811 45.7485   1 
  -4   0  15 592.655 47.2560   5 
   4   0 -15 575.518 51.6426   1 
   5   0 -15 724.609 63.2190   1 
  -5   0 -15 649.447 56.2333   1 
  -5   0  15 727.229 56.6921   5 
   0  -1 -15 70.9879 9.17131   1 
   0  -1 -15 67.3146 9.02159   1 
   0   1 -15 66.1969 7.40170   1 
   0  -1  15 64.2986 12.6150   5 
   0   1  15 69.4717 12.7054   5 
   0   1 -15 66.3946 6.69600   1 
  -1  -1 -15 742.299 55.7066   1 
  -1   1  15 771.009 61.2460   5 
   1  -1  15 746.524 60.4663   5 
   1   1 -15 838.834 59.2970   1 
   1   1 -15 771.159 58.4469   1 
  -1  -1 -15 798.741 55.4977   1 
   1  -1 -15 968.488 62.4103   1 
   1  -1 -15 935.445 60.6798   1 
  -1  -1  15 950.672 62.7841   5 
   1   1  15 963.376 61.7274   5 
   2   1 -15 480.772 39.5344   1 
  -2  -1 -15 496.553 34.4906   1 
   2  -1  15 470.452 38.3655   5 
   2   1 -15 580.595 41.8622   1 
  -2   1  15 533.094 40.9747   5 
   2  -1  15 510.749 41.7019   7 
  -2  -1 -15 524.035 35.1107   1 
   2  -1 -15 424.880 39.4809   1 
   2   1  15 431.421 37.4927   5 
  -2  -1  15 454.494 39.6105   5 
  -3  -1 -15 47.5554 9.81627   1 
  -3  -1 -15 32.3492 8.88125   1 
   3  -1  15 29.4946 12.8230   7 
   3   1 -15 41.4762 13.5764   1 
  -3   1  15 33.8749 14.5945   5 
  -3  -1  15 51.2762 13.5088   5 
  -3   1 -15 46.4085 9.22803   1 
  -3   1 -15 46.1524 8.97979   1 
   3   1  15 43.5633 10.0825   5 
   3  -1 -15 52.5658 14.6379   1 
   3   1  15 40.4553 13.5973   7 
  -4  -1 -15 519.856 44.6459   1 
   4   1 -15 541.071 50.0562   1 
  -4   1  15 592.562 47.7427   5 
   4  -1 -15 612.900 52.1919   1 
  -4  -1  15 609.252 47.3276   5 
  -4   1 -15 541.649 44.7774   1 
  -5  -1 -15 558.288 49.1950   1 
   5   1 -15 627.547 55.7614   1 
  -5   1  15 627.170 49.7539   5 
   5  -1 -15 554.760 54.4573   1 
  -5   1 -15 540.526 49.0486   1 
  -5  -1  15 588.067 48.8548   5 
   0  -2 -15 111.255 13.1242   1 
   0  -2  15 95.1844 15.0441   5 
   0  -2  15 81.1341 13.0571   7 
   0   2  15 103.890 14.6895   5 
   0  -2 -15 93.1202 12.7679   1 
   0   2 -15 107.719 10.4466   1 
  -1  -2 -15 473.581 34.6117   1 
   1   2 -15 487.903 36.1582   1 
   1   2 -15 409.835 34.7958   1 
  -1   2  15 438.815 38.1793   5 
  -1  -2 -15 431.863 41.0788   8 
  -1  -2 -15 433.745 34.3531   1 
   1  -2  15 422.021 37.5341   7 
  -1  -2  15 527.137 39.3636   5 
   1  -2 -15 550.623 40.7295   1 
   1   2  15 511.505 37.6223   5 
   1  -2 -15 490.063 37.9475   1 
  -2  -2 -15 965.886 69.6867   1 
   2   2 -15 935.980 72.6275   1 
  -2   2  15 1023.68 74.1918   5 
  -2  -2 -15 1050.15 70.3640   1 
  -2  -2 -15 1019.81 76.7616   8 
   2  -2  15 979.522 74.3515   7 
   2  -2 -15 997.143 74.9925   1 
   2   2  15 1062.53 71.8027   5 
  -2   2 -15 1096.01 67.5323   1 
  -2  -2  15 1133.91 75.0404   5 
   3   2 -15 130.605 19.7625   1 
   3  -2  15 124.837 19.3076   7 
  -3  -2 -15 138.742 16.8079   1 
  -3   2  15 126.409 19.0726   5 
  -3  -2 -15 121.409 15.7298   1 
  -3  -2  15 143.796 18.5790   5 
   3  -2 -15 143.121 21.4528   1 
  -3   2 -15 145.399 15.2220   1 
  -4   2  15 352.346 32.4595   5 
  -4  -2 -15 323.586 30.6240   1 
   4   2 -15 330.075 35.3898   1 
  -4  -2  15 301.477 30.5829   5 
   4  -2 -15 313.220 36.0566   1 
   5   2 -15 551.570 52.7861   1 
  -5  -2 -15 546.439 48.6046   1 
  -5   2  15 577.316 47.7578   5 
   5  -2 -15 577.296 54.5846   1 
  -5  -2  15 569.067 46.6215   5 
  -5   2 -15 506.910 37.9979   6 
   0   3 -15 426.453 31.3803   1 
   0  -3  15 392.591 40.1728   7 
   0   3 -15 416.958 31.3746   1 
   0   3  15 419.214 34.7631   5 
   0  -3 -15 434.311 34.7588   1 
   0  -3 -15 394.885 39.2552   8 
   0  -3 -15 378.779 33.7574   1 
  -1  -3 -15 723.522 60.2619   8 
  -1  -3 -15 702.689 53.3392   1 
  -1  -3 -15 866.314 55.3609   1 
  -1   3  15 776.405 56.2677   5 
   1   3 -15 701.259 53.3988   1 
   1  -3  15 735.314 55.1712   7 
  -1  -3  15 726.011 55.6986   5 
  -1   3 -15 741.728 51.5447   1 
  -1   3 -15 770.754 50.8496   1 
   1   3  15 738.906 54.3715   5 
   1  -3 -15 685.254 55.6798   1 
   2  -3  15 273.804 27.5806   7 
  -2  -3 -15 255.135 29.2122   8 
  -2   3  15 293.561 28.0622   5 
  -2  -3 -15 281.267 24.9572   1 
   2   3 -15 267.497 26.6689   1 
  -2  -3 -15 299.514 25.2338   1 
   2  -3 -15 278.855 29.3052   1 
  -2   3 -15 287.227 22.3405   1 
  -2   3 -15 266.277 23.5629   1 
   2   3  15 271.020 24.3162   5 
  -2  -3  15 285.052 27.4468   5 
  -3  -3 -15 193.340 21.2277   1 
  -3  -3 -15 212.602 25.1122   8 
   3  -3  15 180.047 23.8720   7 
   3   3 -15 188.569 24.3135   1 
  -3   3  15 176.296 22.5255   5 
  -3   3 -15 198.941 20.8444   1 
  -3   3 -15 216.930 25.4560   2 
  -3   3 -15 198.759 19.3896   1 
   3  -3 -15 209.716 26.8869   1 
  -3  -3  15 207.430 22.8367   5 
   4   3 -15 448.739 45.4254   1 
  -4   3  15 517.106 44.0504   5 
  -4  -3 -15 482.087 42.9847   1 
  -4  -3  15 546.941 43.7799   5 
  -4   3 -15 520.249 43.3306   1 
   4  -3 -15 538.538 50.0177   1 
   5   3 -15 411.328 44.1956   1 
  -5  -3 -15 375.533 39.7098   1 
   5  -3 -15 492.772 48.9173   1 
  -5  -3  15 431.030 38.2510   5 
   0  -4 -15 409.598 37.0828   1 
   0  -4 -15 438.547 42.1390   8 
   0   4  15 446.712 36.2677   5 
   0   4 -15 417.723 34.4849   1 
   0   4 -15 465.558 35.1286   1 
  -1  -4 -15 295.236 28.1443   1 
  -1   4  15 291.294 28.2350   5 
  -1  -4 -15 288.909 33.3384   8 
   1   4 -15 280.034 27.0925   1 
  -1   4 -15 345.718 26.0523   1 
  -1  -4  15 318.050 29.3178   5 
   1   4  15 318.329 27.3033   5 
   1  -4 -15 308.627 30.9531   1 
  -1   4 -15 321.290 26.8029   1 
   2   4 -15 540.651 46.4719   1 
  -2   4  15 561.997 46.3359   5 
   2  -4  15 556.358 46.0217   7 
  -2  -4 -15 510.841 48.7994   8 
  -2  -4 -15 541.394 44.9028   1 
   2  -4 -15 584.266 50.2179   1 
  -2   4 -15 639.572 43.3793   1 
  -2   4 -15 608.559 45.2913   1 
  -2  -4  15 613.027 47.0435   5 
   3   4 -15 338.633 35.9566   1 
  -3  -4 -15 351.387 36.6120   8 
  -3  -4 -15 362.578 34.0514   1 
  -3   4  15 389.724 35.4777   5 
   3  -4  15 354.681 34.7823   7 
  -3   4 -15 426.923 39.3267   2 
  -3  -4  15 399.259 34.4876   5 
  -3   4 -15 392.143 34.5938   1 
   3  -4 -15 381.082 39.8588   1 
  -4  -4 -15 267.096 30.3796   1 
   4   4 -15 279.177 33.8632   1 
  -4   4 -15 293.525 31.7412   1 
   4  -4 -15 305.523 36.9098   1 
  -4  -4  15 300.329 29.6383   5 
  -4   4 -15 327.750 35.0074   2 
   0   5 -15 466.729 38.7978   1 
   0  -5 -15 464.194 40.7686   1 
   1   5 -15 424.468 37.6972   1 
  -1  -5 -15 435.686 38.6382   1 
  -1   5 -15 463.205 37.5312   1 
   1  -5 -15 438.817 41.2311   1 
   2   5 -15 215.364 25.9780   1 
  -2  -5 -15 219.824 25.4043   1 
   2  -5 -15 235.233 28.7964   1 
  -2   5 -15 267.320 26.0560   1 
  -2  -5  15 253.098 27.0658   5 
  -3  -5 -15 357.863 35.3374   1 
   3  -5  15 363.580 35.2971   7 
   3   5 -15 375.165 37.9146   1 
  -3   5 -15 372.554 35.9253   1 
   3  -5 -15 348.669 39.8719   1 
  -3   5 -15 405.908 40.3575   2 
  -3  -5  15 355.027 33.8118   5 
  -4  -5 -15 275.252 33.1459   1 
   4   5 -15 273.777 35.2545   1 
  -4   5 -15 365.499 35.6564   1 
  -4  -5  15 330.930 32.2830   5 
   4  -5 -15 336.878 39.7913   1 
   0  -6 -15 712.653 58.6794   1 
   0   6 -15 724.032 56.5485   1 
   1   6 -15 232.890 26.8540   1 
  -1  -6 -15 225.066 27.6809   1 
  -1   6 -15 269.261 27.6411   1 
   1  -6 -15 244.367 30.5201   1 
   2   6 -15 141.025 23.4797   1 
  -2  -6 -15 155.117 23.4475   1 
  -2  -6  15 206.643 23.4944   5 
   2  -6 -15 191.455 28.5562   1 
  -2   6 -15 207.090 24.4952   1 
  -2   6 -15 192.378 15.0626   6 
   3   6 -15 615.571 56.6831   1 
  -3  -6 -15 669.536 56.7659   1 
  -3  -6  15 699.191 53.7929   5 
   3  -6 -15 681.203 61.5668   1 
  -3   6 -15 671.738 56.0969   1 
   0  -7 -15 545.052 49.6778   1 
   0   7 -15 532.628 47.2088   1 
  -1  -7 -15 295.814 33.5814   1 
   1   7 -15 273.620 31.6557   1 
   1  -7 -15 298.236 35.5123   1 
  -1   7 -15 323.377 33.2100   1 
  -2  -7 -15 138.026 23.9905   1 
   2   7 -15 134.818 23.5728   1 
   2  -7 -15 154.064 27.8941   1 
  -2   7 -15 168.318 24.0849   1 
   0   8 -15 745.059 61.6271   1 
   0  -8 -15 664.849 61.5831   1 
  -1  -8 -15 186.229 27.8720   1 
   1   8 -15 182.976 26.4478   1 
  -1   8 -15 170.606 27.1665   1 
   1  -8 -15 176.977 30.1792   1 
   0   0 -16 2310.14 142.598   1 
   0   0  16 2209.69 148.869   5 
   0   0 -16 2156.63 142.235   1 
  -1   0  16 174.434 20.8484   5 
   1   0 -16 194.713 18.3357   1 
   1   0  16 188.329 21.0737   5 
   1   0 -16 194.660 19.2821   1 
   2   0 -16 235.891 23.6384   1 
  -2   0  16 223.738 24.1439   5 
   2   0  16 207.037 21.7955   5 
   3   0 -16 72.7209 16.3540   1 
   3   0  16 64.9816 12.7148   5 
  -3   0 -16 63.6034 9.60976   1 
  -3   0  16 65.0696 15.3486   5 
   3   0  16 53.6462 15.2871   7 
  -3   0 -16 65.7017 9.83039   1 
  -4   0  16 600.820 48.6695   5 
  -4   0 -16 578.515 45.7165   1 
   4   0 -16 595.302 52.8525   1 
  -5   0 -16 15.8494 10.0137   1 
   5   0 -16 29.6075 18.6698   1 
  -5   0  16 18.5875 11.8570   5 
   0  -1  16 214.326 23.2977   5 
   0   1  16 225.032 23.3569   5 
   0  -1 -16 251.328 19.3168   1 
   0  -1 -16 221.193 18.6185   1 
  -1   1  16 585.456 47.2893   5 
   1   1 -16 605.393 44.4977   1 
   1  -1  16 595.545 47.2712   5 
   1   1 -16 586.229 43.7702   1 
   1  -1 -16 645.580 47.0040   1 
   1   1  16 616.640 46.4937   5 
   1  -1 -16 597.958 44.9832   1 
  -1  -1  16 617.004 48.0356   5 
  -2  -1 -16 16.9622 5.13593   1 
   2  -1  16 14.1152 8.09370   5 
  -2  -1 -16 14.9614 5.09446   1 
  -2   1  16 15.8508 8.71997   5 
   2   1 -16 14.0911 7.38207   1 
   2  -1  16 8.83176 7.60778   7 
   2  -1 -16 2.40964 6.04791   1 
   2   1  16 5.01700 6.61080   5 
  -2  -1  16 1.38727 7.15344   5 
   3   1 -16 1053.51 77.6488   1 
  -3  -1 -16 1045.69 71.1331   1 
   3  -1  16 1010.28 73.4758   5 
  -3   1  16 1083.63 76.4868   5 
   3  -1  16 1044.93 78.0844   7 
  -3  -1 -16 1054.33 71.5837   1 
  -3  -1  16 1049.63 76.1667   5 
  -3   1 -16 995.234 69.9198   1 
  -3   1 -16 1007.03 70.1643   1 
   3  -1 -16 1042.89 78.1632   1 
   4   1 -16 86.7358 20.1033   1 
  -4   1  16 97.1114 18.1694   5 
  -4  -1 -16 93.6689 15.4281   1 
  -4   1 -16 96.4752 15.3237   1 
   4  -1 -16 88.6803 20.5400   1 
  -4  -1  16 93.8041 17.7454   5 
  -5   1  16 125.043 22.9249   5 
   5   1 -16 126.642 25.0153   1 
  -5  -1 -16 125.879 20.5465   1 
   5  -1 -16 132.284 26.5269   1 
  -5   1 -16 130.055 20.9141   1 
  -5  -1  16 120.601 20.6013   5 
   0   2  16 1805.80 128.840   5 
   0  -2  16 1783.08 128.097   7 
   0  -2  16 1923.46 129.905   5 
   0  -2 -16 1802.89 126.557   1 
   0   2 -16 1944.07 123.861   1 
   0   2 -16 2007.65 123.888   1 
   0  -2 -16 2113.96 127.649   1 
   1   2 -16 344.642 26.8331   1 
   1  -2  16 305.291 28.5789   7 
  -1  -2 -16 301.796 24.4647   1 
  -1   2  16 305.161 29.0454   5 
   1  -2  16 297.732 28.1746   5 
  -1  -2 -16 308.306 33.1461   8 
   1   2 -16 284.917 25.0872   1 
  -1  -2 -16 334.652 24.5119   1 
   1   2  16 296.418 27.3341   5 
   1  -2 -16 282.614 27.3415   1 
   1  -2 -16 314.432 29.3533   1 
  -1  -2  16 285.831 28.6995   5 
   2   2 -16 100.498 15.6918   1 
  -2  -2 -16 111.730 19.6385   8 
  -2  -2 -16 102.229 12.7361   1 
   2  -2  16 101.810 18.1100   7 
  -2  -2 -16 102.671 12.4824   1 
  -2   2  16 124.927 18.2233   5 
   2  -2 -16 134.685 18.5360   1 
   2   2  16 156.681 16.5753   5 
  -2  -2  16 150.512 18.5883   5 
   3   2 -16 149.883 21.4757   1 
   3  -2  16 166.215 21.9028   7 
  -3  -2 -16 142.436 16.8120   1 
  -3   2  16 166.288 21.7327   5 
  -3  -2  16 158.752 20.6246   5 
   3  -2 -16 156.175 22.8879   1 
  -3   2 -16 155.604 15.0529   1 
  -4   2  16 469.562 40.7283   5 
  -4  -2 -16 460.454 38.9351   1 
   4   2 -16 471.511 43.9853   1 
  -4  -2  16 420.002 39.2578   5 
   4  -2 -16 436.619 44.3878   1 
   0   3  16 80.4748 14.5329   5 
   0  -3 -16 91.8490 14.1292   1 
   0  -3  16 75.1465 15.0136   5 
   0  -3 -16 70.5039 19.5035   8 
   0   3 -16 80.5321 10.7099   1 
   0  -3 -16 69.9711 13.1174   1 
  -1  -3 -16 457.022 35.6416   1 
  -1   3  16 415.509 37.2717   5 
   1  -3  16 392.856 36.4309   7 
  -1  -3 -16 391.180 41.1883   8 
   1   3 -16 367.534 33.7949   1 
  -1  -3 -16 368.037 34.1715   1 
  -1   3 -16 485.369 32.6091   1 
   1  -3 -16 494.800 39.0636   1 
  -1  -3  16 495.982 39.3290   5 
   1   3  16 518.253 37.3558   5 
  -1   3 -16 500.700 31.9506   1 
   2   3 -16 237.146 25.0042   1 
  -2  -3 -16 252.510 29.5334   8 
  -2  -3 -16 226.099 22.2617   1 
  -2   3  16 244.795 26.2751   5 
   2  -3  16 230.503 25.7882   7 
   2  -3 -16 260.873 28.1613   1 
  -2   3 -16 245.408 20.3208   1 
  -2   3 -16 260.908 19.8342   1 
  -2  -3  16 246.211 25.9272   5 
   3   3 -16 831.960 65.4715   1 
  -3   3  16 882.490 64.5839   5 
  -3  -3 -16 870.546 62.1366   1 
   3  -3  16 828.684 65.2904   7 
  -3  -3  16 860.111 64.1843   5 
  -3   3 -16 793.064 61.4258   1 
  -3   3 -16 858.001 60.6856   1 
   3  -3 -16 829.691 67.8117   1 
  -4  -3 -16 213.676 25.1488   1 
   4   3 -16 225.425 29.8327   1 
  -4   3  16 240.310 27.8119   5 
   4  -3 -16 243.683 32.1856   1 
  -4  -3  16 225.044 26.9874   5 
   0   4  16 1058.20 76.4654   5 
   0   4 -16 1148.31 75.1972   1 
   0  -4 -16 1033.07 77.8987   1 
   0   4 -16 1041.87 74.7077   1 
  -1  -4 -16 522.519 41.3609   1 
   1   4 -16 560.949 41.6083   1 
  -1   4  16 574.295 42.7878   5 
  -1   4 -16 520.963 38.2225   1 
   1  -4 -16 453.749 43.3322   1 
  -1  -4  16 497.032 42.4942   5 
   1   4  16 471.587 39.9377   5 
  -1   4 -16 492.566 38.9723   1 
  -2  -4 -16 146.971 19.4157   1 
   2   4 -16 139.916 20.4733   1 
  -2   4  16 163.134 21.9598   5 
  -2   4 -16 194.087 17.6784   1 
  -2  -4  16 171.694 21.7486   5 
   2  -4 -16 186.632 24.7572   1 
  -2   4 -16 189.180 19.5583   1 
  -3   4  16 52.4073 15.8712   5 
  -3  -4 -16 44.5039 13.6791   1 
   3   4 -16 51.0146 15.9705   1 
   3  -4  16 44.1763 14.3214   7 
   3  -4 -16 47.7822 17.9901   1 
  -3   4 -16 41.8543 12.1995   1 
  -3  -4  16 37.2604 14.2267   5 
  -4  -4 -16 333.805 33.0632   1 
   4   4 -16 313.544 35.8685   1 
  -4  -4  16 314.070 31.3380   5 
   4  -4 -16 302.190 38.2137   1 
  -4   4 -16 334.853 33.5501   1 
   0   5 -16 86.2594 14.8612   1 
   0  -5 -16 74.4431 16.6332   1 
   0   5  16 90.6493 14.9887   5 
   1   5 -16 208.441 23.8599   1 
  -1  -5 -16 201.561 23.7354   1 
  -1   5 -16 240.242 23.4648   1 
   1  -5 -16 211.587 26.4961   1 
  -2  -5 -16 548.369 46.0534   1 
   2   5 -16 531.957 46.2678   1 
   2  -5 -16 554.171 50.5754   1 
  -2  -5  16 560.859 46.1817   5 
  -2   5 -16 565.342 45.1417   1 
   3   5 -16 406.488 39.1021   1 
  -3  -5 -16 395.348 36.6950   1 
  -3  -5  16 346.484 34.5878   5 
   3  -5 -16 337.501 39.7945   1 
  -3   5 -16 365.164 35.3917   1 
   0   6 -16 308.029 30.8314   1 
   0  -6 -16 302.176 33.2415   1 
  -1  -6 -16 506.868 44.8556   1 
   1   6 -16 537.498 44.7961   1 
   1  -6 -16 495.922 47.7051   1 
  -1   6 -16 518.331 43.9697   1 
   2   6 -16 62.3326 17.3465   1 
  -2  -6 -16 60.5812 16.9862   1 
  -2  -6  16 78.9879 17.4596   5 
  -2   6 -16 84.6595 16.8690   1 
   2  -6 -16 82.0249 20.5966   1 
   3   6 -16 7.19295 9.98646   1 
  -3  -6 -16 7.32307 10.0667   1 
   3  -6 -16 38.5056 19.2396   1 
  -3   6 -16 28.2275 16.0610   1 
  -3  -6  16 29.5282 14.9247   5 
   0  -7 -16 37.2279 17.7058   1 
   0   7 -16 41.1375 16.1475   1 
  -1  -7 -16 87.6626 20.0755   1 
   1   7 -16 97.5441 19.5964   1 
   1  -7 -16 115.891 24.1370   1 
  -1   7 -16 129.139 21.1136   1 
   0   0  17 -0.7982 7.42271   5 
   1   0 -17 16.0097 7.65816   1 
   1   0  17 17.3047 8.87811   5 
  -1   0  17 16.1356 9.04362   5 
   1   0 -17 14.6147 9.04645   1 
  -2   0  17 1147.90 79.9371   5 
   2   0  17 1032.03 80.3451   7 
   2   0  17 1076.67 77.6902   5 
   2   0 -17 1128.29 78.6424   1 
  -3   0 -17 6.29413 3.90696   1 
   3   0 -17 1.43851 7.33743   1 
  -3   0 -17 3.11798 3.85226   1 
  -3   0  17 3.22905 8.26412   5 
   4   0 -17 955.917 75.2580   1 
  -4   0 -17 920.972 67.0192   1 
  -4   0  17 949.315 71.2852   5 
   0  -1 -17 27.0224 6.37460   1 
   0  -1 -17 35.5803 7.25767   1 
   0   1  17 30.8468 13.4640   5 
   0  -1  17 19.2586 11.4851   5 
  -1   1  17 940.524 70.3398   5 
   1  -1  17 890.107 70.2581   7 
   1   1 -17 1004.60 67.4843   1 
   1   1 -17 943.837 66.0303   1 
   1  -1  17 901.713 69.4634   5 
   1  -1 -17 1068.56 69.8926   1 
  -1  -1  17 1007.47 70.8135   5 
   1  -1 -17 942.075 67.1991   1 
   1   1  17 941.112 69.3592   5 
  -2   1  17 18.5791 9.36666   5 
   2  -1  17 11.9972 8.07283   7 
   2   1 -17 20.1700 10.5572   1 
   2  -1  17 10.3637 7.61967   5 
   2  -1 -17 11.7337 7.71197   1 
  -2  -1  17 14.3231 8.96913   5 
   2   1  17 14.9188 7.56682   5 
  -3  -1 -17 7.15432 4.89325   1 
  -3   1  17 6.22791 9.49027   5 
   3  -1  17 5.23450 7.20204   5 
  -3  -1 -17 3.80122 4.54829   1 
   3   1 -17 7.33103 8.08048   1 
   3  -1 -17 5.86902 8.11410   1 
  -3   1 -17 5.32282 3.68944   1 
  -3   1 -17 3.51703 3.36198   1 
  -3  -1  17 0.55274 8.83691   5 
   4   1 -17 22.5619 15.9083   1 
  -4  -1 -17 14.0476 10.3660   1 
  -4   1  17 17.1360 10.9943   5 
   4  -1 -17 12.6694 11.2816   1 
  -4  -1  17 17.5398 10.7303   5 
  -4   1 -17 17.2799 10.3782   1 
   0   2  17 10.5835 7.62256   5 
   0   2 -17 10.7353 4.31379   1 
   0  -2  17 10.6168 8.18433   5 
   0  -2 -17 10.3345 7.92000   1 
   0  -2 -17 10.1238 8.29566   1 
  -1  -2 -17 76.3799 10.5225   1 
  -1  -2 -17 87.7171 10.3295   1 
   1  -2  17 83.1763 15.3236   5 
  -1   2  17 90.3991 17.5741   5 
   1  -2  17 82.5032 15.4880   7 
   1   2 -17 87.2372 12.3453   1 
   1   2 -17 79.2466 11.5513   1 
   1  -2 -17 83.6995 13.7094   1 
   1   2  17 99.5837 14.8664   5 
  -1  -2  17 90.7420 17.5499   5 
   2   2 -17 819.820 62.3933   1 
  -2  -2 -17 883.947 59.0941   1 
   2  -2  17 842.550 65.1444   7 
  -2  -2 -17 814.201 58.3387   1 
  -2   2  17 855.279 64.8386   5 
   2  -2  17 806.003 62.8711   5 
   2   2  17 877.221 62.2775   5 
  -2  -2  17 896.970 64.7057   5 
   2  -2 -17 904.825 65.4580   1 
   3   2 -17 148.223 20.6453   1 
  -3  -2 -17 143.186 16.1279   1 
  -3   2  17 164.543 22.0278   5 
  -3   2 -17 150.304 14.3074   1 
  -3   2 -17 147.160 13.5748   1 
   3  -2 -17 141.991 22.4054   1 
  -3  -2  17 151.554 22.3825   5 
  -4  -2 -17 618.745 50.1668   1 
   4   2 -17 651.431 56.8149   1 
  -4   2  17 680.469 54.5956   5 
  -4   2 -17 644.926 49.6708   1 
  -4  -2  17 631.153 52.6050   5 
   4  -2 -17 691.207 58.7829   1 
   0  -3 -17 651.481 50.0649   1 
   0  -3  17 635.679 51.5333   5 
   0   3  17 665.490 51.7136   5 
   0   3 -17 670.353 46.2706   1 
  -1  -3 -17 642.421 49.0091   1 
   1   3 -17 625.246 48.3583   1 
  -1  -3 -17 758.194 56.4004   1 
  -1   3  17 710.032 53.2184   5 
   1  -3 -17 620.247 51.5774   1 
  -1  -3  17 638.420 52.6980   5 
  -1   3 -17 671.945 44.6481   1 
   1   3  17 672.453 51.0781   5 
   2  -3  17 43.3650 14.8380   7 
  -2  -3 -17 44.7012 10.2184   1 
  -2  -3 -17 53.9739 17.2338   8 
   2   3 -17 49.2903 12.7625   1 
  -2   3  17 63.8665 15.5810   5 
  -2   3 -17 26.1481 5.91124   1 
  -2  -3  17 22.3349 10.8478   5 
   2  -3 -17 33.6282 13.7472   1 
  -3  -3 -17 12.5301 7.25720   1 
  -3   3  17 11.8228 10.7613   5 
   3   3 -17 17.9045 13.2075   1 
   3  -3 -17 7.13466 9.51066   1 
  -3  -3  17 5.15202 8.92323   5 
  -4  -3 -17 110.038 18.1299   1 
  -4   3  17 132.366 24.7140   5 
   4   3 -17 105.182 21.8106   1 
   4  -3 -17 96.9238 22.9665   1 
  -4  -3  17 82.4718 20.0476   5 
   0   4  17 11.3236 8.68208   5 
   0  -4 -17 5.31645 7.16246   1 
   0   4 -17 3.10148 5.31472   1 
   1   4 -17 269.440 25.7440   1 
  -1   4  17 305.526 28.4712   5 
  -1  -4 -17 267.677 26.5404   1 
  -1   4 -17 278.531 23.2279   1 
   1  -4 -17 258.642 28.4730   1 
  -1   4 -17 277.353 23.8218   1 
   1   4  17 260.155 26.0310   5 
  -1  -4  17 268.550 28.4895   5 
   2   4 -17 575.009 48.6019   1 
  -2  -4 -17 547.896 46.2116   1 
  -2   4  17 624.299 49.8072   5 
   2  -4 -17 591.324 51.4730   1 
  -2  -4  17 596.948 49.1906   5 
  -2   4 -17 653.120 45.7159   1 
  -2   4 -17 609.917 44.9844   1 
  -3   4  17 436.444 41.6001   5 
  -3  -4 -17 448.963 39.8657   1 
   3   4 -17 432.833 42.2823   1 
  -3   4 -17 513.983 39.1723   1 
   3  -4 -17 475.872 45.6336   1 
  -3  -4  17 486.743 42.1903   5 
   0   5 -17 779.161 57.4155   1 
   0  -5 -17 746.537 60.6516   1 
   0   5  17 756.153 58.0356   5 
  -1  -5 -17 278.422 27.7778   1 
   1   5 -17 274.303 26.5725   1 
  -1   5 -17 223.194 23.8308   1 
   1  -5 -17 223.509 28.9647   1 
  -1  -5  17 221.978 26.8006   5 
   2   5 -17 94.0295 17.1925   1 
  -2  -5 -17 93.0756 16.9671   1 
  -2  -5  17 52.0828 16.3388   5 
   2  -5 -17 58.3976 18.6724   1 
  -2   5 -17 69.3227 14.5448   1 
   0  -6 -17 3.99227 8.95735   1 
   0   6 -17 4.82662 8.20750   1 
   1   6 -17 431.637 38.5396   1 
  -1  -6 -17 393.643 39.2775   1 
  -1   6 -17 433.749 37.6177   1 
   1  -6 -17 375.017 40.4603   1 
   0   0  18 1269.43 89.7724   5 
   1   0 -18 255.496 21.8455   1 
  -1   0  18 250.579 27.7371   5 
   1   0  18 241.035 26.2321   5 
   1   0 -18 259.968 23.3341   1 
  -2   0  18 292.105 30.1466   5 
   2   0 -18 276.957 26.4669   1 
   2   0  18 261.766 27.0738   5 
  -3   0  18 175.474 23.2374   5 
   3   0 -18 161.456 22.7980   1 
   0   1  18 355.795 32.6948   5 
   0  -1 -18 359.444 25.5932   1 
   0  -1 -18 365.443 25.6038   1 
   0  -1  18 342.208 32.7538   5 
   1  -1  18 303.120 30.9097   7 
   1   1 -18 359.550 28.2217   1 
  -1   1  18 315.180 31.4130   5 
   1  -1  18 316.329 30.8852   5 
   1   1 -18 331.164 26.2219   1 
   1  -1 -18 362.843 35.6911   1 
  -1  -1  18 322.281 31.6867   5 
   1  -1 -18 341.540 28.0458   1 
   1   1  18 334.815 31.2708   5 
   2  -1  18 25.2794 13.4570   5 
   2   1 -18 35.6298 11.5466   1 
   2  -1  18 24.8327 16.5221   7 
  -2   1  18 31.2630 14.3810   5 
   2   1  18 35.1045 12.5770   5 
   2  -1 -18 39.1805 12.3660   1 
  -2  -1  18 36.5023 14.2994   5 
  -3   1  18 792.075 62.0735   5 
   3   1 -18 803.329 62.4513   1 
  -3  -1 -18 803.821 54.3029   1 
  -3  -1 -18 766.737 53.5079   1 
  -3  -1  18 812.689 62.5832   5 
   3  -1 -18 793.641 62.9361   1 
   0  -2  18 1039.21 77.4943   5 
   0  -2 -18 997.266 71.8556   1 
   0   2  18 1041.63 76.6092   5 
   0  -2 -18 1139.54 72.9741   1 
   1   2 -18 239.652 21.3914   1 
  -1  -2 -18 222.159 18.7585   1 
  -1   2  18 236.637 26.7274   5 
   1   2 -18 226.555 20.6589   1 
  -1  -2 -18 244.377 18.6925   1 
   1  -2  18 204.263 24.7406   5 
   1  -2 -18 244.194 23.3979   1 
  -1  -2  18 232.158 25.8032   5 
   1   2  18 235.398 24.8799   5 
  -2  -2 -18 149.763 13.9426   1 
  -2   2  18 160.285 23.2768   5 
   2  -2  18 139.956 20.5441   5 
   2  -2  18 145.524 20.6228   7 
   2   2 -18 147.036 18.4946   1 
  -2  -2 -18 141.522 13.7485   1 
  -2  -2  18 151.257 21.2156   5 
   2  -2 -18 157.224 20.5571   1 
   3  -2  18 160.524 20.9521   5 
  -3  -2 -18 149.962 15.6858   1 
  -3   2  18 162.327 22.6378   5 
   3   2 -18 149.818 21.4628   1 
   3  -2 -18 116.260 21.3184   1 
  -3  -2  18 130.386 21.0044   5 
   0  -3  18 474.964 42.9313   5 
   0   3 -18 522.665 35.6882   1 
   0   3 -18 503.986 35.5526   1 
   0   3  18 488.514 42.2244   5 
   0  -3 -18 482.153 39.6369   1 
   1  -3  18 297.814 29.9371   5 
  -1  -3 -18 280.487 25.8520   1 
  -1   3  18 290.647 29.6821   5 
   1   3 -18 305.339 26.0486   1 
   1  -3 -18 292.874 28.7537   1 
  -1  -3  18 281.935 30.9333   5 
   1   3  18 312.705 29.2165   5 
   2   3 -18 209.308 23.8703   1 
  -2  -3 -18 197.253 20.5067   1 
  -2   3  18 210.756 26.0240   5 
  -2  -3  18 285.243 27.8715   5 
   2  -3 -18 278.195 28.1372   1 
   3   3 -18 595.394 52.2914   1 
  -3  -3 -18 616.557 48.2445   1 
  -3   3  18 616.444 52.3109   5 
  -3   3 -18 668.320 44.6683   1 
  -3  -3  18 656.649 52.2670   5 
   3  -3 -18 682.464 56.5447   1 
   0  -4  18 504.806 43.5696   5 
   0  -4 -18 491.345 42.0260   1 
   0   4  18 480.433 41.1984   5 
   0   4 -18 515.454 38.6521   1 
  -1   4  18 391.151 36.8855   5 
  -1  -4 -18 384.920 34.6678   1 
   1   4 -18 395.595 34.0498   1 
   1  -4 -18 391.331 37.2226   1 
  -1   4 -18 421.358 30.8775   1 
  -1  -4  18 410.214 37.6204   5 
  -2  -4 -18 87.2206 16.0227   1 
   2   4 -18 93.5332 17.2470   1 
  -2   4  18 104.831 19.8356   5 
  -2   4 -18 125.228 12.9457   1 
   2  -4 -18 141.195 22.1298   1 
  -2  -4  18 120.021 20.1129   5 
  -2   4 -18 130.691 13.4092   1 
   0  -5 -18 234.718 27.9667   1 
   0   5  18 255.103 26.3366   5 
   0   5 -18 250.114 25.2855   1 
  -1  -5 -18 178.334 22.8969   1 
   1   5 -18 201.745 22.7691   1 
  -1   5 -18 188.121 20.3026   1 
  -1  -5  18 192.551 24.6745   5 
   1  -5 -18 159.298 23.7230   1 
   0   0  19 3.12763 8.01685   5 
   1   0 -19 515.985 36.9420   1 
  -1   0  19 480.762 41.5370   5 
   1   0  19 449.213 40.5245   5 
   1   0 -19 451.418 34.9847   1 
  -2   0  19 513.059 44.5420   5 
   2   0 -19 515.580 41.2688   1 
   2   0  19 483.834 41.8332   5 
   0   1  19 0.71781 7.65345   5 
   0  -1  19 3.04716 8.31579   5 
  -1   1  19 517.161 43.1476   5 
   1   1 -19 549.016 38.0926   1 
   1   1 -19 486.346 36.0653   1 
   1  -1  19 470.754 41.7999   5 
   1  -1 -19 507.833 38.1051   1 
   1   1  19 470.934 41.7479   5 
  -1  -1  19 477.153 42.2515   5 
  -2   1  19 391.128 36.5378   5 
   2  -1  19 392.301 34.7640   5 
   2   1 -19 375.271 32.5510   1 
   2  -1 -19 390.604 34.5050   1 
  -2  -1  19 360.569 35.8527   5 
   0  -2  19 98.2816 19.7580   5 
   0  -2 -19 113.470 12.8801   1 
   0   2  19 102.531 17.8596   5 
   0  -2 -19 110.960 12.6223   1 
   1  -2  19 412.509 39.1015   5 
   1   2 -19 399.582 32.3009   1 
  -1   2  19 448.318 39.1474   5 
   1   2  19 464.917 38.6325   5 
   1  -2 -19 445.230 35.7683   1 
  -1  -2  19 463.726 39.7087   5 
   2   2 -19 359.172 31.9466   1 
   2  -2  19 346.735 33.7238   5 
  -2   2  19 409.796 36.5121   5 
   2  -2 -19 352.726 33.6282   1 
  -2  -2  19 352.865 34.4298   5 
   0  -3 -19 81.7800 13.7754   1 
   0  -3  19 108.370 20.5934   5 
   0   3  19 95.0424 18.5191   5 
  -1   3  19 313.677 32.2904   5 
   1   3 -19 328.365 27.8606   1 
   1  -3  19 293.157 33.0082   5 
  -1  -3 -19 306.351 27.2877   1 
   1   3  19 372.974 37.9381   5 
   1  -3 -19 354.164 31.2358   1 
  -1  -3  19 358.695 34.6852   5 
  -2  -3 -19 343.585 27.2444   1 
   2   3 -19 365.590 31.3332   1 
   2  -3  19 345.811 32.9118   5 
  -2   3  19 348.214 33.8104   5 
  -2  -3  19 235.168 42.0979   5 
   2  -3 -19 273.706 34.9744   1 
   0  -4 -19 279.843 28.4560   1 
   0   4  19 307.059 30.5381   5 
   0  -4  19 304.398 32.0292   5 
   0   4 -19 315.179 25.1228   1 
   0   0  20 224.736 27.2660   5 
   1   0 -20 136.701 13.2124   1 
   1   0 -20 136.369 18.6457   1 
  -1   0  20 133.364 22.5852   5 
   0  -1  20 812.224 63.0952   5 
   0   1  20 818.212 63.2080   5 
  -1   1  20 10.8508 9.82732   5 
   1   1 -20 14.1051 6.22225   1 
   1   1 -20 14.1143 6.89029   1 
   1  -1  20 9.10281 9.23701   5 
   1  -1 -20 33.5638 9.02310   1 
  -1  -1  20 42.3285 15.7567   5 
   1   1  20 30.0517 14.6972   5 
   0   0   0    0.00    0.00   0 
;
_shelx_hkl_checksum              49522
#END Tags that were not found in dictionaries
loop_
_space_group_symop_operation_xyz
'x, y, z'
'-x+1/2, -y, z+1/2'
'-x, y+1/2, -z+1/2'
'x+1/2, -y+1/2, -z'
loop_
_atom_site_label
_atom_site_type_symbol
_atom_site_fract_x
_atom_site_fract_y
_atom_site_fract_z
_atom_site_U_iso_or_equiv
_atom_site_adp_type
_atom_site_occupancy
_atom_site_site_symmetry_order
_atom_site_calc_flag
_atom_site_refinement_flags_posn
_atom_site_refinement_flags_adp
C1 C 0.3141(9) 0.3094(6) 0.4073(3) 0.0160(12) Uani 1 1 d . .
C2 C 0.5204(8) 0.3886(5) 0.3866(3) 0.0124(11) Uani 1 1 d . .
C3 C 0.6423(8) 0.3880(6) 0.3128(3) 0.0153(12) Uani 1 1 d . .
H3 H 0.6032 0.3299 0.2636 0.018 Uiso 1 1 calc R U
C4 C 0.8272(8) 0.4746(7) 0.3103(3) 0.0212(12) Uani 1 1 d . .
H4 H 0.9144 0.4742 0.2591 0.025 Uiso 1 1 calc R U
C5 C 0.8847(9) 0.5618(5) 0.3826(3) 0.0147(11) Uani 1 1 d . .
H5 H 1.0075 0.6224 0.3807 0.018 Uiso 1 1 calc R U
C6 C 0.7561(8) 0.5565(5) 0.4568(3) 0.0116(11) Uani 1 1 d . .
C7 C 0.7776(9) 0.6410(6) 0.5425(3) 0.0152(12) Uani 1 1 d . .
N1 N 0.5844(7) 0.4713(5) 0.4553(2) 0.0116(8) Uani 1 1 d . .
O1 O 0.2307(6) 0.3350(4) 0.4876(2) 0.0172(8) Uani 1 1 d . .
O2 O 0.2296(6) 0.2301(4) 0.3544(2) 0.0208(9) Uani 1 1 d . .
O3 O 0.6303(6) 0.6111(3) 0.6031(2) 0.0132(8) Uani 1 1 d . .
O4 O 0.9159(6) 0.7294(4) 0.5547(2) 0.0214(8) Uani 1 1 d . .
Cl1 Cl 0.1970(2) 0.47461(16) 0.68013(8) 0.0210(3) Uani 1 1 d . .
Au1 Au 0.40782(3) 0.47153(2) 0.55950(2) 0.01147(6) Uani 1 1 d . .
loop_
_atom_site_aniso_label
_atom_site_aniso_U_11
_atom_site_aniso_U_22
_atom_site_aniso_U_33
_atom_site_aniso_U_23
_atom_site_aniso_U_13
_atom_site_aniso_U_12
C1 0.016(3) 0.012(3) 0.020(3) 0.005(2) -0.003(2) 0.003(2)
C2 0.013(3) 0.009(3) 0.015(2) 0.004(2) -0.005(2) 0.002(2)
C3 0.019(3) 0.015(3) 0.012(2) 0.000(2) -0.005(2) 0.002(2)
C4 0.019(3) 0.031(3) 0.014(2) 0.004(3) 0.001(2) -0.001(3)
C5 0.012(3) 0.017(3) 0.015(2) 0.003(2) 0.002(2) -0.003(2)
C6 0.012(3) 0.009(3) 0.014(2) 0.0003(18) 0.000(2) -0.001(2)
C7 0.019(3) 0.013(3) 0.013(2) 0.006(2) -0.002(2) 0.003(3)
N1 0.013(2) 0.0105(19) 0.0117(18) 0.0020(17) -0.0010(17) 0.005(2)
O1 0.014(2) 0.018(2) 0.0191(18) -0.0003(16) 0.0006(16) -0.0065(18)
O2 0.019(2) 0.021(2) 0.0227(19) -0.0026(17) -0.0043(17) -0.006(2)
O3 0.019(2) 0.0098(19) 0.0105(15) 0.0008(14) 0.0012(14) -0.0028(16)
O4 0.026(2) 0.022(2) 0.0158(17) -0.0004(16) 0.000(2) -0.0138(19)
Cl1 0.0185(7) 0.0252(7) 0.0193(6) -0.0016(6) 0.0075(5) -0.0006(7)
Au1 0.01066(11) 0.01127(11) 0.01249(9) 0.00158(8) 0.00125(8) -0.00038(9)
loop_
_atom_type_symbol
_atom_type_description
_atom_type_scat_dispersion_real
_atom_type_scat_dispersion_imag
_atom_type_scat_source
C C 0.0033 0.0016 'International Tables Vol C Tables 4.2.6.8 and 6.1.1.4'
H H 0.0000 0.0000 'International Tables Vol C Tables 4.2.6.8 and 6.1.1.4'
N N 0.0061 0.0033 'International Tables Vol C Tables 4.2.6.8 and 6.1.1.4'
O O 0.0106 0.0060 'International Tables Vol C Tables 4.2.6.8 and 6.1.1.4'
Cl Cl 0.1484 0.1585 'International Tables Vol C Tables 4.2.6.8 and 6.1.1.4'
Au Au -2.0133 8.8022 'International Tables Vol C Tables 4.2.6.8 and 6.1.1.4'
loop_
_geom_angle_atom_site_label_1
_geom_angle_atom_site_label_2
_geom_angle_atom_site_label_3
_geom_angle
O2 C1 O1 122.5(5)
O2 C1 C2 121.7(5)
O1 C1 C2 115.8(4)
N1 C2 C3 118.3(5)
N1 C2 C1 111.3(4)
C3 C2 C1 130.5(5)
C2 C3 C4 119.0(5)
C2 C3 H3 120.5
C4 C3 H3 120.5
C3 C4 C5 120.7(5)
C3 C4 H4 119.6
C5 C4 H4 119.6
C6 C5 C4 117.8(5)
C6 C5 H5 121.1
C4 C5 H5 121.1
N1 C6 C5 118.5(4)
N1 C6 C7 112.7(4)
C5 C6 C7 128.8(4)
O4 C7 O3 122.2(4)
O4 C7 C6 122.7(5)
O3 C7 C6 115.1(4)
C6 N1 C2 125.7(4)
C6 N1 Au1 116.7(3)
C2 N1 Au1 117.6(3)
C1 O1 Au1 112.8(3)
C7 O3 Au1 112.6(3)
N1 Au1 O1 82.52(16)
N1 Au1 O3 82.71(15)
O1 Au1 O3 165.20(13)
N1 Au1 Cl1 178.95(13)
O1 Au1 Cl1 97.25(11)
O3 Au1 Cl1 97.51(10)
loop_
_geom_bond_atom_site_label_1
_geom_bond_atom_site_label_2
_geom_bond_distance
C1 O2 1.206(6)
C1 O1 1.348(6)
C1 C2 1.516(7)
C2 N1 1.351(6)
C2 C3 1.357(7)
C3 C4 1.406(7)
C3 H3 0.9500
C4 C5 1.406(7)
C4 H4 0.9500
C5 C6 1.386(6)
C5 H5 0.9500
C6 N1 1.330(6)
C6 C7 1.522(6)
C7 O4 1.202(6)
C7 O3 1.332(6)
N1 Au1 1.931(4)
O1 Au1 1.999(3)
O3 Au1 2.006(3)
Cl1 Au1 2.2594(12)
