#------------------------------------------------------------------------------
#$Date: 2016-03-21 14:57:06 +0200 (Mon, 21 Mar 2016) $
#$Revision: 178731 $
#$URL: svn://www.crystallography.net/cod/cif/4/08/42/4084246.cif $
#------------------------------------------------------------------------------
#
# This file is available in the Crystallography Open Database (COD),
# http://www.crystallography.net/
#
# All data on this site have been placed in the public domain by the
# contributors.
#
data_4084246
loop_
_publ_author_name
'Figliola, Carlotta'
'Male, Louise'
'Horton, Peter N.'
'Pitak, Mateusz B.'
'Coles, Simon J.'
'Horswell, Sarah L.'
'Grainger, Richard S.'
_publ_section_title
;
 [FeFe]-Hydrogenase Synthetic Mimics Based onPeri-Substituted
 Dichalcogenides
;
_journal_issue                   17
_journal_name_full               Organometallics
_journal_page_first              4449
_journal_paper_doi               10.1021/om500683p
_journal_volume                  33
_journal_year                    2014
_chemical_formula_moiety         'C16 H6 Fe2 O6 Se2'
_chemical_formula_sum            'C16 H6 Fe2 O6 Se2'
_chemical_formula_weight         563.83
_chemical_name_systematic
;
[{Fe(CO)~3~}~2~(\m~2~-1,8-Se~2~-naph)] 
;
_space_group_crystal_system      triclinic
_space_group_IT_number           2
_space_group_name_Hall           '-P 1'
_space_group_name_H-M_alt        'P -1'
_symmetry_space_group_name_Hall  '-P 1'
_symmetry_space_group_name_H-M   'P -1'
_atom_sites_solution_hydrogens   geom
_audit_creation_method           SHELXL-2013
_cell_angle_alpha                99.559(4)
_cell_angle_beta                 101.362(4)
_cell_angle_gamma                92.799(4)
_cell_formula_units_Z            2
_cell_length_a                   7.5339(4)
_cell_length_b                   10.2894(6)
_cell_length_c                   11.7529(6)
_cell_measurement_reflns_used    4001
_cell_measurement_temperature    100.00(10)
_cell_measurement_theta_max      74.3980
_cell_measurement_theta_min      3.8990
_cell_volume                     877.68(8)
_computing_cell_refinement
;
CrysAlisPro, Agilent Technologies,
Version 1.171.36.28 (release 01-02-2013 CrysAlis171 .NET)
(compiled Feb  1 2013,16:14:44)
;
_computing_data_collection
;
CrysAlisPro, Agilent Technologies,
Version 1.171.36.28 (release 01-02-2013 CrysAlis171 .NET)
(compiled Feb  1 2013,16:14:44)
;
_computing_data_reduction
;
CrysAlisPro, Agilent Technologies,
Version 1.171.36.28 (release 01-02-2013 CrysAlis171 .NET)
(compiled Feb  1 2013,16:14:44)
;
_computing_molecular_graphics
;
OLEX2 (Dolomanov, O.V., Bourhis, L.J., Gildea, R.J., Howard, J.A.K,
& Puschmann, H., 2009)
;
_computing_publication_material  'WinGX (Farrugia, 1999)'
_computing_structure_refinement  'SHELXL-2013 (Sheldrick, 2013)'
_computing_structure_solution    'SHELXS-97 (Sheldrick, 2008)'
_diffrn_ambient_temperature      100.00(10)
_diffrn_detector_area_resol_mean 5.1768
_diffrn_measured_fraction_theta_full 0.996
_diffrn_measured_fraction_theta_max 0.989
_diffrn_measurement_device_type  'SuperNova, Dual, Cu at zero, Atlas'
_diffrn_radiation_monochromator  mirror
_diffrn_radiation_source         'SuperNova (Cu) X-ray Source'
_diffrn_radiation_type           'Cu K\a'
_diffrn_radiation_wavelength     1.5418
_diffrn_reflns_av_R_equivalents  0.0414
_diffrn_reflns_av_unetI/netI     0.0480
_diffrn_reflns_Laue_measured_fraction_full 0.996
_diffrn_reflns_Laue_measured_fraction_max 0.989
_diffrn_reflns_limit_h_max       9
_diffrn_reflns_limit_h_min       -8
_diffrn_reflns_limit_k_max       12
_diffrn_reflns_limit_k_min       -12
_diffrn_reflns_limit_l_max       7
_diffrn_reflns_limit_l_min       -14
_diffrn_reflns_number            5729
_diffrn_reflns_point_group_measured_fraction_full 0.996
_diffrn_reflns_point_group_measured_fraction_max 0.989
_diffrn_reflns_theta_full        67.680
_diffrn_reflns_theta_max         70.063
_diffrn_reflns_theta_min         6.452
_exptl_absorpt_coefficient_mu    18.291
_exptl_absorpt_correction_T_max  0.986
_exptl_absorpt_correction_T_min  0.930
_exptl_absorpt_correction_type   gaussian
_exptl_absorpt_process_details
;
CrysAlisPro, Agilent Technologies,
Version 1.171.36.28 (release 01-02-2013 CrysAlis171 .NET)
(compiled Feb  1 2013,16:14:44)
Numerical absorption correction based on gaussian integration over
            a multifaceted crystal model
;
_exptl_crystal_colour            Orange
_exptl_crystal_density_diffrn    2.133
_exptl_crystal_description       Plate
_exptl_crystal_F_000             540
_exptl_crystal_size_max          0.234
_exptl_crystal_size_mid          0.088
_exptl_crystal_size_min          0.022
_refine_diff_density_max         1.030
_refine_diff_density_min         -0.824
_refine_diff_density_rms         0.151
_refine_ls_extinction_method     none
_refine_ls_goodness_of_fit_ref   1.064
_refine_ls_hydrogen_treatment    constr
_refine_ls_matrix_type           full
_refine_ls_number_parameters     235
_refine_ls_number_reflns         3301
_refine_ls_number_restraints     0
_refine_ls_restrained_S_all      1.064
_refine_ls_R_factor_all          0.0387
_refine_ls_R_factor_gt           0.0358
_refine_ls_shift/su_max          0.000
_refine_ls_shift/su_mean         0.000
_refine_ls_structure_factor_coef Fsqd
_refine_ls_weighting_details
'w=1/[\s^2^(Fo^2^)+(0.0554P)^2^] where P=(Fo^2^+2Fc^2^)/3'
_refine_ls_weighting_scheme      calc
_refine_ls_wR_factor_gt          0.0933
_refine_ls_wR_factor_ref         0.0977
_reflns_Friedel_coverage         0.000
_reflns_number_gt                3068
_reflns_number_total             3301
_reflns_threshold_expression     'I > 2\s(I)'
_cod_data_source_file            om500683p_si_002.cif
_cod_data_source_block           6a
_cod_database_code               4084246
#BEGIN Tags that were not found in dictionaries:
_shelx_space_group_comment
;
The symmetry employed for this shelxl refinement is uniquely defined
by the following loop, which should always be used as a source of
symmetry information in preference to the above space-group names.
They are only intended as comments.
;
_shelx_estimated_absorpt_t_min   0.100
_shelx_estimated_absorpt_t_max   0.689
_shelxl_version_number           2013-4
_shelx_res_file
;
TITL
CELL  1.54180   7.5339  10.2894  11.7529   99.559  101.362   92.799
ZERR     2.00   0.0004   0.0006   0.0006    0.004    0.004    0.004
LATT   1
SFAC  C    H    O    FE   SE
UNIT  32   12   12   4    4
MERG   2
SHEL 7 0.82
FMAP   2
PLAN    5
SIZE     0.022   0.088   0.234
ACTA
BOND   $H
CONF
L.S.  10
TEMP  -173.00
WGHT    0.055400
FVAR       6.71573
C1    1    0.161600    0.262420    0.944006    11.00000    0.01277    0.01808 =
         0.01149    0.00127   -0.00053    0.00121
C2    1    0.127422    0.324253    1.050196    11.00000    0.02013    0.01447 =
         0.01640    0.00090    0.00477    0.00265
AFIX  43
H2    2    0.090494    0.411690    1.057076    11.00000   -1.20000
AFIX   0
C3    1    0.146103    0.260636    1.148092    11.00000    0.02831    0.02257 =
         0.01390    0.00435    0.00858    0.00456
AFIX  43
H3    2    0.126126    0.305929    1.221177    11.00000   -1.20000
AFIX   0
C4    1    0.193297    0.132848    1.137923    11.00000    0.02432    0.02326 =
         0.01505    0.00895    0.00559    0.00143
AFIX  43
H4    2    0.202950    0.089093    1.203713    11.00000   -1.20000
AFIX   0
C5    1    0.275942   -0.066644    1.022030    11.00000    0.02171    0.01654 =
         0.01538    0.00637    0.00063   -0.00039
AFIX  43
H5    2    0.280547   -0.110026    1.087749    11.00000   -1.20000
AFIX   0
C6    1    0.316007   -0.132211    0.919426    11.00000    0.02182    0.01485 =
         0.01894    0.00158    0.00019    0.00446
AFIX  43
H6    2    0.350883   -0.220103    0.914934    11.00000   -1.20000
AFIX   0
C7    1    0.305369   -0.069363    0.821608    11.00000    0.01653    0.01494 =
         0.01434    0.00190    0.00130    0.00055
AFIX  43
H7    2    0.333623   -0.115479    0.751286    11.00000   -1.20000
AFIX   0
C8    1    0.255019    0.057372    0.825171    11.00000    0.01167    0.01198 =
         0.01228    0.00256   -0.00100   -0.00046
C9    1    0.213525    0.130516    0.929292    11.00000    0.00958    0.01629 =
         0.01305    0.00241   -0.00001    0.00122
C10   1    0.227925    0.065215    1.029798    11.00000    0.01370    0.01746 =
         0.01624    0.00493    0.00349    0.00071
C11   1    0.552755    0.358742    0.819803    11.00000    0.01860    0.01523 =
         0.02282    0.00806    0.00320   -0.00191
C12   1    0.431181    0.311355    0.574542    11.00000    0.01678    0.01886 =
         0.02066    0.00493    0.00552   -0.00366
C13   1    0.329734    0.517071    0.696879    11.00000    0.02208    0.02097 =
         0.01620   -0.00044    0.00855   -0.00482
C14   1    0.026949    0.204818    0.481656    11.00000    0.01123    0.01753 =
         0.01778    0.00366   -0.00083   -0.00255
C15   1   -0.094884    0.399565    0.605083    11.00000    0.01802    0.01717 =
         0.01389    0.00029   -0.00162   -0.00079
C16   1   -0.174594    0.147831    0.643272    11.00000    0.01828    0.01909 =
         0.01729    0.00358    0.00442    0.00776
O1    3    0.679516    0.364371    0.891281    11.00000    0.02378    0.03016 =
         0.03280    0.01350   -0.00525   -0.00241
O2    3    0.479418    0.288741    0.487815    11.00000    0.02737    0.03894 =
         0.02108    0.00689    0.01078    0.00391
O3    3    0.315085    0.625255    0.688218    11.00000    0.05160    0.01717 =
         0.02997    0.00736    0.01715    0.00427
O4    3    0.037245    0.175293    0.385498    11.00000    0.02706    0.02501 =
         0.01394    0.00165    0.00247   -0.00067
O5    3   -0.162017    0.492920    0.586724    11.00000    0.03144    0.02155 =
         0.02472    0.00610    0.00149    0.00827
O6    3   -0.293444    0.078115    0.650057    11.00000    0.01794    0.02794 =
         0.03880    0.01388    0.00779   -0.00095
FE1   4    0.346801    0.346414    0.708786    11.00000    0.01319    0.01238 =
         0.01438    0.00278    0.00304    0.00024
FE2   4    0.016284    0.254926    0.633983    11.00000    0.01198    0.01370 =
         0.01235    0.00350    0.00270    0.00189
SE1   5    0.127301    0.373022    0.827231    11.00000    0.01654    0.01233 =
         0.01227    0.00229    0.00377    0.00385
SE2   5    0.254611    0.118355    0.679237    11.00000    0.01277    0.01202 =
         0.01246    0.00180    0.00327    0.00215
HKLF    4

REM
REM R1 =  0.0358 for    3068 Fo > 4sig(Fo)  and  0.0387 for all    3301 data
REM    235 parameters refined using      0 restraints

END

WGHT      0.0554      0.0000

REM Highest difference peak  1.030,  deepest hole -0.824,  1-sigma level  0.151
Q1    1   0.1571  0.2695  0.6577  11.00000  0.05    1.03
Q2    1   0.4374  0.1990  0.7294  11.00000  0.05    0.80
Q3    1   0.3973  0.1404  0.7008  11.00000  0.05    0.79
Q4    1  -0.0120  0.3518  0.8073  11.00000  0.05    0.75
Q5    1   0.2679  0.3958  0.8561  11.00000  0.05    0.75
;
_shelx_res_checksum              81853
_shelx_hkl_file
;
   0   0  -1 38961.5 866.226   4
   0   0  -2 267830. 5051.47   2
   0   0  -2 284883. 4017.93   4
   0   0  -3 230055. 5687.07   2
   0   0  -3 233814. 4059.30   4
   0   0  -4 357039. 5876.53   4
   0   0  -4 324917. 8498.05   2
   0   0  -5 25247.5 2555.35   2
   0   0  -5 23722.4 1434.02   4
   0   0  -6 549217. 14862.3   2
   0   0  -6 517128. 8877.56   4
   0   0  -7-48.8473 421.145   2
   0   0  -7 398.293 208.144   4
   0   0  -8 139609. 6999.20  15
   0   0  -8 165674. 8165.18  18
   0   0  -9 104569. 6638.57  15
   0   0  -9 117734. 7856.29  18
   0   0 -10 9528.11 2373.54  18
   0   0 -10 9845.76 1820.73  13
   0   0 -11 5301.02 1301.51  13
   0   0 -11 2524.28 1308.26  18
   0   0 -12 12117.1 1790.77  13
   0   0 -12 8830.40 2363.88  18
   0   0 -13 10478.2 2062.77  18
   0   1 -13 3426.70 1126.67  18
   0   1 -13 1234.11 554.091  13
   0   1 -12 9170.77 1661.02  13
   0   1 -12 7598.33 2373.07  18
   0   1 -11 18659.6 2620.21  13
   0   1 -11 10460.5 2816.24  18
   0   1 -10 2911.77 1559.02  18
   0   1 -10 2253.29 896.384  13
   0   1  -9 247187. 11729.8  18
   0   1  -9 232238. 8956.42  13
   0   1  -8 65.1596 216.677  15
   0   1  -8 221.450 340.628   2
   0   1  -7 335630. 11648.5   2
   0   1  -6 3308.43 510.578   4
   0   1  -6 3864.08 1015.96   2
   0   1  -5 129337. 5232.59   2
   0   1  -5 130914. 3075.08   4
   0   1  -4 86899.1 3568.51   2
   0   1  -4 91372.5 2222.31   4
   0   1  -4 94704.7 3649.31   5
   0   1  -3 210399. 3007.97   1
   0   1  -3 210092. 5022.46   5
   0   1  -2 367900. 4372.95   1
   0   1  -2 358529. 6357.83   5
   0   1  -1 706690. 8304.97   6
   0  -1   0 3849.59 293.847   4
   0  -1  -2 70464.8 2000.79   3
   0  -1  -2 70819.0 2063.73   4
   0  -1  -3 160563. 3860.27   3
   0  -1  -3 157758. 3670.17   4
   0  -1  -4 50525.9 2437.14   3
   0  -1  -4 49888.7 2177.20   4
   0  -1  -5 327097. 6829.11   4
   0  -1  -6 38748.1 2289.22   4
   0  -1  -7 1114.44 435.882   4
   0  -1  -8 16527.6 2557.11  18
   0  -1  -8 14471.3 2211.16  15
   0  -1  -9 22328.3 3049.81  15
   0  -1  -9 24277.7 3493.10  18
   0  -1 -10 57166.3 5062.45  15
   0  -1 -10 60947.8 6128.54  18
   0  -1 -10 55586.0 4160.23  13
   0  -1 -11 39977.0 5049.77  18
   0  -1 -12 22905.0 3557.96  18
   0  -1 -13 5367.02 1445.69  18
   0   2 -13 3173.43 1162.71  18
   0   2 -13 3228.20 915.304  13
   0   2 -12 132280. 9166.91  18
   0   2 -12 135933. 6898.93  13
   0   2 -11 108.498 1094.84  18
   0   2 -11 545.997 584.944  13
   0   2 -10 162729. 7977.11  13
   0   2 -10 116640. 9085.68  18
   0   2  -9 12813.8 2801.11  18
   0   2  -9 10387.2 1737.80  14
   0   2  -9 11221.0 1955.36  13
   0   2  -9 11684.4 2494.27   2
   0   2  -8 66995.1 4406.90  13
   0   2  -8 74978.0 5833.46   2
   0   2  -7 6278.80 1536.27   2
   0   2  -6 2505.50 859.145   2
   0   2  -5 12464.5 1561.63   5
   0   2  -5 10640.8 663.005   4
   0   2  -4 344159. 8026.66   5
   0   2  -3 4291.26 379.447   1
   0   2  -3 5226.54 846.385   5
   0   2  -2 312571. 4210.91   1
   0   2  -2 311071. 5353.86   6
   0  -2   1 417569. 5621.27   4
   0  -2   0 224942. 3901.98   4
   0  -2  -1 8898.09 740.299   4
   0  -2  -2 579623. 8738.25   4
   0  -2  -3 12409.7 1107.82   4
   0  -2  -3 13460.3 1079.73   3
   0  -2  -4 768053. 12145.1   4
   0  -2  -4 778341. 12230.1   3
   0  -2  -5 8919.35 1121.31   4
   0  -2  -6 1335.50 505.364   4
   0  -2  -7 103561. 4460.35   4
   0  -2  -8 380209. 12168.0  15
   0  -2  -8 392283. 13504.3  18
   0  -2  -8 368892. 9326.36   4
   0  -2  -9 31806.1 3648.51  15
   0  -2  -9 35894.1 4402.91  18
   0  -2 -10 280921. 13124.2  18
   0  -2 -10 261836. 10968.9  15
   0  -2 -11 34207.0 4447.87  18
   0  -2 -12 6409.75 1866.10  18
   0  -2 -13 832.952 622.541  18
   0   3 -13 217348. 9070.38  18
   0   3 -13 185908. 7316.36  13
   0   3 -12 3407.74 1265.10  18
   0   3 -12 6443.38 1565.74  13
   0   3 -11 85013.1 7941.97  18
   0   3 -11 114890. 6840.02  13
   0   3 -10-151.255 388.150  13
   0   3 -10-703.397 728.290  18
   0   3  -9 5285.69 1667.71  18
   0   3  -9 8227.08 1731.92  13
   0   3  -9 7038.12 1955.49   2
   0   3  -8 43260.1 4658.49  18
   0   3  -8 47383.5 3803.62  13
   0   3  -8 43151.0 4333.04   2
   0   3  -7 31282.7 3268.06   2
   0   3  -6 193295. 7252.39   5
   0   3  -5 105671. 4892.23   5
   0   3  -4 68649.1 3691.58   5
   0   3  -4 62643.4 1460.71   1
   0   3  -3 65147.1 1851.21   1
   0   3  -3 58866.6 3210.40   5
   0  -3   2 148807. 3127.52   4
   0   3  -2 156801. 4090.18   6
   0  -3   1 21765.3 1196.02   4
   0  -3   0 138647. 3478.70   4
   0  -3  -1 599583. 9268.66   4
   0  -3  -2 6690.78 842.012   4
   0  -3  -3 278709. 5911.38   3
   0  -3  -3 265407. 6389.67   4
   0  -3  -4 13661.5 1449.87   4
   0  -3  -4 15645.8 1450.85   3
   0  -3  -5 11261.6 1424.92   4
   0  -3  -5 12196.9 1444.95   3
   0  -3  -6 14763.5 1734.90   4
   0  -3  -7 347893. 12919.5  10
   0  -3  -7 329366. 9152.26   4
   0  -3  -7 342749. 11733.8  18
   0  -3  -7 341077. 10635.7  15
   0  -3  -8 757.994 886.697  18
   0  -3  -8 249.357 645.407  10
   0  -3  -8 1454.39 823.583  15
   0  -3  -8 161.999 360.463   4
   0  -3  -9 305381. 13084.4  18
   0  -3  -9 287653. 11141.0  15
   0  -3 -10 5976.41 1940.42  18
   0  -3 -10 6213.97 1552.80  15
   0  -3 -11 25630.4 3702.05  18
   0  -3 -11 26052.6 3045.89  15
   0  -3 -12 22582.3 2946.41  18
   0  -3 -13 45100.3 3051.55  18
   0   4 -13 5942.72 1312.26  13
   0   4 -12 64286.5 4845.87  13
   0   4 -12 65499.7 5714.08  18
   0   4 -11-658.147 1367.34  18
   0   4 -11 1704.08 1072.55  13
   0   4 -10 21710.4 2978.99  13
   0   4 -10 17534.0 3484.49  18
   0   4  -9 10979.4 2609.62  18
   0   4  -9 19945.8 3222.57   2
   0   4  -9 14718.2 2369.90  13
   0   4  -8 269941. 11210.9   2
   0   4  -8 285163. 9948.91  13
   0   4  -7 110538. 6126.27   5
   0   4  -7 105281. 6203.47   2
   0   4  -6 82572.8 4929.03   5
   0   4  -5 197767. 7492.62   5
   0   4  -4 11920.7 1685.77   5
   0   4  -3 1041.02 338.148   6
   0   4  -3 848.631 258.077   1
   0  -4   2 711619. 10013.8   4
   0   4  -2 693120. 11824.9   6
   0  -4   1 471421. 7988.62   4
   0  -4   0 765687. 11637.3   4
   0  -4  -1 3258.13 627.986   4
   0  -4  -2 146243. 4748.34   4
   0  -4  -3 3206.43 750.881   4
   0  -4  -3 3453.24 670.954   3
   0  -4  -4 35108.4 2618.73   4
   0  -4  -4 35105.5 2266.47   3
   0  -4  -5 54396.4 3170.38   3
   0  -4  -5 48588.7 3294.43   4
   0  -4  -6 280773. 10173.3  10
   0  -4  -6 268318. 9878.20  18
   0  -4  -6 267069. 8461.77   4
   0  -4  -7 44224.6 4481.73  10
   0  -4  -7 46688.8 4413.71  18
   0  -4  -7 41836.5 3672.21  15
   0  -4  -7 41223.9 3304.92   4
   0  -4  -8 330414. 13049.4  18
   0  -4  -8 304696. 10909.0  15
   0  -4  -8 312868. 9632.25   4
   0  -4  -8 322144. 13434.9  10
   0  -4  -9 462.589 713.011  18
   0  -4  -9 997.928 694.305  10
   0  -4  -9 1121.80 732.197  15
   0  -4 -10 37280.2 4438.96  18
   0  -4 -10 30277.0 3229.81  15
   0  -4 -11 13875.2 2548.32  18
   0  -4 -12 39765.9 3500.25  18
   0   5 -13 40326.7 3340.54  13
   0   5 -12 638.140 500.161  13
   0   5 -11 67020.0 5273.85  13
   0   5 -10 1087.12 567.173  13
   0   5  -9 334669. 15350.2  18
   0   5  -9 381780. 14607.6   2
   0   5  -9 365478. 12478.0  13
   0   5  -8 120996. 7523.96   2
   0   5  -8 117548. 6513.26  13
   0   5  -8 124714. 5471.85  11
   0   5  -7 208718. 8911.58   5
   0   5  -7 204269. 8045.96  13
   0   5  -7 221448. 7337.28  11
   0   5  -6 211804. 8636.78   5
   0   5  -5 51674.4 4060.13   5
   0   5  -4 1668.38 674.703   5
   0   5  -3 688532. 12287.3   6
   0  -5   2 58401.7 2530.18   4
   0   5  -2 62555.9 3431.83   6
   0  -5   1 349956. 7411.11   4
   0  -5   0 122831. 4349.66   4
   0  -5  -1 56062.2 3022.08   4
   0  -5  -2 66581.7 3510.56   4
   0  -5  -3 14116.3 1719.88   4
   0  -5  -3 12980.5 1310.21   3
   0  -5  -4 1270.34 580.397   4
   0  -5  -5 112570. 5544.61   4
   0  -5  -5 109768. 5718.27  10
   0  -5  -6 107059. 6420.70  10
   0  -5  -6 110187. 6611.29  18
   0  -5  -6 109516. 5699.51   4
   0  -5  -7 106519. 7120.24  10
   0  -5  -7 113528. 7261.92  18
   0  -5  -7 106075. 5753.80   4
   0  -5  -7 112547. 6184.60  15
   0  -5  -8 6735.93 1589.01  15
   0  -5  -8 7932.86 2137.43  18
   0  -5  -8 4974.31 1484.41  10
   0  -5  -9 10472.2 2186.19  10
   0  -5  -9 7351.40 1967.50  18
   0  -5  -9 8152.13 1775.35  15
   0  -5 -10-3.87444 470.192  15
   0  -5 -10 515.728 647.446  18
   0  -5 -11 45578.7 3965.11  18
   0  -5 -12 1601.86 600.114  18
   0   6 -13 803.823 551.378  13
   0   6 -12 54924.6 4352.50  13
   0   6 -12 48096.4 3129.56  12
   0   6 -11 1764.60 764.356  13
   0   6 -10 342876. 12359.8  13
   0   6  -9 11543.0 2216.70  13
   0   6  -9 11806.9 1677.02  11
   0   6  -8 230378. 9536.21  13
   0   6  -8 213489. 10427.1   2
   0   6  -8 224819. 7924.66  11
   0   6  -8 241041. 10160.3   5
   0   6  -7 97208.1 5691.88  13
   0   6  -7 97125.1 5083.93  11
   0   6  -7 96875.4 6237.35   5
   0   6  -6 58618.9 3862.06  11
   0   6  -6 58205.5 4082.34  13
   0   6  -6 61339.0 4864.75   5
   0   6  -5 20700.5 2778.08   5
   0   6  -4 472834. 13617.4   5
   0   6  -3 4489.47 922.563   6
   0  -6   2 470728. 9213.13   4
   0   6  -2 489274. 11640.7   6
   0  -6   1 12031.9 1389.32   4
   0  -6   0 3263.16 809.996   4
   0  -6  -1 11918.5 1585.09   4
   0  -6  -2 238929. 7615.82   4
   0  -6  -3 21594.7 2324.18   4
   0  -6  -4 78864.3 4764.09   4
   0  -6  -5 43507.0 3696.88   4
   0  -6  -5 37678.9 3557.44  10
   0  -6  -6 21372.2 3009.99  18
   0  -6  -6 24307.1 2835.33   4
   0  -6  -6 22028.6 3034.93  10
   0  -6  -7 51687.9 4898.07  18
   0  -6  -7 52040.0 4950.45  10
   0  -6  -7 51603.5 4178.37  15
   0  -6  -8 19022.9 3019.59  10
   0  -6  -8 16640.9 2318.78  15
   0  -6  -8 19419.6 3065.65  18
   0  -6  -9 3330.58 1177.69  10
   0  -6  -9 4160.47 1375.22  18
   0  -6  -9 2768.92 921.764  15
   0  -6 -10 27527.7 2369.61  15
   0  -6 -10 30237.4 3288.52  18
   0  -6 -11 501.555 423.999  18
   0   7 -12 4370.16 1318.89  13
   0   7 -12 3628.10 856.016  12
   0   7 -11 80994.7 5574.77  13
   0   7 -10 50894.8 4630.03  13
   0   7  -9 85410.6 5951.31  13
   0   7  -9 75115.2 4361.77  11
   0   7  -8 4169.58 1102.91  11
   0   7  -8 4394.28 1419.35  13
   0   7  -7 2072.32 879.494  13
   0   7  -7 1794.22 800.779  11
   0   7  -7 1815.21 870.741   5
   0   7  -6 9465.33 1742.48  13
   0   7  -6 10077.4 1713.52  11
   0   7  -6 9306.47 2019.44   5
   0   7  -5 232733. 8242.06  11
   0   7  -5 222132. 6865.78  19
   0   7  -5 226593. 9984.53   5
   0   7  -5 227970. 8362.47  13
   0   7  -4 1951.13 635.334  13
   0   7  -4 2113.36 962.871   5
   0   7  -4 1727.78 633.971  11
   0   7  -3 122237. 5516.76  11
   0   7  -3 125571. 5536.65   6
   0  -7   2 846.045 442.779   4
   0   7  -2 116.024 354.749   6
   0  -7   1 68256.5 3662.87   4
   0  -7   0 109971. 4953.13   4
   0  -7  -1 273030. 8424.38   4
   0   7   2 162756. 6215.06  19
   0  -7  -2 152755. 6563.61   4
   0   7   3 5407.09 1080.50  19
   0  -7  -3 5683.35 1315.22   4
   0  -7  -4 31717.3 3229.65   4
   0  -7  -5 33181.7 3640.23  10
   0  -7  -5 38940.4 3627.02   4
   0  -7  -5 37437.6 3954.42  18
   0  -7  -6 105366. 6770.36  18
   0  -7  -6 104703. 6782.69  10
   0  -7  -7 152074. 8368.27  10
   0  -7  -7 153136. 7009.24  15
   0  -7  -7 169153. 8694.00  18
   0  -7  -8 43026.8 4185.06  18
   0  -7  -8 35779.6 3119.32  15
   0  -7  -8 36840.2 3853.33  10
   0  -7  -9 40308.1 2830.99  15
   0  -7  -9 41666.2 3735.32  18
   0  -7 -10 1014.28 541.820  18
   0   8 -12 12830.1 1475.21  12
   0   8 -11 14473.1 1855.18  12
   0   8 -10 72.5350 540.102  12
   0   8 -10 1070.50 848.151  13
   0   8  -9 41731.9 4212.56  13
   0   8  -8 26096.5 2693.63  11
   0   8  -8 31697.5 3621.82  13
   0   8  -7 7045.11 1426.50  11
   0   8  -7 7356.69 1724.42  13
   0   8  -6 14966.1 2135.50  11
   0   8  -6 15815.7 2650.60   5
   0   8  -5 20198.8 2445.60  11
   0   8  -5 20259.0 2147.56  19
   0   8  -5 19686.2 2960.09   5
   0   8  -4 45212.9 3340.35  19
   0   8  -4 48469.1 3751.34  11
   0   8  -4 46422.6 3380.06  12
   0   8  -4 52920.5 4893.32   5
   0   8  -3 692.898 468.830  19
   0   8  -3 52.6104 490.645  12
   0   8  -3 396.742 464.624  11
   0   8  -2 178027. 7011.97  19
   0   8  -2 177972. 7557.62   6
   0   8  -1 32906.0 3555.39   6
   0   8  -1 32803.0 2953.27  19
   0   8   0 419537. 11288.8  19
   0  -8   0 397937. 10627.3   4
   0  -8  -1 60809.7 4080.80   4
   0   8   1 65488.7 4200.47  19
   0   8   2 87264.3 4809.22  19
   0  -8  -2 84916.6 5053.67   4
   0  -8  -3 56874.2 4252.71   4
   0   8   3 57475.0 3745.63  19
   0  -8  -4 171183. 8171.48  10
   0  -8  -5 3332.00 986.270  18
   0  -8  -5 2800.15 1288.17  10
   0  -8  -6 203107. 7778.05  15
   0  -8  -6 213197. 9620.43  10
   0  -8  -6 215509. 9343.99  18
   0  -8  -7 9908.86 1554.57  15
   0  -8  -7 9442.38 1900.54  10
   0  -8  -7 9410.44 1840.64  18
   0  -8  -8 70470.2 4542.17  10
   0  -8  -8 64605.8 3377.38  15
   0  -8  -8 67816.9 4482.26  18
   0  -8  -9 1770.11 603.481  18
   0   9 -11 47975.7 3106.62  12
   0   9 -10 111770. 5261.45  12
   0   9  -9 50771.2 3720.86  12
   0   9  -8 31020.4 2971.93  12
   0   9  -7 21252.3 2484.21  12
   0   9  -6 18390.6 2314.23  11
   0   9  -6 16068.6 1884.16  19
   0   9  -6 16684.8 2186.20  12
   0   9  -5 37208.1 3017.14  19
   0   9  -5 35892.4 3130.78  12
   0   9  -5 38632.4 3376.87  11
   0   9  -4 12900.7 1877.07  12
   0   9  -4 12914.6 1866.47  19
   0   9  -3 87483.6 4938.86  19
   0   9  -3 92547.1 4841.23  12
   0   9  -3 90125.3 6347.37   5
   0   9  -2 6207.23 1344.09  19
   0   9  -1 236478. 8523.00  19
   0   9   0 1177.16 708.103  19
   0   9   1 75669.1 4632.80  19
   0   9   2 26472.9 2695.58  19
   0   9   3 84676.9 4572.57  19
   0  -9  -4 15953.1 2535.14  10
   0  -9  -4 15807.5 2383.89  18
   0  -9  -5 256702. 10146.0  10
   0  -9  -5 258106. 9486.36  18
   0  -9  -6 1237.62 728.517  10
   0  -9  -6 2559.72 776.999  15
   0  -9  -7 41291.2 3403.81  10
   0  -9  -7 44197.3 3208.17  18
   0  10 -10 50139.2 3274.74  12
   0  10  -9 84141.1 4523.36  12
   0  10  -8 2752.01 850.557  12
   0  10  -7 346.669 432.155  12
   0  10  -6 21641.5 2186.02  19
   0  10  -6 20654.1 2393.71  12
   0  10  -5 7259.13 1300.66  19
   0  10  -5 5679.10 1269.51  12
   0  10  -4 61300.3 4009.68  19
   0  10  -4 69443.7 4326.15  12
   0  10  -3 1966.20 782.010  19
   0  10  -2 189568. 7467.13  19
   0  10  -1 6976.72 1421.13  19
   0  10   0 40945.1 3366.99  19
   0  10   1 6007.47 1273.59  19
   0  10   2 44406.3 3274.18  19
   0  10   3 23197.7 2164.16  19
   0 -10  -3 22708.8 2795.26  10
   0 -10  -3 18775.2 2197.12  18
   0 -10  -4 122843. 5575.63  18
   0 -10  -4 130430. 6651.02  10
   0 -10  -5 1845.35 466.431  18
   0 -10  -5 766.159 572.517  10
   0 -10  -6 30491.7 2689.19  10
   0  11  -9 117.480 411.440  12
   0  11  -8 1559.28 719.641  12
   0  11  -7 28922.7 2698.15  12
   0  11  -6 28800.4 2447.62  19
   0  11  -6 30149.0 2791.15  12
   0  11  -5 31519.9 2841.61  12
   0  11  -5 29613.5 2568.74  19
   0  11  -4 1973.41 731.420  19
   0  11  -3 15326.2 1930.64  19
   0  11  -2 55660.7 3719.27  19
   0  11  -1 793.729 469.368  19
   0  11   0 13257.6 1738.96  19
   0 -11  -1 11810.3 1815.72  10
   0  11   1 10574.7 1554.63  19
   0  11   2 1069.39 539.194  19
   0 -11  -2 444.347 630.352  10
   0 -11  -3 18301.7 2173.15  10
   0 -11  -4 8699.24 1392.08  10
   0 -11  -5-190.100 314.031  10
   0  12  -5 19233.5 1922.38  19
   0  12  -4 32542.0 2545.01  19
   0  12  -3 67627.2 3690.32  19
   0  12  -2 16296.5 1821.51  19
   0 -12   1 69588.7 3632.63  10
   0  12  -1 70947.9 3686.98  19
   0  12   0 23441.7 2000.74  19
   0 -12   0 23335.2 2105.58  10
   0  12   1 7625.65 1056.46  19
   0 -12  -1 7113.82 1163.09  10
   0 -12  -2 7499.33 1127.57  10
   1 -12  -2 1189.97 488.823  10
  -1  12   1 1265.70 441.723  19
   1 -12  -1 1799.05 664.121  10
  -1  12   0 32309.8 2391.11  19
  -1  12  -1 100525. 4493.16  19
  -1  12  -2 1235.27 593.955  19
  -1  12  -3 62162.8 3634.34  19
  -1  12  -4 8719.19 1365.72  19
  -1  12  -5 5251.02 1018.99  19
   1 -11  -5 18396.0 1906.45  10
   1 -11  -4 5306.54 1165.43  10
   1 -11  -3 17144.0 2214.18  10
  -1  11   3 15848.3 1509.03  19
   1 -11  -2 3956.68 1130.18  10
  -1  11   2 3240.41 793.785  19
  -1  11   1 522.080 502.031  19
  -1  11   0 36145.9 2918.73  19
  -1  11  -1 791.043 545.155  19
  -1  11  -2 28368.2 2682.86  19
  -1  11  -3-195.718 223.716  19
   1 -11   4 62182.0 4111.10   7
  -1  11  -4 60633.6 3861.36  19
  -1  11  -5 2082.55 774.434  19
   1 -11   5 3087.91 1095.26   7
  -1  11  -6 180936. 6337.45  19
  -1  11  -6 190698. 6882.02  12
  -1  11  -7 18751.4 2101.80  12
  -1  11  -8 17132.1 1918.50  12
   1 -10  -6 1446.45 537.256  10
   1 -10  -6 2054.46 574.837  15
   1 -10  -5 26880.2 2999.20  10
   1 -10  -4 35019.0 3539.90  10
  -1  10   3 61862.1 3586.03  19
  -1  10   2 14048.4 1795.79  19
  -1  10   1 40954.4 3280.15  19
  -1  10   0 8169.29 1479.11  19
  -1  10  -1-256.465 461.919  19
  -1  10  -2 2582.09 844.457  19
   1 -10   2 2639.02 1043.53   7
   1 -10   3 89923.2 6081.49   7
  -1  10  -3 88927.8 5005.78  19
  -1  10  -4 7204.33 1374.44  19
  -1  10  -5 241975. 8112.29  19
  -1  10  -5 256572. 8513.39  12
  -1  10  -6 109.389 388.325  12
  -1  10  -6 100.851 279.403  19
  -1  10  -7 124564. 6053.41  12
  -1  10  -8 47522.2 3670.33  12
  -1  10  -9 57875.8 3865.55  12
  -1  10 -10 60600.2 3639.48  12
   1  -9  -8 3036.37 599.664  15
   1  -9  -7 1412.20 668.731  10
   1  -9  -7 1204.19 546.308  18
   1  -9  -7 809.661 398.062  15
   1  -9  -6 169896. 8356.26  10
   1  -9  -6 164586. 6179.29  18
   1  -9  -5 51720.7 4549.44  10
   1  -9  -5 48174.5 3420.95  18
   1  -9  -4 96475.0 6176.60  10
  -1   9   3 16015.4 1958.08  19
  -1   9   2 26981.1 2697.01  19
  -1   9   1 1383.48 603.956  19
   1  -9   0 3478.99 999.218   7
   1  -9   1 205.275 701.683   7
  -1   9  -2 78683.9 4630.48  11
  -1   9  -3 21322.9 3818.52   5
  -1   9  -3 28064.0 2869.50  11
  -1   9  -4 209441. 8237.73  11
  -1   9  -4 209249. 7533.16  12
  -1   9  -4 197855. 7566.06  19
  -1   9  -5 3771.39 982.813  19
  -1   9  -5 3416.02 1017.63  11
  -1   9  -6 29798.7 2614.33  19
  -1   9  -6 33519.4 3259.14  11
  -1   9  -7 1236.80 631.222  11
  -1   9  -8 11949.6 1907.28  11
  -1   9  -9 28274.2 2887.47  12
  -1   9 -10 103161. 5339.23  12
  -1   9 -11 8397.74 1331.50  12
   1  -8  -9 1125.56 453.952  15
   1  -8  -9 516.620 265.361  18
   1  -8  -8 7819.04 1603.23  10
   1  -8  -8 8685.13 1481.88  15
   1  -8  -8 9244.10 1475.99  18
   1  -8  -7 162968. 8617.56  10
   1  -8  -7 169394. 7090.79  18
   1  -8  -7 151719. 7079.53  15
   1  -8  -6 5612.22 1303.56  18
   1  -8  -6 5928.81 1675.88  10
   1  -8  -5 202989. 8061.10  18
   1  -8  -5 210113. 9464.26  10
   1  -8  -4 155548. 6845.88  18
   1  -8  -3 26560.6 2854.82   4
  -1   8   3 29591.3 2726.37  19
   1  -8  -2 5151.19 1256.21   4
   1  -8  -1 36362.5 3218.44   4
   1  -8  -1 39867.3 3427.40   7
   1  -8   0 15931.3 2395.60   7
   1  -8   0 17117.8 2144.01   4
  -1   8  -1 81256.3 4407.80  11
  -1   8  -2 4735.76 1065.70  11
  -1   8  -3 81880.7 4802.34  11
  -1   8  -4 12700.2 1980.80  11
  -1   8  -4 9009.20 2367.63   5
  -1   8  -5 36674.7 4809.96   5
  -1   8  -5 36612.3 3367.15  11
  -1   8  -6 22763.6 3621.70   5
  -1   8  -6 26557.3 2932.07  11
  -1   8  -6 27058.0 3208.11  13
  -1   8  -7 58345.9 4384.50  11
  -1   8  -7 65096.7 5255.84  13
  -1   8  -8 10769.2 1836.70  11
  -1   8  -8 13324.8 2483.46  13
  -1   8  -9 54821.8 3940.53  11
  -1   8  -9 60094.1 5301.07  13
  -1   8 -10 6586.39 1818.92  13
  -1   8 -10 9118.40 1456.08  11
  -1   8 -11 1612.21 513.319  12
  -1   8 -12 276.926 194.713  12
   1  -7 -10 910.014 414.404  15
   1  -7 -10 1835.04 698.860  18
   1  -7  -9 8769.19 1584.49  15
   1  -7  -9 7472.08 1491.03  18
   1  -7  -8 103475. 6025.30  15
   1  -7  -8 103320. 6994.67  10
   1  -7  -8 107607. 6028.24  18
   1  -7  -7 4432.88 1210.22  18
   1  -7  -7 6824.89 1832.49  10
   1  -7  -6 310049. 10682.7  18
   1  -7  -6 322485. 12412.4  10
   1  -7  -5 1305.62 948.924  10
   1  -7  -5 1381.79 748.915   4
   1  -7  -5 1548.17 673.879  18
   1  -7  -4 5412.65 1366.04   4
   1  -7  -4 5980.00 1363.36  18
   1  -7  -3 11282.5 1860.96   4
   1  -7  -3 11679.5 1667.74   7
   1  -7  -2 105515. 5474.28   4
   1  -7  -2 99667.8 5072.36   7
   1  -7  -1 23160.9 2445.11   4
   1  -7   0 54697.6 3604.22   4
   1  -7   1 19697.6 2065.40   4
  -1   7  -2 60668.3 3418.18   1
  -1   7  -3 336939. 9601.39  11
  -1   7  -4 63953.5 5889.55   5
  -1   7  -4 68478.5 4304.84  11
  -1   7  -5 15189.1 2120.54  13
  -1   7  -5 16168.1 2170.56  11
  -1   7  -5 14365.8 2805.80   5
  -1   7  -6 8400.78 1624.08  11
  -1   7  -6 7408.44 1974.78   5
  -1   7  -6 7688.64 1698.10  13
  -1   7  -7 956.157 799.425   5
  -1   7  -7 794.315 354.320  13
  -1   7  -7 109.504 492.782  11
  -1   7  -8 8075.79 1986.97  13
  -1   7  -8 8629.44 1577.66  11
  -1   7  -9 7878.69 1940.06  13
  -1   7  -9 6907.62 1442.78  11
  -1   7 -10 11107.9 1681.54  11
  -1   7 -10 11943.1 2582.64  13
  -1   7 -11 4726.10 1349.19  13
  -1   7 -12 83484.2 4219.57  12
  -1   7 -12 60518.1 4541.32  13
   1  -6 -11 1072.43 427.917  15
   1  -6 -11 2484.05 748.755  18
   1  -6 -10 836.388 629.518  18
   1  -6 -10 739.261 595.981  15
   1  -6  -9 82975.0 5883.25  10
   1  -6  -9 76817.4 5260.70  15
   1  -6  -9 80268.8 5474.23  18
   1  -6  -8 2698.96 1176.11  15
   1  -6  -8 3400.00 1539.66  10
   1  -6  -8 2519.19 883.971  18
   1  -6  -7 44196.4 4742.18  10
   1  -6  -7 43954.7 4065.77  18
   1  -6  -6 4705.56 1245.65  18
   1  -6  -6 8061.97 1893.39  10
   1  -6  -6 5763.25 1266.06   4
   1  -6  -5 11506.9 1722.20   7
   1  -6  -5 13390.5 2038.19   4
   1  -6  -5 12015.7 1864.79  18
   1  -6  -4 21248.3 2038.34   3
   1  -6  -4 21671.7 2468.10   4
   1  -6  -3 232809. 8139.79   4
   1  -6  -2 104006. 5057.12   4
   1  -6  -1 72587.1 4033.18   4
   1  -6   0 137755. 5323.35   4
   1  -6   1 44277.6 2853.54   4
  -1   6  -2 12136.5 1287.98   6
  -1   6  -3 415892. 8784.08   1
  -1   6  -4 214239. 10050.3   5
  -1   6  -5 307417. 9068.13  11
  -1   6  -5 298930. 12161.9   5
  -1   6  -6 63326.5 4122.53  11
  -1   6  -6 62522.8 5492.37   5
  -1   6  -6 67535.2 4712.80  13
  -1   6  -7 1357.50 849.830   5
  -1   6  -7 3073.76 1244.43  13
  -1   6  -7 2337.11 843.032  11
  -1   6  -8 1051.16 616.564  13
  -1   6  -8 1836.85 1180.56   5
  -1   6  -8 2935.89 1244.87   2
  -1   6  -8 256.043 363.187  11
  -1   6  -9 40088.6 3345.11  11
  -1   6  -9 43951.0 4684.85  13
  -1   6 -10 1045.54 999.113  13
  -1   6 -10 1434.07 664.903  11
  -1   6 -11 191928. 9636.10  13
  -1   6 -12 10649.9 2064.73  13
  -1   6 -13 42054.7 3248.37  13
   1  -5 -12 9296.73 1405.10  18
   1  -5 -11 48735.4 4028.87  18
   1  -5 -11 43125.9 3467.39  15
   1  -5 -10 7494.89 1752.04  15
   1  -5 -10 7049.40 1753.91  18
   1  -5  -9 8428.16 2026.73  18
   1  -5  -9 7455.57 1777.47  15
   1  -5  -9 6889.50 1882.13  10
   1  -5  -8 213.910 452.531  15
   1  -5  -8-1301.61 1039.83  10
   1  -5  -8-58.5377 483.269  18
   1  -5  -7 50381.6 3830.13   7
   1  -5  -7 55417.1 4023.89   4
   1  -5  -7 51450.0 4404.26  18
   1  -5  -7 57104.1 5418.17  10
   1  -5  -6 34326.0 3603.14  10
   1  -5  -6 30638.5 2835.80   7
   1  -5  -6 31990.0 3124.77  18
   1  -5  -6 29800.0 2734.85   8
   1  -5  -6 34764.4 2897.45   3
   1  -5  -6 32821.9 3071.12   4
   1  -5  -5 16516.0 2042.60  18
   1  -5  -5 18664.5 2226.24   4
   1  -5  -5 17419.4 1907.65   3
   1  -5  -4 292190. 8686.26   4
   1  -5  -4 260434. 7323.68   3
   1  -5  -3 58682.6 3601.14   4
   1  -5  -2 102013. 4493.50   4
   1  -5  -1 84308.1 3898.80   4
   1  -5   0 27621.2 2103.37   4
   1  -5   1 102776. 3989.35   4
  -1   5  -2 821176. 12150.9   6
  -1   5  -3 135284. 4265.31   1
  -1   5  -4 343928. 11546.2   5
  -1   5  -5 34337.2 3693.29   5
  -1   5  -6-903.161 776.957   5
  -1   5  -7 4785.12 1068.95  11
  -1   5  -7 5782.07 1553.71   5
  -1   5  -7 5207.47 1383.72  13
  -1   5  -8 181316. 9018.34  13
  -1   5  -8 170809. 8589.60   2
  -1   5  -8 156411. 6554.91  11
  -1   5  -9 403.287 246.546  11
  -1   5  -9 805.211 1034.69  13
  -1   5 -10 26668.0 3914.61  13
  -1   5 -11 15646.8 2763.83  13
  -1   5 -12 24674.6 3204.04  13
  -1   5 -13 13650.6 1988.22  13
   1  -4 -12 118734. 6271.63  18
   1  -4 -11 7075.69 1615.24  15
   1  -4 -11 8438.89 1922.63  18
   1  -4 -10 244.851 365.432  15
   1  -4 -10 491.224 505.804  18
   1  -4  -9 43270.3 4449.63  15
   1  -4  -9 40023.3 4139.41  18
   1  -4  -9 41793.1 4718.80  10
   1  -4  -8 5942.29 2002.23  10
   1  -4  -8 4073.31 968.474   4
   1  -4  -8 5429.55 1575.98  18
   1  -4  -8 5655.58 1762.04  15
   1  -4  -7 154665. 7406.25  18
   1  -4  -7 162268. 7046.62   7
   1  -4  -7 169968. 6741.91   4
   1  -4  -7 173270. 7129.43   8
   1  -4  -6 68408.9 4070.85   8
   1  -4  -6 62049.1 4130.79  18
   1  -4  -6 63486.1 3923.34   4
   1  -4  -6 67255.0 3967.63   3
   1  -4  -5 250702. 7331.07   3
   1  -4  -5 247387. 7651.59   4
   1  -4  -4 910.545 423.536   4
   1  -4  -3 140236. 4976.40   4
   1  -4  -2 82660.6 3546.38   4
   1  -4  -1 76699.8 3272.16   4
   1  -4   0 202990. 5373.52   4
   1  -4   1 584343. 9847.21   4
  -1   4  -2 824.608 277.745   6
  -1   4  -2 1102.89 363.662   1
  -1   4  -3 510066. 8925.32   1
  -1   4  -4 6066.63 1283.32   5
  -1   4  -4 8983.33 1127.31   1
  -1   4  -5 98.0355 263.367   5
  -1   4  -6 2241.83 956.423   5
  -1   4  -7 188733. 8695.30   5
  -1   4  -7 200761. 8430.95  13
  -1   4  -7 193173. 8448.71   2
  -1   4  -8 364.330 207.475  11
  -1   4  -8-256.193 441.820   2
  -1   4  -8 525.622 603.917  13
  -1   4  -9 67975.2 5749.72  13
  -1   4 -10 12263.8 2598.21  13
  -1   4 -11 4237.90 1594.16  13
  -1   4 -12 8999.83 1865.74  13
  -1   4 -13 51589.6 3998.70  13
   1  -3 -13 76135.7 4681.06  18
   1  -3 -12 2424.45 1263.14  18
   1  -3 -11 12521.4 2424.91  18
   1  -3 -11 8658.13 1858.36  15
   1  -3 -10 34822.6 4095.26  18
   1  -3 -10 31885.3 3948.25  15
   1  -3  -9 31078.8 3867.69  15
   1  -3  -9 31165.7 3712.79  18
   1  -3  -8 217604. 9243.59  18
   1  -3  -8 214541. 7230.82   4
   1  -3  -8 229670. 8601.18   8
   1  -3  -8 224686. 9970.12  15
   1  -3  -7 34922.5 3042.38   8
   1  -3  -7 33319.6 3041.73   7
   1  -3  -7 32089.3 3097.82  18
   1  -3  -7 31876.2 2628.88   4
   1  -3  -6 102977. 4559.07   4
   1  -3  -6 103707. 4827.69   3
   1  -3  -5 32525.1 2412.44   3
   1  -3  -5 31474.5 2288.82   4
   1  -3  -4 4472.66 794.232   4
   1  -3  -3 14077.9 1306.17   4
   1  -3  -2 4192.77 667.244   4
   1  -3  -1 18202.0 1353.24   4
   1  -3   0 5281.49 706.580   4
   1  -3   1 388218. 6868.40   4
  -1   3  -2 479883. 7744.53   1
  -1   3  -3 28362.0 1774.80   1
  -1   3  -4 15680.9 1997.25   5
  -1   3  -4 16806.0 1417.78   1
  -1   3  -5 2599.34 880.776   5
  -1   3  -6 231274. 8768.70   5
  -1   3  -7 8628.12 1642.60   2
  -1   3  -8 60673.8 4871.96  13
  -1   3  -8 64876.7 5308.64  14
  -1   3  -8 64202.7 4728.72   2
  -1   3  -9 19479.4 2957.42  13
  -1   3 -10 121996. 7955.06  13
  -1   3 -11 10664.6 2468.63  13
  -1   3 -12 174615. 8887.17  13
  -1   3 -13 32131.5 3138.97  13
   1  -2 -13 24371.0 2973.30  18
   1  -2 -12 40780.8 4413.43  18
   1  -2 -11 140104. 8577.45  15
   1  -2 -11 153437. 9003.98  18
   1  -2 -10 94582.2 6827.13  18
   1  -2 -10 92813.6 7025.11  15
   1  -2  -9 147831. 8029.31  18
   1  -2  -9 156121. 8950.00  15
   1  -2  -9 155184. 7148.74   8
   1  -2  -8 39696.8 3732.94  18
   1  -2  -8 42361.4 3490.66   8
   1  -2  -8 43989.2 4328.84  15
   1  -2  -7 591.642 376.348   4
   1  -2  -6 23771.2 1911.51   4
   1  -2  -6 25141.1 2272.76   3
   1  -2  -5 1795.16 492.539   4
   1  -2  -5 2045.41 617.629   3
   1  -2  -4 333025. 7329.95   3
   1  -2  -4 343249. 6800.71   4
   1  -2  -3 30667.5 1640.75   4
   1  -2  -2 11186.8 919.686   4
   1  -2  -1 56584.0 2067.69   4
   1  -2   0 124118. 3099.74   4
  -1   2  -1 555.962 183.090   1
  -1   2  -1 783.681 144.426   6
  -1   2  -2 97540.5 2983.63   1
  -1   2  -3 2264.26 491.808   1
  -1   2  -3 2017.37 610.271   5
  -1   2  -4 69140.8 2564.42   1
  -1   2  -4 61239.3 3557.32   5
  -1   2  -5 699876. 9990.82   1
  -1   2  -5 651022. 13965.3   5
  -1   2  -6 544.214 287.967   4
  -1   2  -6 751.712 431.513   2
  -1   2  -7 132345. 6138.96   2
  -1   2  -8 49861.1 4579.81  14
  -1   2  -9 230170. 10692.4  14
  -1   2  -9 194432. 10336.2  18
  -1   2 -10 5780.33 1895.58  18
  -1   2 -10 4825.63 1559.97  13
  -1   2 -10 4863.09 1611.89  14
  -1   2 -11 328683. 13149.1  13
  -1   2 -11 383097. 13823.2  18
  -1   2 -12 10180.2 2213.18  13
  -1   2 -13 58833.4 4127.45  13
   1  -1 -14 28068.7 2665.39  18
   1  -1 -13 929.426 626.083  18
   1  -1 -12 32063.2 4108.39  18
   1  -1 -11 26570.8 3970.33  15
   1  -1 -11 26793.3 3788.74  18
   1  -1 -10 101486. 7075.58  18
   1  -1 -10 94524.3 7424.77  15
   1  -1  -9 34759.9 4188.81  15
   1  -1  -9 37420.0 3983.13  18
   1  -1  -9 37190.5 3305.30   8
   1  -1  -8 19338.2 2863.46  15
   1  -1  -8 15963.6 2258.35  18
   1  -1  -8 17594.0 2145.70   8
   1  -1  -7 94514.8 3710.78   4
   1  -1  -6 307896. 8285.55   3
   1  -1  -6 302334. 6621.08   4
   1  -1  -5 503077. 8419.24   4
   1  -1  -5 502996. 9926.46   3
   1  -1  -4 317.683 185.536   4
   1  -1  -4 2090.13 512.383   3
   1  -1  -3 50506.2 1806.57   4
   1  -1  -2 129800. 2888.47   4
   1  -1  -1 10645.1 728.467   4
  -1   1   0 481573. 6563.96   1
  -1   1  -1 89750.7 2608.69   1
  -1   1  -2 81255.5 2832.77   1
  -1   1  -2 78149.4 2966.75   5
  -1   1  -3 87036.3 2795.81   1
  -1   1  -3 80370.4 3342.55   5
  -1   1  -4 89172.0 3463.71   2
  -1   1  -4 86054.2 3892.81   5
  -1   1  -5 7838.49 1128.18   2
  -1   1  -6 12905.4 1240.54   4
  -1   1  -6 15249.6 1806.62   2
  -1   1  -7 9963.94 1140.60   4
  -1   1  -7 12050.3 1841.56   2
  -1   1  -8 48087.0 4892.14  18
  -1   1  -8 108560. 6717.02  14
  -1   1  -9 63914.1 6081.60  18
  -1   1  -9 111734. 7353.23  14
  -1   1 -10 216697. 10307.5  13
  -1   1 -10 202428. 11115.7  18
  -1   1 -10 201034. 10215.0  14
  -1   1 -11 12300.0 2325.12  13
  -1   1 -11 15371.7 2967.46  18
  -1   1 -11 10978.9 2289.39  14
  -1   1 -12 119601. 6673.33  18
  -1   1 -12 95115.3 6159.07  13
  -1   1 -13 25829.3 2479.41  13
   1   0 -14 35493.3 3376.00  18
   1   0 -13 15081.8 2761.51  18
   1   0 -12 15264.9 2954.35  18
   1   0 -11 68408.9 6265.27  18
   1   0 -10 9454.06 2181.86  18
   1   0 -10 11363.9 2689.53  15
   1   0  -9 73083.9 6173.19  15
   1   0  -9 71230.3 5479.95  18
   1   0  -9 69195.6 4293.13   8
   1   0  -8 2941.83 988.247  18
   1   0  -8 1704.05 715.720  15
   1   0  -7 658433. 20850.4   2
   1   0  -6 255744. 5232.81   4
   1   0  -6 243903. 10520.8   2
   1   0  -5 655599. 9001.78   4
   1   0  -5 615526. 11283.2   3
   1   0  -5 632522. 15080.4   2
   1   0  -4 865145. 10629.1   4
   1   0  -4 862483. 12657.4   3
   1   0  -4 873353. 15932.6   2
   1   0  -3 285204. 4308.93   4
   1   0  -2 51965.1 1368.23   4
  -1   0   1 731061. 8755.12   1
   1   0  -1 762572. 10219.1   2
  -1   0   0 192730. 4025.87   1
  -1   0  -1 549321. 7422.19   5
  -1   0  -1 589254. 8261.56   1
  -1   0  -2 1175.64 290.662   1
  -1   0  -2 1387.66 251.496   2
  -1   0  -2 999.067 281.036   5
  -1   0  -3 287421. 5644.58   1
  -1   0  -3 319310. 6020.25   2
  -1   0  -4 29424.1 2010.60   2
  -1   0  -5 92341.7 4197.81   2
  -1   0  -5 83085.9 3259.54   4
  -1   0  -6 17794.6 2035.53   2
  -1   0  -6 19555.1 1664.24   4
  -1   0  -7 112221. 4355.46   4
  -1   0  -8 46898.7 4542.69  14
  -1   0  -8 44876.2 3773.41  15
  -1   0  -9 363886. 13441.7  14
  -1   0  -9 212056. 11573.8  18
  -1   0 -10 89104.3 6633.19  14
  -1   0 -10 82014.2 7106.62  18
  -1   0 -11 6562.63 1750.57  14
  -1   0 -11 7759.34 2120.54  18
  -1   0 -11 7411.85 1617.85  13
  -1   0 -12 9595.11 1925.43  18
  -1   0 -12 7148.18 1538.31  13
  -1   0 -13 34303.6 2489.69  18
  -1   0 -13 28324.7 2185.24  13
   1   1 -14 29123.3 3267.39  18
   1   1 -13 32647.2 4285.25  18
   1   1 -12 12541.4 2702.14  18
   1   1 -11 42553.6 5060.95  18
   1   1 -11 40809.1 3443.10  13
   1   1 -10 4303.51 1646.67  18
   1   1 -10 4656.12 1155.91  13
   1   1  -9 60498.4 4169.54  13
   1   1  -9 57270.2 5718.50  15
   1   1  -9 51099.8 6329.75   2
   1   1  -9 62929.4 3797.25   8
   1   1  -9 62671.9 5214.55  18
   1   1  -8 519903. 18456.7   2
   1   1  -7 21185.3 3048.49   2
   1   1  -6 470803. 12793.4   2
   1   1  -5 32457.4 2648.70   2
   1   1  -5 33533.9 1102.21   4
   1   1  -4 17028.6 616.812   4
   1   1  -4 16367.4 1553.48   2
   1   1  -3 46311.3 1927.29   3
   1   1  -2 196403. 3635.63   3
  -1  -1   2 198734. 2758.16   1
   1   1  -2 202378. 4221.10   6
   1   1  -2 195697. 3524.09   5
   1   1  -1 83027.3 1561.99   5
   1   1  -1 83989.2 1588.50   3
  -1  -1   1 80071.5 1824.26   1
  -1  -1   0 606142. 7972.99   1
  -1  -1  -1 8931.36 764.106   1
  -1  -1  -2 18678.0 1221.38   1
  -1  -1  -3 165136. 4295.86   4
  -1  -1  -4 8729.08 1021.06   4
  -1  -1  -5 140956. 4653.74   4
  -1  -1  -6 11265.6 1356.42   4
  -1  -1  -7 14012.8 1648.27   4
  -1  -1  -8 4185.98 1156.65  15
  -1  -1  -8 2817.09 997.277  14
  -1  -1  -8 3743.07 823.453   4
  -1  -1  -8 2655.71 958.687  18
  -1  -1  -9 26985.9 4046.79  18
  -1  -1  -9 35087.6 4150.50  14
  -1  -1 -10 1744.76 870.287  14
  -1  -1 -10 255.725 540.167  18
  -1  -1 -11 10708.9 2286.07  18
  -1  -1 -11 17295.9 2571.42  13
  -1  -1 -11 14819.3 2365.97  14
  -1  -1 -12 39192.2 3165.42  13
  -1  -1 -12 43556.4 4009.15  18
  -1  -1 -13 1417.86 490.304  18
   1   2 -14 22761.6 2914.88  18
   1   2 -13 98.2040 252.189  13
   1   2 -13-850.399 1053.73  18
   1   2 -12 6903.09 1331.39  13
   1   2 -12 3923.42 1774.54  18
   1   2 -11 59992.6 6320.27  18
   1   2 -11 54429.1 4207.45  13
   1   2 -10 2874.73 1143.26  13
   1   2 -10 819.105 834.472  18
   1   2 -10 1278.45 790.432   2
   1   2  -9 91382.9 5352.32  13
   1   2  -9 97534.3 8160.31   2
   1   2  -9 97801.4 6793.80  18
   1   2  -8 3008.24 1286.92   2
   1   2  -7 162863. 7743.37   2
   1   2  -6 6377.67 1287.56   2
   1   2  -5 9583.24 1363.72   2
   1   2  -4 59547.8 2617.89   5
   1   2  -3 147378. 4221.95   6
   1   2  -3 141721. 3734.38   5
   1   2  -2 20272.4 1172.64   5
   1   2  -2 20013.6 1520.26   6
  -1  -2   2 23120.0 678.600   4
  -1  -2   1 111293. 2267.54   4
  -1  -2   0 83761.4 2278.83   4
  -1  -2  -1 13460.9 1009.99   4
  -1  -2  -2 22213.7 1462.21   4
  -1  -2  -3 595064. 10160.1   4
  -1  -2  -4 358761. 7927.04   4
  -1  -2  -5 69155.8 3510.85   4
  -1  -2  -6 121105. 5033.17   4
  -1  -2  -7 44600.8 4483.41  18
  -1  -2  -7 48395.9 4380.94  10
  -1  -2  -7 45966.6 3201.95   4
  -1  -2  -7 49738.9 3742.01  15
  -1  -2  -8 41138.2 3146.40   4
  -1  -2  -8 33335.0 4325.79  18
  -1  -2  -8 42876.4 3827.53  15
  -1  -2  -9 95595.8 6833.33  14
  -1  -2  -9 86220.2 7221.66  18
  -1  -2 -10 21099.2 2947.26  14
  -1  -2 -10 23807.0 3742.56  18
  -1  -2 -11 68369.9 5834.96  18
  -1  -2 -11 63115.9 4380.67  13
  -1  -2 -12 802.698 730.669  18
   1   3 -13 15658.4 3191.14  18
   1   3 -13 26054.9 2368.29  13
   1   3 -12 3686.01 1588.96  18
   1   3 -12 8568.72 1620.00  13
   1   3 -11 39057.3 3620.75  13
   1   3 -11 41438.6 5611.06  18
   1   3 -10 5357.94 1741.38  18
   1   3 -10 5738.76 1500.13  13
   1   3 -10 6936.32 2260.22   2
   1   3  -9 43092.2 5007.53   2
   1   3  -9 44032.6 3806.71  13
   1   3  -9 40588.6 4650.55  18
   1   3  -8 83264.6 4881.44  13
   1   3  -8 89977.4 6181.75  18
   1   3  -8 88319.5 6175.33   2
   1   3  -7 116729. 6235.24   2
   1   3  -6 2757.46 795.191   2
   1   3  -5 97958.8 4002.91   5
   1   3  -4 294122. 6787.64   5
   1   3  -3 17561.2 1398.42   5
   1   3  -3 19425.0 1712.68   6
   1   3  -2 6381.83 996.158   6
  -1  -3   2 6881.39 523.098   4
  -1  -3   1 20827.2 1120.07   4
  -1  -3   0 155769. 3786.65   4
  -1  -3  -1 226146. 5245.95   4
  -1  -3  -1 236300. 3486.04   3
  -1  -3  -2 294974. 6695.70   4
  -1  -3  -2 308609. 4958.74   3
  -1  -3  -3 144134. 4854.05   4
  -1  -3  -4 452982. 9975.70   4
  -1  -3  -5 64686.6 3721.98   4
  -1  -3  -6 92601.2 6050.02  18
  -1  -3  -6 95366.4 4808.53   4
  -1  -3  -6 84152.0 5428.97  10
  -1  -3  -7 1336.81 788.193  18
  -1  -3  -7 238.673 331.528   4
  -1  -3  -7 528.513 327.381  15
  -1  -3  -7 1591.67 911.590  10
  -1  -3  -8 310575. 9649.43   4
  -1  -3  -8 332483. 12574.7  10
  -1  -3  -8 317024. 10888.7  15
  -1  -3  -9 38154.1 4191.91  14
  -1  -3  -9 30605.5 4271.43  18
  -1  -3  -9 41201.4 3893.32  15
  -1  -3 -10 119960. 8118.34  18
  -1  -3 -10 101354. 6208.63  14
  -1  -3 -11 5792.92 1578.26  18
  -1  -3 -12 2715.91 918.453  18
   1   4 -13 26226.6 2450.97  13
   1   4 -12 71378.6 5571.60  16
   1   4 -12 60188.2 4267.04  13
   1   4 -11 2893.30 1055.76  13
   1   4 -11 2678.18 1749.28  18
   1   4 -10 466.832 807.119  18
   1   4 -10 242.364 311.505  13
   1   4  -9 79139.4 5263.53  13
   1   4  -9 95621.8 7156.55   2
   1   4  -9 102247. 8125.28  18
   1   4  -8 303266. 11511.7   2
   1   4  -8 319204. 13159.6  18
   1   4  -8 296478. 9904.68  13
   1   4  -7 85249.2 5297.70   2
   1   4  -6 177783. 6267.80   5
   1   4  -5 23176.0 2008.20   5
   1   4  -4 6924.27 1051.57   5
   1   4  -4 8519.67 1254.08   6
  -1  -4   3 293.852 124.043   4
   1   4  -3 69.3119 214.093   5
   1   4  -3 212.797 216.513   6
  -1  -4   2 5444.98 589.018   4
  -1  -4   1 270168. 5426.16   4
  -1  -4   0 3306.82 568.063   4
  -1  -4  -1 698642. 11574.5   4
  -1  -4  -2 51118.0 2847.59   4
  -1  -4  -3 285529. 7688.45   4
  -1  -4  -4 169225. 6258.20   4
  -1  -4  -5 14094.1 1854.85   4
  -1  -4  -6 22115.3 3145.91  18
  -1  -4  -6 22610.2 2524.76   4
  -1  -4  -6 24080.9 2534.48  15
  -1  -4  -6 20360.3 2767.53  10
  -1  -4  -7 357347. 10782.6   4
  -1  -4  -7 353608. 10995.1  15
  -1  -4  -7 331895. 13515.1  18
  -1  -4  -8 3969.53 1598.08  18
  -1  -4  -8 5127.11 1335.86  15
  -1  -4  -8 5969.02 1546.84  10
  -1  -4  -9 197522. 9271.23  14
  -1  -4  -9 222806. 8858.31  15
  -1  -4  -9 202265. 10687.7  18
  -1  -4 -10 11034.7 2363.76  18
  -1  -4 -11 19112.0 2602.52  18
  -1  -4 -12 3653.72 810.166  18
   1   5 -13 128493. 6543.31  16
   1   5 -13 111617. 5196.75  13
   1   5 -12 2746.24 901.248  13
   1   5 -11 10611.5 1979.23  13
   1   5 -10 163258. 7809.87  13
   1   5  -9 220269. 13334.1  18
   1   5  -9 212070. 8941.95  13
   1   5  -9 231173. 10977.1   2
   1   5  -8 192889. 9038.14   2
   1   5  -8 183788. 7905.89  13
   1   5  -8 185178. 11027.5  18
   1   5  -7 201695. 7792.25  13
   1   5  -7 182571. 7092.05   5
   1   5  -7 187667. 8097.42   2
   1   5  -7 203325. 10547.2  18
   1   5  -6 28627.7 2587.26   5
   1   5  -5 4951.13 1022.41   5
   1   5  -4 35270.3 2826.17   6
   1   5  -4 30781.1 2481.07   5
   1   5  -3 49806.2 3533.95   6
  -1  -5   2 40517.9 2018.92   4
  -1  -5   1 79771.7 3095.89   4
  -1  -5   0 397427. 8217.32   4
  -1  -5  -1 10415.6 1279.52   4
  -1  -5  -2 168083. 5819.55   4
  -1  -5  -3 9342.44 1413.85   4
  -1  -5  -4 7156.99 1417.72  10
  -1  -5  -4 7709.31 1464.04   4
  -1  -5  -5 4264.52 1267.47  10
  -1  -5  -5 5104.17 1257.31   4
  -1  -5  -6 254639. 9270.24   4
  -1  -5  -6 224046. 10818.1  18
  -1  -5  -6 214886. 9602.68  10
  -1  -5  -6 259914. 8882.72  15
  -1  -5  -7 858.940 520.808  15
  -1  -5  -7 7.10921 674.207  18
  -1  -5  -7-95.1386 658.592  10
  -1  -5  -8 23491.2 3234.81  10
  -1  -5  -8 21467.0 3358.47  18
  -1  -5  -8 23651.6 2781.07  15
  -1  -5  -9 1009.88 636.630  14
  -1  -5  -9 791.024 456.906  15
  -1  -5  -9-369.501 374.870  18
  -1  -5 -10 1487.34 586.634  18
  -1  -5 -11 12733.0 1765.77  18
   1   6 -13 86.8580 264.078  16
   1   6 -12 5219.32 1263.84  13
   1   6 -12 5854.20 1039.98  12
   1   6 -11 155790. 7377.88  13
   1   6 -11 141835. 5908.56  12
   1   6 -10 10820.6 1949.26  13
   1   6  -9 241232. 9590.07  13
   1   6  -8 125988. 7294.29   2
   1   6  -8 130929. 5758.03  11
   1   6  -8 123270. 6619.59  13
   1   6  -7 37283.4 3414.31  13
   1   6  -7 37815.0 3044.55  11
   1   6  -7 36641.9 3200.86   5
   1   6  -6 6499.64 1222.19  11
   1   6  -6 6753.79 1353.12  13
   1   6  -6 5702.36 1219.92   5
   1   6  -5 33005.1 2872.98   5
   1   6  -4 16872.8 1983.23   5
   1   6  -4 19210.4 2336.99   6
   1   6  -3 150396. 7107.99   6
   1   6  -2 209.302 415.390   6
  -1  -6   2 553.382 336.485   4
  -1  -6   1 22920.2 1879.40   4
  -1  -6   0 17466.7 1721.52   4
  -1  -6  -1 10158.7 1424.89   4
  -1  -6  -2 65962.9 3921.57   4
  -1  -6  -3 5574.24 1212.50   4
  -1  -6  -4 6442.28 1508.70  10
  -1  -6  -4 6117.83 1409.69   4
  -1  -6  -5 82058.8 5264.26   4
  -1  -6  -5 77695.2 5500.16  10
  -1  -6  -6 2790.27 1094.84  18
  -1  -6  -6 3294.69 895.050  10
  -1  -6  -6 2670.27 822.904  15
  -1  -6  -7 3789.66 1477.27  18
  -1  -6  -7 3257.70 1076.19  10
  -1  -6  -7 2331.16 754.671  15
  -1  -6  -8 8150.59 2035.87  18
  -1  -6  -8 8183.01 1790.17  10
  -1  -6  -8 10727.1 1684.76  15
  -1  -6  -9 50395.0 4603.34  18
  -1  -6 -10 748.581 598.837  18
   1   7 -13 3653.08 1135.55  16
   1   7 -12 12840.1 1475.96  12
   1   7 -11 4155.63 1296.62  13
   1   7 -11 3002.64 808.649  12
   1   7 -10 239585. 9511.24  13
   1   7 -10 201320. 7692.96  12
   1   7  -9 15091.5 2396.32  13
   1   7  -8 20633.4 2763.32  13
   1   7  -7 14144.8 2242.88  13
   1   7  -7 16505.0 2120.51  11
   1   7  -7 14957.3 2041.63   5
   1   7  -6 81518.6 5230.76  13
   1   7  -6 77648.7 4692.63  11
   1   7  -6 77946.3 4678.60   5
   1   7  -5 171868. 6948.92  11
   1   7  -5 168260. 6069.13  19
   1   7  -5 166783. 6717.46  12
   1   7  -5 167988. 6932.23   5
   1   7  -4 147156. 6119.25  12
   1   7  -4 160301. 6518.47  11
   1   7  -4 159544. 7383.56   6
   1   7  -4 155232. 5943.55  19
   1   7  -4 138590. 6239.00   5
   1   7  -3 50008.4 3376.97  19
   1   7  -3 46649.0 3234.21  12
   1   7  -3 47731.5 4268.29   6
   1   7  -2 80901.0 4310.70  19
   1   7  -2 78299.8 5947.96   6
   1   7  -1 183443. 6616.23  19
  -1  -7   1 190632. 6262.33   4
  -1  -7   0 67238.7 3863.10   4
   1   7   0 71555.7 4021.26  19
  -1  -7  -1 200561. 7248.10   4
   1   7   1 207808. 7069.30  19
  -1  -7  -2 48598.7 3667.57   4
   1   7   2 51437.5 3464.77  19
   1   7   3 122977. 5418.89  19
  -1  -7  -3 122187. 6237.65   4
  -1  -7  -4 10364.8 2055.76  10
  -1  -7  -4 9930.23 1829.57   4
  -1  -7  -5 7905.56 1846.20  10
  -1  -7  -6 8143.98 2077.43  18
  -1  -7  -6 8372.97 1845.51  10
  -1  -7  -7 2179.31 872.032  10
  -1  -7  -7 2707.67 1060.13  18
  -1  -7  -8 102842. 6470.56  18
  -1  -7  -8 96115.3 5540.32  10
  -1  -7  -9 6704.53 1441.16  18
  -1  -7 -10 107351. 4244.57  18
   1   8 -12 11681.0 1370.53  12
   1   8 -11 14416.3 1749.69  12
   1   8 -10 218.822 376.316  12
   1   8  -9 1825.71 716.786  12
   1   8  -8 5689.52 1357.50  12
   1   8  -7 152428. 6897.64  12
   1   8  -6 52433.5 3411.80  19
   1   8  -6 56058.2 4087.19  12
   1   8  -5 36539.2 3233.54  12
   1   8  -5 36279.1 2995.46  19
   1   8  -4 264190. 8740.74  12
   1   8  -4 280823. 10311.6   6
   1   8  -4 262795. 8649.30  19
   1   8  -3 27377.9 2739.36  19
   1   8  -3 29603.7 2773.88  12
   1   8  -3 28812.2 3558.02   6
   1   8  -2 1043.21 355.666  19
   1   8  -2-203.490 778.435   6
   1   8  -2 1298.07 731.396  12
   1   8  -1 327114. 9811.90  19
   1   8  -1 229767. 11856.9   6
  -1  -8   0 163565. 6638.80   4
   1   8   0 166596. 6930.69  19
   1   8   1 116437. 5779.06  19
  -1  -8  -1 122955. 5972.18   4
   1   8   2 136315. 6212.21  19
  -1  -8  -2 131869. 6490.87   4
   1   8   3 704.047 560.808  19
  -1  -8  -3 2773.79 1173.41  10
  -1  -8  -4 36779.6 3872.32  10
  -1  -8  -5 1829.71 1005.58  18
  -1  -8  -5 85.6514 399.567  10
  -1  -8  -6 18679.0 2690.77  10
  -1  -8  -6 19254.4 2865.45  18
  -1  -8  -7 102456. 5783.99  10
  -1  -8  -7 108694. 6403.39  18
  -1  -8  -8 4876.65 1201.69  18
   1   9 -12 1702.44 723.244  16
   1   9 -11 14206.3 1630.16  12
   1   9 -10 5655.93 1129.23  12
   1   9  -9 47298.6 3459.73  12
   1   9  -8 65923.8 4272.74  12
   1   9  -7 49622.8 3773.82  12
   1   9  -6 86502.3 5076.47  12
   1   9  -6 88672.6 4646.69  19
   1   9  -5 4656.60 1124.16  19
   1   9  -5 6434.85 1333.47  12
   1   9  -4 12568.0 1940.15  12
   1   9  -4 13526.6 1944.84  19
   1   9  -3 19254.5 2377.45  12
   1   9  -3 18527.4 2360.44  19
   1   9  -2 434346. 12214.8  12
   1   9  -2 435276. 12141.0  19
   1   9  -1 97784.4 5492.26  19
   1   9   0 199898. 7951.58  19
   1   9   1 80689.4 4932.04  19
  -1  -9  -2 6197.88 1660.79  10
   1   9   2 5591.61 1369.20  19
   1   9   3 8916.01 1560.72  19
  -1  -9  -3 8749.42 1935.20  10
  -1  -9  -4 119415. 6806.51  10
  -1  -9  -4 110908. 6858.52  18
  -1  -9  -5 25317.5 2988.72  10
  -1  -9  -5 26825.9 3197.06  18
  -1  -9  -6 22540.6 2609.09  10
  -1  -9  -6 22545.5 2652.35  18
  -1  -9  -7 1054.23 464.746  18
  -1  -9  -7 685.405 438.453  10
   1  10 -10 50275.5 3134.90  12
   1  10  -9 115807. 5198.09  12
   1  10  -8 31210.3 2784.84  12
   1  10  -7 53889.2 3817.69  12
   1  10  -6 10486.0 1725.72  12
   1  10  -6 9739.43 1515.04  19
   1  10  -5 22586.5 2560.32  12
   1  10  -5 25014.3 2516.69  19
   1  10  -4 3036.96 953.278  12
   1  10  -4 2447.60 845.070  19
   1  10  -3 174687. 7225.61  19
   1  10  -3 183924. 7737.19  12
   1  10  -2 9840.30 1735.66  19
   1  10  -1 140821. 6538.62  19
   1  10   0 36917.0 3266.94  19
  -1 -10  -1 980.361 756.939  10
   1  10   1 1242.88 689.259  19
  -1 -10  -2 997.545 875.142  10
   1  10   2 1452.71 796.752  19
   1  10   3 89934.9 4376.49  19
  -1 -10  -3 90024.0 5436.63  10
  -1 -10  -3 79834.1 5226.72  18
  -1 -10  -4 39694.1 3415.54  18
  -1 -10  -4 42256.3 3562.43  10
  -1 -10  -5 15428.6 1970.51  10
  -1 -10  -5 17968.7 2017.15  18
  -1 -10  -6 6746.26 1059.85  10
   1  11  -9 5983.89 1151.03  12
   1  11  -8 47938.2 3284.91  12
   1  11  -7 10266.7 1583.71  12
   1  11  -6 6879.04 1355.65  12
   1  11  -6 5665.22 1117.93  19
   1  11  -5 4731.77 1073.24  12
   1  11  -5 6751.19 1306.99  19
   1  11  -4 19367.7 2274.40  12
   1  11  -4 23504.7 2381.90  19
   1  11  -3 4340.95 1146.30  19
   1  11  -2 18825.2 2159.17  19
   1  11  -1 6637.38 1305.15  19
   1  11   0 2806.36 890.719  19
  -1 -11   0 2838.39 891.494  10
  -1 -11  -1 22126.8 2352.92  10
   1  11   1 21035.5 2138.72  19
  -1 -11  -2 23627.9 2241.75  18
   1  11   2 29211.2 2306.36  19
  -1 -11  -2 30984.4 2729.97  10
  -1 -11  -3 18655.5 1757.35  18
  -1 -11  -3 23209.1 2266.37  10
  -1 -11  -4 8544.72 1209.41  10
   1  12  -5 3076.40 760.177  19
   1  12  -4 1846.16 602.088  19
   1  12  -3 164.626 423.740  19
  -1 -12   2 25537.3 1830.22  10
   1  12  -2 25658.2 2238.35  19
  -1 -12   1 39641.8 2401.97  10
   1  12  -1 40247.9 2702.00  19
  -1 -12   0 25833.0 1948.88  10
   1  12   0 27885.5 2130.80  19
  -1 -12  -1 47955.3 2571.28  10
   2 -12  -2 12812.1 1542.20  10
  -2  12   1 361.127 279.498  19
   2 -12  -1 247.561 326.107  10
  -2  12   0 28983.7 2281.53  19
  -2  12  -1 28561.8 2389.20  19
  -2  12  -2 45864.8 3139.53  19
  -2  12  -3 13738.0 1729.44  19
  -2  12  -4 1119.89 544.202  19
   2 -11  -4 301.686 388.049  10
  -2  11   3 9862.25 1154.20  19
   2 -11  -3 12300.4 1889.00  10
  -2  11   2 13231.7 1562.00  19
  -2  11   1 72707.7 4034.18  19
   2 -11   0 47900.0 3289.00   7
  -2  11   0 51429.9 3565.50  19
  -2  11  -1 84103.5 4753.37  19
   2 -11   1 71835.7 4375.94   7
   2 -11   2 35938.1 3261.56   7
  -2  11  -2 44601.9 3497.13  19
  -2  11  -3 16811.2 2145.23  19
   2 -11   3 13198.7 2069.07   7
   2 -11   4 1083.97 592.909   7
  -2  11  -4 3741.67 994.215  19
   2 -11   5 101544. 5779.60   7
  -2  11  -5 88486.1 4700.20  19
   2 -11   6 79636.8 4872.99   7
   2 -11   7 73248.1 4251.98   7
   2 -11   8 37233.6 2558.56   7
   2 -10  -6 6486.41 1233.96  10
   2 -10  -6 7519.38 1300.33  15
   2 -10  -5 993.194 592.916  10
   2 -10  -4 7592.24 1590.61  10
  -2  10   3 23042.2 2172.78  19
  -2  10   2 149961. 6238.30  19
   2 -10  -2 159872. 6699.26   7
  -2  10   1 24014.2 2551.94  19
   2 -10  -1 19321.9 2435.51   7
   2 -10   0 101028. 6129.11   7
   2 -10   1 64004.0 5088.68   7
   2 -10   2 4494.25 1437.36   7
  -2  10  -3 48394.2 3790.59  11
   2 -10   3 55118.0 5135.65   7
  -2  10  -4 280981. 9823.93  11
  -2  10  -4 283341. 9703.18  19
  -2  10  -5 46507.1 3629.12  19
  -2  10  -5 45524.3 3392.09  12
  -2  10  -5 50390.1 4080.87  11
  -2  10  -6 197393. 7636.32  12
  -2  10  -6 241322. 9154.17  11
  -2  10  -7 52347.7 4105.75  11
  -2  10  -7 41304.1 3418.88  12
  -2  10  -8 4946.49 1056.15  12
  -2  10  -9 912.727 295.570  12
   2  -9  -8 1333.33 461.865  15
   2  -9  -7 4346.68 1038.81  10
   2  -9  -7 6040.00 1245.48  15
   2  -9  -6 8934.28 1863.83  10
   2  -9  -5 33581.3 3786.99  10
   2  -9  -4 10830.0 1717.72   7
  -2   9   4 11198.9 1462.24  19
   2  -9  -3 168057. 7451.24   7
  -2   9   3 157676. 6421.25  19
   2  -9  -2 20304.9 2722.96   7
   2  -9  -1 192027. 8894.71   7
   2  -9   0 1904.19 1064.89   7
   2  -9   1 6826.06 1900.13   7
  -2   9  -1 8261.60 1404.44  11
  -2   9  -2 7878.09 1593.41  11
  -2   9  -3 197726. 8142.56  11
  -2   9  -4 908.464 849.807  11
  -2   9  -5 212240. 9116.60  11
  -2   9  -6 6913.83 1692.11  11
  -2   9  -7 5414.66 1442.40  11
  -2   9  -8 2977.09 1127.59  11
  -2   9  -9 87779.9 5090.06  11
  -2   9 -10 9577.91 1541.42  12
   2  -8  -9 25754.7 2494.21  15
   2  -8  -8 8792.36 1734.83  15
   2  -8  -7 14192.7 2408.25  10
   2  -8  -6 77426.2 4766.65   7
   2  -8  -6 86124.5 6285.64  10
   2  -8  -5 56264.8 4947.21  10
   2  -8  -5 52282.1 4078.52   7
   2  -8  -4 127934. 6697.41   7
   2  -8  -3 3807.17 1150.60   4
   2  -8  -3 4569.45 1438.20   7
   2  -8  -2 121251. 6938.99   7
   2  -8  -2 120411. 6395.82   4
   2  -8  -1 745.977 756.644   7
  -2   8   1 1523.27 701.656   1
   2  -8  -1 510.358 454.252   4
  -2   8   0 11604.2 1823.13   1
   2  -8   0 10556.9 2151.89   7
  -2   8  -1 8012.05 1532.13   1
  -2   8  -1 7160.70 1317.96  11
  -2   8  -2 126738. 6056.17  11
  -2   8  -2 131174. 6026.99   1
  -2   8  -3 6279.63 1371.21  11
  -2   8  -4 106152. 6051.51  11
  -2   8  -4 121862. 8420.13   5
  -2   8  -5 19520.5 2694.77  11
  -2   8  -5 21907.1 3522.09   5
  -2   8  -6 17923.3 2576.43  11
  -2   8  -7 22563.2 3049.45  13
  -2   8  -7 29311.4 3403.27  11
  -2   8  -8 104687. 6365.32  11
  -2   8  -8 59445.3 5039.42  13
  -2   8  -9 38990.5 3613.20  11
  -2   8  -9 24909.5 3091.32  13
  -2   8 -10 87048.9 4773.44  11
  -2   8 -10 80102.7 5178.10  13
   2  -7 -10 37505.7 2364.33  18
   2  -7 -10 40948.0 3276.98  15
   2  -7  -9 10540.8 1516.31  18
   2  -7  -9 10972.7 2043.16  15
   2  -7  -8 12092.5 1769.99  18
   2  -7  -8 12426.6 2369.08  15
   2  -7  -7 70007.5 5876.78  10
   2  -7  -7 79440.6 5080.07   7
   2  -7  -7 80034.9 4737.18  18
   2  -7  -6 40761.7 4337.26  10
   2  -7  -6 34055.8 3399.11   7
   2  -7  -6 35318.6 3102.84  18
   2  -7  -5 11435.8 1961.25   4
   2  -7  -5 11764.2 1992.82   7
   2  -7  -4 2380.51 1007.82   4
   2  -7  -4 2547.16 992.503   7
   2  -7  -3 6448.89 1418.06   4
   2  -7  -3 8788.66 1875.14   7
   2  -7  -2 224433. 8509.03   4
   2  -7  -2 213839. 9277.74   7
   2  -7  -1 2001.00 764.866   4
   2  -7  -1 2203.27 848.362   7
  -2   7   0 53315.1 3741.91   1
  -2   7  -1 26438.3 2444.57  11
  -2   7  -1 25953.2 2530.87   1
  -2   7  -2 15751.2 2015.63  11
  -2   7  -2 17308.4 2043.40   1
  -2   7  -3 24037.4 2545.74  11
  -2   7  -3 21714.2 2288.63   1
  -2   7  -4 44152.7 3675.37  11
  -2   7  -4 43558.8 4635.69   5
  -2   7  -5 73998.8 5026.94  11
  -2   7  -5 87081.2 6705.02   5
  -2   7  -6 11124.5 2135.64  13
  -2   7  -6 13415.1 2591.86   5
  -2   7  -6 8854.30 1896.42  11
  -2   7  -7 111569. 7290.03  13
  -2   7  -7 120766. 6894.96  11
  -2   7  -8 62071.5 5682.47  13
  -2   7  -8 80016.0 5558.61  11
  -2   7  -9 37678.5 3639.75  11
  -2   7  -9 24036.2 3521.89  13
  -2   7 -10 17600.6 2277.31  11
  -2   7 -10 7183.75 1792.73  13
  -2   7 -11 40834.3 3762.47  13
  -2   7 -12 8905.32 1326.13  13
   2  -6 -11 1277.98 509.987  18
   2  -6 -11 572.594 482.858  15
   2  -6 -10 14951.8 1971.66  18
   2  -6 -10 16611.6 2576.82  15
   2  -6  -9 42614.2 4458.06  15
   2  -6  -9 40682.8 3486.98  18
   2  -6  -8 74455.1 5102.82   7
   2  -6  -8 77471.0 4981.58  18
   2  -6  -7 94587.9 5486.13  18
   2  -6  -7 103745. 7243.02  10
   2  -6  -7 99154.1 6025.67   7
   2  -6  -6 46295.5 4017.40   7
   2  -6  -6 47444.4 3897.15   4
   2  -6  -6 45566.2 3343.34   8
   2  -6  -6 46011.4 3519.75   3
   2  -6  -6 55664.8 4928.99  10
   2  -6  -6 49550.2 3781.93  18
   2  -6  -5 37337.9 3565.19   7
   2  -6  -5 40468.7 3546.80   4
   2  -6  -5 40331.7 3255.59   3
   2  -6  -5 36769.3 2805.39   8
   2  -6  -4 200323. 7794.83   4
   2  -6  -4 176420. 7810.03   7
   2  -6  -3 229759. 8178.57   4
   2  -6  -3 215382. 8609.50   7
   2  -6  -2 239002. 8138.95   4
   2  -6  -1 332900. 9585.12   4
   2  -6   0 45761.7 3301.58   4
  -2   6  -1 26861.7 2390.90   1
  -2   6  -2 147637. 5740.82   1
  -2   6  -3 98304.5 4644.86   1
  -2   6  -4 211899. 7638.18  11
  -2   6  -4 241387. 10201.3   5
  -2   6  -5 56629.9 4088.81  11
  -2   6  -5 67500.5 4677.75  13
  -2   6  -5 69108.2 5528.64   5
  -2   6  -6 205009. 8353.19  11
  -2   6  -6 231163. 9865.20  13
  -2   6  -6 232774. 10254.9   5
  -2   6  -7 31590.9 4040.09  13
  -2   6  -7 34241.0 3834.22   5
  -2   6  -7 31654.5 3357.67  11
  -2   6  -8 68793.0 6359.15  13
  -2   6  -8 70913.4 5107.68  11
  -2   6  -9 30010.7 3206.27  11
  -2   6  -9 23533.4 3782.69  13
  -2   6 -10 10015.9 2295.96  13
  -2   6 -10 24785.8 2675.40  11
  -2   6 -11 324.374 793.613  13
  -2   6 -12 175995. 7426.43  13
   2  -5 -12 31623.2 2387.94  18
   2  -5 -11 3264.70 1120.08  15
   2  -5 -11 4069.29 1047.69  18
   2  -5 -10 26203.8 3499.88  15
   2  -5 -10 22469.8 2723.06  18
   2  -5  -9 56380.5 5444.46  15
   2  -5  -9 57863.6 4542.69  18
   2  -5  -8 76768.4 4906.23   8
   2  -5  -8 76865.1 5430.24   7
   2  -5  -8 82290.0 5378.91  18
   2  -5  -7 4445.32 1178.94   8
   2  -5  -7 4938.31 1323.87  18
   2  -5  -7 4049.25 1376.48   7
   2  -5  -7 4295.45 1125.26   4
   2  -5  -7 4425.39 1125.74   3
   2  -5  -6 18562.6 2475.19   7
   2  -5  -6 17200.2 2127.86   8
   2  -5  -6 15667.0 2065.03   3
   2  -5  -6 17275.1 2242.16  18
   2  -5  -6 18613.0 2266.99   4
   2  -5  -5 194497. 7998.89   7
   2  -5  -5 202408. 7435.69   4
   2  -5  -5 186918. 7070.53   3
   2  -5  -5 196418. 6697.01   8
   2  -5  -4 239817. 7840.96   4
   2  -5  -3 529346. 11827.2   4
   2  -5  -2 581506. 12235.1   4
   2  -5  -1 30998.4 2496.20   4
   2  -5   0 167291. 5860.36   4
  -2   5  -1 131565. 4965.96   1
  -2   5  -2 142413. 5254.51   1
  -2   5  -3 355400. 8899.36   1
  -2   5  -4 155931. 7466.59   5
  -2   5  -4 145334. 5606.61   1
  -2   5  -5 49957.4 4369.14   5
  -2   5  -6 503.540 250.465  11
  -2   5  -6 794.170 448.617  13
  -2   5  -6 1413.36 692.089   5
  -2   5  -7 56453.6 5268.90  13
  -2   5  -7 44917.2 3751.81  11
  -2   5  -7 50619.5 4496.71   5
  -2   5  -8 16047.8 3186.82  13
  -2   5  -8 15692.8 2287.83  11
  -2   5  -9 1415.40 1297.88  13
  -2   5  -9 2227.38 914.462  11
  -2   5 -10 2460.50 914.311  13
  -2   5 -11 55000.4 5447.90  13
  -2   5 -12 3059.55 1164.31  13
  -2   5 -13 52849.7 3125.69  13
   2  -4 -12 25754.2 3031.67  15
   2  -4 -12 27473.8 2711.34  18
   2  -4 -11 49603.0 4890.41  15
   2  -4 -11 51159.9 4212.66  18
   2  -4 -10 54639.1 4504.95  18
   2  -4 -10 63443.1 5922.38  15
   2  -4  -9 24407.7 3820.26  15
   2  -4  -9 20304.7 2829.39  18
   2  -4  -9 18293.1 2488.52   8
   2  -4  -8 1758.89 912.421   8
   2  -4  -8 3377.77 1327.70   7
   2  -4  -8 4192.27 1305.24  18
   2  -4  -7 31216.7 3394.08   7
   2  -4  -7 24350.7 2760.68  18
   2  -4  -7 26971.9 2598.97   4
   2  -4  -7 28265.2 2888.07   8
   2  -4  -7 26525.0 2793.50   3
   2  -4  -6 307355. 8911.30   4
   2  -4  -6 303019. 9302.52  18
   2  -4  -6 300931. 10184.2   7
   2  -4  -6 296871. 9308.03   3
   2  -4  -6 308610. 9156.30   8
   2  -4  -5 109164. 4872.70   4
   2  -4  -5 104171. 5022.37   3
   2  -4  -4 882393. 15368.1   4
   2  -4  -3 323474. 7994.30   4
   2  -4  -2 96584.3 4048.13   4
   2  -4  -1 10469.8 1294.16   4
  -2   4   0 578395. 10756.7   1
   2  -4   0 595947. 11173.8   4
  -2   4  -1 13757.8 1446.97   1
  -2   4  -2 313688. 7697.91   1
  -2   4  -3 65205.4 3461.21   1
  -2   4  -4 103731. 5560.15   5
  -2   4  -4 101494. 4487.21   1
  -2   4  -5 2425.48 851.412   5
  -2   4  -6 26900.6 3007.62   5
  -2   4  -6 26865.2 3538.31  14
  -2   4  -7 164319. 9004.37  13
  -2   4  -7 146292. 6528.57  11
  -2   4  -7 163415. 7814.17   5
  -2   4  -8 21681.4 2559.71  11
  -2   4  -8 24240.3 3752.12  13
  -2   4  -9 25282.2 4033.72  13
  -2   4  -9 27380.8 2873.04  11
  -2   4 -10 1616.35 1291.33  13
  -2   4 -11 10946.3 2581.38  13
  -2   4 -12-83.1988 822.375  13
  -2   4 -13 32057.4 2686.84  13
   2  -3 -13 35561.1 2921.65  18
   2  -3 -12 37599.5 3578.11  18
   2  -3 -12 36999.5 4131.64  15
   2  -3 -11 28982.2 3329.76  18
   2  -3 -11 27264.9 3833.89  15
   2  -3 -10 542.995 1025.97  15
   2  -3 -10 560.974 513.052  18
   2  -3  -9 1019.34 602.731   8
   2  -3  -9 2593.19 926.900  18
   2  -3  -9 1411.32 1190.58  15
   2  -3  -8 15278.5 2473.56   7
   2  -3  -8 13311.6 2139.16  18
   2  -3  -8 15803.8 2983.85  15
   2  -3  -8 14985.3 2199.87   8
   2  -3  -7 52555.6 3377.37   4
   2  -3  -7 51725.4 3874.30   3
   2  -3  -7 53418.2 4375.62   7
   2  -3  -7 49976.3 3826.14  18
   2  -3  -7 57842.2 3989.32   8
   2  -3  -6 4768.09 1110.00   3
   2  -3  -6 3995.11 862.434   4
   2  -3  -5 387279. 8869.41   4
   2  -3  -5 404043. 10044.4   3
   2  -3  -4 2980.89 686.096   4
   2  -3  -3 206983. 5543.39   4
   2  -3  -2 2336.78 592.028   4
   2  -3  -1 252015. 6163.05   4
  -2   3   0 173671. 4856.69   1
  -2   3  -1 460996. 8917.74   1
  -2   3  -2 106198. 4069.44   1
  -2   3  -3 9604.81 1294.51   1
  -2   3  -3 11104.3 1540.91   5
  -2   3  -4 42820.7 2774.49   1
  -2   3  -4 40480.1 3193.21   5
  -2   3  -5 364807. 8771.28   1
  -2   3  -5 447670. 11562.9   5
  -2   3  -6 340861. 10615.0   5
  -2   3  -7 20724.2 2316.06  11
  -2   3  -7 17461.6 3051.91  14
  -2   3  -8 205306. 7573.42  11
  -2   3  -8 160845. 10276.4  14
  -2   3  -9 9525.73 2535.88  14
  -2   3  -9 14616.2 3054.97  13
  -2   3 -10 2781.89 1316.27  13
  -2   3 -11 25033.5 3941.42  13
  -2   3 -12 77747.0 5896.55  13
  -2   3 -13 35420.8 2901.89  13
   2  -2 -13 5947.78 1410.47  18
   2  -2 -12 1452.22 806.182  18
   2  -2 -11 20319.3 2984.68  18
   2  -2 -11 21386.5 3643.51  15
   2  -2 -10 1528.67 755.296  18
   2  -2 -10 1301.06 717.616   8
   2  -2 -10 1862.58 1702.31  15
   2  -2  -9 54650.9 4633.53  18
   2  -2  -9 63987.4 6425.84  15
   2  -2  -9 59816.5 4427.82   8
   2  -2  -8 23009.5 3067.48   7
   2  -2  -8 20770.8 2600.59  18
   2  -2  -8 20342.9 3402.44  15
   2  -2  -8 21635.1 2502.83   8
   2  -2  -7 3385.68 917.249   3
   2  -2  -7 3068.12 740.731   4
   2  -2  -6 218530. 6162.11   4
   2  -2  -6 223344. 7535.98   3
   2  -2  -5 23906.1 1802.30   4
   2  -2  -5 26985.6 2308.71   3
   2  -2  -4 2983.23 591.771   4
   2  -2  -3 107241. 3491.66   4
   2  -2  -2 257402. 5708.00   4
   2  -2  -1 154198. 4254.26   4
  -2   2   1 149742. 4093.49   1
  -2   2   0 545553. 9240.25   1
  -2   2  -1 206592. 5383.28   1
  -2   2  -2 163322. 5157.64   1
  -2   2  -3 36413.9 2485.55   1
  -2   2  -3 36183.9 2550.24   5
  -2   2  -4 439629. 9696.43   1
  -2   2  -4 483913. 10786.1   5
  -2   2  -5 446906. 10928.1   5
  -2   2  -5 406122. 9353.04   1
  -2   2  -6 314908. 7811.15   1
  -2   2  -7 166198. 9303.52  14
  -2   2  -8 4606.39 1309.72  14
  -2   2  -9-568.923 1368.85  14
  -2   2 -10 63963.0 6555.66  14
  -2   2 -10 95754.9 8012.05  13
  -2   2 -11 44211.0 5045.57  13
  -2   2 -12 63724.4 5295.57  13
  -2   2 -13 29806.4 2608.15  13
   2  -1 -14 6142.73 1258.31  18
   2  -1 -13 310.766 324.415  18
   2  -1 -12 95028.6 6408.09  18
   2  -1 -11 811.242 1268.63  15
   2  -1 -11 1084.30 772.656  18
   2  -1 -10 172190. 11323.7  15
   2  -1 -10 167631. 8566.41  18
   2  -1 -10 172942. 7461.53   8
   2  -1  -9 3377.27 1030.80   8
   2  -1  -9 1954.58 925.069  15
   2  -1  -9 3023.72 1087.43  18
   2  -1  -8 8759.17 1658.78  18
   2  -1  -8 7132.91 1910.84  15
   2  -1  -8 9171.09 1478.59   8
   2  -1  -7 21482.8 2428.38   3
   2  -1  -6 126175. 4037.98   4
   2  -1  -6 129762. 5488.63   3
   2  -1  -5 11065.5 1072.02   4
   2  -1  -5 10956.4 1445.77   3
   2  -1  -4 702856. 10475.0   4
  -2   1   3 184532. 4234.21   1
   2  -1  -3 187326. 4380.52   4
  -2   1   2 492838. 7868.75   1
  -2   1   1 92913.1 2983.08   1
  -2   1   0 2924.97 550.989   1
  -2   1  -1 164503. 4852.19   1
  -2   1  -2 199518. 5691.67   1
  -2   1  -2 195281. 5115.07   5
  -2   1  -3 416743. 9065.09   1
  -2   1  -3 465751. 8993.18   5
  -2   1  -4 160153. 4026.87   2
  -2   1  -4 157676. 5358.93   5
  -2   1  -5 350480. 8489.98   1
  -2   1  -6 204791. 6809.98   4
  -2   1  -7 506.710 271.369   4
  -2   1  -7 104.549 321.818  14
  -2   1  -8 4151.18 1617.51  14
  -2   1  -9 140229. 9496.71  14
  -2   1 -10 23248.9 3798.37  14
  -2   1 -11 83204.2 6827.29  13
  -2   1 -11 78385.0 6451.38  14
  -2   1 -12 40493.5 4039.16  13
  -2   1 -13 264.814 415.966  13
   2   0 -14 19880.7 2544.27  18
   2   0 -13 98258.8 6502.43  18
   2   0 -12 106255. 7062.99  18
   2   0 -11 252742. 11005.3  18
   2   0 -11 225099. 13537.2  15
   2   0 -10 13010.6 2431.82  18
   2   0 -10 13062.1 1933.06   8
   2   0 -10 9555.00 2779.42  15
   2   0  -9 94087.9 8039.00  15
   2   0  -9 114113. 5656.11   8
   2   0  -9 110565. 6437.66  18
   2   0  -9 109454. 7279.34  16
   2   0  -8 427758. 10638.7   8
   2   0  -8 395397. 11527.4  18
   2   0  -7 224052. 11841.3   2
   2   0  -6 329917. 9017.86   3
   2   0  -6 313645. 12287.9   2
   2   0  -5 556775. 8258.50   4
  -2   0   5 566989. 7957.11   1
   2   0  -5 592850. 11499.4   3
   2   0  -5 579183. 14846.7   2
   2   0  -4 162562. 4940.63   3
  -2   0   4 151454. 3390.91   1
   2   0  -4 157703. 6329.94   2
  -2   0   3 201648. 4134.70   1
   2   0  -3 195613. 6214.87   2
  -2   0   2 34725.6 1684.91   1
   2   0  -2 31153.8 2186.31   2
   2   0  -1 65723.0 2192.14   6
  -2   0   1 65814.5 2611.12   1
  -2   0   0 370188. 7439.15   1
  -2   0  -1 398972. 6049.97   5
  -2   0  -1 375178. 7893.05   1
  -2   0  -2 786202. 11239.0   5
  -2   0  -2 762099. 12721.8   1
  -2   0  -3 112821. 4352.96   1
  -2   0  -4 210124. 6322.58   1
  -2   0  -5 21007.9 2045.53   4
  -2   0  -6 3722.21 869.590   4
  -2   0  -7 6682.71 1981.94  14
  -2   0  -7 7592.19 1347.40   4
  -2   0  -8 124022. 8324.72  14
  -2   0  -8 145799. 8050.07  18
  -2   0  -9 10341.2 2391.79  14
  -2   0  -9 15634.1 2723.08  18
  -2   0 -10 79594.6 5676.24  18
  -2   0 -10 64886.6 6134.15  14
  -2   0 -11 1554.68 795.560  14
  -2   0 -11 709.106 391.202  13
  -2   0 -12 447.219 302.174  13
   2   1 -14 49648.0 4325.54  18
   2   1 -13 115150. 7355.99  18
   2   1 -12 145763. 8648.39  18
   2   1 -11 9099.54 1966.71  18
   2   1 -10 45956.4 4495.66  18
   2   1 -10 51655.7 5049.67  16
   2   1 -10 48524.1 3528.89   8
   2   1  -9 18738.7 2111.82   8
   2   1  -9 19126.3 2692.47  18
   2   1  -9 21911.4 2933.81  16
   2   1  -8 32123.9 3159.33  18
   2   1  -8 33861.8 4571.32   2
   2   1  -7 471177. 15138.7   2
   2   1  -6 475787. 13116.1   2
   2   1  -5 154247. 5307.85   3
   2   1  -5 153930. 6187.56   2
  -2  -1   4 69270.2 2286.45   1
   2   1  -4 77288.5 3182.30   3
   2   1  -4 69289.2 3527.38   2
  -2  -1   3 7755.54 795.441   1
   2   1  -3 8446.47 891.357   3
   2   1  -3 7244.73 969.920   2
  -2  -1   2 223024. 5055.05   1
   2   1  -2 229494. 5637.59   6
   2   1  -2 231420. 5093.46   2
   2   1  -1 155313. 3382.62   2
  -2  -1   1 143436. 4067.14   1
   2   1   0 701817. 8953.51   2
  -2  -1   0 777239. 11671.1   1
  -2  -1  -1 451738. 8751.79   1
  -2  -1  -2 186462. 5520.95   1
  -2  -1  -3 68360.3 3417.21   1
  -2  -1  -4 170448. 5858.95   4
  -2  -1  -5 3782.72 865.255   4
  -2  -1  -6 104614. 5096.05   4
  -2  -1  -7 21453.0 3100.46  18
  -2  -1  -7 24432.2 2612.38  15
  -2  -1  -7 21929.7 2398.95   4
  -2  -1  -8 69080.4 4429.40   4
  -2  -1  -8 78628.7 6178.88  18
  -2  -1  -8 70162.5 6125.80  14
  -2  -1  -9 30765.7 3857.79  18
  -2  -1  -9 25652.1 3736.88  14
  -2  -1 -10 23191.2 3421.74  14
  -2  -1 -10 27472.9 3466.18  18
  -2  -1 -11 7541.51 1744.37  14
  -2  -1 -11 6973.21 1804.93  13
  -2  -1 -11 10050.7 1717.83  18
  -2  -1 -12 17526.6 2093.35  13
   2   2 -13 37913.8 4428.02  18
   2   2 -12 11989.9 2325.83  16
   2   2 -12 16919.4 3026.36  18
   2   2 -11 10374.3 2309.66  18
   2   2 -11 11005.7 1731.22  13
   2   2 -11 7896.03 1920.08  16
   2   2 -10 3789.30 1041.58  13
   2   2 -10 4547.77 1586.59  16
   2   2 -10 3138.42 1610.86   2
   2   2 -10 5720.12 1595.13  18
   2   2  -9 28483.1 4273.31   2
   2   2  -9 32966.6 3025.78  13
   2   2  -9 27092.8 3303.74  18
   2   2  -8 288826. 12007.5   2
   2   2  -8 256981. 9562.94  18
   2   2  -7 169502. 7875.84   2
   2   2  -6 104719. 5375.75   2
   2   2  -5 33501.6 2613.99   2
   2   2  -4 49734.6 2811.24   2
  -2  -2   3 244466. 4069.00   1
   2   2  -3 241728. 6689.12   6
  -2  -2   3 244900. 3423.76   4
   2   2  -2 545895. 8807.94   2
  -2  -2   2 559899. 8165.41   1
   2   2  -2 535648. 10591.4   6
  -2  -2   1 999999. 13595.0   1
  -2  -2   0 268345. 6103.63   1
  -2  -2  -1 61025.2 2886.89   1
  -2  -2  -2 109215. 4138.87   4
  -2  -2  -3 408714. 9296.78   4
  -2  -2  -4 44941.1 3078.99   4
  -2  -2  -5 113498. 5281.74   4
  -2  -2  -6 1267.70 587.517   4
  -2  -2  -6 1537.56 801.113  10
  -2  -2  -6 2794.21 1262.70  18
  -2  -2  -7 23006.8 3317.36  18
  -2  -2  -7 25714.1 2773.52   4
  -2  -2  -8 11753.1 1911.16   4
  -2  -2  -8 10229.9 2286.73  18
  -2  -2  -8 13126.7 2691.05  14
  -2  -2  -9 10624.0 2321.61  14
  -2  -2  -9 11847.9 2477.89  18
  -2  -2 -10 46057.8 4433.74  14
  -2  -2 -10 56347.3 4827.98  18
  -2  -2 -11 7915.88 1574.81  14
  -2  -2 -11 6434.98 1474.90  13
  -2  -2 -11 8618.32 1530.80  18
   2   3 -13 38379.1 4722.57  18
   2   3 -12 4843.46 1097.89  13
   2   3 -12 5159.51 1778.14  18
   2   3 -12 3552.95 1221.59  16
   2   3 -11 29504.3 3009.37  13
   2   3 -11 28475.5 3600.54  16
   2   3 -11 30575.4 4244.97  18
   2   3 -10 20688.7 2597.99  13
   2   3 -10 21033.8 3789.32   2
   2   3 -10 25539.8 3698.42  18
   2   3  -9 34058.4 3933.30  18
   2   3  -9 37988.7 3425.17  13
   2   3  -9 38630.9 4534.07   2
   2   3  -8 9653.79 1995.37   2
   2   3  -8 11305.8 2016.12  18
   2   3  -8 11013.7 1735.29  13
   2   3  -7 9856.52 1747.03   2
   2   3  -6 37203.9 3059.09   2
   2   3  -5 83622.5 4136.82   2
   2   3  -4 445698. 9435.65   2
   2   3  -4 464775. 10735.1   6
   2   3  -4 443059. 7846.33   5
  -2  -3   3 67730.7 1533.73   4
   2   3  -3 65756.5 3763.88   6
   2   3  -3 67275.1 2272.37   5
   2   3  -2 419469. 10219.9   6
   2   3  -2 395768. 6016.01   5
  -2  -3   2 408805. 6178.33   4
  -2  -3   1 3438.28 530.889   4
  -2  -3   0 1114.65 375.531   4
  -2  -3  -1 343951. 7594.07   4
  -2  -3  -2 530726. 10701.2   4
  -2  -3  -3 232778. 7128.46   4
  -2  -3  -4 452841. 11222.8   4
  -2  -3  -5 13812.9 1959.85   4
  -2  -3  -6 671.324 552.059   4
  -2  -3  -6 176.194 451.320  18
  -2  -3  -7 11584.1 1952.01   4
  -2  -3  -7 10052.4 1923.39  10
  -2  -3  -7 9821.08 2293.77  18
  -2  -3  -8 8474.51 2102.42  18
  -2  -3  -9 33631.9 4005.71  18
  -2  -3  -9 33752.2 3963.49  14
  -2  -3 -10 22687.9 2832.52  14
  -2  -3 -10 25576.7 3124.00  18
  -2  -3 -11 74307.3 4245.47  18
  -2  -3 -11 67966.6 3968.25  14
   2   4 -13 145723. 7765.21  16
   2   4 -12 3237.56 900.404  13
   2   4 -12 4991.57 1871.07  18
   2   4 -12 3927.82 1414.22  16
   2   4 -11 59737.7 4365.16  13
   2   4 -11 67884.5 6797.53  18
   2   4 -10 1287.72 773.211  13
   2   4 -10 2424.52 1025.22  18
   2   4  -9-255.363 329.437  13
   2   4  -9 561.910 350.504   2
   2   4  -9-177.036 675.779  18
   2   4  -8 378.616 457.444  13
   2   4  -8 860.664 554.382   2
   2   4  -8 300.867 585.046  18
   2   4  -7 53692.7 4077.55   2
   2   4  -7 54920.3 4633.41  18
   2   4  -6 59703.9 3878.42   2
   2   4  -5 593331. 10652.7   5
   2   4  -4 251348. 5760.66   5
   2   4  -4 253077. 8443.24   6
   2   4  -3 239332. 8334.61   6
   2   4  -3 232495. 5173.07   5
  -2  -4   2 14112.9 1058.68   4
   2   4  -2 13981.1 1062.04   5
  -2  -4   1 56599.7 2457.32   4
  -2  -4   0 534310. 9837.09   4
  -2  -4  -1 255762. 6943.14   4
  -2  -4  -2 497558. 10976.3   4
  -2  -4  -3 291452. 8778.98   4
  -2  -4  -4 37961.1 3248.57   4
  -2  -4  -5 42120.0 3649.86   4
  -2  -4  -5 35540.5 3623.40  10
  -2  -4  -6 61892.8 4604.66   4
  -2  -4  -6 49576.1 4592.31  10
  -2  -4  -6 58818.6 5389.50  18
  -2  -4  -7 64273.2 4809.78   4
  -2  -4  -7 55216.2 4919.84  10
  -2  -4  -7 65896.8 5802.49  18
  -2  -4  -8 30983.4 3882.06  18
  -2  -4  -9 28247.2 3345.22  14
  -2  -4  -9 34480.6 3865.13  18
  -2  -4 -10 15432.9 2024.37  14
  -2  -4 -10 21601.1 2658.74  18
  -2  -4 -11 10474.9 1378.03  18
   2   5 -13 4613.60 1375.72  16
   2   5 -12 53968.5 3838.98  13
   2   5 -12 63250.7 4977.44  16
   2   5 -11 4486.10 1224.80  13
   2   5 -11 5238.88 1054.06  12
   2   5 -10 12440.5 2062.87  13
   2   5 -10 12740.1 1777.98  12
   2   5  -9 17074.9 2406.18  13
   2   5  -9 16806.1 2174.29  12
   2   5  -9 16748.7 2755.64   2
   2   5  -8 128086. 7053.48   2
   2   5  -8 136646. 6818.43  13
   2   5  -7 65906.9 4452.74  13
   2   5  -7 56387.2 4232.87   2
   2   5  -6 63043.2 4166.44  13
   2   5  -6 54581.2 3851.87   2
   2   5  -5 170451. 5302.52   5
   2   5  -4 90813.8 5485.58   6
   2   5  -4 91078.8 3566.36   5
   2   5  -3 31904.8 2001.40   5
   2   5  -3 30948.3 3232.91   6
  -2  -5   2 7543.50 875.137   4
  -2  -5   1 147696. 4580.96   4
  -2  -5   0 131211. 4719.71   4
  -2  -5  -1 453630. 10299.1   4
  -2  -5  -2 43726.9 3192.59   4
  -2  -5  -3 8598.04 1548.50   4
  -2  -5  -3 10063.8 1717.63  10
  -2  -5  -4 12581.7 2002.88   4
  -2  -5  -4 12416.2 2090.62  10
  -2  -5  -5 40753.2 3776.38   4
  -2  -5  -5 30698.1 3606.39  10
  -2  -5  -6 66360.3 4972.41   4
  -2  -5  -6 57000.5 5115.81  10
  -2  -5  -6 65503.0 5823.92  18
  -2  -5  -7 11349.2 2191.24  10
  -2  -5  -7 13161.1 2608.30  18
  -2  -5  -8 27349.4 3510.12  18
  -2  -5  -9 3387.60 1097.95  14
  -2  -5  -9 4160.21 1359.13  18
  -2  -5 -10 5763.32 1022.78  14
  -2  -5 -10 7170.38 1311.26  18
   2   6 -13 68745.2 4809.82  16
   2   6 -12 9142.56 1840.71  16
   2   6 -12 5926.75 952.246  12
   2   6 -11 14767.5 1813.13  12
   2   6 -10 31598.4 2946.13  12
   2   6 -10 31929.4 3397.91  13
   2   6  -9 82524.1 5572.10  13
   2   6  -9 77610.4 4864.55  12
   2   6  -8 29223.4 3278.60   2
   2   6  -8 30988.7 3359.85  13
   2   6  -8 30860.7 3062.82  12
   2   6  -7 37318.3 3552.76  13
   2   6  -7 33306.5 3324.83   2
   2   6  -7 37766.7 3259.71  12
   2   6  -6 48677.8 3557.63  12
   2   6  -5 736.067 441.113  12
   2   6  -4 43743.5 4178.19   6
   2   6  -3 86391.8 6025.52   6
   2   6  -2 7693.22 1849.37   6
  -2  -6   1 12191.9 1409.57   4
  -2  -6   0 71689.9 3781.94   4
  -2  -6  -1 1923.60 754.998   4
   2   6   1 2465.55 711.057  19
  -2  -6  -2 20217.2 2333.45   4
  -2  -6  -2 22763.5 2574.41  10
   2   6   2 23022.1 2265.30  19
   2   6   3 17983.5 2081.78  19
  -2  -6  -3 14504.5 2160.96   4
  -2  -6  -3 15720.5 2319.35  10
  -2  -6  -4 56259.8 4793.08  10
  -2  -6  -4 58470.2 4579.20   4
  -2  -6  -5 98061.3 6720.29  10
  -2  -6  -6 26179.3 3474.33  10
  -2  -6  -6 29239.8 3886.17  18
  -2  -6  -7 56071.1 4756.41  10
  -2  -6  -7 64788.7 5482.58  18
  -2  -6  -8 25536.1 3136.81  18
  -2  -6  -9 872.815 418.904  14
  -2  -6  -9 2233.50 870.658  18
  -2  -6 -10 44338.9 2623.54  18
   2   7 -13 5334.35 1208.34  16
   2   7 -12 52536.1 3950.52  16
   2   7 -12 45613.1 2706.07  12
   2   7 -11 18342.6 2015.13  12
   2   7 -10 114343. 5621.61  12
   2   7  -9 5221.22 1264.06  12
   2   7  -8 1317.87 726.520  12
   2   7  -7 272.522 416.181   2
   2   7  -7 656.983 586.217  12
   2   7  -6 238291. 8739.98  12
   2   7  -6 239671. 7779.21  19
   2   7  -5 30445.3 2746.39  19
   2   7  -5 31693.6 3045.49  12
   2   7  -4 270391. 9014.13  12
   2   7  -4 269454. 8577.33  19
   2   7  -3 16125.8 2134.33  12
   2   7  -3 13403.5 1848.94  19
   2   7  -3 12545.9 2455.42   6
   2   7  -2 14385.0 2665.62   6
   2   7  -2 15322.3 2089.42  12
   2   7  -2 15622.0 1956.65  19
   2   7  -1 8684.11 1597.78  12
   2   7  -1 6357.97 1237.49  19
  -2  -7   0 126942. 5669.91   4
   2   7   0 119150. 5518.65  19
   2   7   1 1203.70 684.739  19
  -2  -7  -1 782.733 463.851   4
   2   7   2 105133. 5446.55  19
  -2  -7  -2 105636. 6126.42  10
  -2  -7  -2 97976.2 5647.40   4
  -2  -7  -3 102741. 6072.11   4
   2   7   3 112316. 5720.10  19
  -2  -7  -3 108766. 6659.40  10
  -2  -7  -4 137826. 7911.96  10
  -2  -7  -5 95101.7 6611.81  10
  -2  -7  -6 28145.4 3463.94  10
  -2  -7  -6 35299.6 4103.39  18
  -2  -7  -7 49706.6 4103.51  10
  -2  -7  -7 55258.2 4685.45  18
  -2  -7  -8 2716.89 823.948  14
  -2  -7  -8 2115.43 802.851  18
  -2  -7  -9 130913. 4937.01  18
   2   8 -12 19842.5 1678.77  12
   2   8 -12 20847.7 2268.90  16
   2   8 -11 128809. 5187.20  12
   2   8 -10 576.331 480.779  12
   2   8  -9 1937.88 771.107  12
   2   8  -8 52673.2 4030.46  12
   2   8  -7 206219. 8351.31  12
   2   8  -6 4259.62 1263.04  12
   2   8  -6 4093.76 1072.35  19
   2   8  -5 426517. 12373.2  12
   2   8  -5 424589. 11716.1  19
   2   8  -4 1725.38 636.310  12
   2   8  -4 2969.16 996.604  19
   2   8  -4 1940.23 1074.69   6
   2   8  -3 48811.5 4086.99  12
   2   8  -3 37658.4 4505.33   6
   2   8  -3 49289.0 3880.11  19
   2   8  -2 6250.49 1438.34  19
   2   8  -2 8743.36 1799.25  12
   2   8  -2 9124.38 2302.79   6
   2   8  -1 33366.6 3504.87  12
   2   8  -1 39331.3 3428.96  19
   2   8   0 43907.1 3670.09  19
  -2  -8  -1 121153. 6506.88  10
   2   8   1 113626. 5996.48  19
  -2  -8  -2 82279.2 5687.35  10
   2   8   2 76278.4 4982.04  19
  -2  -8  -3 23377.0 3179.60  10
   2   8   3 28209.6 2983.48  19
  -2  -8  -4 29704.7 3527.99  10
  -2  -8  -5 57501.0 5107.54  18
  -2  -8  -5 49693.3 4494.08  10
  -2  -8  -6 1606.53 640.280  10
  -2  -8  -6 2243.42 1162.23  18
  -2  -8  -7 2119.12 705.399  18
  -2  -8  -8 74437.6 3645.29  18
   2   9 -11 618.964 420.162  12
   2   9 -10 1542.29 660.166  12
   2   9  -9 47905.6 3512.72  12
   2   9  -8 98025.0 5368.47  12
   2   9  -7 81998.2 5053.65  12
   2   9  -6 157044. 7251.11  12
   2   9  -6 161321. 6798.15  19
   2   9  -5 17211.0 2337.53  19
   2   9  -5 16630.7 2349.26  12
   2   9  -4 97487.3 5872.05  12
   2   9  -4 97838.9 5662.39  19
   2   9  -3 23733.2 2825.72  19
   2   9  -3 20698.3 2792.83  12
   2   9  -2 83555.3 5721.44  12
   2   9  -2 106393. 6023.26  19
   2   9  -1 28578.7 3128.62  19
   2   9   0 117054. 6322.91  19
  -2  -9   0 111128. 6038.82  10
   2   9   1 16166.5 2378.00  19
  -2  -9  -1 14725.6 2412.20  10
   2   9   2 652.002 292.878  19
  -2  -9  -2-580.332 612.566  10
  -2  -9  -3 18493.8 2736.36  10
   2   9   3 16768.3 2138.22  19
  -2  -9  -4 9072.87 1786.17  10
  -2  -9  -4 12081.8 2193.35  18
  -2  -9  -5 766.143 557.259  10
  -2  -9  -5 2468.00 911.064  18
  -2  -9  -6 1608.52 717.784  18
  -2  -9  -6 2469.49 771.005  10
  -2  -9  -7 18688.7 1631.49  18
   2  10 -10 34737.3 2513.55  12
   2  10  -9 83351.4 4326.57  12
   2  10  -8 72509.1 4299.08  12
   2  10  -7 116181. 5729.52  12
   2  10  -6 46435.0 3769.35  12
   2  10  -6 48246.3 3502.55  19
   2  10  -5 6556.04 1333.61  19
   2  10  -5 5330.85 1336.09  12
   2  10  -4 10903.7 1869.26  12
   2  10  -4 20825.6 2523.97  19
   2  10  -3 51904.5 4082.81  19
   2  10  -2 48612.3 4028.10  19
   2  10  -1 78554.1 5082.16  19
  -2 -10   1 71620.7 4363.65  10
   2  10   0 45756.4 3804.08  19
  -2 -10   0 43835.8 3566.77  10
  -2 -10  -1 1176.02 534.163  10
   2  10   1 1032.80 533.771  19
   2  10   2 253.726 277.718  19
  -2 -10  -2 820.840 460.014  10
  -2 -10  -3 61744.3 4214.40  10
  -2 -10  -3 68857.5 4622.61  18
  -2 -10  -4 1713.42 655.151  10
  -2 -10  -4 1367.60 627.511  18
  -2 -10  -5 18423.8 1693.20  10
  -2 -10  -5 18823.9 1822.12  18
   2  11  -9 15852.9 1666.57  12
   2  11  -8 5823.00 1065.82  12
   2  11  -7 21443.3 2231.81  12
   2  11  -6 4143.77 971.135  12
   2  11  -6 5166.85 1027.56  19
   2  11  -5 857.843 344.128  19
   2  11  -4 20038.7 2220.23  19
   2  11  -3 1257.02 643.518  19
   2  11  -2 16874.1 2098.40  19
   2  11  -1 667.375 558.677  19
  -2 -11   1 787.397 506.480  10
   2  11   0 591.227 300.884  19
  -2 -11   0 1153.72 612.449  10
  -2 -11  -1 1948.20 602.740  10
   2  11   1 2140.58 616.337  19
  -2 -11  -2 104846. 4326.59  10
  -2 -11  -2 100181. 4558.98  18
  -2 -11  -3 9235.56 1081.16  10
  -2 -11  -3 9203.41 1120.55  18
   2  12  -5 35994.2 2340.91  19
   2  12  -4 5922.22 982.203  19
   2  12  -3 34186.1 2479.30  19
   2  12  -2 3575.16 773.114  19
   2  12  -1 19732.6 1761.07  19
  -3  12   1 2474.06 563.454  19
   3 -12  -1 4279.66 818.684  10
  -3  12   0 21855.2 1895.63  19
  -3  12  -1 1925.25 660.725  19
   3 -12   2 36679.5 2256.40   7
  -3  12  -2 33021.9 2515.26  19
   3 -12   3 7582.66 1024.86   7
  -3  12  -3 5245.69 945.618  19
  -3  11   3 6470.64 906.615  19
   3 -11  -3 6722.70 1200.26  10
   3 -11  -2 17882.1 1869.36   7
  -3  11   2 17265.2 1787.98  19
   3 -11  -1 97380.8 4921.21   7
  -3  11   1 110143. 5076.20  19
   3 -11   0 11805.8 1804.27   7
  -3  11   0 14402.1 1895.80  19
   3 -11   1 120415. 5989.66   7
  -3  11  -1 135154. 6309.26  19
  -3  11  -2 4087.29 1055.95  19
   3 -11   2 3636.74 1077.39   7
   3 -11   3 11993.3 1887.40   7
  -3  11  -3 10182.1 1718.05  19
  -3  11  -4 4220.20 1065.81  19
   3 -11   4 6017.68 1306.97   7
   3 -11   5 4327.19 1003.71   7
  -3  11  -5 1675.21 459.840  19
   3 -11   6 20637.6 2027.77   7
   3 -11   7 32064.4 2160.01   7
   3 -10  -5 1994.81 586.361   7
   3 -10  -5 2363.79 710.161  10
   3 -10  -4 21552.3 2295.05   7
   3 -10  -4 25613.1 2692.07  10
   3 -10  -3 64698.5 4420.18   7
  -3  10   3 68230.2 3853.05  19
   3 -10  -2 34810.8 3431.31   7
   3 -10  -1 140339. 7340.77   7
   3 -10   0 210735. 9372.17   7
   3 -10   1 14257.9 2430.32   7
  -3  10  -2 62075.6 4079.67  11
   3 -10   2 79095.8 5683.24   7
  -3  10  -3 16993.1 2278.01  11
   3 -10   3 17938.9 2736.28   7
   3 -10   4 21760.1 2892.47   7
  -3  10  -4 17487.4 2470.62  11
  -3  10  -5 44585.4 4010.09  11
  -3  10  -5 35076.8 3203.27  19
  -3  10  -6 25758.8 3024.10  11
  -3  10  -7 50422.9 3102.30  12
  -3  10  -7 41263.5 3619.51  11
  -3  10  -8 2448.66 649.830  12
  -3  10  -8-443.689 701.478  11
   3 -10   9 17590.7 1435.57   7
   3  -9  -8 13474.8 1721.78  15
   3  -9  -7 35118.9 3290.99  15
   3  -9  -6 1141.32 468.542   7
   3  -9  -5 8539.36 1668.86   7
   3  -9  -5 7223.28 1467.47  10
   3  -9  -4 47348.4 4227.00   7
  -3   9   4 48873.7 3288.59  19
   3  -9  -3 35770.5 3820.63   7
   3  -9  -2 121496. 7362.37   7
   3  -9  -1 73202.6 5823.36   7
   3  -9   0 38350.4 4264.17   7
  -3   9  -1 23795.6 2545.30  11
   3  -9   1 29577.3 3658.72   7
  -3   9  -2 11453.6 1941.95  11
   3  -9   2 17049.9 2731.51   7
  -3   9  -3 31291.8 3409.12  11
  -3   9  -4 58941.0 4939.54  11
  -3   9  -5 49555.9 4624.08  11
  -3   9  -6 26313.3 3467.48  11
  -3   9  -7 1966.12 837.723  11
  -3   9  -8-118.644 584.668  11
  -3   9  -9 43406.9 3375.56  11
  -3   9 -10 6475.31 954.096  12
   3  -8  -9 27470.9 2686.97  15
   3  -8  -8 6810.36 1584.95  15
   3  -8  -7 3896.23 1107.92   7
   3  -8  -6 10431.1 1998.02   7
   3  -8  -5 32638.7 3672.26   7
   3  -8  -5 38987.2 3796.43  10
   3  -8  -4 19980.1 2938.89   7
   3  -8  -3 143598. 8249.61   7
   3  -8  -2 27215.2 3509.19   7
   3  -8  -1 61177.6 5326.48   7
  -3   8   1 69027.2 4855.41   1
  -3   8   0 2389.77 884.341   1
   3  -8   0 2336.42 1331.74   7
  -3   8  -1 11984.8 2030.03   1
  -3   8  -1 11676.6 1794.65  11
  -3   8  -2 47163.4 3948.66   1
  -3   8  -2 48008.3 4030.18  11
  -3   8  -3 109121. 6498.72  11
  -3   8  -3 119995. 7413.09   5
  -3   8  -4 38460.1 4032.15  11
  -3   8  -5 41006.4 4330.14  11
  -3   8  -6 102.888 619.164  11
  -3   8  -7 58065.0 5323.63  11
  -3   8  -8 74174.5 5795.07  11
  -3   8  -9 33616.6 3472.77  11
  -3   8 -10 69426.1 3815.62  11
   3  -7 -10 354.246 394.791  15
   3  -7  -9 6089.03 1554.45  15
   3  -7  -8 2353.20 1108.95  15
   3  -7  -8 740.081 688.885   7
   3  -7  -7 74641.2 5576.67   7
   3  -7  -6 7053.87 1768.74   7
   3  -7  -5 12391.9 2396.37   7
   3  -7  -4-459.014 595.882   7
   3  -7  -4 234.502 315.449   4
  -3   7   4 379.278 309.118   1
   3  -7  -3 4396.04 1304.07   7
  -3   7   3 5367.25 1273.12   1
   3  -7  -2 60274.8 5151.47   7
  -3   7   2 64435.0 4434.48   1
   3  -7  -1 29686.2 3587.35   7
  -3   7   1 27967.4 2933.43   1
  -3   7   0 126.160 234.620   1
   3  -7   0 1098.23 636.714   7
   3  -7   0 946.514 460.856   9
  -3   7  -1 87903.2 4882.63  11
   3  -7   1 91375.3 5426.60   9
  -3   7  -1 94197.3 5599.18   1
  -3   7  -2 68803.2 4571.98  11
  -3   7  -2 64666.6 4576.22   1
   3  -7   2 62532.4 4515.94   9
  -3   7  -3 60301.2 4305.47   1
  -3   7  -3 76941.2 5182.09  11
  -3   7  -4 43461.6 4188.80  11
  -3   7  -4 39406.3 4033.92   5
  -3   7  -5 3509.00 1481.71  11
  -3   7  -5 2390.94 1055.29   5
  -3   7  -6 31266.0 3937.31  11
  -3   7  -7 116542. 6898.67  13
  -3   7  -7 148370. 8607.44  11
  -3   7  -8 113845. 6793.32  13
  -3   7  -8 118288. 7536.82  11
  -3   7  -9 127976. 6726.19  13
  -3   7  -9 107043. 6719.26  11
  -3   7 -10 1628.55 638.998  13
  -3   7 -10 978.051 572.497  11
  -3   7 -11 9614.63 1188.21  13
   3  -6 -11 3929.91 1093.46  15
   3  -6 -10 51058.7 4572.06  15
   3  -6  -9 2288.56 1152.94  15
   3  -6  -8 178568. 9019.18   7
   3  -6  -7 2658.96 882.241   8
   3  -6  -7 1994.69 951.990   7
   3  -6  -6 92998.0 6603.87   7
  -3   6   6 103939. 5445.96   1
   3  -6  -6 100611. 5662.21   4
   3  -6  -6 94856.0 5070.72   8
   3  -6  -5 19862.1 3051.45   7
  -3   6   5 24150.3 2638.88   1
   3  -6  -5 25576.7 2830.87   4
   3  -6  -5 25028.1 2459.99   8
  -3   6   4 179213. 7172.90   1
   3  -6  -4 178334. 7497.80   4
   3  -6  -3 28747.9 3461.93   7
  -3   6   3 32038.8 2936.42   1
   3  -6  -3 32100.6 3052.06   4
   3  -6  -3 33911.8 2834.03   9
  -3   6   2 231165. 8016.51   1
   3  -6  -2 240857. 9855.83   7
   3  -6  -2 225972. 7666.13   9
   3  -6  -1 14116.1 2277.04   7
  -3   6   1 11094.2 1704.82   1
   3  -6  -1 12427.2 1743.79   9
   3  -6   0 117817. 5517.46   9
  -3   6   0 122478. 5955.66   1
  -3   6  -1 94872.5 5323.33   1
   3  -6   1 86370.3 4788.68   9
  -3   6  -2 46560.8 3542.76  11
   3  -6   2 56785.5 3901.70   9
  -3   6  -2 49491.9 3877.72   1
  -3   6  -3 2211.19 916.805  11
  -3   6  -3 1319.26 452.034   1
   3  -6   3 3730.50 994.626   9
  -3   6  -4 24846.5 2992.59  11
   3  -6   4 26113.9 2678.58   9
  -3   6  -4 25115.2 3005.21   5
  -3   6  -5 432290. 13988.9  11
  -3   6  -5 430342. 13262.7   5
  -3   6  -6 20905.2 3033.94  13
  -3   6  -6 29800.2 3715.36  11
  -3   6  -6 25371.2 2996.55   5
  -3   6  -7 196127. 10251.3  13
  -3   6  -7 275381. 11697.9  11
  -3   6  -8 63711.1 5837.52  13
  -3   6  -8 83125.7 6330.94  11
  -3   6  -9 8275.18 1969.51  13
  -3   6  -9 6435.77 1555.00  11
  -3   6 -10 8783.17 1623.36  11
  -3   6 -10 13534.7 2348.44  13
  -3   6 -11 69464.9 4256.76  13
   3  -5 -11 69823.5 3701.17  18
   3  -5 -11 67139.1 5158.46  15
   3  -5 -10 36849.2 3099.19  18
   3  -5 -10 33520.6 4171.20  15
   3  -5  -9 284846. 11757.4   7
   3  -5  -9 264105. 12617.3  15
   3  -5  -9 275881. 9424.71  18
   3  -5  -9 270322. 9485.20   8
   3  -5  -8 5325.08 1448.65   8
   3  -5  -8 5012.40 1490.35   7
   3  -5  -8 4551.35 1218.36  18
   3  -5  -7 136878. 8252.34   7
   3  -5  -7 139193. 6412.40   4
   3  -5  -7 150417. 7435.03   3
   3  -5  -7 143280. 6741.82   8
   3  -5  -6 104264. 6981.54   7
  -3   5   6 114567. 5544.96   1
   3  -5  -6 99468.0 5415.55   4
   3  -5  -6 102445. 6053.33   3
   3  -5  -6 108867. 5524.22   8
   3  -5  -5 116388. 5289.70   8
   3  -5  -5 101456. 6609.01   7
  -3   5   5 119209. 5534.47   1
   3  -5  -5 111678. 5574.53   4
   3  -5  -4 89068.6 5945.58   7
  -3   5   4 98178.8 4838.81   1
   3  -5  -4 99295.2 5062.89   4
  -3   5   3 323762. 9002.50   1
   3  -5  -3 337269. 9520.96   4
  -3   5   2 19682.6 2062.96   1
  -3   5   1 132528. 5541.49   1
  -3   5   0 434.414 419.888   1
  -3   5  -1 15936.8 2040.27   1
  -3   5  -2 113048. 5626.50   1
  -3   5  -3 3254.36 905.921   1
  -3   5  -4 118747. 5460.81   1
  -3   5  -4 120227. 6229.22   5
  -3   5  -5 9763.10 1943.06  11
  -3   5  -5 8485.24 1806.54  13
  -3   5  -5 9752.76 1782.89   5
  -3   5  -6 307093. 11839.7  11
  -3   5  -6 323910. 10567.5   5
  -3   5  -7 16039.5 2668.60  11
  -3   5  -7 15496.5 2189.84   5
  -3   5  -8 22659.8 3763.26  13
  -3   5  -8 45259.9 4567.33  11
  -3   5  -9 3963.90 1448.38  13
  -3   5  -9 8057.76 1799.46  11
  -3   5 -10 38765.6 4407.56  13
  -3   5 -10 28548.4 2953.96  11
  -3   5 -11 47675.3 4140.21  13
  -3   5 -12 55150.6 3259.96  13
   3  -4 -12 29425.7 2384.02  18
   3  -4 -12 30111.3 3235.29  15
   3  -4 -11 88567.1 4987.92  18
   3  -4 -11 90292.4 6754.64  15
   3  -4 -10 214591. 8575.27  18
   3  -4 -10 218213. 8506.32   8
   3  -4 -10 206784. 11291.5  15
   3  -4  -9 1890.56 836.450   8
   3  -4  -9 1969.39 1027.43   7
   3  -4  -9 2780.60 1060.57  18
   3  -4  -9 3415.16 1650.30  15
   3  -4  -8 112806. 7721.45   7
   3  -4  -8 119847. 6826.48   3
   3  -4  -8 113438. 6249.66  18
   3  -4  -8 106487. 6087.30   8
   3  -4  -7 45975.5 4799.90   7
   3  -4  -7 42721.9 3361.60   4
   3  -4  -7 44538.8 3715.34   8
   3  -4  -7 45659.1 4116.99   3
   3  -4  -7 49725.1 3869.86  18
   3  -4  -6 30861.4 2871.33   8
   3  -4  -6 27688.4 3498.95   7
  -3   4   6 30900.7 2680.27   1
   3  -4  -6 25054.8 2482.71   4
   3  -4  -6 29416.6 3179.65   3
  -3   4   5 194054. 6674.79   1
   3  -4  -5 195083. 6844.79   4
  -3   4   4 243932. 7240.21   1
   3  -4  -4 241420. 7431.59   4
  -3   4   3 27784.1 2284.07   1
   3  -4  -3 27307.2 2337.57   4
  -3   4   2 45840.5 2933.16   1
  -3   4   1 12940.2 1582.33   1
  -3   4   0 23248.4 2224.51   1
  -3   4  -1 11641.0 1657.84   1
  -3   4  -2 63275.9 3988.99   1
  -3   4  -3 19775.1 2179.84   1
  -3   4  -3 21110.0 2261.48   5
  -3   4  -4 2595.83 727.621   5
  -3   4  -4 1959.62 684.371   1
  -3   4  -5 107014. 6365.44  11
  -3   4  -5 104057. 5440.16   5
  -3   4  -5 100783. 4852.66   1
  -3   4  -6 50415.5 5403.64  14
  -3   4  -6 62218.9 5079.65  11
  -3   4  -6 64670.1 4400.87   5
  -3   4  -7 10012.1 2459.31  13
  -3   4  -7 20882.0 3033.61  11
  -3   4  -8 6330.23 1656.99  13
  -3   4  -8 19215.1 2911.06  11
  -3   4  -9 37080.9 5079.45  13
  -3   4  -9 49938.6 4401.67  11
  -3   4 -10 7680.50 2174.09  13
  -3   4 -11 16503.7 2622.21  13
  -3   4 -12 11738.8 1705.52  13
   3  -3 -13 41976.6 2735.05  18
   3  -3 -12 34812.6 3041.86  18
   3  -3 -12 33904.0 3906.22  15
   3  -3 -11 68696.2 4827.84  18
   3  -3 -11 68945.1 6316.71  15
   3  -3 -10 61162.1 4773.63  18
   3  -3 -10 62093.7 6320.65  15
   3  -3 -10 60903.3 4526.01   8
   3  -3  -9 3408.71 1145.70   8
   3  -3  -9 6917.63 2124.24   7
   3  -3  -9 2682.04 1029.00  18
   3  -3  -9 2377.55 1512.16  15
   3  -3  -8 3723.87 1177.05   8
   3  -3  -8 1493.64 960.394   7
   3  -3  -8 4296.24 1307.63  18
   3  -3  -8 2537.36 972.834   3
   3  -3  -8 3091.28 1721.32  15
   3  -3  -7 6002.86 1290.82   8
   3  -3  -7 4828.23 1486.36   7
   3  -3  -7 5291.32 1054.22   4
   3  -3  -7 7150.66 1595.45  16
   3  -3  -7 7212.07 1468.81  18
   3  -3  -7 4740.22 1338.28   3
   3  -3  -6 123372. 5569.04   8
   3  -3  -6 119088. 5089.26   4
  -3   3   6 122213. 5022.04   1
   3  -3  -6 122807. 6482.46   3
  -3   3   5 145689. 5339.04   1
   3  -3  -5 130840. 5141.60   4
  -3   3   4 27067.3 2158.63   1
   3  -3  -4 27379.1 2183.93   4
  -3   3   3 2311.12 659.517   1
  -3   3   2 2232.10 665.330   1
  -3   3   1 286819. 7748.31   1
  -3   3   0 55612.3 3349.35   1
  -3   3  -1 484038. 11180.5   1
  -3   3  -2 73734.3 4089.39   1
  -3   3  -3 7216.96 1224.95   5
  -3   3  -3 5652.94 1109.45   1
  -3   3  -4 2242.10 681.007   1
  -3   3  -4 1208.90 533.881   5
  -3   3  -5 200632. 7091.76   1
  -3   3  -5 224690. 7648.11   5
  -3   3  -6 11970.9 2444.97  14
  -3   3  -6 12073.3 2175.43  11
  -3   3  -7 187638. 10642.0  14
  -3   3  -7 203806. 9463.38  11
  -3   3  -8 21574.3 3701.97  14
  -3   3  -8 15997.7 2532.42  11
  -3   3  -9 11126.3 2836.00  13
  -3   3  -9 10498.6 2634.61  14
  -3   3 -10 19676.9 3624.08  13
  -3   3 -11 1710.87 955.298  13
  -3   3 -12 11636.3 1829.34  13
   3  -2 -13 9187.40 1486.04  18
   3  -2 -12 1324.53 761.571  18
   3  -2 -12 3198.12 1626.01  15
   3  -2 -11 44782.7 5358.08  15
   3  -2 -11 44683.1 4150.52  18
   3  -2 -11 44008.1 3695.95   8
   3  -2 -10 2673.11 1128.79   8
   3  -2 -10 3695.69 1330.89  18
   3  -2 -10 837.491 655.510  15
   3  -2  -9 3128.24 1015.91   8
   3  -2  -9 4383.89 1292.89  18
   3  -2  -9 2531.17 970.804  16
   3  -2  -9 4040.13 1521.00  15
   3  -2  -8 97137.6 5533.67   8
   3  -2  -8 99765.3 7393.93   7
   3  -2  -8 102337. 5972.61  18
   3  -2  -8 116108. 6783.19  16
   3  -2  -8 109374. 6755.01   3
   3  -2  -8 92216.6 7294.99  15
   3  -2  -7 30645.3 2852.88   8
   3  -2  -7 32293.2 3811.71   7
   3  -2  -7 31939.9 3410.82   3
   3  -2  -7 32461.4 3032.65  18
   3  -2  -7 37784.9 3712.93  16
   3  -2  -6 32713.6 2393.52   4
  -3   2   6 35753.3 2400.91   1
   3  -2  -6 35869.5 3406.73   3
   3  -2  -5 55525.5 3041.37   4
  -3   2   5 58605.0 3061.21   1
  -3   2   4 14436.8 1447.88   1
  -3   2   3 154316. 5025.86   1
  -3   2   2 244412. 6633.04   1
  -3   2   1 110538. 4427.50   1
  -3   2   0 546301. 11284.3   1
  -3   2  -1 11062.9 1485.86   1
  -3   2  -2 67455.2 3732.74   1
  -3   2  -2 71963.0 3270.10   5
  -3   2  -3 68554.6 3789.14   1
  -3   2  -3 74327.9 3554.99   5
  -3   2  -4 367135. 9663.44   1
  -3   2  -4 351874. 8745.17   5
  -3   2  -5 186100. 7050.94   1
  -3   2  -6 175125. 8923.79  14
  -3   2  -6 164034. 6696.78   1
  -3   2  -6 173719. 8422.01  11
  -3   2  -7 57173.0 5485.47  14
  -3   2  -7 59424.9 4910.10  11
  -3   2  -7 51366.5 3890.22   4
  -3   2  -8 25088.0 3852.58  14
  -3   2  -8 24287.0 3046.49  11
  -3   2  -9 2522.14 1246.62  14
  -3   2 -10 314.305 871.540  14
  -3   2 -10 1759.67 1091.30  13
  -3   2 -11 33031.9 4001.75  13
  -3   2 -12 13804.9 1997.60  13
   3  -1 -14 1463.41 528.396  18
   3  -1 -13 30123.2 2981.33  18
   3  -1 -12 11383.2 2004.91  18
   3  -1 -11 131686. 7348.27  18
   3  -1 -11 126959. 9206.39  15
   3  -1 -11 116322. 6060.06   8
   3  -1 -10 16586.1 2636.94  18
   3  -1 -10 20707.7 2999.88  16
   3  -1 -10 15889.7 3393.71  15
   3  -1 -10 15318.6 2232.55   8
   3  -1  -9 152063. 7779.64  18
   3  -1  -9 176825. 9251.47  16
   3  -1  -9 152451. 9964.89  15
   3  -1  -9 147125. 6872.98   8
   3  -1  -8 296.011 375.044   8
   3  -1  -8 1089.69 1110.00   7
   3  -1  -8 1678.39 772.808  18
   3  -1  -8-563.180 810.972  16
   3  -1  -8 845.213 710.780  15
   3  -1  -7 1703.68 894.999   7
   3  -1  -7 718.887 632.721   3
   3  -1  -6 23763.4 2698.34   3
   3  -1  -5 68122.5 4241.89   3
  -3   1   5 67031.2 3004.97   1
  -3   1   4 26392.2 1847.82   1
  -3   1   3 450569. 8886.70   1
  -3   1   2 23560.6 1831.55   1
  -3   1   1 260146. 6797.47   1
  -3   1   0 106014. 4322.59   1
  -3   1  -1 227099. 6624.29   1
  -3   1  -1 218078. 4924.26   5
  -3   1  -2 254975. 7301.24   1
  -3   1  -2 252179. 5636.20   5
  -3   1  -3 144091. 5582.60   1
  -3   1  -3 140467. 4405.55   5
  -3   1  -4 219757. 7578.46   1
  -3   1  -5 554375. 13204.6   1
  -3   1  -6 97290.7 6378.74  14
  -3   1  -6 75093.0 5316.59  11
  -3   1  -7 36521.5 4203.25  14
  -3   1  -7 31490.2 3478.22  11
  -3   1  -7 30192.9 3068.04   4
  -3   1  -8 3453.35 1364.46  14
  -3   1  -9 65050.9 5974.32  14
  -3   1 -10 11008.6 2382.41  14
  -3   1 -11 31356.4 3802.06  13
  -3   1 -12 24046.7 2504.76  13
   3   0 -14 3851.79 991.977  18
   3   0 -13 36590.7 3526.37  18
   3   0 -12 323731. 11750.9  18
   3   0 -11 9910.03 2060.18  18
   3   0 -11 12984.1 2397.17  16
   3   0 -11 10164.7 1762.97   8
   3   0 -10 197336. 10404.3  16
   3   0 -10 166226. 8499.88  18
   3   0 -10 202960. 11480.4  15
   3   0 -10 176496. 7531.06   8
   3   0  -9 7644.82 1472.35   8
   3   0  -9 3867.40 1314.85  16
   3   0  -9 7626.07 1689.06  18
   3   0  -9 8039.78 2153.55  15
   3   0  -8 1618.83 633.155   8
   3   0  -8 1683.22 938.649  16
   3   0  -8 1518.69 585.597  18
   3   0  -8 2534.45 1205.75  15
   3   0  -7 8188.67 1770.41   3
   3   0  -6 50136.1 3858.10   3
   3   0  -5 163738. 6480.31   3
  -3   0   5 138689. 4188.83   1
   3   0  -4 83509.5 4174.35   3
  -3   0   4 66811.4 2919.87   1
  -3   0   3 395070. 8086.99   1
  -3   0   2 297137. 6963.69   1
  -3   0   1 73294.3 3334.69   1
   3   0  -1 72011.3 2612.28   6
  -3   0   0 72288.7 3433.05   1
   3   0   0 70468.7 2468.86   6
  -3   0   0 64875.9 1522.06   5
  -3   0  -1 216940. 6406.04   1
  -3   0  -2 2543.68 745.572   1
  -3   0  -3 440653. 10869.6   1
  -3   0  -4 127623. 5849.83   1
  -3   0  -5 85596.3 4981.96   1
  -3   0  -6 2478.59 853.300   4
  -3   0  -6 4780.57 1390.49  14
  -3   0  -7 20307.8 3075.58  14
  -3   0  -7 17678.4 2400.02   4
  -3   0  -8 113000. 7619.67  14
  -3   0  -9 69863.5 5943.14  14
  -3   0 -10 4154.54 1511.58  14
  -3   0 -11 7135.50 1803.69  13
  -3   0 -11 8076.45 1742.00  14
  -3   0 -12 1871.54 662.939  13
   3   1 -13 185391. 8415.27  18
   3   1 -12 12944.4 2337.98  18
   3   1 -12 19582.8 2833.23  16
   3   1 -11 168893. 8796.01  18
   3   1 -11 173109. 9636.74  16
   3   1 -11 177928. 7048.93   8
   3   1 -10 5670.95 1221.62   8
   3   1 -10 5265.90 1495.31  18
   3   1 -10 4866.35 1590.70  16
   3   1  -9 60603.8 4022.18   8
   3   1  -9 57738.2 5051.23  16
   3   1  -9 58367.5 4773.44  18
   3   1  -8 20999.4 2171.58   8
   3   1  -8 19941.4 2600.86  18
   3   1  -8 18308.6 3250.23   2
   3   1  -8 21663.3 2782.41  16
   3   1  -7 111315. 7508.67   2
   3   1  -6 10907.3 2031.15   2
   3   1  -6 12117.1 1896.83   3
   3   1  -5 674.482 517.569   2
   3   1  -5 1496.81 569.046   3
   3   1  -4 125811. 5445.06   2
   3   1  -4 132600. 5090.27   3
   3   1  -3 27814.5 2033.91   3
   3   1  -3 29246.8 2334.71   2
  -3  -1   2 130997. 4470.12   1
   3   1  -2 129444. 4420.14   6
   3   1  -1 44724.3 2414.57   6
  -3  -1   1 46442.8 2729.53   1
  -3  -1   0 4306.06 861.009   1
  -3  -1  -1 34164.4 2572.92   1
  -3  -1  -2 75119.5 4158.83   1
  -3  -1  -3 2780.32 845.712   1
  -3  -1  -4 30521.0 2945.53   1
  -3  -1  -5 67030.0 4546.47   4
  -3  -1  -6 21466.5 2693.47   4
  -3  -1  -7 202226. 9750.83  14
  -3  -1  -7 180857. 8141.42   4
  -3  -1  -8 30317.2 3800.91  14
  -3  -1  -9 187417. 9452.07  14
  -3  -1 -10 4532.93 1340.39  14
  -3  -1 -11 11169.8 1759.24  14
  -3  -1 -11 9191.91 1794.39  13
   3   2 -13 32820.7 3563.08  18
   3   2 -13 37793.1 3223.06  16
   3   2 -12 73597.0 5720.25  18
   3   2 -12 75279.1 5956.91  16
   3   2 -11 9971.07 2176.87  18
   3   2 -11 9138.66 2124.43  16
   3   2 -10 4667.25 1333.41  18
   3   2 -10 5210.48 1480.38  16
   3   2  -9 829.592 519.652   8
   3   2  -9 1871.67 535.189   2
   3   2  -9 478.729 476.354  18
   3   2  -9 1252.58 944.286  16
   3   2  -8 376048. 14193.6   2
   3   2  -8 388307. 12211.1  18
   3   2  -7 11389.1 2094.73   2
   3   2  -6 102651. 5764.09   2
   3   2  -5 29755.3 2736.60   2
   3   2  -4 241821. 7322.90   2
  -3  -2   3 14927.4 1397.52   1
   3   2  -3 18071.1 1888.28   6
   3   2  -3 16810.5 1636.24   2
   3   2  -2 295235. 7658.31   6
   3   2  -2 289200. 6417.51   2
  -3  -2   1 147552. 5337.90   1
   3   2  -1 165119. 4087.77   2
  -3  -2   0 158321. 5764.93   1
  -3  -2  -1 42199.1 3043.97   1
  -3  -2  -2 357.735 240.637   1
  -3  -2  -3 15826.5 2048.86   4
  -3  -2  -4 28252.3 2886.76   4
  -3  -2  -5 156641. 7088.29  10
  -3  -2  -5 154249. 7272.96   4
  -3  -2  -6 281208. 10234.6  18
  -3  -2  -6 241829. 9647.71   4
  -3  -2  -7 144153. 7380.31  18
  -3  -2  -7 114787. 6673.40   4
  -3  -2  -8 160798. 8608.41  14
  -3  -2  -8 167161. 7821.44  18
  -3  -2  -9 11903.8 2343.10  14
  -3  -2  -9 9397.87 1559.09  18
  -3  -2 -10 1752.92 813.473  14
  -3  -2 -11 90570.0 4468.84  14
  -3  -2 -11 80457.9 4427.23  13
   3   3 -13 4463.97 1294.64  16
   3   3 -12 4531.32 1540.24  18
   3   3 -12 2322.97 979.317  16
   3   3 -11 69826.7 5551.69  16
   3   3 -11 73301.3 6074.78  18
   3   3 -10 23188.3 3107.20  16
   3   3 -10 23827.6 2638.21  13
   3   3 -10 22730.4 3327.12  18
   3   3  -9 190092. 9422.44  18
   3   3  -9 199936. 10523.7   2
   3   3  -8 886.209 356.100  13
   3   3  -8 1053.94 574.960  18
   3   3  -7-240.350 601.005   2
   3   3  -7 1606.18 693.347  18
   3   3  -6 31210.9 3001.01   2
   3   3  -5 313661. 9124.87   2
   3   3  -4 148324. 5505.44   2
   3   3  -4 137580. 6064.91   6
   3   3  -3 506927. 10062.4   2
   3   3  -3 493486. 11938.0   6
   3   3  -2 8608.21 1012.65   2
   3   3  -2 8835.01 1424.12   6
  -3  -3   2 8037.09 961.314   4
   3   3  -1 153815. 3908.17   2
  -3  -3   1 153642. 5026.58   4
  -3  -3   0 68690.9 3589.42   4
  -3  -3  -1 45741.1 3191.92   4
  -3  -3  -2 44293.7 3339.26   4
  -3  -3  -3 226178. 8296.55   4
  -3  -3  -4 46182.2 3853.13  10
  -3  -3  -4 49692.1 4018.01   4
  -3  -3  -5 39695.5 3809.04  10
  -3  -3  -5 39398.1 3788.46   4
  -3  -3  -6 89870.9 5990.74  10
  -3  -3  -6 104019. 6410.07  18
  -3  -3  -6 88890.1 5936.81   4
  -3  -3  -7 45350.6 4243.33  18
  -3  -3  -8 898.221 778.659  14
  -3  -3  -8 1361.51 805.936  18
  -3  -3  -9 2460.05 1050.27  14
  -3  -3  -9 3731.18 1050.72  18
  -3  -3 -10 78481.6 4581.23  14
  -3  -3 -10 74218.9 3740.36  18
  -3  -3 -11 14968.4 1449.71  14
   3   4 -13 2099.04 865.485  16
   3   4 -12 70320.1 5337.80  16
   3   4 -11 6343.67 1648.25  16
   3   4 -10 171745. 7693.19  13
   3   4 -10 145140. 8983.03  18
   3   4  -9 2603.07 965.549  13
   3   4  -9 1247.95 637.161   2
   3   4  -9 2502.78 686.624  12
   3   4  -9 3028.11 1280.39  18
   3   4  -8 69605.2 4653.75  13
   3   4  -8 64710.9 3804.12  12
   3   4  -8 54138.0 4967.71  18
   3   4  -8 62659.2 4957.95   2
   3   4  -7 115901. 5745.20  13
   3   4  -7 111253. 4854.61  12
   3   4  -7 109245. 6126.26   2
   3   4  -6 148830. 6622.04   2
   3   4  -5 173749. 6636.53   2
   3   4  -4 837043. 15175.1   2
   3   4  -4 814467. 17694.4   6
   3   4  -3 76369.8 3609.55   2
   3   4  -3 80341.9 4864.57   6
   3   4  -2 263807. 6405.20   2
  -3  -4   2 276094. 6408.72   4
  -3  -4   1 93343.9 3954.45   4
  -3  -4   0 1073.53 534.113   4
  -3  -4  -1 122164. 5537.96   4
  -3  -4  -2 385435. 11011.4   4
  -3  -4  -3 10220.1 1785.03  10
  -3  -4  -3 9804.04 1755.71   4
  -3  -4  -4 81233.9 5600.31  10
  -3  -4  -4 91055.1 5805.09   4
  -3  -4  -5 77536.9 5545.11   4
  -3  -4  -5 74063.6 5598.56  10
  -3  -4  -6 36641.0 3999.43  10
  -3  -4  -6 42956.8 4229.96  18
  -3  -4  -7 17819.3 2667.62  18
  -3  -4  -8 7505.12 1694.28  14
  -3  -4  -8 8458.55 1679.48  18
  -3  -4  -9 15087.2 2093.25  14
  -3  -4  -9 15860.3 2021.47  18
  -3  -4 -10 1340.75 511.264  14
  -3  -4 -10 2085.98 573.277  18
   3   5 -13 78750.6 5038.89  16
   3   5 -12 6611.20 1557.29  16
   3   5 -11 58645.3 4571.56  16
   3   5 -10 37055.1 3064.04  12
   3   5  -9 36563.0 3184.12  12
   3   5  -8 56543.7 3901.66  12
   3   5  -8 53301.6 4505.94   2
   3   5  -7 72021.4 4956.66   2
   3   5  -7 70138.6 4231.72  12
   3   5  -6 255457. 8975.25   2
   3   5  -6 245289. 7928.35  12
   3   5  -5 306777. 9263.42   2
   3   5  -5 294984. 8625.81  12
   3   5  -4 53645.8 3441.13   2
   3   5  -4 56380.9 4578.87   6
   3   5  -3 108925. 4527.54   2
   3   5  -3 110158. 6232.66   6
   3   5  -2 50533.5 4084.62   6
  -3  -5   1 91929.3 4269.69   4
  -3  -5   0 4113.00 970.471   4
  -3  -5  -1 138575. 6321.44   4
  -3  -5  -2 37399.3 3495.80   4
   3   5   2 35873.6 3198.61  19
  -3  -5  -2 40566.7 3458.87  10
  -3  -5  -3 16118.2 2400.72   4
  -3  -5  -3 14976.6 2314.15  10
  -3  -5  -4 1201.86 693.328   4
  -3  -5  -4 64.1936 804.168  10
  -3  -5  -5 116466. 7389.53  10
  -3  -5  -6 3926.93 1500.64  10
  -3  -5  -6 4970.78 1528.02  18
  -3  -5  -7 102849. 6226.58  18
  -3  -5  -8 4374.73 1261.68  14
  -3  -5  -8 4365.11 1111.20  18
  -3  -5  -9 7803.76 1302.75  14
  -3  -5  -9 7474.33 1230.96  18
   3   6 -13 6402.70 1270.84  16
   3   6 -12 22742.9 2666.23  16
   3   6 -11 8494.11 1357.12  12
   3   6 -11 9337.17 1802.31  16
   3   6 -10 2115.25 861.845  12
   3   6  -9 5224.39 1162.82  12
   3   6  -8 25407.5 2847.20  12
   3   6  -7 126374. 6640.89   2
   3   6  -7 128745. 6342.40  12
   3   6  -6 33032.1 3219.02   2
   3   6  -6 33926.2 3109.23  12
   3   6  -6 31536.9 2907.14  19
   3   6  -5 107104. 5546.53   2
   3   6  -5 106255. 5592.89  12
   3   6  -5 109836. 5572.21  19
   3   6  -4 3579.90 1090.06  12
   3   6  -4 3573.19 922.772   2
   3   6  -4 3969.55 1067.20  19
   3   6  -4 3682.41 1279.75   6
   3   6  -3 5544.05 1386.89  12
   3   6  -3 4212.19 1051.91  19
   3   6  -3 4576.45 1266.69   6
   3   6  -2 82831.1 5430.09  12
   3   6  -2 75517.6 4445.37  19
   3   6  -2 81254.0 5583.24   6
   3   6  -1 27691.0 3203.25  12
   3   6  -1 28010.4 2664.30  19
  -3  -6   0 171901. 6941.82   4
   3   6   0 170845. 6867.62  19
  -3  -6  -1 2228.04 935.394   4
   3   6   1 2176.80 875.944  19
  -3  -6  -1 2324.47 900.073  10
  -3  -6  -2 2766.22 993.647   4
   3   6   2 1904.60 641.455  19
  -3  -6  -2 4124.48 1177.09  10
   3   6   3 30494.7 3225.32  19
  -3  -6  -3 27701.7 3282.89   4
  -3  -6  -3 26368.3 3221.53  10
  -3  -6  -4 214606. 10038.2  10
  -3  -6  -5 6646.63 1694.73  10
  -3  -6  -6 259381. 10255.5  18
  -3  -6  -6 248388. 10250.5  10
  -3  -6  -7 4494.36 1227.51  18
  -3  -6  -8 8086.15 1401.87  14
  -3  -6  -8 8101.73 1403.48  18
  -3  -6  -9 29424.1 1961.05  14
  -3  -6  -9 32381.4 2068.57  18
   3   7 -13 2112.27 603.961  16
   3   7 -12 16893.9 2106.20  16
   3   7 -11 109469. 4938.87  12
   3   7 -11 113024. 5837.77  16
   3   7 -10 20114.7 2365.61  12
   3   7  -9 6801.39 1528.41  12
   3   7  -8 1935.23 839.848  12
   3   7  -7 12569.6 2065.52  12
   3   7  -6 12150.0 1908.71  19
   3   7  -6 15014.8 2233.58   2
   3   7  -6 13478.9 2148.22  12
   3   7  -5 89016.2 5193.35   2
   3   7  -5 96357.0 5842.04  12
   3   7  -5 92939.3 5527.58  19
   3   7  -4 1797.85 861.199  12
   3   7  -4 1338.02 827.265  19
   3   7  -4 552.323 294.907   6
   3   7  -3 115485. 6819.92  12
   3   7  -3 117060. 6238.73  19
   3   7  -3 105387. 6999.28   6
   3   7  -2 39101.9 4141.57  12
   3   7  -2 34108.1 3850.17   6
   3   7  -2 37820.9 3455.53  19
   3   7  -1 159615. 7094.82  19
   3   7  -1 162911. 8327.87   6
   3   7   0 54775.6 4141.16  19
  -3  -7   0 59908.6 3962.01  10
   3   7   1 1215.91 779.440  19
  -3  -7  -1 1426.29 759.142  10
  -3  -7  -1 1106.18 699.757   4
  -3  -7  -2 86680.8 5696.82  10
   3   7   2 88152.8 5679.71  19
   3   7   3 221198. 9110.83  19
  -3  -7  -3 233578. 10096.8  10
  -3  -7  -4 49232.8 4611.36  10
  -3  -7  -5 295097. 11320.5  10
  -3  -7  -5 328317. 11703.0  18
  -3  -7  -6 1893.93 848.984  10
  -3  -7  -6 1927.06 888.638  18
  -3  -7  -7 6778.42 1281.54  18
  -3  -7  -8 18617.6 1606.16  14
  -3  -7  -8 18607.8 1698.67  18
   3   8 -12 91319.0 4371.29  16
   3   8 -11 13751.8 1867.34  16
   3   8 -11 11060.0 1457.41  12
   3   8 -10 127084. 5829.59  12
   3   8  -9 16158.6 2228.82  12
   3   8  -8 17766.5 2471.68  12
   3   8  -7-374.522 785.702  12
   3   8  -6 144616. 7500.35  12
   3   8  -6 132512. 6703.11  19
   3   8  -5 875.147 729.826  12
   3   8  -5 1014.04 769.267  19
   3   8  -4 319761. 11426.5  19
   3   8  -4 322418. 12088.6  12
   3   8  -3 40338.5 4259.30  12
   3   8  -3 44307.8 4057.31  19
   3   8  -2 70985.5 5087.89  19
   3   8  -1 492.207 593.026  19
  -3  -8   0 4487.30 1257.21  10
   3   8   0 2587.84 942.654  19
  -3  -8  -1 57478.2 4387.64  10
   3   8   1 52385.9 4401.09  19
   3   8   2 97839.2 6058.78  19
  -3  -8  -2 102890. 6290.66  10
  -3  -8  -3 75091.5 5457.99  10
   3   8   3 67520.8 4639.45  19
  -3  -8  -4 153148. 7650.79  10
  -3  -8  -5 35523.9 3341.61  10
  -3  -8  -5 37663.6 3490.34  18
  -3  -8  -6 3042.24 868.559  18
  -3  -8  -7 9780.78 1124.16  14
  -3  -8  -7 10928.7 1300.93  18
   3   9 -11 82068.9 3588.09  12
   3   9 -11 78419.4 3690.34  16
   3   9 -10 28570.9 2486.75  12
   3   9 -10 30561.3 2497.90  16
   3   9  -9 17648.0 2147.30  12
   3   9  -8 24553.9 2733.58  12
   3   9  -7 240033. 9280.68  12
   3   9  -7 180457. 7112.71  19
   3   9  -6 10731.4 2049.74  12
   3   9  -6 8393.84 1601.80  19
   3   9  -5 52949.5 4603.83  12
   3   9  -5 55075.2 4503.93  19
   3   9  -4 20359.8 2865.71  12
   3   9  -4 27640.1 3268.05  19
   3   9  -3 291.880 514.519  19
   3   9  -2 14128.8 2359.15  19
   3   9  -1 8662.50 1888.20  19
   3   9   0 15665.3 2429.69  19
  -3  -9   0 12793.3 1955.79  10
   3   9   1 28138.2 3167.33  19
  -3  -9  -1 32292.3 3160.39  10
   3   9   2 22974.4 2628.07  19
  -3  -9  -2 26408.4 2913.37  10
  -3  -9  -3 3603.50 1126.20  10
  -3  -9  -4 2766.22 850.808  10
  -3  -9  -4 3953.84 1147.26  18
  -3  -9  -5 5131.96 1059.97  18
  -3  -9  -6 75.7453 217.949  18
   3  10  -9 32618.7 2605.18  12
   3  10  -9 37394.3 2231.50  16
   3  10  -8 115690. 5496.11  12
   3  10  -7 16144.0 2126.38  12
   3  10  -6 71088.2 4778.53  12
   3  10  -6 69250.9 4252.10  19
   3  10  -5-411.179 584.737  19
   3  10  -4 15723.9 2300.07  19
   3  10  -3 1531.77 775.429  19
   3  10  -2 87787.9 5563.74  19
   3  10  -1 1476.70 702.280  19
   3  10   0 16425.5 2296.96  19
   3  10   1 9037.53 1558.43  19
  -3 -10  -1 9149.04 1388.70  10
   3  10   2 8997.02 1232.97  19
  -3 -10  -2 8356.62 1304.24  10
  -3 -10  -3 17545.9 1953.09  18
  -3 -10  -3 17074.8 1613.89  10
  -3 -10  -4 46763.3 2692.59  18
   3  11  -6 2675.91 629.716  19
   3  11  -5 32205.6 2566.48  19
   3  11  -5 23336.9 1927.92  17
   3  11  -4 1191.83 372.740  19
   3  11  -3 143053. 6112.95  19
   3  11  -2 24273.4 2438.50  19
   3  11  -1 8901.16 1415.42  19
   3  11   0 16107.4 1737.17  19
  -3 -11  -1 50295.8 2926.22  18
   4 -11  -3 2696.20 639.874   7
   4 -11  -2 7125.78 1153.22   7
  -4  11   2 6671.20 1026.18  19
   4 -11  -2 6876.97 917.044  10
  -4  11   1-666.195 491.114  19
   4 -11  -1 628.863 527.771   7
   4 -11   0 51404.2 3402.21   7
  -4  11   0 41394.0 3193.08  19
  -4  11  -1 1551.73 380.403  19
   4 -11   1 4386.29 1040.88   7
   4 -11   2 98910.0 4713.03   7
  -4  11  -2 61600.4 4075.86  19
   4 -11   3 15903.3 1797.77   7
  -4  11  -3 10687.1 1555.42  19
   4 -11   4 71253.0 3579.23   7
  -4  11  -4 64988.5 3218.24  19
   4 -11   5-43.1129 241.206   7
   4 -10  -6 19129.2 1793.09  15
   4 -10  -5 126912. 5159.28   7
   4 -10  -4 25978.8 2577.22   7
   4 -10  -3 919.149 598.083   7
  -4  10   3 385.593 211.077  19
   4 -10  -2 21233.7 2595.36   7
   4 -10  -1 134063. 6735.45   7
   4 -10   0 13493.2 2109.80   7
   4 -10   1 131696. 6670.19   7
   4 -10   2 24306.3 2782.94   7
  -4  10  -3 3674.20 950.246  11
   4 -10   3 6650.00 1406.12   7
  -4  10  -4 11905.5 1824.01  11
   4 -10   4 17709.2 2222.87   7
  -4  10  -5 3483.26 925.557  11
   4 -10   5 4838.72 1055.71   7
  -4  10  -5 5600.29 1053.64  19
  -4  10  -6 21237.6 2282.82  11
   4 -10   6 24750.2 2181.09   7
  -4  10  -7 19948.0 1914.91  11
   4 -10   7 21095.9 1721.68   7
   4  -9  -7 3329.17 802.096   7
   4  -9  -7 6308.09 1201.85  15
   4  -9  -6 72320.4 4586.51   7
   4  -9  -5 632.831 547.825   7
   4  -9  -4 1156.59 714.854   7
   4  -9  -3 36751.0 3775.11   7
   4  -9  -2 176561. 8547.01   7
   4  -9  -1 40601.0 3967.06   7
   4  -9   0 69869.4 5149.81   7
   4  -9   1 3048.08 1066.18   7
   4  -9   2 2139.32 1053.19   7
  -4   9  -2 1034.76 564.288  11
  -4   9  -3 1493.40 804.236  11
   4  -9   3 5502.66 1522.71   7
  -4   9  -4 28938.5 3489.08  11
  -4   9  -5 4424.64 1261.26  11
  -4   9  -6 15777.8 2481.80  11
  -4   9  -7 9529.93 1756.24  11
  -4   9  -8 1944.51 681.527  11
   4  -8  -9 80167.0 3837.53  15
   4  -8  -8 31952.4 2950.19  15
   4  -8  -7 47557.0 4096.39   7
   4  -8  -6 4266.10 1311.22   7
   4  -8  -5 4467.55 1495.44   7
   4  -8  -4 38789.5 4134.95   7
   4  -8  -3 133372. 7634.80   7
   4  -8  -2 41463.3 4166.25   7
   4  -8  -1 97780.3 6357.60   7
   4  -8   0 8033.58 1861.84   7
  -4   8  -1 20783.9 2599.77  11
   4  -8   1 23706.0 3082.15   7
  -4   8  -2 34525.0 3623.37  11
  -4   8  -3 284666. 11672.8  11
  -4   8  -4 6154.22 1533.13  11
  -4   8  -5 50797.1 5113.72  11
  -4   8  -6 380.401 932.602  11
  -4   8  -7 29351.0 3637.85  11
  -4   8  -8 591.501 709.794  11
  -4   8  -9 116624. 5202.19  11
   4  -7 -10 6807.01 1152.63  15
   4  -7  -9 98080.5 5406.40  15
   4  -7  -8 4263.90 1359.57   7
   4  -7  -8 5679.85 1495.82  15
   4  -7  -7 23116.0 3296.75   7
   4  -7  -6 23615.9 3349.45   7
   4  -7  -5 2820.31 1164.51   7
   4  -7  -4 121833. 7567.38   7
   4  -7  -3 11547.5 2247.39   7
   4  -7  -2 20922.6 2934.66   7
  -4   7   2 21076.8 2711.36   1
   4  -7  -2 19917.8 2720.38   9
   4  -7  -1 11499.8 2133.72   7
  -4   7   1 15097.0 2357.55   1
   4  -7  -1 19353.8 2773.09   9
   4  -7   0 181939. 8384.74   7
  -4   7   0 189302. 8811.96   1
   4  -7   0 178014. 8720.87   9
  -4   7  -1 10736.5 1899.56  11
   4  -7   1 17187.9 2786.41   9
  -4   7  -1 13415.6 2346.18   1
  -4   7  -2 380223. 12762.3  11
   4  -7   2 416039. 14149.5   9
  -4   7  -2 376489. 12508.6   1
  -4   7  -3 7605.19 1910.72  11
  -4   7  -3 9234.42 1808.34   5
   4  -7   3 8079.13 1959.54   9
  -4   7  -4 59003.5 5504.68  11
  -4   7  -5 90044.8 7102.44  11
  -4   7  -6 4248.81 1280.35  11
  -4   7  -7-110.665 1564.52  11
  -4   7  -8 175598. 8966.10  11
  -4   7  -9 507.073 732.318  11
  -4   7 -10 66866.4 3079.80  11
   4  -6 -11 2073.41 596.622  15
   4  -6 -10-94.8357 369.810  15
   4  -6  -9 49726.1 4428.92  15
   4  -6  -8 7789.17 1919.35   7
   4  -6  -8 17747.8 2218.11   8
   4  -6  -7 104632. 7343.86   7
   4  -6  -7 117622. 6010.56   8
   4  -6  -6 1468.59 669.871   8
   4  -6  -6 715.662 626.110   7
   4  -6  -5 30160.4 3831.07   7
   4  -6  -5 32245.5 2953.79   8
  -4   6   4 5332.46 1224.93   1
   4  -6  -4 6267.88 1405.79   9
   4  -6  -4 6822.81 1843.11   7
   4  -6  -3 31597.5 3551.72   7
  -4   6   3 30339.9 3106.30   1
   4  -6  -3 30584.0 3040.41   9
   4  -6  -2 54483.6 4470.32   7
   4  -6  -2 55751.3 4277.66   9
  -4   6   2 55802.8 4209.55   1
   4  -6  -1 171164. 7702.74   7
  -4   6   1 182848. 8083.95   1
   4  -6  -1 187150. 8259.55   9
   4  -6   0 119455. 6244.08   7
  -4   6   0 125755. 6928.62   1
   4  -6   0 123003. 6859.78   9
  -4   6  -1 440876. 12568.8  11
  -4   6  -1 458153. 14045.0   1
   4  -6   1 485075. 14449.7   9
  -4   6  -2 7119.71 1564.22   1
  -4   6  -2 7993.33 1786.23  11
   4  -6   2 6611.66 1645.51   9
  -4   6  -3 207539. 8394.16   1
  -4   6  -3 204341. 9746.36  11
  -4   6  -3 211613. 8485.54   5
   4  -6   3 211678. 9521.23   9
  -4   6  -4 92530.4 6961.11  11
  -4   6  -4 103326. 5837.59   5
   4  -6   4 85808.4 5930.93   9
  -4   6  -5 32884.9 4277.25  11
  -4   6  -5 45782.4 3725.06   5
  -4   6  -6 65170.9 6114.44  11
  -4   6  -7 74765.3 6414.95  11
  -4   6  -8 15622.3 2220.98  13
  -4   6  -8 8643.65 1878.82  11
  -4   6  -9 81073.5 4439.53  13
  -4   6  -9 68337.6 5056.58  11
  -4   6 -10 1066.66 402.468  13
  -4   6 -10 1541.13 667.104  11
   4  -5 -11 10461.0 1678.99  15
   4  -5 -10 194867. 8698.44  15
   4  -5  -9 8219.32 1942.52   7
   4  -5  -9 15047.1 2614.48  15
   4  -5  -9 11454.6 1915.97   8
   4  -5  -8 191867. 10592.8   7
   4  -5  -8 226385. 8986.92   8
   4  -5  -7 9522.45 1770.68   8
   4  -5  -7 7274.80 1991.60   7
   4  -5  -6 119282. 6195.81   8
   4  -5  -6 114810. 7712.82   7
  -4   5   6 128960. 6281.00   1
   4  -5  -6 110412. 7046.18   3
  -4   5   5 36418.2 3274.78   1
   4  -5  -5 35367.2 3143.37   8
   4  -5  -5 35773.1 4100.70   7
   4  -5  -4 62682.6 3955.04   8
   4  -5  -4 64653.4 5092.45   7
  -4   5   4 59403.4 4128.56   1
   4  -5  -4 60413.7 3955.73   9
   4  -5  -3 10856.5 1957.25   7
  -4   5   3 9399.51 1639.89   1
   4  -5  -3 10007.1 1674.76   9
   4  -5  -2 104981. 5730.81   7
  -4   5   2 105722. 5618.51   1
   4  -5  -2 114314. 5881.34   9
   4  -5  -1 196093. 7596.70   7
  -4   5   1 215408. 8421.19   1
   4  -5  -1 205131. 8304.19   9
  -4   5   0 238637. 9342.94   1
   4  -5   0 248422. 9495.33   9
  -4   5  -1 145948. 6859.49  11
  -4   5  -1 142014. 7331.09   1
   4  -5   1 152915. 7538.15   9
  -4   5  -2 92620.3 5994.71  11
   4  -5   2 99976.0 6170.08   9
  -4   5  -2 93408.4 5756.72   1
  -4   5  -3 26209.3 2841.58   1
  -4   5  -3 26368.1 3397.83  11
  -4   5  -3 27271.4 2808.74   5
   4  -5   3 26312.4 3138.09   9
  -4   5  -4 47509.4 3541.49   1
  -4   5  -4 37321.9 4358.92  11
  -4   5  -4 48616.5 3744.74   5
   4  -5   4 38403.3 3696.77   9
  -4   5  -5 68209.8 6214.75  11
  -4   5  -5 106265. 5471.92   5
  -4   5  -6 213551. 9583.91  13
  -4   5  -6 107481. 7975.86  11
  -4   5  -7 1102.23 589.361  11
  -4   5  -7 4242.08 1376.40  13
  -4   5  -8 4326.82 1315.51  13
  -4   5  -8 2223.04 852.321  11
  -4   5  -9 211.374 365.557  13
  -4   5  -9 731.882 442.956  11
  -4   5 -10 71978.0 4259.35  13
  -4   5 -10 73188.6 3971.49  11
  -4   5 -11 4271.57 783.248  13
   4  -4 -11 145755. 7086.35  15
   4  -4 -10 2990.73 1100.52   8
   4  -4 -10 3721.95 1400.08  15
   4  -4  -9 218781. 10255.0  15
   4  -4  -9 197386. 8577.84   8
   4  -4  -8 5465.67 1401.11   8
   4  -4  -8 3401.08 1562.81   7
   4  -4  -8 4265.91 1405.50  15
   4  -4  -7 32203.5 3323.53   8
   4  -4  -7 26871.2 3797.25   7
   4  -4  -7 32272.4 3880.91   3
   4  -4  -6 4461.73 1277.14   8
  -4   4   6 2242.23 751.923   1
   4  -4  -6 1058.41 807.303   7
   4  -4  -6 2294.27 1068.84   3
   4  -4  -5 23744.5 2575.55   8
   4  -4  -5 26221.0 3307.33   7
  -4   4   5 27971.1 2762.67   1
  -4   4   4 2587.23 837.034   1
   4  -4  -4 2582.44 770.335   8
   4  -4  -4 3238.03 1146.58   7
  -4   4   3 130799. 5927.09   1
  -4   4   2 50439.6 3724.77   1
  -4   4   1 26511.8 2812.23   1
  -4   4   0 20347.3 2554.31   1
  -4   4  -1 188.778 376.247   1
  -4   4  -2 40804.1 3596.73   1
  -4   4  -2 43648.4 3190.98   5
  -4   4  -3 42940.3 3513.50   1
  -4   4  -3 38625.5 4130.80  11
  -4   4  -3 44662.5 3339.36   5
   4  -4   3 37597.8 3648.93   9
  -4   4  -4 14272.3 1900.07   5
  -4   4  -4 17947.3 2144.64   1
  -4   4  -5 48015.8 3464.91   1
  -4   4  -5 47050.3 3458.42   5
  -4   4  -6 872.509 781.082  11
  -4   4  -7 8103.77 2176.77  13
  -4   4  -7 4943.68 1541.77  11
  -4   4  -8 11853.9 2572.06  13
  -4   4  -8 6553.97 1706.42  11
  -4   4  -9 135436. 7709.10  13
  -4   4  -9 105734. 6296.56  11
  -4   4 -10 777.727 626.968  13
  -4   4 -11 160102. 5764.85  13
   4  -3 -12 45402.5 2946.98  18
   4  -3 -11 20171.6 2300.32  18
   4  -3 -11 21851.0 2880.50  15
   4  -3 -11 22576.0 2627.12   8
   4  -3 -10 141394. 6862.02  18
   4  -3 -10 152279. 8334.20  15
   4  -3 -10 136360. 7100.55   8
   4  -3  -9-573.845 569.669   8
   4  -3  -9-412.741 1147.86   7
   4  -3  -9-43.4623 472.059  18
   4  -3  -9-282.162 454.744  15
   4  -3  -8 962.407 791.865   8
   4  -3  -8-721.645 985.304   7
   4  -3  -8 1265.00 886.418   3
   4  -3  -8 1925.53 1147.97  15
   4  -3  -7 941.248 852.547   8
   4  -3  -7 739.579 749.002   7
   4  -3  -7 219.901 389.653  16
   4  -3  -7-326.522 802.256   3
   4  -3  -6 212193. 8249.76   8
   4  -3  -6 205494. 9817.46   7
   4  -3  -6 183084. 9008.66   3
   4  -3  -6 203043. 8234.00  16
   4  -3  -5 41876.9 3854.64   7
  -4   3   5 47099.4 3478.21   1
   4  -3  -5 43498.3 3504.18  16
  -4   3   4 193148. 7147.49   1
  -4   3   3 8168.19 1446.51   1
  -4   3   2 52107.8 3723.85   1
  -4   3   1 48127.0 3734.33   1
  -4   3   0 448332. 12330.7   1
  -4   3  -1 15804.3 2125.79   1
  -4   3  -2 125366. 6000.89   1
  -4   3  -2 130725. 5130.00   5
  -4   3  -3 35401.5 3036.47   1
  -4   3  -3 38464.7 2777.97   5
  -4   3  -4 4652.23 1300.31  14
  -4   3  -4 6379.09 1295.79   1
  -4   3  -4 5009.57 1007.48   5
  -4   3  -5 93.1419 466.108  14
  -4   3  -5 537.731 780.835  11
  -4   3  -5 523.636 459.477   1
  -4   3  -6 6526.40 1795.78  14
  -4   3  -6 5045.31 1629.93  11
  -4   3  -7 9014.68 2201.72  14
  -4   3  -7 5800.47 1525.35  11
  -4   3  -8 119306. 7530.31  11
  -4   3  -8 156657. 8886.50  14
  -4   3  -9 59277.0 5317.59  13
  -4   3  -9 47010.9 3987.49  11
  -4   3 -10 200776. 8858.53  13
  -4   3 -11 346.189 309.472  13
   4  -2 -13 32978.6 2317.45  18
   4  -2 -12 5161.34 1167.66  18
   4  -2 -11 42749.4 3779.38  18
   4  -2 -11 45565.7 4210.49  15
   4  -2 -11 47871.2 3936.42   8
   4  -2 -10 11135.6 2036.96   8
   4  -2 -10 13098.2 2229.92  18
   4  -2 -10 11951.0 1994.96  16
   4  -2 -10 11661.9 2272.06  15
   4  -2  -9 8888.74 1900.41   8
   4  -2  -9 12214.7 2260.35  18
   4  -2  -9 9409.89 1871.74  16
   4  -2  -9 12283.4 2304.92  15
   4  -2  -8 4369.96 1245.33   8
   4  -2  -8 3488.33 1105.01   7
   4  -2  -8 3632.09 884.941  18
   4  -2  -8 4672.67 1637.90   3
   4  -2  -8 5202.27 1448.59  16
   4  -2  -8 5861.02 1540.55  15
   4  -2  -7 333704. 10795.6   8
   4  -2  -7 304483. 12963.9   7
   4  -2  -7 285776. 11890.5   3
   4  -2  -7 362474. 11636.5  16
   4  -2  -7 344804. 11106.4  15
   4  -2  -6 27849.1 3361.77   7
   4  -2  -6 22241.7 3013.94   3
   4  -2  -6 31764.1 3085.04  16
  -4   2   5 235829. 7633.38   1
  -4   2   4 66856.7 3964.27   1
  -4   2   3 84023.6 4461.67   1
  -4   2   2 8421.29 1452.07   1
  -4   2   1 641198. 14057.1   1
  -4   2   0 19894.8 2265.05   1
  -4   2  -1 278860. 8748.47   1
  -4   2  -1 285690. 6648.90   5
  -4   2  -2 13611.4 1849.96   1
  -4   2  -3 22847.8 2377.78   1
  -4   2  -4 16995.5 2677.43  11
  -4   2  -4 14721.4 1982.19   1
  -4   2  -4 13794.6 2020.44  14
  -4   2  -5 127342. 6882.91  14
  -4   2  -5 130776. 6291.02   1
  -4   2  -5 112454. 7380.76  11
  -4   2  -6 22202.1 3036.34  14
  -4   2  -6 22802.3 3447.76  11
  -4   2  -6 24442.6 2649.93   1
  -4   2  -7 73181.2 5813.66  14
  -4   2  -7 69080.2 5983.58  11
  -4   2  -8 37579.1 4211.84  14
  -4   2  -8 33856.7 3780.84  11
  -4   2  -9 69095.5 5608.89  14
  -4   2 -10 11775.9 2239.37  13
  -4   2 -11 9323.14 1527.71  13
   4  -1 -13 1733.02 647.403  18
   4  -1 -12 4589.53 1087.71   8
   4  -1 -12 2907.64 1021.82  18
   4  -1 -11 5742.78 1356.89   8
   4  -1 -11 4430.58 1293.99  18
   4  -1 -11 5671.67 1353.20  16
   4  -1 -11 2722.08 1162.78  15
   4  -1 -10 111019. 6769.06  18
   4  -1 -10 115750. 6797.80  16
   4  -1 -10 103167. 6517.56  15
   4  -1 -10 104707. 6112.03   8
   4  -1  -9 9234.78 1865.16   8
   4  -1  -9 11249.5 2101.24  18
   4  -1  -9 8881.78 1993.07  16
   4  -1  -9 13232.3 2154.40  15
   4  -1  -8 210837. 10687.1   3
   4  -1  -8 241250. 9236.69   8
   4  -1  -8 194736. 11012.6   7
   4  -1  -8 250916. 9660.09  18
   4  -1  -8 259646. 10568.6  16
   4  -1  -8 267917. 9776.21  15
   4  -1  -7 10969.2 1808.57   8
   4  -1  -7 11415.0 2425.73   7
   4  -1  -7 14960.2 2053.21  18
   4  -1  -7 8089.23 1932.21   3
   4  -1  -7 13898.5 2267.24  16
   4  -1  -6 167988. 8350.04   3
   4  -1  -6 241595. 8990.03  16
  -4   1   5 17152.3 1783.92   1
   4  -1  -5 14922.2 2242.90   3
  -4   1   4 110272. 4738.36   1
  -4   1   3 107360. 4779.66   1
  -4   1   2 841574. 15459.4   1
  -4   1   1 4556.61 951.195   1
  -4   1   0 474172. 10999.9   1
  -4   1  -1 78616.1 4202.15   1
  -4   1  -2 9086.78 1487.50   1
  -4   1  -3 54208.4 3771.58   1
  -4   1  -4 219736. 9010.97  11
  -4   1  -4 219340. 8232.06   1
  -4   1  -5 5948.67 1453.79  14
  -4   1  -5 6442.24 1812.52  11
  -4   1  -5 5608.34 1297.15   1
  -4   1  -6 77257.7 5534.69  14
  -4   1  -6 81262.4 6161.97  11
  -4   1  -6 79320.3 5209.41   4
  -4   1  -7 15938.5 2581.84  14
  -4   1  -7 16867.0 2814.36  11
  -4   1  -7 18967.4 2479.01   4
  -4   1  -8 2403.39 1050.99  14
  -4   1  -8 807.881 515.497  11
  -4   1  -9 37495.5 3958.40  14
  -4   1 -10 4995.03 1289.14  14
  -4   1 -10 7499.60 1767.61  13
  -4   1 -11 1563.97 608.186  13
   4   0 -13 12511.4 1835.70  18
   4   0 -12 569.585 591.809   8
   4   0 -12 295.747 461.938  18
   4   0 -12 1420.71 822.104  16
   4   0 -11 67741.4 5326.18  18
   4   0 -11 79039.9 5517.22  16
   4   0 -11 70876.1 4779.98   8
   4   0 -10 1703.07 852.589   8
   4   0 -10 702.015 706.822  18
   4   0 -10 1329.68 985.272  16
   4   0 -10 925.523 472.007  15
   4   0  -9 198850. 8314.10   8
   4   0  -9 211709. 9493.19  18
   4   0  -9 196222. 9817.59  16
   4   0  -8 13182.0 2021.12   8
   4   0  -8 13169.1 2210.48  18
   4   0  -8 10123.6 2083.66  16
   4   0  -7 257110. 11287.8   7
   4   0  -7 186025. 9361.57   3
   4   0  -7 270428. 9368.55  18
   4   0  -7 194964. 9148.61  16
   4   0  -6 64644.0 4936.74   3
   4   0  -5 1817.97 847.870   3
  -4   0   4 54876.5 3010.14   1
   4   0  -4 49412.9 3579.76   3
  -4   0   3 505606. 10471.7   1
  -4   0   2 76316.1 3736.14   1
  -4   0   1 441953. 9981.08   1
  -4   0   0 11507.3 1505.22   1
  -4   0  -1 6714.06 1231.55   1
  -4   0  -2 712.094 588.425   1
  -4   0  -3 112025. 5708.20   1
  -4   0  -4 815.254 482.513   1
  -4   0  -4 588.041 457.351  11
  -4   0  -5 58133.9 4460.94  14
  -4   0  -5 64688.5 4695.26   1
  -4   0  -5 64052.1 4841.89  11
  -4   0  -6 1947.22 825.583  14
  -4   0  -6 599.160 526.229   4
  -4   0  -6 1561.27 1004.60  11
  -4   0  -7 36845.8 3910.14  14
  -4   0  -7 41334.1 4090.84  11
  -4   0  -8 39701.8 4032.50  14
  -4   0  -9 67394.9 5141.85  14
  -4   0 -10 6820.22 1341.53  14
  -4   0 -11 8621.23 1346.94  13
   4   1 -13 8007.67 1204.18  16
   4   1 -12 75159.2 5375.05  18
   4   1 -12 85765.8 5275.31  16
   4   1 -12 84330.6 4570.75   8
   4   1 -11 441.472 360.723   8
   4   1 -11 343.047 344.468  18
   4   1 -11 396.941 740.343  16
   4   1 -10 54590.4 4152.66   8
   4   1 -10 52708.3 4878.39  18
   4   1 -10 40243.0 4426.81  16
   4   1  -9 45596.6 3773.82   8
   4   1  -9 44469.3 4422.13  18
   4   1  -8 2165.39 723.144   8
   4   1  -8 3752.08 1136.10  18
   4   1  -8 2698.38 979.670  16
   4   1  -7 59084.1 4447.04  18
   4   1  -7 50297.5 4431.58  16
   4   1  -6 4869.35 1368.24   3
   4   1  -5 14581.8 2015.52   3
   4   1  -4 102056. 4939.31   3
  -4  -1   4 136319. 4822.00   1
  -4  -1   3 70262.6 3496.24   1
   4   1  -3 65529.7 3458.88   3
  -4  -1   2 3394.33 799.825   1
   4   1  -2 1695.92 515.001   6
   4   1  -1 79565.2 3388.01   6
  -4  -1   1 83493.5 4089.14   1
   4   1   0 476758. 9136.28   6
  -4  -1   0 485593. 11288.6   1
  -4  -1  -1 33479.1 2909.28   1
  -4  -1  -2 57651.7 3974.14   1
  -4  -1  -3 15542.2 2179.74   1
  -4  -1  -4 13465.9 1882.08  11
  -4  -1  -4 14848.4 2208.78   4
  -4  -1  -4 14192.3 2194.69   1
  -4  -1  -5 56420.8 4332.37  11
  -4  -1  -5 50412.6 4274.84   4
  -4  -1  -6 127031. 7227.62  14
  -4  -1  -6 150142. 7390.14  11
  -4  -1  -6 135542. 7203.11   4
  -4  -1  -7 3248.01 1180.26  14
  -4  -1  -8 304870. 11368.2  14
  -4  -1  -9 10296.8 1838.73  14
  -4  -1 -10 46208.7 3549.90  14
  -4  -1 -11 27524.7 2090.05  13
   4   2 -13 112533. 5097.68  16
   4   2 -12 7912.81 1743.29  18
   4   2 -12 8481.53 1792.92  16
   4   2 -11 6938.97 1789.36  18
   4   2 -11 5346.05 1466.97  16
   4   2 -11 8791.45 1576.23   8
   4   2 -10 1022.42 369.726  18
   4   2 -10 560.354 371.149  16
   4   2  -9 127051. 6098.89   8
   4   2  -9 124764. 7619.83  18
   4   2  -9 106718. 7095.73  16
   4   2  -8 206963. 7724.20   8
   4   2  -8 209546. 9511.68  18
   4   2  -8 205191. 9439.93  16
   4   2  -7 56023.7 4590.20  18
   4   2  -7 49795.3 5066.63   2
   4   2  -7 61607.1 4777.43  16
   4   2  -6 47484.9 4503.73   2
   4   2  -6 51719.8 4085.47  16
   4   2  -5 6885.22 1556.54   2
   4   2  -4 42996.0 3604.77   2
  -4  -2   3 9892.64 1427.57   1
   4   2  -3 12298.4 1559.68   6
   4   2  -3 10328.8 1602.54   2
  -4  -2   2 29111.9 2583.33   1
   4   2  -2 27205.2 2258.80   6
  -4  -2   1 21224.6 2252.38   1
   4   2  -1 20709.6 1903.49   6
  -4  -2   0 460.316 411.290   1
  -4  -2  -1 901218. 18070.1   1
  -4  -2  -2 12914.1 2020.62   1
  -4  -2  -3 23010.5 2702.14   4
  -4  -2  -4 72351.9 4506.90  11
  -4  -2  -4 66274.2 4863.08   4
  -4  -2  -5 80909.1 4958.99  11
  -4  -2  -5 74434.3 5345.75   4
  -4  -2  -6 32904.7 3132.52  11
  -4  -2  -6 30469.8 3430.91   4
  -4  -2  -7 323615. 11785.9  14
  -4  -2  -8 6570.57 1629.71  14
  -4  -2  -9 127444. 6362.48  14
  -4  -2 -10 1555.15 618.071  14
   4   3 -13 27208.5 2577.69  16
   4   3 -12 19884.7 2694.19  16
   4   3 -11 370.502 486.937  16
   4   3 -10 79527.7 6239.33  18
   4   3 -10 73757.1 5694.44  16
   4   3  -9 104930. 7199.46  18
   4   3  -9 121550. 7331.11  16
   4   3  -8 220298. 10265.2  18
   4   3  -8 230812. 11219.7   2
   4   3  -8 249333. 10161.1  16
   4   3  -7 187451. 9323.36   2
   4   3  -7 208989. 8678.69  16
   4   3  -6 4807.14 1320.48   2
   4   3  -6 8901.96 1654.56  16
   4   3  -5-397.110 445.639   2
   4   3  -4 238458. 8097.06   2
   4   3  -3 75367.8 4260.26   6
  -4  -3   2 189941. 7156.75   1
  -4  -3   2 169767. 6215.11   4
  -4  -3   1-221.121 217.590   4
  -4  -3   1 181.908 198.085   1
  -4  -3   0 67097.4 4296.40   4
  -4  -3  -1 4053.49 1107.77   4
  -4  -3  -2 12344.5 2017.26   4
  -4  -3  -3 47862.9 3757.82  10
  -4  -3  -3 50637.3 4284.16   4
  -4  -3  -4 65590.6 4302.66  11
  -4  -3  -4 63703.2 4932.19   4
  -4  -3  -5 111861. 5826.11  18
  -4  -3  -5 111096. 5579.01  11
  -4  -3  -5 103700. 6448.29   4
  -4  -3  -6 140857. 6469.23  18
  -4  -3  -7 907.955 618.923  14
  -4  -3  -8 38321.6 3575.05  14
  -4  -3  -9 770.508 463.279  14
  -4  -3 -10 8896.56 1202.21  14
   4   4 -13 43499.3 3236.10  16
   4   4 -12-54.7004 552.787  16
   4   4 -11 194450. 8992.24  16
   4   4 -10 10119.7 2092.85  16
   4   4  -9 275735. 10995.2  16
   4   4  -8 117788. 5663.49  12
   4   4  -8 114760. 7406.04   2
   4   4  -8 120632. 6812.68  16
   4   4  -7-56.0435 429.319   2
   4   4  -7 729.839 368.141  12
   4   4  -6 22423.6 2362.65  12
   4   4  -6 23171.5 2840.36   2
   4   4  -5 324661. 9658.11  12
   4   4  -5 343876. 10353.7   2
   4   4  -4 688.521 429.171   2
   4   4  -4 209.239 201.271  12
   4   4  -4 460.931 473.702   6
   4   4  -3 371437. 10764.1   6
   4   4  -2 22038.8 2400.35   6
  -4  -4   1 1010.51 520.033   4
   4   4  -1 2024.96 714.002   6
   4   4   0 70126.3 4765.30  19
  -4  -4   0 61259.8 4274.63   4
   4   4   1 181.916 522.032  19
  -4  -4  -1-137.447 531.357   4
  -4  -4  -2-307.660 453.316   4
   4   4   2-533.856 532.931  19
  -4  -4  -2-1785.88 711.757  10
  -4  -4  -3 9130.20 1875.98   4
  -4  -4  -3 7630.98 1547.88  10
  -4  -4  -4 56695.7 4013.95  11
  -4  -4  -4 59518.9 4658.34  10
  -4  -4  -4 56615.8 4759.01   4
  -4  -4  -5 52132.8 4154.49  18
  -4  -4  -5 51447.3 3605.66  11
  -4  -4  -6 75075.5 4828.28  18
  -4  -4  -7 21309.2 2333.81  18
  -4  -4  -8 5222.35 1245.41  14
  -4  -4  -9 26843.1 2298.06  14
   4   5 -13 6856.60 1247.90  16
   4   5 -12 141720. 6773.80  16
   4   5 -11 2785.80 1125.48  16
   4   5 -10 133524. 7389.11  16
   4   5  -9 35936.4 3314.18  12
   4   5  -9 37808.9 3867.85  16
   4   5  -8 2329.91 907.591  12
   4   5  -7 12032.8 1900.65  12
   4   5  -7 16091.3 2596.23   2
   4   5  -6 130317. 6338.61  12
   4   5  -6 123451. 6123.18  19
   4   5  -6 141161. 6896.82   2
   4   5  -5 54667.4 4098.20  12
   4   5  -5 41656.0 3702.09  19
   4   5  -4 175915. 7781.39  12
   4   5  -4 151977. 7408.64  19
   4   5  -4 169799. 7664.35   6
   4   5  -3 6004.17 1462.97  12
   4   5  -3 6679.52 1435.55  19
   4   5  -3 8905.34 1731.21   6
   4   5  -2 2921.55 961.489  19
   4   5  -2 3961.22 1136.29   6
   4   5  -1 49073.8 4042.89  19
   4   5  -1 50615.8 3950.96   6
   4   5   0 60358.1 4606.22  19
  -4  -5   0 59990.3 4480.54   4
   4   5   1 30845.1 3348.20  19
  -4  -5  -1 25087.4 2993.44   4
   4   5   2 14513.9 2267.53  19
  -4  -5  -2 14048.8 2078.11  10
  -4  -5  -2 13030.2 2251.09   4
  -4  -5  -3-262.174 466.963   4
   4   5   3 838.610 630.620  19
  -4  -5  -3 116.737 244.389  10
  -4  -5  -4 2697.09 794.559  11
  -4  -5  -4 4005.81 1321.90  10
  -4  -5  -5 24333.3 2842.93  18
  -4  -5  -6 11104.0 1808.22  18
  -4  -5  -7 4880.09 1024.81  18
  -4  -5  -8 35822.4 2789.15  14
  -4  -5  -8 34554.9 2247.17  18
  -4  -5  -9 188.666 124.856  14
   4   6 -13 50351.5 2960.98  16
   4   6 -12 3539.71 936.573  16
   4   6 -11 19367.7 2144.69  17
   4   6 -11 33003.3 3315.06  16
   4   6 -10 5880.02 1329.01  12
   4   6 -10 4780.99 1430.82  16
   4   6  -9 2551.62 1003.91  12
   4   6  -9 4305.05 1414.11  16
   4   6  -8 4539.29 1327.07  12
   4   6  -7 90891.5 5688.11  12
   4   6  -6 2105.29 967.821  12
   4   6  -6 386.694 679.668  19
   4   6  -5 47132.4 4213.79  12
   4   6  -5 40310.6 3877.09  19
   4   6  -4-204.505 414.563  12
   4   6  -4 527.741 396.243  19
   4   6  -3 29943.7 3682.80  12
   4   6  -3 30688.5 3396.55  19
   4   6  -3 33977.3 3526.66   6
   4   6  -2 6851.67 1510.89  19
   4   6  -2 7593.60 1614.72   6
   4   6  -1 185304. 8521.72  17
   4   6  -1 199300. 8651.56  19
   4   6   0 117687. 6659.91  19
  -4  -6  -1 57831.6 4679.74   4
   4   6   1 65243.0 4970.90  19
  -4  -6  -2 8695.40 1572.43  10
   4   6   2 11201.2 2051.33  19
  -4  -6  -3 26982.9 3008.88  10
   4   6   3 36722.0 3417.38  19
  -4  -6  -4-148.687 407.663  10
  -4  -6  -5 118466. 6129.12  18
  -4  -6  -6 5747.59 1241.96  18
  -4  -6  -7 52850.9 3524.37  14
  -4  -6  -7 52620.1 3106.66  18
  -4  -6  -8 1899.84 487.694  14
   4   7 -12 358.014 296.216  16
   4   7 -11 20154.7 2051.17  17
   4   7 -11 28596.0 2816.87  16
   4   7 -10 25455.4 2685.42  12
   4   7 -10 24340.2 2798.17  16
   4   7  -9 39367.1 3714.76  12
   4   7  -9 35802.0 3595.20  16
   4   7  -8 37054.0 3804.53  12
   4   7  -7 12957.3 2365.29  12
   4   7  -6 6500.94 1639.68  12
   4   7  -6 3759.20 991.853  19
   4   7  -5 9008.02 2008.69  12
   4   7  -5 6159.62 1477.00  19
   4   7  -4 71376.7 5849.07  12
   4   7  -4 81257.1 5899.14  19
   4   7  -3 1387.20 693.749  19
   4   7  -3 1711.02 934.724   6
   4   7  -2 400953. 12569.2   6
   4   7  -2 381288. 12801.5  19
   4   7  -1 18811.7 2728.88  19
   4   7   0 47579.0 4319.61  19
   4   7   1 86888.1 5870.31  19
   4   7   2 38339.0 3738.59  19
  -4  -7  -2 28879.2 2956.23  10
  -4  -7  -3 8422.23 1607.29  10
  -4  -7  -5 644.262 432.907  18
  -4  -7  -6 52313.7 3205.90  18
  -4  -7  -7 37.6719 205.044  14
   4   8 -11 51776.5 2959.20  17
   4   8 -11 46003.8 3010.82  16
   4   8 -10 16564.4 2026.24  12
   4   8 -10 18732.4 2175.43  16
   4   8  -9 28117.7 3004.53  12
   4   8  -9 36093.9 3257.32  16
   4   8  -8 9272.60 1912.16  12
   4   8  -8 11811.3 1896.29  16
   4   8  -7 2305.26 997.150  12
   4   8  -7 1567.15 576.230  19
   4   8  -7 2263.96 876.119  16
   4   8  -6-364.227 1190.59  12
   4   8  -6-410.038 835.863  19
   4   8  -5 56061.1 5089.86  12
   4   8  -5 57977.0 4912.85  19
   4   8  -4 1039.26 713.943  19
   4   8  -3 184080. 9105.80  19
   4   8  -2 4611.07 1278.20  19
   4   8  -2 2853.00 725.429  17
   4   8  -1 126849. 7230.93  19
   4   8   0 3173.84 897.176  19
   4   8   1 1209.09 503.918  19
  -4  -8  -2 26625.9 2576.98  10
   4   8   2 31038.3 3074.95  19
  -4  -8  -3 103832. 5002.98  10
  -4  -8  -4 402.525 265.765  18
  -4  -8  -5 74626.1 3775.34  18
  -4  -8  -6 7245.89 992.434  14
   4   9 -10 3048.24 619.704  17
   4   9 -10 3822.28 693.761  16
   4   9  -9-478.230 411.992  16
   4   9  -7 10839.0 1423.65  19
   4   9  -6 8586.41 1591.26  19
   4   9  -5 5289.05 1128.16  19
   4   9  -4 75563.7 5512.85  19
   4   9  -3 25149.3 3055.87  19
   4   9  -3 23902.0 2657.53  17
   4   9  -2 26987.1 3192.72  19
   4   9  -1 270.575 716.759  19
   4   9   0 3565.77 952.377  19
   4   9   1 10199.4 1682.31  19
   4   9   2 67505.6 3560.47  19
  -4  -9  -3 1191.45 603.593  18
  -4  -9  -4 6509.20 1011.70  18
   4  10  -9 15421.6 1477.08  17
   4  10  -8 4467.36 860.748  17
   4  10  -7 14771.7 1767.57  17
   4  10  -6 2003.22 653.042  19
   4  10  -6 838.069 383.897  17
   4  10  -5 3603.44 875.114  19
   4  10  -5 2687.12 630.135  17
   4  10  -4 6763.06 1358.03  19
   4  10  -4 6949.30 1101.08  17
   4  10  -3 28.2378 647.142  19
   4  10  -2 25078.5 2731.54  19
   4  10  -1 12191.5 1771.25  19
   4  10   0-383.193 512.706  19
   4  10   1 9139.55 1133.53  19
  -4 -10  -2 3632.26 802.504  18
   4  11  -5 13940.5 1243.49  19
   4  11  -4 76320.0 3370.31  19
   4  11  -3 85621.3 3724.20  19
   4  11  -2 39619.8 2398.72  19
   4  11  -1 28685.5 1794.50  19
   5 -11  -1 3859.03 707.770   7
  -5  11   1 3286.66 652.340  19
  -5  11   0 3462.66 723.529  19
   5 -11   0 4336.91 775.631   7
   5 -11   1 36030.3 2228.32   7
  -5  11  -1 35606.4 2307.34  19
   5 -11   2 6641.36 904.832   7
  -5  11  -2 6107.47 878.889  19
   5 -11   3 125015. 3796.81   7
   5 -10  -4 24070.2 2125.00   7
   5 -10  -3 337.061 351.665   7
   5 -10  -2 1691.91 635.367   7
   5 -10  -1 1151.26 603.535   7
   5 -10   0 19038.1 2126.50   7
   5 -10   1 28262.4 2554.00   7
   5 -10   2 85161.6 4377.69   7
   5 -10   3 60672.7 3493.97   7
  -5  10  -4 38316.5 2270.22  11
   5 -10   4 41551.8 2680.80   7
   5 -10   5 298.545 300.685   7
  -5  10  -5 47.9489 132.650  11
   5  -9  -6 8310.22 1365.77   7
   5  -9  -5 10439.9 1646.31   7
   5  -9  -4 269.137 267.105   7
   5  -9  -3 22494.7 2543.97   7
   5  -9  -2 23472.8 2676.37   7
   5  -9  -1 28566.0 2956.83   7
   5  -9   0 174.394 563.098   7
   5  -9   1 9307.84 1672.21   7
  -5   9  -2 43465.9 3264.10  11
   5  -9   2 50444.1 3790.98   7
   5  -9   3 598.657 589.093   7
  -5   9  -3 191.513 220.144  11
  -5   9  -4 21820.6 2497.18  11
   5  -9   4 22931.8 2403.23   7
  -5   9  -5 19778.2 2261.07  11
   5  -9   5 17876.3 1938.28   7
   5  -9   6 2059.44 603.798   7
  -5   9  -6 2811.68 779.621  11
  -5   9  -7 37276.0 2344.14  11
   5  -8  -8 61755.9 2880.75  15
   5  -8  -7 1022.50 623.923   7
   5  -8  -7 1042.07 572.308  15
   5  -8  -6 2394.48 870.024   7
   5  -8  -5 1517.86 719.914   7
   5  -8  -4 58827.9 4518.52   7
   5  -8  -3 18193.8 2539.67   7
   5  -8  -2 96184.4 5760.14   7
   5  -8  -1 9507.93 1800.59   7
   5  -8   0 4998.09 1282.69   7
   5  -8   1 9544.42 1750.83   7
  -5   8  -2 73316.2 5162.91  11
   5  -8   2 80837.3 5144.11   7
  -5   8  -3 39556.9 3940.14  11
   5  -8   3 51642.3 4037.99   7
  -5   8  -4 40032.3 4060.35  11
   5  -8   4 47568.1 3825.53   7
   5  -8   5 485.925 386.311   7
  -5   8  -5 1250.73 1001.15  11
  -5   8  -6 12776.2 2091.98  11
   5  -8   6 12584.7 1671.32   7
  -5   8  -7 16772.8 2082.93  11
   5  -8   7 15022.2 1540.87   7
  -5   8  -8 3572.63 750.327  11
   5  -7  -9 49234.9 2652.22  15
   5  -7  -8 978.673 698.874   7
   5  -7  -8 947.507 424.599  15
   5  -7  -7 3513.83 1149.51   7
   5  -7  -6 5249.28 1354.71   7
   5  -7  -5 192626. 8823.96   7
   5  -7  -4 99724.3 6211.73   7
   5  -7  -3 113999. 6485.49   7
   5  -7  -3 104236. 6439.52   9
   5  -7  -2 34895.1 3462.80   7
   5  -7  -2 30882.7 3645.29   9
   5  -7  -1 8933.40 1739.50   7
   5  -7  -1 8981.30 2018.77   9
   5  -7   0 5988.64 1498.35   7
   5  -7   0 3460.67 1406.84   9
  -5   7  -1 205570. 8783.00  11
   5  -7   1 174263. 9578.82   9
  -5   7  -2 30335.9 3547.16  11
   5  -7   2 37809.5 3618.67   7
  -5   7  -3 163823. 8665.21  11
   5  -7   3 147567. 8378.20   9
  -5   7  -4 4024.76 1243.18  11
  -5   7  -5 26452.8 3469.08  11
  -5   7  -6 684.436 571.019  11
  -5   7  -7 40409.1 3774.82  11
  -5   7  -8 999.615 585.593  11
  -5   7  -9 30676.2 1950.92  11
   5  -6 -10 1563.17 408.301  15
   5  -6  -9 730.854 471.587  15
   5  -6  -8 38195.0 3962.91   7
   5  -6  -8 32878.8 2946.94   8
   5  -6  -8 36274.2 3107.65  15
   5  -6  -7 681.167 510.168   8
   5  -6  -7 1783.56 1124.40   7
   5  -6  -6 250949. 10489.2   7
   5  -6  -6 213539. 8372.90   8
   5  -6  -5 110.774 452.361   7
   5  -6  -5-706.778 477.031   9
   5  -6  -4 109933. 6499.78   7
   5  -6  -4 103041. 6084.89   9
   5  -6  -3 145143. 7295.34   7
   5  -6  -3 149306. 7707.25   9
  -5   6   2 1876.41 859.111   1
   5  -6  -2 1186.09 821.758   7
   5  -6  -2 995.593 720.283   9
   5  -6  -1 26996.3 2920.85   7
   5  -6  -1 24191.8 3334.61   9
  -5   6   1 25745.0 3232.44   1
   5  -6   0 218764. 8476.20   7
  -5   6   0 222350. 9876.11   1
   5  -6   1-339.076 476.058   7
  -5   6  -1-420.381 497.317  11
  -5   6  -1 1048.75 806.756   1
   5  -6   1-222.314 786.449   9
  -5   6  -2 211797. 9836.99  11
   5  -6   2 184887. 9653.81   9
  -5   6  -3 838.158 578.553  11
   5  -6   3 1878.39 1065.38   9
  -5   6  -4 5402.13 1556.12  11
   5  -6   4 5459.87 1485.97   9
  -5   6  -5 36069.6 4293.92  11
  -5   6  -6 6938.49 1748.00  11
  -5   6  -7 1190.00 697.574  11
  -5   6  -8 49746.6 3852.24  11
  -5   6  -9 6948.67 1130.08  11
   5  -5 -10 1178.29 486.009   8
   5  -5 -10 299.934 172.982  15
   5  -5  -9 70004.5 5437.63   7
   5  -5  -9 65246.6 4072.49  15
   5  -5  -9 59276.9 4301.79   8
   5  -5  -8 5336.19 1458.99   8
   5  -5  -8 5813.68 1577.94   7
   5  -5  -8 5523.84 1317.51  15
   5  -5  -7 81510.2 5479.71   8
   5  -5  -7 89933.4 6413.28   7
   5  -5  -6 10665.9 1952.92   8
   5  -5  -6 10803.6 2187.02   7
   5  -5  -5 168619. 7691.70   8
   5  -5  -5 184417. 8735.13   7
   5  -5  -5 176537. 7482.54   9
   5  -5  -4 586.096 608.085   7
   5  -5  -4 431.886 251.938   8
  -5   5   4 1208.87 749.271   1
   5  -5  -4 1100.99 545.018   9
  -5   5   3 1559.74 721.561   1
   5  -5  -3 2929.73 988.376   7
   5  -5  -3 2200.60 991.312   9
   5  -5  -2 49196.4 3802.90   7
  -5   5   2 44755.8 4091.23   1
   5  -5  -2 43726.0 4239.26   9
   5  -5  -1 208209. 7867.51   7
   5  -5  -1 192223. 9391.97   9
  -5   5   1 210388. 9374.26   1
   5  -5   0 12140.6 1808.25   7
  -5   5   0 11544.2 1940.93  11
   5  -5   0 12353.6 2397.15   9
  -5   5   0 12402.3 2286.55   1
  -5   5  -1 306441. 11425.0   1
   5  -5   1 288321. 9363.19   7
  -5   5  -1 232504. 9994.34  11
   5  -5   1 228944. 10729.5   9
  -5   5  -2-201.040 691.611  11
  -5   5  -2 530.346 279.561   1
   5  -5   2-919.674 1304.28   9
  -5   5  -3 7620.00 2089.54  11
  -5   5  -3 7719.85 1505.25   1
   5  -5   3 5489.41 1534.89   9
  -5   5  -4 62028.0 5787.64  11
   5  -5   4 58141.0 4757.56   9
  -5   5  -5 138507. 8555.22  11
  -5   5  -6 5773.92 1911.58  11
  -5   5  -7 37678.9 4012.94  11
  -5   5  -8 2044.93 801.747  11
  -5   5  -9 10945.0 1509.80  11
   5  -4 -11 8291.10 1083.48  15
   5  -4 -10 53432.9 3505.55  15
   5  -4 -10 53993.6 4143.12   8
   5  -4  -9 2920.13 1164.91   8
   5  -4  -9 783.965 508.016   7
   5  -4  -9 2386.13 861.342  15
   5  -4  -8 100166. 6330.52   8
   5  -4  -8 102657. 7202.36   7
   5  -4  -8 95489.3 5366.11  15
   5  -4  -7 5321.14 1472.81   8
   5  -4  -7 7904.30 2080.45   7
   5  -4  -6 9177.85 1972.68   8
   5  -4  -6 11526.6 2287.29   7
   5  -4  -5 57560.3 4549.17   8
   5  -4  -5 66271.6 4935.78   7
  -5   4   5 71430.4 5006.05   1
   5  -4  -5 67855.6 4538.70   9
  -5   4   4 4737.68 1307.73   1
   5  -4  -4 5354.52 1352.54   7
   5  -4  -4 3792.83 1168.40   9
  -5   4   3 558.734 242.844   1
   5  -4  -3 648.631 411.009   7
   5  -4  -3 509.411 393.719   9
   5  -4  -2 61506.8 3932.11   7
   5  -4  -2 51461.4 4558.87   9
  -5   4   2 55631.2 4548.64   1
   5  -4  -1 38807.3 3034.41   7
   5  -4  -1 35416.6 3770.18   9
  -5   4   1 34966.7 3660.66   1
  -5   4   0 79377.8 5646.13   1
   5  -4   0 75148.5 4227.24   7
  -5   4   0 71063.9 4952.20  11
   5  -4   0 74940.1 5611.95   9
  -5   4  -1 13149.0 2211.46   1
   5  -4   1 14374.8 1857.16   7
  -5   4  -1 12394.0 2240.31  11
   5  -4   1 13287.7 2379.52   9
  -5   4  -2 11292.8 1978.42   1
  -5   4  -2 10238.1 2054.95  11
   5  -4   2 9372.19 1959.34   9
  -5   4  -3 6990.47 1463.69   1
  -5   4  -3 6139.47 1769.75  11
   5  -4   3 7141.88 1793.65   9
  -5   4  -4 231563. 11030.2  11
  -5   4  -4 220983. 8141.67   1
   5  -4   4 232303. 9403.15   9
  -5   4  -5 10084.7 2196.42  11
  -5   4  -6 70617.0 5962.69  11
  -5   4  -7 18768.0 2442.69  13
  -5   4  -7 21836.5 3184.47  11
  -5   4  -8 40004.0 3275.57  13
  -5   4  -8 43426.4 3828.19  11
  -5   4  -9 473.344 260.485  13
  -5   4  -9 244.557 237.361  11
  -5   4 -10 77529.9 3045.81  13
   5  -3 -11 77295.0 4802.86   8
   5  -3 -10 6945.42 1605.03   8
   5  -3 -10 8115.64 1401.78  15
   5  -3  -9 3132.45 1335.62   8
   5  -3  -9 3219.50 1285.45   7
   5  -3  -9 1289.91 553.059  15
   5  -3  -8 2406.50 1117.83   8
   5  -3  -8 1499.98 575.537   7
   5  -3  -7 56590.1 4859.37   8
   5  -3  -7 66697.9 5535.96   7
   5  -3  -6 160146. 8037.51   8
   5  -3  -6 160131. 8042.61   7
   5  -3  -6 171498. 8590.07   3
   5  -3  -5 43480.0 3791.98   7
  -5   3   5 43059.5 3797.44   1
   5  -3  -5 45098.4 3684.93   9
   5  -3  -4 61038.4 4145.33   7
  -5   3   4 56428.4 4384.51   1
   5  -3  -4 56763.4 4302.39   9
  -5   3   3 6268.45 1445.49   1
   5  -3  -3 6983.22 1344.83   7
   5  -3  -3 6922.37 1319.46  17
   5  -3  -3 5064.42 1340.67   9
  -5   3   2-150.593 402.203   1
   5  -3  -2 1177.79 681.032  17
   5  -3  -2 1351.67 771.248   9
  -5   3   1 10752.5 1959.71   1
  -5   3   0 47929.6 4166.58   1
  -5   3   0 52608.2 4102.96  11
  -5   3  -1 26305.9 2967.30   1
  -5   3  -1 25722.6 3044.12  11
   5  -3   1 30285.8 3314.84   9
  -5   3  -2 1126.00 877.310  11
  -5   3  -2-326.237 424.690   1
   5  -3   2 617.711 502.116   9
  -5   3  -3 432626. 14320.4  11
  -5   3  -3 405421. 11807.3   1
   5  -3   3 440225. 13034.1   9
  -5   3  -4 4122.02 1139.26  14
  -5   3  -4 5202.82 1717.58  11
  -5   3  -4 4431.44 1145.17   1
  -5   3  -5 98890.8 6170.26  14
  -5   3  -5 99835.8 7040.06  11
  -5   3  -6 35318.9 4046.04  11
  -5   3  -6 35929.2 3757.12  14
  -5   3  -7 50454.3 4786.33  11
  -5   3  -8 36688.9 3465.85  13
  -5   3  -8 38008.0 3582.27  11
  -5   3  -9 272387. 8667.94  13
  -5   3  -9 278523. 7927.47  11
  -5   3 -10 1197.90 442.980  13
   5  -2 -12 78510.8 4306.07   8
   5  -2 -11 43203.6 3740.67   8
   5  -2 -10 1786.50 609.464   8
   5  -2  -9 11671.8 2218.96   8
   5  -2  -9 9411.21 1800.83  16
   5  -2  -8 168979. 8551.04   8
   5  -2  -8 174384. 9325.85   7
   5  -2  -8 166281. 7695.35  16
   5  -2  -7 46958.0 4446.82   8
   5  -2  -7 51328.0 4743.82   7
   5  -2  -7 51501.0 4792.33   3
   5  -2  -7 49750.9 4095.87  16
   5  -2  -6 211045. 8877.32   7
   5  -2  -6 208781. 9287.85   3
   5  -2  -6 197271. 7977.98  16
   5  -2  -5 154838. 6827.24   7
   5  -2  -5 150641. 6562.74  16
   5  -2  -5 145410. 6587.99   9
  -5   2   5 149710. 6564.08   1
   5  -2  -4 3437.87 893.879   7
  -5   2   4 2740.89 937.156   1
   5  -2  -4 3830.30 1011.14  16
  -5   2   3 1655.23 734.343   1
  -5   2   2 17312.1 2269.17   1
  -5   2   1 31654.4 3100.50   1
  -5   2   0 227135. 8520.40   1
   5  -2   0 214379. 7841.28  17
  -5   2  -1-224.444 564.683  11
   5  -2   1-29.6938 332.084  17
  -5   2  -1 504.016 506.477   1
  -5   2  -2 291461. 10275.9  11
  -5   2  -2 288852. 9628.64   1
  -5   2  -3 2714.14 920.048  14
  -5   2  -3 4006.15 1358.98  11
  -5   2  -3 3179.15 1023.88   1
  -5   2  -4 62241.5 4470.11  14
  -5   2  -4 72786.6 5623.04  11
  -5   2  -4 66016.4 4521.60   1
  -5   2  -5 4404.94 1263.86  14
  -5   2  -5 4606.50 1076.49   1
  -5   2  -5 6261.12 1780.10  11
  -5   2  -6 19799.1 2764.38  14
  -5   2  -6 22979.7 3290.98  11
  -5   2  -7 41493.2 4002.47  14
  -5   2  -7 45977.9 4398.21  11
  -5   2  -8 170723. 7426.16  11
  -5   2  -8 151439. 7406.64  14
  -5   2  -9 11133.2 1749.66  13
  -5   2 -10 63870.9 3432.44  13
   5  -1 -12 18089.8 2137.17   8
   5  -1 -11 5486.92 1401.56   8
   5  -1 -11 5874.80 1424.06  18
   5  -1 -10 1850.45 996.894   8
   5  -1 -10 1460.55 920.174  18
   5  -1 -10 3690.74 1191.96  16
   5  -1  -9 206927. 9553.43   8
   5  -1  -9 217435. 8917.80  18
   5  -1  -9 208415. 8936.51  16
   5  -1  -8 14614.7 2469.72   8
   5  -1  -8 13513.7 2257.01  16
   5  -1  -7 419959. 13492.2   7
   5  -1  -7 416528. 13774.8   3
   5  -1  -7 415868. 12862.8  16
   5  -1  -6 170981. 7666.54   7
   5  -1  -6 175630. 8195.80   3
   5  -1  -6 167774. 7560.26  16
   5  -1  -5 48611.0 3903.85   3
   5  -1  -5 46502.6 3665.87  16
  -5   1   4 25338.2 2429.49   1
   5  -1  -4 30235.3 2758.75  16
  -5   1   3 229068. 7760.89   1
  -5   1   2 3924.86 982.312   1
  -5   1   1 376900. 10423.8   1
  -5   1   0 36711.7 3064.94   1
  -5   1  -1 38276.5 3245.80   1
   5  -1   1 37266.7 3085.98  17
  -5   1  -1 36543.4 3103.06  11
   5  -1   2 44650.7 3615.29  17
  -5   1  -2 46538.7 3652.71   1
  -5   1  -2 47267.8 3745.63  11
  -5   1  -3 29148.5 2770.39  14
  -5   1  -3 31290.1 3221.46  11
  -5   1  -3 29956.9 3023.99   1
  -5   1  -4 25080.5 2761.46  14
  -5   1  -4 28675.8 3005.49   1
  -5   1  -4 30183.6 3380.01  11
  -5   1  -5 78838.1 5255.41  14
  -5   1  -5 97350.9 6322.55  11
  -5   1  -5 86334.0 5249.05   1
  -5   1  -6 28585.9 3251.02  14
  -5   1  -6 38978.7 4014.37  11
  -5   1  -7 46615.6 4160.88  14
  -5   1  -7 51266.4 4373.10  11
  -5   1  -8 45000.6 3945.17  14
  -5   1  -8 48032.4 3625.36  11
  -5   1  -9 14107.4 1945.39  14
  -5   1 -10 462.509 254.785  13
   5   0 -12 3218.87 922.438   8
   5   0 -12 3120.66 808.474  16
   5   0 -11 25277.7 3047.93  18
   5   0 -11 25504.0 2753.54  16
   5   0 -11 20889.8 2634.60   8
   5   0 -10 226793. 9542.74   8
   5   0 -10 241877. 10195.9  18
   5   0 -10 227584. 9362.62  16
   5   0  -9 2212.95 950.852   8
   5   0  -9 2064.57 722.706  18
   5   0  -9 2522.06 1023.85  16
   5   0  -8 317503. 11728.2   8
   5   0  -8 351007. 11765.9  18
   5   0  -8 355097. 12723.8  16
   5   0  -7 5327.50 1472.72   3
   5   0  -7 5939.86 1467.17  16
   5   0  -6 60126.8 4507.45   3
   5   0  -6 61894.9 3748.36  17
   5   0  -6 55207.9 4548.04  16
   5   0  -5 64786.1 4290.66   3
   5   0  -5 65478.7 3892.99  17
   5   0  -5 65422.8 4574.28  16
  -5   0   4 81252.7 3960.88   1
   5   0  -4 88968.0 4550.35   3
   5   0  -4 88089.2 4897.20  16
  -5   0   3 2054.23 691.196   1
  -5   0   2 203743. 6864.32   1
  -5   0   1 13949.6 1795.74   1
  -5   0   0 31757.5 2821.94   1
  -5   0  -1 40788.0 3159.29  11
   5   0   1 40976.1 3123.09  17
  -5   0  -1 42069.3 3384.06   1
  -5   0  -2 25801.3 2628.53  11
   5   0   2 22220.2 2352.62  17
  -5   0  -2 22523.9 2586.13   1
  -5   0  -3 113896. 5649.30  14
  -5   0  -3 119452. 6207.52   1
  -5   0  -3 114369. 5964.96  11
  -5   0  -4 16560.6 2289.91  14
  -5   0  -4 17284.1 2388.88   1
  -5   0  -4 16703.7 2363.17  11
  -5   0  -5 7161.80 1541.27  14
  -5   0  -5 9798.65 1812.90   4
  -5   0  -5 10534.4 1969.03  11
  -5   0  -6 14839.9 2283.84  14
  -5   0  -6 17643.8 2544.93  11
  -5   0  -7 27071.7 3150.79  14
  -5   0  -7 30880.5 3171.94  11
  -5   0  -8 1617.91 720.297  14
  -5   0  -9 7204.23 1398.80  14
  -5   0 -10 29074.1 2229.34  13
   5   1 -12 976.686 458.216   8
   5   1 -12 1017.08 550.088  16
   5   1 -11 37014.9 3427.41  16
   5   1 -11 33287.8 3266.99   8
   5   1 -10 12291.0 2132.01   8
   5   1 -10 12242.1 2187.93  16
   5   1  -9 80036.6 5598.44   8
   5   1  -9 85824.0 6266.05  18
   5   1  -9 84149.4 6249.36  16
   5   1  -8 4875.03 1249.69   8
   5   1  -8 3455.52 1199.33  18
   5   1  -8 4122.23 1601.13  16
   5   1  -7 3194.53 893.179  17
   5   1  -7 4800.65 1617.27  16
   5   1  -6 6298.40 1399.28  17
   5   1  -6 3320.55 1157.79  16
   5   1  -5 97415.2 5314.03  17
   5   1  -5 89971.9 5667.11  16
   5   1  -4 29567.8 2834.14  17
  -5  -1   3 73310.7 3928.06   1
  -5  -1   2 10068.0 1500.98   1
  -5  -1   1 2144.43 817.786   1
  -5  -1   0 4754.03 1132.10   1
   5   1   0 4732.41 996.373  17
   5   1   0 5778.15 1107.12  19
  -5  -1  -1 450989. 12086.8   1
   5   1   1 437804. 10651.1  17
  -5  -1  -2 149725. 6888.98   1
  -5  -1  -2 138078. 6318.20  11
   5   1   2 140638. 5802.71  17
  -5  -1  -3 175922. 7427.71  11
  -5  -1  -3 192262. 8161.65   1
   5   1   3 180278. 6768.87  17
  -5  -1  -4 105733. 6014.75  14
  -5  -1  -4 96550.9 5651.26  11
  -5  -1  -4 111280. 6162.24   4
  -5  -1  -5 10227.7 2038.20  14
  -5  -1  -5 10544.9 1850.23  11
  -5  -1  -6-4.87382 587.464  14
  -5  -1  -6 436.792 690.371  11
  -5  -1  -7 133918. 7010.98  14
  -5  -1  -7 140774. 6288.34  11
  -5  -1  -8 26681.2 2867.14  14
  -5  -1  -9 126788. 5607.24  14
  -5  -1 -10 4637.63 805.980  13
   5   2 -13 61454.3 3011.98  16
   5   2 -12 5517.65 1161.55  16
   5   2 -11 3210.00 943.595   8
   5   2 -11 5191.83 1295.72  16
   5   2 -10 44249.3 3868.80   8
   5   2 -10 36971.6 4032.25  16
   5   2  -9 162376. 7762.17   8
   5   2  -9 135376. 8213.85  16
   5   2  -8 30395.5 3375.87   8
   5   2  -8 33901.2 3180.27  17
   5   2  -8 23145.0 3366.54  16
   5   2  -7 3612.46 1024.18  17
   5   2  -7 2899.53 1237.59  16
   5   2  -6 145347. 7369.48  17
   5   2  -6 111985. 6914.14  16
   5   2  -5 87.1592 374.850  17
   5   2  -5 1443.92 761.631  16
   5   2  -5 1673.65 696.392  19
   5   2  -4 189153. 8260.11  17
   5   2  -4 175808. 7547.89  16
   5   2  -4 184963. 6914.86  19
  -5  -2   3 75714.3 4256.93   1
   5   2  -3 75403.7 4457.20  19
   5   2  -3 74297.6 4897.59  17
  -5  -2   2 41550.9 3250.95   1
   5   2  -2 37590.0 3175.32  19
   5   2  -2 32441.3 2437.02   6
   5   2  -2 40536.2 3410.77  17
  -5  -2   1 1641.96 700.001   1
   5   2  -1 1791.03 747.482  19
   5   2  -1 1220.70 697.586  17
  -5  -2   0 692639. 15642.5   1
   5   2   0 684099. 14245.3  17
   5   2   0 684812. 14889.9  19
   5   2   1 57395.9 3807.89  19
  -5  -2  -1 64502.4 4515.58   1
   5   2   1 54741.7 3484.58  17
   5   2   2 352047. 9223.28  17
   5   2   2 348493. 9575.72  19
  -5  -2  -3 95316.7 5476.07  11
  -5  -2  -3 96800.2 5699.85   4
  -5  -2  -4 2203.36 854.211   4
  -5  -2  -4 1345.92 604.359  11
  -5  -2  -5 4112.25 1308.74  14
  -5  -2  -5 3560.62 1018.06  11
  -5  -2  -6 150658. 7622.66  14
  -5  -2  -6 148517. 6579.68  11
  -5  -2  -7 3382.24 1102.63  14
  -5  -2  -8 87512.1 4976.60  14
  -5  -2  -9 534.251 356.425  14
   5   3 -13 3061.87 707.533  16
   5   3 -12 851.373 531.104  16
   5   3 -11 45249.6 4061.82  16
   5   3 -10 16553.8 2690.77  16
   5   3  -9 19703.0 2410.14  17
   5   3  -9 10273.0 2094.45  16
   5   3  -8 118827. 6401.31   8
   5   3  -8 106963. 6430.89  17
   5   3  -7 78399.5 5701.76  17
   5   3  -7 77981.0 5814.60  16
   5   3  -6 9761.93 1907.05  17
   5   3  -6 11494.1 2082.62  16
   5   3  -5 22674.9 2984.34  17
   5   3  -5 19651.9 2571.72  16
   5   3  -4 19771.4 2423.89  19
   5   3  -4 14865.0 2370.06  17
   5   3  -3 24062.7 2754.67  19
   5   3  -3 20752.9 2726.52  17
   5   3  -2 17534.2 2392.96  19
   5   3  -2 14928.4 1814.01   6
   5   3  -2 18500.8 2521.02  17
   5   3  -1 292205. 10108.6  19
   5   3  -1 298424. 9796.77  17
  -5  -3   1 301735. 9372.47   4
   5   3   0 62841.9 4493.42  19
   5   3   0 61340.2 3948.79  17
  -5  -3   0 56109.4 4085.19   4
   5   3   1 444586. 12149.6  19
  -5  -3  -1 421870. 12076.3   4
   5   3   2 51098.5 3724.04  19
  -5  -3  -2 47516.1 3962.53   4
  -5  -3  -3 465.050 226.723   4
  -5  -3  -3 1282.46 833.882  11
  -5  -3  -4 5156.87 1277.06  11
  -5  -3  -5 170742. 6970.52  11
  -5  -3  -6 10166.6 1867.48  14
  -5  -3  -6 7301.97 1310.58  11
  -5  -3  -7 71784.9 4713.11  14
  -5  -3  -8 1204.62 652.157  14
  -5  -3  -9 875.009 395.846  14
   5   4 -13 17892.4 1580.35  16
   5   4 -12 46412.5 3400.25  16
   5   4 -11 19500.8 2626.92  16
   5   4 -10 196250. 7081.81  17
   5   4 -10 142027. 7948.56  16
   5   4  -9 51269.5 4272.76  17
   5   4  -9 46516.9 4615.34  16
   5   4  -8 76783.7 5725.73  17
   5   4  -8 92592.4 6364.40  16
   5   4  -7 1202.64 1101.21  17
   5   4  -7 2801.94 1031.97  16
   5   4  -6 925.142 662.235  19
   5   4  -6 1396.68 856.316  16
   5   4  -5 2596.59 440.915  17
   5   4  -5 5433.54 1260.91  16
   5   4  -4 78026.6 5162.14  19
   5   4  -4 47022.0 4409.80  17
   5   4  -3 11955.6 1786.61   6
   5   4  -3 12805.8 2152.19  19
   5   4  -3 7611.09 1651.21  17
   5   4  -2 109004. 6411.18  19
   5   4  -2 102582. 5286.06   6
   5   4  -2 108015. 6434.52  17
   5   4  -1 28523.3 3243.35  19
   5   4  -1 25765.4 2614.43   6
   5   4  -1 35460.4 3397.04  17
   5   4   0 183746. 7309.77   6
   5   4   0 205900. 8807.57  19
   5   4   0 209089. 7600.59  17
  -5  -4   0 201771. 8153.06   4
   5   4   1 5568.97 1402.19  19
  -5  -4  -1 5441.05 1349.33   4
  -5  -4  -2 1693.23 754.019   4
   5   4   2 1503.78 650.835  19
  -5  -4  -3 11437.3 1907.90  11
   5   4   3 10401.0 1573.31  19
  -5  -4  -4 206877. 7743.83  11
  -5  -4  -5 25.5284 287.183  11
  -5  -4  -6 30470.6 3162.14  14
  -5  -4  -7 7331.38 1405.83  14
  -5  -4  -8 29369.2 2285.86  14
   5   5 -13 46329.0 2305.69  16
   5   5 -12 6250.78 1206.93  16
   5   5 -11 130766. 6652.76  16
   5   5 -10 23222.9 2502.38  17
   5   5 -10 14912.3 2350.36  16
   5   5  -9 21797.0 2827.51  17
   5   5  -9 21940.8 3080.01  16
   5   5  -8-1056.23 1497.67  17
   5   5  -8 530.400 455.019  16
   5   5  -7 791.623 658.361  16
   5   5  -6 16941.6 2206.37  19
   5   5  -6 10850.8 1847.89  16
   5   5  -5 35818.1 3503.12  19
   5   5  -4 31238.0 3465.19  19
   5   5  -4 13815.8 2218.38  17
   5   5  -3 38085.6 3337.23   6
   5   5  -3 34413.9 3706.02  17
   5   5  -3 43486.7 4156.86  19
   5   5  -2 13833.6 2331.28  19
   5   5  -2 12324.7 1894.18   6
   5   5  -2 14068.6 2315.51  17
   5   5  -1-649.493 680.705  19
   5   5  -1-109.824 304.245   6
   5   5  -1-105.179 645.054  17
   5   5   0 56201.9 4611.01  19
   5   5   0 54559.2 4159.55   6
   5   5   0 58353.7 3860.25  17
   5   5   1 23480.2 2882.42  19
   5   5   2 64524.0 4486.30  19
  -5  -5  -3 35037.7 3279.61  11
   5   5   3 36278.9 2907.98  19
  -5  -5  -4 876.026 422.474  11
  -5  -5  -4 1024.37 540.807  18
  -5  -5  -5 35291.0 2760.46  18
  -5  -5  -6-473.552 588.864  14
  -5  -5  -7 64543.1 3604.26  14
   5   6 -12 75102.3 3612.86  16
   5   6 -11 301.272 196.842  17
   5   6 -11 647.304 373.262  16
   5   6 -10 26747.5 2679.67  17
   5   6 -10 18171.9 2525.49  16
   5   6  -9-1061.76 1207.75  17
   5   6  -9 442.112 533.653  16
   5   6  -8 44028.4 4043.80  16
   5   6  -7 71239.3 4046.42  19
   5   6  -7 56711.6 4386.14  16
   5   6  -6 59642.8 4281.02  19
   5   6  -5 67987.1 5100.55  19
   5   6  -4 4646.33 1317.37  19
   5   6  -4 307.409 993.705  17
   5   6  -3 738.093 539.996  19
   5   6  -3-799.023 1021.29  17
   5   6  -2 68085.3 5251.39  19
   5   6  -2 86602.0 5702.89  17
   5   6  -1 67987.6 5183.46  19
   5   6  -1 99828.3 5467.71  17
   5   6   0 104878. 6225.85  19
   5   6   1 158128. 7471.87  19
   5   6   2 35464.0 3181.26  19
  -5  -6  -3 2358.15 755.222  11
  -5  -6  -4 655.348 437.986  11
  -5  -6  -4 479.787 308.235  18
  -5  -6  -5 2654.51 758.455  18
  -5  -6  -6 44951.6 3016.23  14
   5   7 -11 299.023 290.858  17
   5   7 -11 988.353 497.463  16
   5   7 -10 241.023 274.263  17
   5   7 -10 266.835 268.429  16
   5   7  -9 76209.6 5179.22  17
   5   7  -9 68481.9 4609.52  16
   5   7  -8 66558.6 5248.57  17
   5   7  -8 74435.7 4803.57  16
   5   7  -7 126967. 5309.45  19
   5   7  -6 130896. 6335.21  19
   5   7  -6 70337.0 5467.55  17
   5   7  -5 4627.90 1274.71  19
   5   7  -5-1226.31 1336.52  17
   5   7  -4 13871.0 2397.38  19
   5   7  -4 8976.12 1827.27  17
   5   7  -3 224890. 9786.87  19
   5   7  -3 227734. 9552.16  17
   5   7  -2 69782.6 5251.64  19
   5   7  -2 90517.5 5401.33  17
   5   7  -1 124113. 6818.40  19
   5   7   0 76264.1 5159.31  19
   5   7   1 62314.9 4334.11  19
   5   7   2 21355.5 2266.55  19
  -5  -7  -3 9270.32 1293.86  11
  -5  -7  -4 5887.03 1040.82  18
  -5  -7  -5 51900.1 3140.67  14
  -5  -7  -5 39345.1 2169.12  18
   5   8 -10 102647. 4146.07  17
   5   8 -10 92423.5 3470.03  16
   5   8  -9 1037.49 271.881  17
   5   8  -9 1232.46 478.952  16
   5   8  -8 124233. 6524.12  17
   5   8  -7 34521.3 2445.18  19
   5   8  -7 28163.8 3133.14  17
   5   8  -6 810.745 539.680  19
   5   8  -6-647.447 1016.78  17
   5   8  -5 22205.0 2734.25  19
   5   8  -5 14636.8 2236.09  17
   5   8  -4 158068. 7851.26  19
   5   8  -4 153199. 7360.04  17
   5   8  -3 2304.29 677.243  19
   5   8  -3 2353.67 865.233  17
   5   8  -2 188544. 8312.25  19
   5   8  -1 19421.1 2468.71  19
   5   8   0 10724.3 1736.86  19
   5   8   1 1583.79 695.007  19
   5   8   2 21022.5 1743.44  19
  -5  -8  -2 18769.1 1741.57  11
  -5  -8  -3 19968.6 1882.28  18
   5   9  -9 82648.5 3510.57  17
   5   9  -8 1412.93 468.037  17
   5   9  -7 4419.34 971.906  17
   5   9  -6 4090.99 910.704  19
   5   9  -6 3828.81 964.737  17
   5   9  -5 40217.3 3118.46  19
   5   9  -5 38542.3 3045.66  17
   5   9  -4 20499.7 2400.50  19
   5   9  -4 20964.6 2051.78  17
   5   9  -3 188928. 7563.94  19
   5   9  -2 14742.2 1972.27  19
   5   9  -1 337.014 284.454  19
   5   9   0 12690.7 1561.65  19
  -5  -9  -1 37403.9 2122.53  11
   5   9   1 37465.3 2173.99  19
  -5  -9  -2 39314.8 2371.80  18
   5  10  -6 27226.5 1614.35  17
   5  10  -5 5782.11 851.583  19
   5  10  -4 7685.38 1090.98  19
   5  10  -3 2438.47 608.883  19
   5  10  -2 1339.35 470.309  19
   5  10  -1 9659.20 1067.96  19
   6 -10  -2 2059.48 518.972   7
   6 -10  -1 13555.6 1343.41   7
   6 -10   0 18737.6 1582.25   7
   6 -10   1 42935.6 2337.60   7
   6 -10   2 2806.70 574.629   7
   6  -9  -5 1124.99 390.276   7
   6  -9  -4 13600.4 1549.34   7
   6  -9  -3 14972.4 1703.95   7
   6  -9  -2 8077.26 1298.79   7
   6  -9  -1 666.573 453.632   7
   6  -9   0 31251.8 2548.63   7
   6  -9   1 4896.83 1009.93   7
   6  -9   2 69935.1 3575.69   7
   6  -9   3 3717.16 754.309   7
   6  -9   4 3884.45 647.169   7
  -6   9  -4 3436.99 582.172  11
   6  -8  -7 30525.0 2159.04   7
   6  -8  -6 6440.97 1158.88   7
   6  -8  -5 3360.81 861.328   7
   6  -8  -4 36867.2 2979.02   7
   6  -8  -3 10565.3 1648.97   7
   6  -8  -2 56702.6 3803.55   7
   6  -8  -1 23944.1 2468.56   7
   6  -8   0 806.476 636.169   7
   6  -8   1-145.649 253.551   7
   6  -8   2 439.262 389.151   7
  -6   8  -2 302.918 255.059  11
   6  -8   3 1178.85 560.938   7
  -6   8  -3 1754.56 649.617  11
   6  -8   4 3241.55 730.727   7
  -6   8  -4 4564.93 1026.33  11
   6  -8   5 110475. 3642.42   7
  -6   8  -5 116520. 4702.18  11
  -6   8  -6 27051.2 1942.99  11
   6  -7  -7 495.191 472.742   7
   6  -7  -6 22802.7 2456.75   7
   6  -7  -5 46219.4 3593.16   7
   6  -7  -4 107064. 5620.81   7
   6  -7  -3 129071. 6185.84   7
   6  -7  -3 121510. 6687.61   9
   6  -7  -2 30483.0 2948.39   7
   6  -7  -2 29883.5 3484.55   9
   6  -7  -1 39839.3 3341.21   7
   6  -7  -1 38137.8 3987.24   9
   6  -7   0 5628.39 1242.89   7
   6  -7   0 4531.52 1494.37   9
   6  -7   1 6273.84 1248.33   7
  -6   7  -1 6368.89 1257.13  11
   6  -7   1 8342.06 1813.10   9
   6  -7   2 64127.1 4085.42   7
  -6   7  -2 59279.4 4241.90  11
   6  -7   2 64788.2 4814.17   9
   6  -7   3 13152.8 1729.94   7
  -6   7  -3 15224.5 2186.99  11
   6  -7   4 102544. 4408.34   7
  -6   7  -4 103763. 5553.55  11
  -6   7  -5 11991.5 1780.98  11
  -6   7  -6 112220. 4960.45  11
  -6   7  -7 1361.01 464.031  11
   6  -6  -8 11617.7 1708.04   7
   6  -6  -8 11975.5 1416.94   8
   6  -6  -7 57514.6 4126.62   7
   6  -6  -7 51147.9 3376.02   8
   6  -6  -6 22137.5 2646.74   7
   6  -6  -6 19295.7 2208.25   8
   6  -6  -5 199611. 8089.80   7
   6  -6  -5 184891. 7563.97   9
   6  -6  -4 135141. 6567.38   7
   6  -6  -4 117199. 6520.62   9
   6  -6  -3 91553.3 5299.13   7
   6  -6  -3 88545.7 5986.67   9
   6  -6  -2 36288.6 3253.40   7
   6  -6  -2 41474.7 4221.11   9
   6  -6  -1 6459.90 1408.38   7
   6  -6  -1 5731.70 1617.89   9
   6  -6   0 1060.00 651.501   7
   6  -6   0 1228.28 1037.96   9
   6  -6   1 133047. 6152.81   7
  -6   6  -1 137119. 6808.72  11
   6  -6   1 130150. 7426.66   9
   6  -6   2 31405.7 2817.46   7
  -6   6  -2 33077.8 3460.24  11
   6  -6   2 35815.5 3729.55   9
   6  -6   3 56462.6 3586.27   7
  -6   6  -3 54810.9 4504.79  11
   6  -6   3 58760.8 4464.81   9
  -6   6  -4 2203.68 1074.10  11
   6  -6   4 1964.52 668.332   9
  -6   6  -5 8966.38 1652.35  11
  -6   6  -6 415.556 303.746  11
  -6   6  -7 7118.30 1181.21  11
  -6   6  -8 3718.75 679.807  11
   6  -5  -9 20502.7 2144.38   8
   6  -5  -8 65415.7 4472.36   7
   6  -5  -8 57219.6 4103.80   8
   6  -5  -7 4609.76 1237.24   8
   6  -5  -7 5703.32 1311.61   7
   6  -5  -6 255426. 9659.02   8
   6  -5  -6 275291. 9849.17   7
   6  -5  -5 6519.62 1502.97   8
   6  -5  -5 6465.57 1399.01   7
   6  -5  -5 7863.47 1554.04   9
   6  -5  -4 14060.8 2201.97   8
   6  -5  -4 15161.6 2160.13   7
   6  -5  -4 15761.0 2400.86   9
   6  -5  -3 48205.4 3876.45   8
   6  -5  -3 53874.4 4046.08   7
   6  -5  -3 53832.1 4728.68   9
   6  -5  -2 38884.7 3315.07   7
   6  -5  -2 39543.0 4133.60   9
   6  -5  -1 20877.9 2413.65   7
   6  -5  -1 18933.9 2892.82   9
   6  -5   0 68223.3 4312.73   7
  -6   5   0 65412.5 4637.49  11
   6  -5   0 69331.1 5451.90   9
   6  -5   1 26682.6 2608.88   7
  -6   5  -1 32415.6 3477.62  11
   6  -5   1 29190.5 3453.98   9
  -6   5  -2 4530.82 1512.56  11
   6  -5   2 2061.76 829.859   9
  -6   5  -3 7521.65 1895.05  11
   6  -5   3 6456.88 1553.16   9
  -6   5  -4 8001.99 1896.02  11
   6  -5   4 5191.84 1167.13   9
  -6   5  -5 51439.2 4298.53  11
  -6   5  -6 17575.8 2375.52  11
  -6   5  -7 25510.7 2454.87  11
  -6   5  -8 5691.17 947.426  11
   6  -4 -10 1948.34 664.355   8
   6  -4  -9 9654.00 1725.12   8
   6  -4  -8 5500.83 1416.24   8
   6  -4  -8 8144.08 1661.43   7
   6  -4  -7 79349.4 5570.48   8
   6  -4  -7 82345.9 5362.02   7
   6  -4  -6 3310.76 1282.12   8
   6  -4  -6 5831.27 1348.27   7
   6  -4  -5 91518.0 6023.63   8
   6  -4  -5 89655.6 5360.34   7
   6  -4  -5 93851.1 5747.49   9
   6  -4  -4 20442.9 2464.46   7
   6  -4  -4 20459.9 2817.34   9
   6  -4  -3 59378.0 4019.91   7
   6  -4  -3 64278.8 5166.05   9
  -6   4   2 37611.7 3730.55   1
   6  -4  -2 37346.7 3080.80   7
   6  -4  -2 42681.5 4291.63   9
  -6   4   1 122851. 6896.84   1
   6  -4  -1 132399. 7513.48   9
  -6   4   0 71372.9 5224.68   1
  -6   4   0 67211.1 4893.06  11
   6  -4   0 71470.9 5394.63   9
  -6   4  -1 3418.77 1165.99  11
   6  -4   1 3191.89 1278.27   9
  -6   4  -2 521.182 758.070  11
   6  -4   2 93.7363 672.112   9
  -6   4  -3 133253. 7387.97  11
   6  -4   3 138067. 6908.40   9
  -6   4  -4 142348. 7601.27  11
   6  -4   4 148254. 6515.19   9
  -6   4  -5 83878.5 5626.97  11
  -6   4  -6 101075. 5781.68  11
  -6   4  -7 9724.78 1593.37  11
  -6   4  -8 3003.22 749.150  11
   6  -3 -11 72520.4 3927.76   8
   6  -3 -10 1494.18 622.575   8
   6  -3  -9 6988.29 1605.87   8
   6  -3  -8 2558.10 1060.36   8
   6  -3  -8 3839.03 1068.26   7
   6  -3  -7 7983.08 1720.94   8
   6  -3  -7 11093.8 1969.14   7
   6  -3  -6 399.079 705.378   8
   6  -3  -6 920.262 664.879   7
   6  -3  -5 59699.5 4190.98   7
   6  -3  -5 64087.5 4781.96   9
  -6   3   4 57472.5 4451.40   1
   6  -3  -4 51556.9 3679.51   7
   6  -3  -4 54401.2 4556.37   9
  -6   3   3 43354.5 3918.89   1
   6  -3  -3 46992.5 4284.81   9
  -6   3   2 101530. 6084.49   1
   6  -3  -2 105085. 6431.11   9
  -6   3   1 48386.1 4192.19   1
  -6   3   1 53375.8 4059.06  11
   6  -3  -1 58209.6 4685.17   9
  -6   3   0 11801.4 2057.68   1
  -6   3   0 13666.7 2167.33  11
   6  -3   0 12229.5 2163.48   9
  -6   3  -1 68470.3 4967.84  11
  -6   3  -1 72054.4 5035.86   1
   6  -3   1 66097.8 4850.20   9
  -6   3  -2 210893. 9144.72  11
   6  -3   2 210159. 8553.83   9
  -6   3  -3 85050.8 5797.00  11
   6  -3   3 86202.1 5231.11   9
  -6   3  -4 244039. 10049.3  11
  -6   3  -5 169258. 8088.14  11
  -6   3  -6-69.6059 465.426  11
  -6   3  -7 11677.6 1729.33  11
  -6   3  -8 35404.9 2476.59  11
   6  -2 -11 3375.82 960.997   8
   6  -2 -10 26798.7 3046.33   8
   6  -2  -9 11561.2 2048.32   8
   6  -2  -8 23277.6 3174.50   8
   6  -2  -7 14649.0 2541.83   8
   6  -2  -7 16813.9 2358.25   7
   6  -2  -6 77369.3 4826.93   7
   6  -2  -5 85396.5 4923.73   3
   6  -2  -5 86605.4 4672.47  17
   6  -2  -5 94261.5 5668.97   9
  -6   2   4 80158.5 4874.24   1
   6  -2  -4 71945.0 4369.88  17
  -6   2   3 68954.6 4666.18   1
   6  -2  -3 66175.5 4256.53  17
  -6   2   2 19556.2 2514.21   1
   6  -2  -2 17399.3 2179.13  17
  -6   2   1 2186.92 772.701  11
   6  -2  -1 1302.71 587.037  17
  -6   2   1 3249.71 1167.64   1
  -6   2   0 3388.52 1142.31   1
  -6   2   0 4158.20 1300.87  11
  -6   2  -1 192331. 8113.79  11
  -6   2  -1 203177. 8427.87   1
  -6   2  -2 1524.44 971.396  11
  -6   2  -2 1109.27 548.770   1
  -6   2  -3 202796. 8856.20  11
   6  -2   3 221847. 8132.70   9
  -6   2  -4 38347.7 3393.49  14
  -6   2  -4 44400.0 4120.79  11
  -6   2  -5 31038.5 3351.77  11
  -6   2  -5 23843.4 2736.95  14
  -6   2  -6 30200.1 3133.07  11
  -6   2  -6 26686.3 2891.48  14
  -6   2  -7 50349.4 3642.55  11
  -6   2  -8 19428.3 1839.24  13
  -6   2  -8 17904.3 1680.05  11
   6  -1 -12 7643.54 1132.31   8
   6  -1 -11 97239.6 5290.13   8
   6  -1 -10 28034.2 3109.69   8
   6  -1  -9 14028.0 2446.32   8
   6  -1  -9 18913.7 2383.43  16
   6  -1  -8 129912. 7644.66   8
   6  -1  -8 151971. 7197.38  16
   6  -1  -7 189801. 8185.54  16
   6  -1  -6 55976.0 3592.79  17
   6  -1  -6 59297.1 4413.13  16
   6  -1  -6 59839.4 4230.31   9
   6  -1  -5 49819.4 3495.60  17
   6  -1  -5 49941.8 3859.89  16
  -6   1   4 7870.50 1338.94   1
   6  -1  -4 7475.80 1356.23  17
  -6   1   3 4328.19 1056.21   1
   6  -1  -3 4041.25 1038.92  17
  -6   1   2 4858.34 1258.08   1
  -6   1   2 3607.36 977.282  11
   6  -1  -2 4960.99 1081.81  17
  -6   1   1 6721.08 1434.21   1
  -6   1   1 6946.90 1335.64  11
   6  -1  -1 6017.85 1269.92  17
  -6   1   0 60891.4 4140.97  11
  -6   1   0 64432.6 4476.19   1
   6  -1   0 58054.0 4069.07  17
  -6   1  -1 6682.60 1471.96   1
  -6   1  -1 5325.67 1239.37  11
   6  -1   1 3970.44 1194.78  17
  -6   1  -2 102290. 5833.72  11
  -6   1  -2 108164. 6051.87   1
  -6   1  -3 2005.88 1000.27  11
  -6   1  -4 40587.4 3529.06  14
  -6   1  -4 37066.2 3670.76  11
  -6   1  -5 357.294 463.335  14
  -6   1  -5 9.16098 574.044  11
  -6   1  -6 67591.2 4616.53  14
  -6   1  -6 72556.9 4807.46  11
  -6   1  -7 2293.78 752.544  14
  -6   1  -7 2966.75 856.940  11
  -6   1  -8 60635.7 3468.81  13
  -6   1  -8 56947.7 2815.94  11
   6   0 -12 39536.4 2612.69   8
   6   0 -11 8697.43 1579.85   8
   6   0 -10 3329.28 1115.87   8
   6   0 -10 6579.24 1389.10  16
   6   0  -9 122437. 7160.67   8
   6   0  -9 140762. 6952.67  16
   6   0  -8 80322.8 5976.49   8
   6   0  -8 108189. 6240.76  16
   6   0  -7 37113.3 3677.95  16
   6   0  -6 16333.6 1988.49  17
   6   0  -6 16128.7 2361.41  16
   6   0  -5 25028.7 2545.21  17
   6   0  -5 26430.9 2906.61  16
   6   0  -4 103082. 5303.56  17
   6   0  -4 111116. 5541.99  16
  -6   0   3 11913.4 1640.44   1
   6   0  -3 11168.1 1749.55  17
  -6   0   2 57222.2 3731.02  11
  -6   0   2 53484.3 3731.70   1
   6   0  -2 52331.6 3753.48  17
  -6   0   1 5591.64 1257.52   1
  -6   0   1 5608.69 1209.98  11
   6   0  -1 4643.87 1113.40  17
  -6   0   0 28038.5 2808.29  11
   6   0   0 29884.5 2859.56  17
  -6   0   0 31354.7 3069.50   1
  -6   0  -1 12419.7 1973.26   1
  -6   0  -1 12873.4 1942.17  11
   6   0   1 11441.2 1799.23  17
  -6   0  -2 44345.7 3770.96   1
  -6   0  -2 40271.5 3572.53  11
  -6   0  -3 1693.52 806.732  11
  -6   0  -4 35771.5 3289.69  14
  -6   0  -4 33083.8 3393.10  11
  -6   0  -5 13432.9 2111.49  14
  -6   0  -5 13195.8 2114.66  11
  -6   0  -6 8976.90 1616.73  14
  -6   0  -6 8089.56 1566.43  11
  -6   0  -7 41885.1 3358.90  14
  -6   0  -7 42063.9 2958.94  11
  -6   0  -8 6801.28 1173.66  14
   6   1 -12 6693.87 966.136   8
   6   1 -11 15204.9 1862.54  16
   6   1 -11 12763.3 1837.39   8
   6   1 -10 16754.7 2371.99   8
   6   1 -10 21951.9 2590.71  16
   6   1  -9 39272.8 3951.15   8
   6   1  -9 51923.4 4300.87  16
   6   1  -8 2373.01 1043.38   8
   6   1  -8 4249.75 1308.68  16
   6   1  -7 1301.01 615.070  17
   6   1  -7 860.442 609.942  16
   6   1  -6 53664.2 3926.29  17
   6   1  -6 51666.0 4295.35  16
   6   1  -5 135832. 6449.72  17
   6   1  -5 140453. 6704.72  16
   6   1  -4 14956.1 2136.57  17
   6   1  -4 15255.3 1998.59  16
  -6  -1   3 242794. 8087.01  11
   6   1  -3 237798. 8532.35  17
  -6  -1   3 228756. 7605.83   1
  -6  -1   2 7128.04 1411.75  11
  -6  -1   2 4948.96 1079.52   1
   6   1  -2 7309.48 1433.56  17
  -6  -1   1 13053.9 1904.21   1
  -6  -1   1 14454.3 2035.36  11
   6   1  -1 13283.4 1906.62  17
  -6  -1   0 120094. 5972.52   1
  -6  -1   0 117226. 6023.49  11
   6   1   0 116873. 5751.41  17
  -6  -1  -1 54281.2 4086.95   1
  -6  -1  -1 54964.9 4150.22  11
   6   1   1 50175.5 3702.72  17
  -6  -1  -2 33126.0 3310.01  11
   6   1   2 30967.7 2854.45  17
  -6  -1  -3 150191. 6765.99  14
  -6  -1  -3 144415. 7038.64  11
  -6  -1  -4 4979.27 1318.56  14
  -6  -1  -4 4832.31 1204.17  11
  -6  -1  -5 20444.8 2555.03  14
  -6  -1  -5 24804.5 2718.64  11
  -6  -1  -6 12385.5 1916.26  14
  -6  -1  -6 10020.6 1607.78  11
  -6  -1  -7 4924.57 1112.85  14
  -6  -1  -7 3406.56 699.620  11
  -6  -1  -8 5464.24 985.373  14
   6   2 -12 20381.5 1764.10  16
   6   2 -11 18005.5 2072.57  16
   6   2 -11 16680.6 1894.98   8
   6   2 -10 23414.5 2671.03   8
   6   2 -10 31228.1 3082.91  16
   6   2  -9 15394.9 2384.77   8
   6   2  -9 18744.1 2670.37  16
   6   2  -8 1220.12 719.165   8
   6   2  -8 933.432 761.420  17
   6   2  -8-182.488 362.223  16
   6   2  -7 163150. 7172.86  17
   6   2  -7 155640. 7828.79  16
   6   2  -6 203914. 8368.09  17
   6   2  -6 201439. 8479.29  16
   6   2  -5 142384. 7048.13  17
   6   2  -5 141159. 6613.41  16
   6   2  -4 266993. 9770.14  17
   6   2  -3 1880.92 742.180  17
  -6  -2   2 27133.0 2668.39   1
   6   2  -2 30202.4 3105.59  17
  -6  -2   1 79706.7 4752.78   1
   6   2  -1 90317.9 5220.44  17
   6   2   0 180876. 7198.66  17
  -6  -2   0 181778. 7483.12   1
  -6  -2   0 176029. 6966.50   4
  -6  -2  -1 250817. 9460.11  11
   6   2   1 235074. 8111.53  17
  -6  -2  -1 241492. 8460.15   4
  -6  -2  -2 9410.49 1786.72  11
   6   2   2 8644.91 1423.86  17
  -6  -2  -3 48652.3 3879.75  14
  -6  -2  -3 43670.8 3792.85  11
  -6  -2  -4 19886.6 2534.94  14
  -6  -2  -4 18222.7 2378.03  11
  -6  -2  -5 180.654 318.050  14
  -6  -2  -5 367.264 597.405  11
  -6  -2  -6 2656.37 875.818  14
  -6  -2  -6 2924.38 822.010  11
  -6  -2  -7 2378.93 675.862  14
  -6  -2  -8 1712.48 535.026  14
   6   3 -12 1059.53 343.794  16
   6   3 -11 15364.5 1916.90  16
   6   3 -10 2019.41 1008.10  16
   6   3  -9 19616.4 2442.61   8
   6   3  -9 24260.4 2316.80  17
   6   3  -9 23691.6 2931.05  16
   6   3  -8 33894.2 3442.78   8
   6   3  -8 41845.2 3491.49  17
   6   3  -8 39952.2 3882.12  16
   6   3  -7 66778.1 4784.49  17
   6   3  -7 57202.2 4514.22  16
   6   3  -6 199787. 8661.58  17
   6   3  -6 175150. 7584.30  16
   6   3  -5 187524. 8395.82  17
   6   3  -5 176019. 7087.40  16
   6   3  -4 3572.88 1189.63  17
   6   3  -4 6195.14 1347.44  19
   6   3  -3 23018.4 2730.12  19
   6   3  -3 22338.7 2881.10  17
   6   3  -2 116982. 6229.80  19
   6   3  -2 123667. 6454.13  17
   6   3  -1 18637.9 2471.01  19
   6   3  -1 16679.8 2247.87  17
   6   3   0 61043.2 4379.45  19
   6   3   0 64137.0 4173.24  17
  -6  -3  -1 96358.2 5931.06  11
   6   3   1 84493.3 4582.76  17
  -6  -3  -2 51126.7 4178.93  11
  -6  -3  -3 4232.09 1157.42  14
  -6  -3  -3 3306.25 1011.96  11
  -6  -3  -4 973.508 625.452  14
  -6  -3  -4 590.443 294.011  11
  -6  -3  -5 8647.94 1550.39  14
  -6  -3  -5 8337.22 1363.46  11
  -6  -3  -6 5181.30 1079.75  14
  -6  -3  -6 5144.90 888.331  11
  -6  -3  -7 19177.2 1820.53  14
   6   4 -12 4152.69 747.967  16
   6   4 -11 37134.0 2830.85  16
   6   4 -10 19106.2 1730.03  17
   6   4 -10 18736.7 2369.63  16
   6   4  -9 1430.83 674.171  17
   6   4  -9 784.339 614.898  16
   6   4  -8 26319.4 2867.15  17
   6   4  -8 22301.0 2799.70  16
   6   4  -7 94767.2 5821.84  17
   6   4  -7 80005.7 5010.70  16
   6   4  -6 8929.19 1888.96  17
   6   4  -6 7084.14 1411.00  16
   6   4  -5 56626.0 4585.89  17
   6   4  -5 55698.8 4007.92  19
   6   4  -4 8986.19 1765.68  19
   6   4  -4 7704.52 1696.52  17
   6   4  -3 22241.2 2744.47  19
   6   4  -3 22502.6 2802.32  17
   6   4  -2 1865.37 918.338  19
   6   4  -2 2493.05 929.705  17
   6   4  -1 187066. 7982.35  19
   6   4  -1 197889. 7826.52  17
   6   4   0 37203.3 3409.89  19
   6   4   0 38492.0 3134.92  17
   6   4   1 463.375 528.722  19
   6   4   1 793.064 463.114  17
  -6  -4  -2 5212.80 1350.80  11
  -6  -4  -3 16685.4 2189.92  11
  -6  -4  -4 37974.4 3232.85  14
  -6  -4  -4 36211.9 2924.48  11
  -6  -4  -5 23884.5 2416.66  14
  -6  -4  -5 24437.7 2044.31  11
  -6  -4  -6 18754.6 1864.18  14
   6   5 -12 6226.37 784.918  16
   6   5 -11 26753.5 2188.58  16
   6   5 -10 15024.4 1538.33  17
   6   5 -10 16030.1 2001.84  16
   6   5  -9 28211.3 2640.61  17
   6   5  -9 25700.3 2723.91  16
   6   5  -8 6864.78 1521.41  17
   6   5  -8 5291.80 1264.61  16
   6   5  -7 34646.4 3463.19  17
   6   5  -7 27608.5 2684.41  16
   6   5  -6 22884.0 2339.45  19
   6   5  -6 22731.3 2849.15  17
   6   5  -5 77946.0 4872.74  19
   6   5  -5 79939.1 5280.51  17
   6   5  -4 8481.19 1668.26  19
   6   5  -4 6957.13 1562.72  17
   6   5  -3 3775.01 1211.51  19
   6   5  -3 3150.87 1046.95  17
   6   5  -2 17744.4 2450.34  19
   6   5  -2 21483.5 2598.75  17
   6   5  -1 1984.74 796.641  19
   6   5  -1 1102.19 552.122  17
   6   5   0 75.6513 394.010  19
   6   5   0 724.976 595.756  17
   6   5   1 12686.4 1848.47  19
  -6  -5  -2 51770.7 3919.39  11
  -6  -5  -3 49491.8 3459.63  11
  -6  -5  -4 35980.7 2887.20  14
  -6  -5  -4 33386.0 2448.80  11
  -6  -5  -5 67223.0 3527.36  14
  -6  -5  -6 3043.66 605.913  14
   6   6 -11 2731.30 559.596  16
   6   6 -10 11520.3 1302.64  17
   6   6 -10 10235.1 1325.90  16
   6   6  -9 17460.4 1985.21  17
   6   6  -9 16939.1 1867.37  16
   6   6  -8 72198.9 4667.67  17
   6   6  -8 65668.9 3727.45  16
   6   6  -7 2891.79 944.687  17
   6   6  -6 123128. 5460.39  19
   6   6  -6 131227. 6625.17  17
   6   6  -5 6575.90 1467.87  19
   6   6  -5 4662.20 1291.69  17
   6   6  -4 74095.9 4843.50  19
   6   6  -4 67574.7 4628.76  17
   6   6  -3 1019.15 559.495  19
   6   6  -3 1173.26 716.127  17
   6   6  -2 25841.1 2855.72  19
   6   6  -2 28284.1 2728.90  17
   6   6  -1 2230.43 924.366  19
   6   6  -1 1218.38 628.965  17
   6   6   0 18508.0 2207.76  19
   6   6   1 68364.9 3912.57  19
  -6  -6  -2 19772.9 2146.52  11
  -6  -6  -3 46015.1 2838.25  11
  -6  -6  -4 41892.2 2631.93  14
   6   7 -10 46890.5 2216.54  17
   6   7  -9 54070.0 3167.86  17
   6   7  -8 45103.1 3324.72  17
   6   7  -7 264251. 8856.43  17
   6   7  -6 1830.36 679.824  19
   6   7  -6 1877.59 829.948  17
   6   7  -5 57351.7 3855.80  19
   6   7  -5 56095.5 3946.63  17
   6   7  -4 3700.76 1129.69  19
   6   7  -4 4006.09 1113.35  17
   6   7  -3 9949.24 1688.21  19
   6   7  -3 10618.3 1637.11  17
   6   7  -2 29722.3 2814.32  19
   6   7  -2 29622.9 2396.73  17
   6   7  -1 7901.84 1372.13  19
   6   7   0 33694.8 2662.54  19
  -6  -7  -1 23991.8 2267.27  11
  -6  -7  -2 54920.3 2952.36  11
  -6  -7  -3 5372.47 807.671  14
   6   8  -9 64737.3 2701.32  17
   6   8  -8 101799. 4136.42  17
   6   8  -7 25141.5 2236.77  17
   6   8  -6 38123.3 2782.86  17
   6   8  -5 3610.56 877.354  19
   6   8  -5 4479.21 990.411  17
   6   8  -4 6735.48 1226.15  19
   6   8  -4 7291.58 1146.23  17
   6   8  -3 22426.3 2211.47  19
   6   8  -3 24119.2 1830.81  17
   6   8  -2 37984.6 2805.95  19
   6   8  -1 15728.8 1668.24  19
  -6  -8   0 7247.73 1094.73  11
  -6  -8  -1 3646.15 663.648  11
  -6  -8  -1 2577.34 540.503  18
   6   9  -6 4033.31 635.409  17
   6   9  -5 24532.4 1467.00  17
   6   9  -4 24460.9 1792.51  19
   6   9  -3 53012.1 2699.35  19
   6   9  -2 909.857 368.435  19
  -6  -9   1 1280.35 358.729  11
   7  -8  -4 7375.94 948.220   7
   7  -8  -3 14838.7 1444.18   7
   7  -8  -2 6892.71 993.384   7
   7  -8  -1 33330.8 2178.34   7
   7  -8   0 56124.6 2702.57   7
   7  -8   1 41999.6 2102.35   7
   7  -7  -6 6372.95 934.432   7
   7  -7  -5 15232.0 1592.37   7
   7  -7  -4 53492.9 3139.64   7
   7  -7  -3 25616.1 2210.37   7
   7  -7  -2 71965.0 3733.42   7
   7  -7  -2 77703.2 4527.59   9
   7  -7  -1 50054.7 3018.17   7
   7  -7  -1 56070.9 3835.64   9
   7  -7   0 8094.92 1114.90   7
   7  -7   0 7399.65 1349.43   9
   7  -7   1 3224.21 877.109   9
  -7   7  -2 3839.80 756.892  11
  -7   7  -3 64707.8 3100.60  11
  -7   7  -4 5236.47 838.923  11
  -7   7  -5 114790. 3542.82  11
   7  -6  -7-198.864 141.865   7
   7  -6  -6 31487.9 2473.72   7
   7  -6  -5 57978.1 3526.78   7
   7  -6  -4 25303.2 2363.65   7
   7  -6  -4 25894.6 2574.90   9
   7  -6  -3 96639.8 4692.80   7
   7  -6  -3 100845. 5474.20   9
   7  -6  -2 57579.2 3526.27   7
   7  -6  -2 64706.2 4504.22   9
   7  -6  -1 2500.74 638.519   7
   7  -6  -1 2271.49 805.657   9
   7  -6   0 15711.7 2182.71   9
  -7   6  -1 18886.5 1933.86  11
   7  -6   1 21547.0 2390.96   9
  -7   6  -2 9655.00 1414.94  11
   7  -6   2 9457.51 1455.91   9
  -7   6  -3 2594.05 721.265  11
   7  -6   3 2473.13 683.053   9
  -7   6  -4 73884.7 3759.72  11
  -7   6  -5 754.175 399.571  11
  -7   6  -6 75660.7 2988.54  11
   7  -5  -8 709.547 340.159   8
   7  -5  -7 49468.0 3158.28   7
   7  -5  -7 54321.0 3297.68   8
   7  -5  -6 118076. 5210.40   8
   7  -5  -6 104682. 4957.21   7
   7  -5  -5 27857.8 2559.69   8
   7  -5  -5 24801.6 2410.00   7
   7  -5  -5 27386.1 2620.96   9
   7  -5  -4 1158.57 538.763   8
   7  -5  -4 672.622 550.976   7
   7  -5  -4 926.066 676.760   9
   7  -5  -3 39.5644 424.387   7
   7  -5  -3-482.828 345.372   9
   7  -5  -2 10233.6 1911.52   9
   7  -5  -1 3163.49 1097.72   9
   7  -5   0 55742.5 4199.30   9
  -7   5  -1 3831.78 980.130  11
   7  -5   1 5948.67 1342.00   9
  -7   5  -2 6021.32 1289.37  11
   7  -5   2 6548.12 1345.91   9
  -7   5  -3 16299.2 2052.17  11
   7  -5   3 18207.5 1963.61   9
  -7   5  -4 30976.5 2681.07  11
  -7   5  -5 15566.1 1743.05  11
  -7   5  -6 9429.10 1180.02  11
   7  -4  -9 7505.34 1149.11   8
   7  -4  -8 31976.5 2755.41   8
   7  -4  -7 47245.8 3610.11   8
   7  -4  -7 42674.5 3100.67   7
   7  -4  -6 30109.0 3058.43   8
   7  -4  -6 29944.0 2711.68   7
   7  -4  -6 28074.2 2475.87   9
   7  -4  -5 24030.6 2795.31   8
   7  -4  -5 20562.9 2224.03   7
   7  -4  -5 23523.3 2593.19   9
   7  -4  -4 9735.15 1780.29   9
   7  -4  -3 109913. 6303.20   9
   7  -4  -2 15471.0 2379.49   9
   7  -4  -1 205539. 8661.70   9
  -7   4   0 4371.03 1155.99  11
   7  -4   0 2807.07 1091.00   9
  -7   4  -1 41340.4 3525.56  11
   7  -4   1 40204.5 3502.30   9
  -7   4  -2 1624.87 660.078  11
   7  -4   2 2420.78 817.333   9
  -7   4  -3 27648.2 2856.23  11
   7  -4   3 23843.6 2308.16   9
  -7   4  -4 15242.3 2019.10  11
  -7   4  -5 124482. 5406.16  11
  -7   4  -6 45500.4 2857.28  11
  -7   4  -7 25560.5 1687.82  11
   7  -3 -10 31872.0 2289.42   8
   7  -3  -9 3185.69 844.433   8
   7  -3  -8 38274.4 3360.15   8
   7  -3  -7 26238.4 2935.39   8
   7  -3  -6 27392.8 3067.78   8
   7  -3  -6 29891.1 2728.94   9
   7  -3  -5 29841.1 3042.35   9
   7  -3  -4 92483.7 5677.92   9
   7  -3  -3 126251. 6757.02   9
   7  -3  -2 383505. 12130.7   9
  -7   3   1 20277.2 2320.68  11
   7  -3  -1 19637.9 2639.53   9
  -7   3   0 133010. 6370.71  11
   7  -3   0 127992. 6585.83   9
  -7   3  -1 57986.5 4280.18  11
   7  -3   1 56761.3 4194.89   9
  -7   3  -2 56289.2 4263.98  11
   7  -3   2 60378.0 4084.77   9
  -7   3  -3 40997.2 3534.85  11
   7  -3   3 39906.2 3055.32   9
  -7   3  -4 85732.4 5032.83  11
  -7   3  -5 52302.2 3592.36  11
  -7   3  -6 23295.8 2117.05  11
  -7   3  -7 6503.79 906.862  11
   7  -2 -11 46892.2 2405.83   8
   7  -2 -10 24186.2 2243.14   8
   7  -2  -9 10758.6 1696.38   8
   7  -2  -8 1404.12 826.034   8
   7  -2  -7 2019.11 1001.68   8
   7  -2  -6 12792.9 1883.01   9
   7  -2  -5 33487.8 3233.17   9
   7  -2  -4 194500. 8258.25   9
   7  -2  -3 188709. 8173.51   9
   7  -2  -2 65094.0 4766.96   9
  -7   2   1 79151.2 4790.21  11
   7  -2  -1 80092.5 5164.43   9
  -7   2   0 36070.3 3322.71  11
   7  -2   0 37052.5 3446.94   9
  -7   2  -1 9814.75 1803.33  11
   7  -2   1 9371.47 1672.79   9
  -7   2  -2 111476. 6087.92  11
   7  -2   2 114904. 5670.69   9
  -7   2  -3 104646. 5826.52  11
   7  -2   3 112228. 5169.29   9
  -7   2  -4 44547.7 3649.70  11
  -7   2  -5 11848.1 1729.63  11
  -7   2  -6 1114.18 592.696  11
  -7   2  -7 21370.9 1590.10  11
   7  -1 -11 529.320 253.505   8
   7  -1 -10 19581.3 2126.54   8
   7  -1  -9 194.714 376.122   8
   7  -1  -8 33731.8 3423.36   8
   7  -1  -7 9431.06 1907.19   8
   7  -1  -6 13441.8 1749.14  17
   7  -1  -6 13397.5 1880.61   9
   7  -1  -5 119256. 5702.07  17
   7  -1  -5 131522. 6375.35   9
   7  -1  -4 41196.4 3394.40  17
   7  -1  -3 65101.6 4423.72  17
  -7   1   2 34729.8 2958.16  11
   7  -1  -2 29702.1 2985.12  17
  -7   1   1 1617.68 673.790  11
   7  -1  -1 527.525 643.521  17
  -7   1   0 12036.7 2010.98  11
  -7   1  -1 164627. 7439.60  11
  -7   1  -2 115606. 6183.98  11
   7  -1   2 112787. 5525.22   9
  -7   1  -3 21923.4 2688.77  11
   7  -1   3 20597.3 2150.74   9
  -7   1  -4 319.052 333.586  11
  -7   1  -5 19132.3 2217.57  11
  -7   1  -6 40514.3 2797.64  11
  -7   1  -7 15861.0 1277.02  11
   7   0 -11 116.036 147.993   8
   7   0 -10 3801.38 881.174   8
   7   0  -9 21811.2 2575.08   8
   7   0  -8 10978.1 1993.24   8
   7   0  -7 16998.7 1876.87  17
   7   0  -6 13689.9 1827.82  17
   7   0  -5 3551.64 1048.24  17
   7   0  -4 100389. 5437.62  17
   7   0  -3 18315.8 2343.21  17
  -7   0   2 2180.68 816.347  11
   7   0  -2 1490.89 707.167  17
  -7   0   1 44402.8 3640.87  11
   7   0  -1 40625.8 3548.86  17
  -7   0   0 58183.4 4294.01  11
   7   0   0 54281.3 4088.38  17
  -7   0  -1 26143.3 2866.61  11
  -7   0  -2 3982.37 982.811  11
  -7   0  -3 2458.03 1055.30  11
   7   0   3 2743.53 749.309   9
  -7   0  -4 16166.1 2208.93  11
  -7   0  -5 145000. 6057.79  11
  -7   0  -6 65401.3 3384.51  11
   7   1 -11 1350.89 431.459   8
   7   1 -10 79768.8 4157.69   8
   7   1  -9 890.748 378.860   8
   7   1  -8 54377.9 4249.28   8
   7   1  -8 49896.3 2944.61  17
   7   1  -8 52413.3 3661.52  16
   7   1  -7 4641.57 1002.53  17
   7   1  -6 25943.6 2607.23  17
   7   1  -5 5137.32 1252.81  17
   7   1  -4 178084. 7497.15  17
  -7  -1   3 2569.52 913.404  11
   7   1  -3 2989.85 1011.91  17
  -7  -1   2 162128. 6874.41  11
   7   1  -2 170198. 7293.99  17
  -7  -1   1 1982.92 784.711  11
   7   1  -1 1551.62 721.922  17
  -7  -1   0 5820.22 1471.30  11
   7   1   0 4639.40 1249.98  17
  -7  -1  -1 567.736 624.536  11
  -7  -1  -2 2512.78 909.327  11
  -7  -1  -3 70350.4 4695.60  11
  -7  -1  -4 84909.6 4849.29  11
  -7  -1  -5 61364.1 3680.81  11
  -7  -1  -6 97720.2 3739.14  11
   7   2 -10 808.098 401.394   8
   7   2  -9 31314.9 2754.08   8
   7   2  -9 30662.4 2594.20  16
   7   2  -8 31367.2 3028.53   8
   7   2  -8 28774.6 2359.93  17
   7   2  -8 29833.8 2652.60  16
   7   2  -7 9423.66 1481.90  17
   7   2  -7 10055.3 1556.76  16
   7   2  -6 57280.3 3984.54  17
   7   2  -5 199085. 7807.98  17
  -7  -2   4 10732.7 1631.94  11
   7   2  -4 13273.7 2022.07  17
  -7  -2   3 160945. 6728.20  11
   7   2  -3 141856. 6718.38  17
  -7  -2   2 695.913 543.407  11
   7   2  -2 1451.71 678.218  17
  -7  -2   1 7633.28 1658.11  11
   7   2  -1 7246.38 1520.04  17
  -7  -2   0 1579.09 721.364  11
   7   2   0 2137.36 850.135  17
  -7  -2  -1 33926.2 3318.32  11
   7   2   1 33522.3 2960.35  17
  -7  -2  -2 50087.2 3931.05  11
  -7  -2  -3 28507.0 2815.82  11
  -7  -2  -4 85599.9 4600.97  11
  -7  -2  -5 10651.6 1374.46  11
   7   3 -10 100513. 4123.81  16
   7   3  -9 2285.35 681.294   8
   7   3  -9 1659.08 488.525  17
   7   3  -9 2404.64 782.758  16
   7   3  -8 53421.4 3591.25   8
   7   3  -8 49904.6 3203.25  17
   7   3  -8 50790.1 3215.23  16
   7   3  -7 119256. 5489.50  17
   7   3  -7 107729. 4677.07  16
   7   3  -6 189287. 7384.17  17
   7   3  -5 41958.7 3466.09  17
  -7  -3   4 140298. 6063.54  11
   7   3  -4 130194. 6229.39  17
  -7  -3   3 667.870 588.306  11
   7   3  -3 1012.07 834.421  17
  -7  -3   2-3.91914 279.212  11
   7   3  -2 478.742 453.072  17
  -7  -3   1 5564.95 1340.63  11
   7   3  -1 4826.36 1225.80  17
  -7  -3   0 154377. 6978.40  11
   7   3   0 149809. 6330.74  17
  -7  -3  -1 27116.7 2845.09  11
  -7  -3  -2 28693.3 2848.68  11
  -7  -3  -3 18020.6 2086.82  11
  -7  -3  -4 8591.10 1291.37  11
  -7  -3  -5 6001.26 859.602  11
   7   4 -10 5674.31 866.470  16
   7   4  -9 5719.36 916.348  17
   7   4  -9 5129.80 904.285  16
   7   4  -8 54128.2 3319.47  17
   7   4  -8 50370.2 2851.38  16
   7   4  -7 76799.2 4311.98  17
   7   4  -6 65878.7 4118.59  17
   7   4  -5 73777.5 4431.18  17
   7   4  -4 6664.62 1345.97  17
   7   4  -3 3848.38 1004.98  17
  -7  -4   2 16074.6 2150.50  11
   7   4  -2 13033.0 1845.91  17
  -7  -4   1 97853.8 5341.16  11
   7   4  -1 100894. 5014.75  17
  -7  -4   0 6354.81 1352.23  11
   7   4   0 6306.36 1187.08  17
  -7  -4  -1 29265.5 2761.62  11
  -7  -4  -2 1283.38 674.399  11
  -7  -4  -3 47363.0 3112.70  11
  -7  -4  -4 522.239 219.192  11
   7   5  -9 12607.3 1289.55  17
   7   5  -8 15357.1 1708.05  17
   7   5  -7 28180.9 2497.16  17
   7   5  -6-11.7510 506.522  17
   7   5  -5 3267.73 1002.07  17
   7   5  -4 59277.8 3717.94  17
   7   5  -3 28852.9 2599.34  17
   7   5  -2 118901. 5148.05  17
  -7  -5   1 693.129 419.849  11
   7   5  -1 822.039 427.619  17
  -7  -5   0 27331.0 2578.82  11
  -7  -5  -1 28282.5 2507.53  11
  -7  -5  -2 93404.3 4292.18  11
  -7  -5  -3 23884.9 1827.73  11
   7   6  -9 1418.59 392.150  17
   7   6  -8 1379.35 469.796  17
   7   6  -7 24117.7 2121.17  17
   7   6  -6 740.416 514.044  17
   7   6  -5 68545.0 3693.97  17
   7   6  -4 3487.28 817.707  17
   7   6  -3 97790.4 4257.33  17
  -7  -6   2 4759.23 1010.67  11
   7   6  -2 4903.77 876.276  17
  -7  -6   1 29248.8 2435.52  11
  -7  -6   0 37186.5 2668.51  11
  -7  -6  -1 33571.4 2359.47  11
  -7  -6  -2 86973.6 3332.59  11
   7   7  -8 35248.6 1921.49  17
   7   7  -7 13259.8 1318.37  17
  -7  -7   6 73801.8 2803.00  11
   7   7  -6 79511.7 3416.27  17
   7   7  -5 9915.50 1173.22  17
   7   7  -4 61781.3 2921.59  17
  -7  -7   3 2111.20 581.010  11
   7   7  -3 2347.04 525.333  17
  -7  -7   2 9439.53 1240.14  11
  -7  -7   1 12684.6 1380.49  11
  -7  -7   0 20483.3 1615.19  11
  -7  -8   3 4237.91 621.799  11
   8  -6  -3 32211.1 2267.18   9
   8  -6  -2 21286.5 1906.86   9
   8  -6  -1 50140.0 2999.49   9
   8  -6   0 19719.5 1780.27   9
   8  -6   1 6112.80 917.053   9
   8  -5  -5 18062.1 1472.01   9
   8  -5  -4 1915.98 602.632   9
   8  -5  -3 5959.81 1072.52   9
   8  -5  -2 23892.4 2265.32   9
   8  -5  -1 7743.58 1255.74   9
   8  -5   0 8500.29 1267.03   9
   8  -5   1 20347.3 1845.94   9
  -8   5  -2 1145.74 289.822  11
   8  -5   2 992.382 360.544   9
  -8   5  -3 27824.2 1765.02  11
   8  -4  -7 6914.56 932.740   8
   8  -4  -6 87374.2 3737.11   8
   8  -4  -5 1973.80 593.647   8
   8  -4  -5 2270.99 611.611   9
   8  -4  -4 38801.8 2671.58   8
   8  -4  -4 42966.1 3010.89   9
   8  -4  -3 7813.71 1163.36   8
   8  -4  -3 9775.11 1474.94   9
   8  -4  -2 69497.5 4150.48   9
   8  -4  -1 2509.33 886.639   9
   8  -4   0 73725.3 4106.45   9
  -8   4  -1 974.342 356.962  11
   8  -4   1 841.104 425.464   9
  -8   4  -2 9476.25 1260.74  11
   8  -4   2 11204.5 1309.60   9
  -8   4  -3 134.417 198.183  11
  -8   4  -4 205.856 215.758  11
   8  -3  -8 4949.20 823.468   8
   8  -3  -7 125240. 4840.56   8
   8  -3  -6 45891.5 3098.09   8
   8  -3  -6 41945.9 2418.95   9
   8  -3  -5 463.957 346.328   8
   8  -3  -5 305.177 261.079   9
   8  -3  -4 15538.3 1940.01   9
   8  -3  -3 237512. 8217.77   9
   8  -3  -2 1618.46 748.426   9
   8  -3  -1 115453. 5575.79   9
  -8   3   0 2481.31 704.439  11
   8  -3   0 3066.31 924.688   9
  -8   3  -1 14175.3 1735.51  11
   8  -3   1 15510.3 1816.76   9
  -8   3  -2 6229.81 1177.60  11
   8  -3   2 6135.10 1017.50   9
  -8   3  -3 2097.41 718.796  11
  -8   3  -4 4745.24 868.523  11
  -8   3  -5 21311.8 1501.43  11
   8  -2  -9 1031.33 408.713   8
   8  -2  -8 80536.3 3791.03   8
   8  -2  -7 18404.1 2007.72   8
   8  -2  -6 750.751 413.444   8
   8  -2  -6 1126.58 461.926   9
   8  -2  -5 34052.8 2735.08   9
   8  -2  -4 148617. 6309.33   9
   8  -2  -3 18686.9 2277.86   9
   8  -2  -2 109823. 5614.55   9
  -8   2   1-182.261 393.035  11
   8  -2  -1-251.481 354.241   9
  -8   2   0 1074.64 667.359  11
   8  -2   0 956.457 526.993   9
  -8   2  -1 7446.45 1363.46  11
   8  -2   1 8456.98 1369.21   9
  -8   2  -2 15430.2 1838.91  11
   8  -2   2 15435.6 1662.00   9
  -8   2  -3 4663.84 975.406  11
  -8   2  -4 10285.4 1305.06  11
  -8   2  -5 12590.5 1204.90  11
   8  -1  -9 33769.9 2197.10   8
   8  -1  -8 1428.36 521.690   8
   8  -1  -7 2976.99 831.305   8
   8  -1  -6 22399.1 2009.42   9
   8  -1  -5 78980.6 4305.54   9
   8  -1  -4 27595.4 2673.47   9
   8  -1  -3 64713.0 4285.10   9
   8  -1  -2 238.937 597.133   9
  -8   1   1 2307.29 720.976  11
   8  -1  -1 2162.74 873.906   9
  -8   1   0 4305.63 1078.16  11
   8  -1   0 5401.61 1250.26   9
  -8   1  -1 103622. 5206.75  11
   8  -1   1 104360. 4966.20   9
  -8   1  -2 3504.00 992.531  11
   8  -1   2 3275.08 783.977   9
  -8   1  -3 21249.5 2135.11  11
  -8   1  -4 4189.88 863.891  11
  -8   1  -5 27209.1 1756.78  11
   8   0  -9 25529.5 1923.77   8
   8   0  -8 6837.93 1176.96   8
   8   0  -7 912.682 568.854   8
   8   0  -6 25086.0 2215.46  17
   8   0  -6 28255.3 2313.09   9
   8   0  -5 11001.7 1588.78  17
   8   0  -5 10899.5 1568.56   9
   8   0  -4-39.8857 523.756  17
   8   0  -3 774.584 274.724  17
  -8   0   2 33765.0 2711.66  11
  -8   0   1 763.420 535.136  11
  -8   0   0 95800.5 5035.53  11
  -8   0  -1 2585.15 878.369  11
   8   0   1 2928.77 846.808   9
  -8   0  -2 26069.9 2529.87  11
   8   0   2 26256.8 2132.84   9
  -8   0  -3 21152.6 2119.62  11
  -8   0  -4 15738.8 1592.97  11
   8   1  -9 84726.2 3375.03   8
   8   1  -8 33463.7 2465.29   8
   8   1  -7 7145.79 1239.37   8
   8   1  -7 6276.06 979.733  17
   8   1  -6 2897.53 764.141  17
   8   1  -6 4006.91 871.098   9
   8   1  -5 4796.92 1098.71  17
   8   1  -4 5461.75 1148.05  17
   8   1  -3 104592. 5286.43  17
  -8  -1   2 1978.87 713.610  11
   8   1  -2 2501.90 946.706  17
  -8  -1   1 115962. 5364.42  11
  -8  -1   0 2278.67 810.737  11
  -8  -1  -1 54201.8 3663.34  11
  -8  -1  -2 24486.5 2368.82  11
   8   1   2 24492.2 1913.66   9
  -8  -1  -3 5984.66 1079.52  11
  -8  -1  -4 49759.2 2660.26  11
   8   2  -9 30166.0 1697.69   8
   8   2  -8 1713.74 530.246   8
   8   2  -8 1249.05 381.747  17
   8   2  -7 3258.96 811.636   8
   8   2  -7 3799.57 781.590  17
   8   2  -6 19971.7 1985.90  17
   8   2  -5 4309.28 969.852  17
   8   2  -4 55865.8 3610.76  17
  -8  -2   3 3360.82 794.866  11
   8   2  -3 4257.02 1025.82  17
  -8  -2   2 33418.7 2695.84  11
   8   2  -2 30324.6 2709.63  17
  -8  -2   1 17330.8 1998.69  11
  -8  -2   0 11692.5 1629.94  11
  -8  -2  -1 18684.1 2022.48  11
  -8  -2  -2 1743.06 577.535  11
   8   2   2 2190.82 511.436   9
  -8  -2  -3 21621.4 1850.03  11
   8   3  -8 5969.51 823.281  17
   8   3  -7 66806.3 3106.15   8
   8   3  -7 69484.6 3321.58  17
   8   3  -6 972.419 528.262  17
   8   3  -5 55506.0 3303.72  17
  -8  -3   4 4078.16 793.694  11
   8   3  -4 3948.35 902.351  17
  -8  -3   3 8908.73 1242.63  11
   8   3  -3 10890.0 1492.34  17
  -8  -3   2 8641.68 1305.64  11
   8   3  -2 8173.56 1301.97  17
  -8  -3   1 1359.38 504.000  11
  -8  -3   0 26626.2 2287.66  11
  -8  -3  -1 44890.1 2895.62  11
  -8  -3  -2 18385.8 1717.73  11
  -8  -3  -3 1012.92 364.024  11
   8   4  -8 83130.9 2967.44  17
   8   4  -7 4532.29 789.220  17
   8   4  -6 35395.9 1985.22   8
   8   4  -6 40484.8 2523.00  17
   8   4  -5 487.728 368.727  17
  -8  -4   4 6354.47 957.005  11
   8   4  -4 5846.25 986.518  17
  -8  -4   3 10385.7 1280.13  11
   8   4  -3 8858.12 1235.36  17
  -8  -4   2 47588.7 2826.24  11
   8   4  -2 46051.1 2766.10  17
  -8  -4   1 19217.1 1794.70  11
  -8  -4   0 2209.80 561.276  11
  -8  -4  -1 2344.80 551.471  11
  -8  -4  -2 5535.01 786.519  11
   8   5  -7 40685.8 2126.43  17
   8   5  -6 13702.3 1309.30  17
   8   5  -5 30208.9 2028.82  17
  -8  -5   4 142.511 113.213  11
   8   5  -4 627.691 336.249  17
  -8  -5   3 117351. 3998.23  11
   8   5  -3 120188. 4052.36  17
  -8  -5   2 15971.3 1434.71  11
   8   5  -2 14236.7 1253.04  17
  -8  -5   1 35510.7 2153.53  11
  -8  -5   0 17181.0 1409.96  11
   8   6  -5 4657.08 644.926  17
   9  -4  -3 1163.60 307.658   9
   9  -4  -2 3192.84 586.850   9
   9  -4  -1 24580.1 1626.90   9
   9  -3  -4 432.599 224.004   9
   9  -3  -3 12.4480 169.207   9
   9  -3  -2 39399.4 2361.77   9
   9  -3  -1 4102.64 748.282   9
   9  -3   0 96039.1 3329.65   9
   9  -2  -6 13433.8 1134.82   8
   9  -2  -5 5089.73 777.403   8
   9  -2  -4 6768.54 932.528   8
   9  -2  -4 6213.69 870.447   9
   9  -2  -3 34048.2 2282.34   9
   9  -2  -2 440.693 367.484   9
   9  -2  -1 43358.6 2532.82   9
   9  -2   0 8266.12 992.614   9
   9  -1  -6 15891.0 1352.31   8
   9  -1  -5 5951.00 912.825   8
   9  -1  -5 4208.32 649.087   9
   9  -1  -4 71660.8 3245.84   9
   9  -1  -3 8119.39 1132.29   9
   9  -1  -2 13612.4 1485.19   9
   9  -1  -1 3030.71 680.037   9
   9  -1   0 41340.1 2273.59   9
   9   0  -6 2748.62 576.977   8
   9   0  -5 73843.5 2950.22   9
   9   0  -4 19515.5 1683.59   9
   9   0  -3 1307.66 446.692   9
   9   0  -2 1849.64 541.497   9
   9   0  -1 78628.1 3408.67   9
   9   0   0 28006.3 1788.03   9
   9   1  -6 69410.8 2852.61   8
   9   1  -5 30795.4 1848.79   9
   9   1  -4 3023.28 640.705   9
   9   1  -3 10154.2 1209.25   9
   9   1  -2 133264. 4457.32   9
   9   1  -1 1385.19 445.511   9
   9   1   0 212679. 4857.31   9
   9   2  -5 6370.47 779.306   9
   9   2  -4 13426.3 1253.89   9
   9   2  -3 62831.3 2826.86   9
   9   2  -2 2904.36 592.697   9
   9   2  -1 131056. 3727.79   9
   9   3  -3 3847.69 612.858   9
   0   0   0    0.00    0.00   0
TITL CF2-250_FI_Gaussian in P-1
REM P-1 (#2 in standard setting)
CELL 1.54184   7.533854  10.289412  11.752890  99.5594 101.3624  92.7989
ZERR    2.00   0.000356   0.000590   0.000562   0.0044   0.0040   0.0042
LATT  1
SFAC C H O Fe Se
UNIT 32.00 12.00 12.00 4.00 4.00
TREF
HKLF 4
END
;
_shelx_hkl_checksum              1803
#END Tags that were not found in dictionaries
loop_
_space_group_symop_operation_xyz
'x, y, z'
'-x, -y, -z'
loop_
_atom_site_label
_atom_site_type_symbol
_atom_site_fract_x
_atom_site_fract_y
_atom_site_fract_z
_atom_site_U_iso_or_equiv
_atom_site_adp_type
_atom_site_occupancy
_atom_site_site_symmetry_order
_atom_site_calc_flag
_atom_site_refinement_flags_posn
_atom_site_refinement_flags_adp
C1 C 0.1616(5) 0.2624(4) 0.9440(3) 0.0147(8) Uani 1 1 d . .
C2 C 0.1274(5) 0.3243(4) 1.0502(4) 0.0170(8) Uani 1 1 d . .
H2 H 0.0905 0.4117 1.0571 0.020 Uiso 1 1 calc R U
C3 C 0.1461(6) 0.2606(4) 1.1481(4) 0.0208(9) Uani 1 1 d . .
H3 H 0.1261 0.3059 1.2212 0.025 Uiso 1 1 calc R U
C4 C 0.1933(6) 0.1328(4) 1.1379(4) 0.0200(9) Uani 1 1 d . .
H4 H 0.2029 0.0891 1.2037 0.024 Uiso 1 1 calc R U
C5 C 0.2759(6) -0.0666(4) 1.0220(4) 0.0180(8) Uani 1 1 d . .
H5 H 0.2805 -0.1100 1.0877 0.022 Uiso 1 1 calc R U
C6 C 0.3160(6) -0.1322(4) 0.9194(4) 0.0192(8) Uani 1 1 d . .
H6 H 0.3509 -0.2201 0.9149 0.023 Uiso 1 1 calc R U
C7 C 0.3054(5) -0.0694(4) 0.8216(4) 0.0157(8) Uani 1 1 d . .
H7 H 0.3336 -0.1155 0.7513 0.019 Uiso 1 1 calc R U
C8 C 0.2550(5) 0.0574(4) 0.8252(3) 0.0125(7) Uani 1 1 d . .
C9 C 0.2135(5) 0.1305(4) 0.9293(3) 0.0133(8) Uani 1 1 d . .
C10 C 0.2279(5) 0.0652(4) 1.0298(4) 0.0155(8) Uani 1 1 d . .
C11 C 0.5528(6) 0.3587(4) 0.8198(4) 0.0186(9) Uani 1 1 d . .
C12 C 0.4312(6) 0.3114(4) 0.5745(4) 0.0186(8) Uani 1 1 d . .
C13 C 0.3297(6) 0.5171(4) 0.6969(4) 0.0198(9) Uani 1 1 d . .
C14 C 0.0269(5) 0.2048(4) 0.4817(4) 0.0161(8) Uani 1 1 d . .
C15 C -0.0949(5) 0.3996(4) 0.6051(4) 0.0174(8) Uani 1 1 d . .
C16 C -0.1746(5) 0.1478(4) 0.6433(4) 0.0179(8) Uani 1 1 d . .
O1 O 0.6795(4) 0.3644(3) 0.8913(3) 0.0297(7) Uani 1 1 d . .
O2 O 0.4794(4) 0.2887(3) 0.4878(3) 0.0281(7) Uani 1 1 d . .
O3 O 0.3151(5) 0.6253(3) 0.6882(3) 0.0313(8) Uani 1 1 d . .
O4 O 0.0372(4) 0.1753(3) 0.3855(3) 0.0226(6) Uani 1 1 d . .
O5 O -0.1620(4) 0.4929(3) 0.5867(3) 0.0261(7) Uani 1 1 d . .
O6 O -0.2934(4) 0.0781(3) 0.6501(3) 0.0271(7) Uani 1 1 d . .
Fe1 Fe 0.34680(8) 0.34641(6) 0.70879(6) 0.01328(16) Uani 1 1 d . .
Fe2 Fe 0.01628(8) 0.25493(6) 0.63398(5) 0.01249(16) Uani 1 1 d . .
Se1 Se 0.12730(5) 0.37302(4) 0.82723(3) 0.01350(13) Uani 1 1 d . .
Se2 Se 0.25461(5) 0.11835(4) 0.67924(3) 0.01234(13) Uani 1 1 d . .
loop_
_atom_site_aniso_label
_atom_site_aniso_U_11
_atom_site_aniso_U_22
_atom_site_aniso_U_33
_atom_site_aniso_U_23
_atom_site_aniso_U_13
_atom_site_aniso_U_12
C1 0.0128(17) 0.018(2) 0.0115(19) 0.0013(15) -0.0005(14) 0.0012(15)
C2 0.0201(19) 0.0145(19) 0.016(2) 0.0009(15) 0.0048(16) 0.0026(15)
C3 0.028(2) 0.023(2) 0.014(2) 0.0043(16) 0.0086(17) 0.0046(17)
C4 0.024(2) 0.023(2) 0.015(2) 0.0089(17) 0.0056(17) 0.0014(17)
C5 0.0217(19) 0.017(2) 0.015(2) 0.0064(16) 0.0006(16) -0.0004(16)
C6 0.022(2) 0.0149(19) 0.019(2) 0.0016(16) 0.0002(16) 0.0045(16)
C7 0.0165(18) 0.0149(19) 0.014(2) 0.0019(15) 0.0013(15) 0.0005(15)
C8 0.0117(16) 0.0120(18) 0.0123(19) 0.0026(14) -0.0010(14) -0.0005(14)
C9 0.0096(16) 0.0163(19) 0.0131(19) 0.0024(15) 0.0000(14) 0.0012(14)
C10 0.0137(17) 0.017(2) 0.016(2) 0.0049(16) 0.0035(15) 0.0007(15)
C11 0.019(2) 0.015(2) 0.023(2) 0.0081(16) 0.0032(18) -0.0019(16)
C12 0.0168(19) 0.019(2) 0.021(2) 0.0049(16) 0.0055(16) -0.0037(15)
C13 0.022(2) 0.021(2) 0.016(2) -0.0004(16) 0.0086(17) -0.0048(16)
C14 0.0112(17) 0.0175(19) 0.018(2) 0.0037(16) -0.0008(15) -0.0025(15)
C15 0.0180(19) 0.017(2) 0.014(2) 0.0003(16) -0.0016(16) -0.0008(16)
C16 0.0183(19) 0.019(2) 0.017(2) 0.0036(16) 0.0044(16) 0.0078(16)
O1 0.0238(16) 0.0302(18) 0.0328(19) 0.0135(15) -0.0052(15) -0.0024(14)
O2 0.0274(16) 0.0389(19) 0.0211(17) 0.0069(14) 0.0108(14) 0.0039(14)
O3 0.052(2) 0.0172(17) 0.0300(19) 0.0074(13) 0.0172(16) 0.0043(14)
O4 0.0271(16) 0.0250(16) 0.0139(16) 0.0017(12) 0.0025(12) -0.0007(13)
O5 0.0314(17) 0.0216(16) 0.0247(17) 0.0061(13) 0.0015(13) 0.0083(14)
O6 0.0179(15) 0.0279(17) 0.039(2) 0.0139(14) 0.0078(14) -0.0009(13)
Fe1 0.0132(3) 0.0124(3) 0.0144(3) 0.0028(2) 0.0030(2) 0.0002(2)
Fe2 0.0120(3) 0.0137(3) 0.0123(3) 0.0035(2) 0.0027(2) 0.0019(2)
Se1 0.0165(2) 0.0123(2) 0.0123(2) 0.00229(15) 0.00377(16) 0.00385(15)
Se2 0.0128(2) 0.0120(2) 0.0125(2) 0.00180(15) 0.00327(15) 0.00215(15)
loop_
_atom_type_symbol
_atom_type_description
_atom_type_scat_dispersion_real
_atom_type_scat_dispersion_imag
_atom_type_scat_source
C C 0.0181 0.0091 'International Tables Vol C Tables 4.2.6.8 and 6.1.1.4'
H H 0.0000 0.0000 'International Tables Vol C Tables 4.2.6.8 and 6.1.1.4'
O O 0.0492 0.0322 'International Tables Vol C Tables 4.2.6.8 and 6.1.1.4'
Fe Fe -1.1336 3.1974 'International Tables Vol C Tables 4.2.6.8 and 6.1.1.4'
Se Se -0.7943 1.1372 'International Tables Vol C Tables 4.2.6.8 and 6.1.1.4'
loop_
_geom_angle_atom_site_label_1
_geom_angle_atom_site_label_2
_geom_angle_atom_site_label_3
_geom_angle
C2 C1 C9 121.1(4)
C2 C1 Se1 112.2(3)
C9 C1 Se1 126.7(3)
C1 C2 C3 121.4(4)
C1 C2 H2 119.3
C3 C2 H2 119.3
C4 C3 C2 119.8(4)
C4 C3 H3 120.1
C2 C3 H3 120.1
C3 C4 C10 120.6(4)
C3 C4 H4 119.7
C10 C4 H4 119.7
C6 C5 C10 120.1(4)
C6 C5 H5 119.9
C10 C5 H5 119.9
C5 C6 C7 120.0(4)
C5 C6 H6 120.0
C7 C6 H6 120.0
C8 C7 C6 121.4(4)
C8 C7 H7 119.3
C6 C7 H7 119.3
C7 C8 C9 121.1(4)
C7 C8 Se2 112.3(3)
C9 C8 Se2 126.7(3)
C1 C9 C8 126.2(4)
C1 C9 C10 116.9(3)
C8 C9 C10 116.8(3)
C5 C10 C4 119.3(4)
C5 C10 C9 120.5(4)
C4 C10 C9 120.2(4)
O1 C11 Fe1 178.0(4)
O2 C12 Fe1 178.0(4)
O3 C13 Fe1 178.6(4)
O4 C14 Fe2 178.3(4)
O5 C15 Fe2 178.5(4)
O6 C16 Fe2 178.6(4)
C13 Fe1 C12 92.16(19)
C13 Fe1 C11 100.57(19)
C12 Fe1 C11 101.78(19)
C13 Fe1 Se1 86.86(13)
C12 Fe1 Se1 156.96(14)
C11 Fe1 Se1 101.03(14)
C13 Fe1 Se2 157.63(14)
C12 Fe1 Se2 87.24(13)
C11 Fe1 Se2 101.45(13)
Se1 Fe1 Se2 85.08(2)
C13 Fe1 Fe2 100.83(14)
C12 Fe1 Fe2 100.46(13)
C11 Fe1 Fe2 148.33(13)
Se1 Fe1 Fe2 57.32(2)
Se2 Fe1 Fe2 57.46(2)
C15 Fe2 C14 92.32(19)
C15 Fe2 C16 100.37(18)
C14 Fe2 C16 100.72(18)
C15 Fe2 Se1 86.43(13)
C14 Fe2 Se1 153.42(12)
C16 Fe2 Se1 105.62(13)
C15 Fe2 Se2 159.34(13)
C14 Fe2 Se2 87.04(13)
C16 Fe2 Se2 100.04(13)
Se1 Fe2 Se2 85.02(2)
C15 Fe2 Fe1 102.37(13)
C14 Fe2 Fe1 97.28(12)
C16 Fe2 Fe1 150.25(14)
Se1 Fe2 Fe1 57.34(2)
Se2 Fe2 Fe1 57.34(2)
C1 Se1 Fe2 113.41(12)
C1 Se1 Fe1 111.50(12)
Fe2 Se1 Fe1 65.34(2)
C8 Se2 Fe1 112.27(11)
C8 Se2 Fe2 112.00(12)
Fe1 Se2 Fe2 65.20(2)
loop_
_geom_bond_atom_site_label_1
_geom_bond_atom_site_label_2
_geom_bond_distance
C1 C2 1.381(6)
C1 C9 1.423(6)
C1 Se1 1.911(4)
C2 C3 1.403(6)
C2 H2 0.9500
C3 C4 1.371(6)
C3 H3 0.9500
C4 C10 1.422(6)
C4 H4 0.9500
C5 C6 1.376(6)
C5 C10 1.414(6)
C5 H5 0.9500
C6 C7 1.401(6)
C6 H6 0.9500
C7 C8 1.372(5)
C7 H7 0.9500
C8 C9 1.425(5)
C8 Se2 1.921(4)
C9 C10 1.442(6)
C11 O1 1.133(5)
C11 Fe1 1.804(4)
C12 O2 1.140(5)
C12 Fe1 1.803(4)
C13 O3 1.143(5)
C13 Fe1 1.793(4)
C14 O4 1.139(5)
C14 Fe2 1.798(4)
C15 O5 1.139(5)
C15 Fe2 1.791(4)
C16 O6 1.143(5)
C16 Fe2 1.800(4)
Fe1 Se1 2.3606(7)
Fe1 Se2 2.3632(7)
Fe1 Fe2 2.5482(8)
Fe2 Se1 2.3601(7)
Fe2 Se2 2.3664(7)
loop_
_geom_torsion_atom_site_label_1
_geom_torsion_atom_site_label_2
_geom_torsion_atom_site_label_3
_geom_torsion_atom_site_label_4
_geom_torsion
C9 C1 C2 C3 1.3(6)
Se1 C1 C2 C3 -179.5(3)
C1 C2 C3 C4 -2.2(7)
C2 C3 C4 C10 1.6(7)
C10 C5 C6 C7 -1.4(6)
C5 C6 C7 C8 -0.2(6)
C6 C7 C8 C9 0.7(6)
C6 C7 C8 Se2 179.4(3)
C2 C1 C9 C8 -178.9(4)
Se1 C1 C9 C8 2.0(6)
C2 C1 C9 C10 0.2(5)
Se1 C1 C9 C10 -178.9(3)
C7 C8 C9 C1 179.4(4)
Se2 C8 C9 C1 0.9(6)
C7 C8 C9 C10 0.3(5)
Se2 C8 C9 C10 -178.3(3)
C6 C5 C10 C4 -177.8(4)
C6 C5 C10 C9 2.4(6)
C3 C4 C10 C5 -179.9(4)
C3 C4 C10 C9 -0.1(6)
C1 C9 C10 C5 179.0(4)
C8 C9 C10 C5 -1.8(5)
C1 C9 C10 C4 -0.8(5)
C8 C9 C10 C4 178.4(4)
