#------------------------------------------------------------------------------
#$Date: 2016-03-21 14:57:06 +0200 (Mon, 21 Mar 2016) $
#$Revision: 178731 $
#$URL: svn://www.crystallography.net/cod/cif/4/08/42/4084249.cif $
#------------------------------------------------------------------------------
#
# This file is available in the Crystallography Open Database (COD),
# http://www.crystallography.net/
#
# All data on this site have been placed in the public domain by the
# contributors.
#
data_4084249
loop_
_publ_author_name
'Figliola, Carlotta'
'Male, Louise'
'Horton, Peter N.'
'Pitak, Mateusz B.'
'Coles, Simon J.'
'Horswell, Sarah L.'
'Grainger, Richard S.'
_publ_section_title
;
 [FeFe]-Hydrogenase Synthetic Mimics Based onPeri-Substituted
 Dichalcogenides
;
_journal_issue                   17
_journal_name_full               Organometallics
_journal_page_first              4449
_journal_paper_doi               10.1021/om500683p
_journal_volume                  33
_journal_year                    2014
_chemical_formula_moiety         'C16 H6 Fe2 O6 S Se'
_chemical_formula_sum            'C16 H6 Fe2 O6 S Se'
_chemical_formula_weight         516.93
_chemical_name_systematic
;
[{Fe(CO)~3~}~2~(\m~2~-1,8-SeS-naph)]
;
_space_group_crystal_system      triclinic
_space_group_IT_number           2
_space_group_name_Hall           '-P 1'
_space_group_name_H-M_alt        'P -1'
_symmetry_space_group_name_Hall  '-P 1'
_symmetry_space_group_name_H-M   'P -1'
_atom_sites_solution_hydrogens   geom
_audit_creation_method           SHELXL-97
_cell_angle_alpha                99.672(5)
_cell_angle_beta                 100.494(5)
_cell_angle_gamma                91.992(5)
_cell_formula_units_Z            2
_cell_length_a                   7.5023(4)
_cell_length_b                   10.2906(7)
_cell_length_c                   11.6461(6)
_cell_measurement_reflns_used    2829
_cell_measurement_temperature    100.00(10)
_cell_measurement_theta_max      74.1030
_cell_measurement_theta_min      3.9130
_cell_volume                     869.53(9)
_computing_cell_refinement
;
CrysAlisPro, Agilent Technologies,
Version 1.171.36.28 (release 01-02-2013 CrysAlis171 .NET)
(compiled Feb  1 2013,16:14:44)
;
_computing_data_collection
;
CrysAlisPro, Agilent Technologies,
Version 1.171.36.28 (release 01-02-2013 CrysAlis171 .NET)
(compiled Feb  1 2013,16:14:44)
;
_computing_data_reduction
;
CrysAlisPro, Agilent Technologies,
Version 1.171.36.28 (release 01-02-2013 CrysAlis171 .NET)
(compiled Feb  1 2013,16:14:44)
;
_computing_molecular_graphics
;
OLEX2 (Dolomanov, O.V., Bourhis, L.J., Gildea, R.J., Howard, J.A.K,
& Puschmann, H., 2009)
;
_computing_publication_material  'WinGX (Farrugia, 1999)'
_computing_structure_refinement  'SHELXL-2013 (Sheldrick, 2013)'
_computing_structure_solution    'SHELXS-97 (Sheldrick, 2008)'
_diffrn_ambient_temperature      100.00(10)
_diffrn_detector_area_resol_mean 5.1768
_diffrn_measured_fraction_theta_full 0.996
_diffrn_measured_fraction_theta_max 0.987
_diffrn_measurement_device_type  'SuperNova, Dual, Cu at zero, Atlas'
_diffrn_radiation_monochromator  mirror
_diffrn_radiation_source         'SuperNova (Cu) X-ray Source'
_diffrn_radiation_type           'Cu K\a'
_diffrn_radiation_wavelength     1.5418
_diffrn_reflns_av_R_equivalents  0.0487
_diffrn_reflns_av_unetI/netI     0.0608
_diffrn_reflns_Laue_measured_fraction_full 0.996
_diffrn_reflns_Laue_measured_fraction_max 0.987
_diffrn_reflns_limit_h_max       8
_diffrn_reflns_limit_h_min       -9
_diffrn_reflns_limit_k_max       12
_diffrn_reflns_limit_k_min       -12
_diffrn_reflns_limit_l_max       14
_diffrn_reflns_limit_l_min       -12
_diffrn_reflns_number            5636
_diffrn_reflns_point_group_measured_fraction_full 0.996
_diffrn_reflns_point_group_measured_fraction_max 0.987
_diffrn_reflns_theta_full        67.684
_diffrn_reflns_theta_max         70.075
_diffrn_reflns_theta_min         6.375
_exptl_absorpt_coefficient_mu    17.190
_exptl_absorpt_correction_T_max  1.00000
_exptl_absorpt_correction_T_min  0.20592
_exptl_absorpt_correction_type   multi-scan
_exptl_absorpt_process_details
;
CrysAlisPro, Agilent Technologies,
Version 1.171.36.28 (release 01-02-2013 CrysAlis171 .NET)
(compiled Feb  1 2013,16:14:44)
Empirical absorption correction using spherical harmonics,
 implemented in SCALE3 ABSPACK scaling algorithm.
;
_exptl_crystal_colour            Orange
_exptl_crystal_density_diffrn    1.974
_exptl_crystal_description       Plate
_exptl_crystal_F_000             504
_exptl_crystal_size_max          0.150
_exptl_crystal_size_mid          0.070
_exptl_crystal_size_min          0.020
_refine_diff_density_max         0.962
_refine_diff_density_min         -0.699
_refine_diff_density_rms         0.134
_refine_ls_extinction_method     none
_refine_ls_goodness_of_fit_ref   1.071
_refine_ls_hydrogen_treatment    constr
_refine_ls_matrix_type           full
_refine_ls_number_parameters     244
_refine_ls_number_reflns         3255
_refine_ls_number_restraints     0
_refine_ls_restrained_S_all      1.071
_refine_ls_R_factor_all          0.0539
_refine_ls_R_factor_gt           0.0445
_refine_ls_shift/su_max          0.000
_refine_ls_shift/su_mean         0.000
_refine_ls_structure_factor_coef Fsqd
_refine_ls_weighting_details
'w=1/[\s^2^(Fo^2^)+(0.0624P)^2^] where P=(Fo^2^+2Fc^2^)/3'
_refine_ls_weighting_scheme      calc
_refine_ls_wR_factor_gt          0.1129
_refine_ls_wR_factor_ref         0.1215
_reflns_Friedel_coverage         0.000
_reflns_number_gt                2777
_reflns_number_total             3255
_reflns_threshold_expression     'I > 2\s(I)'
_cod_data_source_file            om500683p_si_002.cif
_cod_data_source_block           7a
_cod_depositor_comments
;
The following automatic conversions were performed:

'_exptl_absorpt_correction_type' value 'Multi-scan' changed to
'multi-scan' according to
/usr/data/users/saulius/crontab/automatic-downloads/rss-feeds/ACS/lib/dictionaries/cif_core.dic
dictionary named 'cif_core.dic' version 2.4.2 from 2011-04-26.

Automatic conversion script
Id: cif_fix_values 2281 2013-09-26 08:29:07Z andrius 
;
_cod_database_code               4084249
#BEGIN Tags that were not found in dictionaries:
_publ_secton_comment
;
The sulphur and selenium atoms are both disordered over two 
positions, with the refined percentage occupancy ratio between 
the major and minor positions (labelled Se/S and S'/Se' 
respectively), being 69.8 (3) : 30.2 (3).
The hydrogen atoms were added at calculated positions and 
refined by use of a riding model with the isotropic 
displacement parameters based on the equivalent isotropic 
displacement parameter (Ueq) of the parent atom.
;
_shelx_space_group_comment
;
The symmetry employed for this shelxl refinement is uniquely defined
by the following loop, which should always be used as a source of
symmetry information in preference to the above space-group names.
They are only intended as comments.
;
_shelx_estimated_absorpt_t_min   0.182
_shelx_estimated_absorpt_t_max   0.725
_shelxl_version_number           2013-4
_shelx_res_file
;
TITL
CELL  1.54184   7.5023  10.2906  11.6461   99.672  100.494   91.992
ZERR     2.00   0.0004   0.0007   0.0006    0.005    0.005    0.005
LATT   1
SFAC  C    H    O    S    FE   SE
UNIT  32   12   12   2    4    2
MERG   2
SHEL 7 0.82
FMAP   2
PLAN    5
SIZE     0.020   0.070   0.150
ACTA
BOND   $H
CONF
L.S.  10
TEMP  -173.00
WGHT    0.062400
FVAR       6.79127   0.69815
C1    1    0.158570    0.763503    0.436073    11.00000    0.01908    0.02251 =
         0.02445    0.01078    0.00387    0.00160
C2    1    0.123617    0.826896    0.543880    11.00000    0.02516    0.02264 =
         0.02636    0.00615   -0.00007    0.00329
AFIX  43
H2    2    0.088305    0.915208    0.550756    11.00000   -1.20000
AFIX   0
C3    1    0.139016    0.764079    0.643100    11.00000    0.03413    0.03117 =
         0.01989    0.00434    0.01103    0.00252
AFIX  43
H3    2    0.114355    0.809484    0.715959    11.00000   -1.20000
AFIX   0
C4    1    0.189786    0.637082    0.633830    11.00000    0.02857    0.03203 =
         0.02031    0.01183    0.00275    0.00281
AFIX  43
H4    2    0.201399    0.594890    0.701129    11.00000   -1.20000
AFIX   0
C5    1    0.277998    0.435366    0.518019    11.00000    0.02749    0.02517 =
         0.02378    0.01121    0.00002    0.00504
AFIX  43
H5    2    0.284627    0.392811    0.584877    11.00000   -1.20000
AFIX   0
C6    1    0.319215    0.368643    0.415909    11.00000    0.02847    0.02143 =
         0.03133    0.00812    0.00311    0.00411
AFIX  43
H6    2    0.353614    0.280244    0.411733    11.00000   -1.20000
AFIX   0
C7    1    0.310660    0.431058    0.316773    11.00000    0.02036    0.02460 =
         0.01894    0.00497    0.00359    0.00539
AFIX  43
H7    2    0.343326    0.384833    0.246718    11.00000   -1.20000
AFIX   0
C8    1    0.255553    0.558770    0.318824    11.00000    0.01685    0.01987 =
         0.02039    0.01019    0.00589    0.00108
C9    1    0.212793    0.631288    0.423899    11.00000    0.01519    0.02084 =
         0.01755    0.00734    0.00271    0.00139
C10   1    0.225169    0.567682    0.526452    11.00000    0.01968    0.02087 =
         0.02492    0.00944    0.00394    0.00217
C11   1    0.547819    0.856569    0.317708    11.00000    0.02758    0.01864 =
         0.02468    0.00972    0.00569    0.00017
C12   1    0.430010    0.808442    0.072488    11.00000    0.02425    0.02867 =
         0.02142    0.00835    0.00505   -0.00114
C13   1    0.322197    1.014972    0.195495    11.00000    0.03320    0.02963 =
         0.02150    0.01483    0.01069    0.00198
C14   1    0.025475    0.704483   -0.018232    11.00000    0.01871    0.02772 =
         0.02087    0.01404    0.00085    0.00210
C15   1   -0.097228    0.898171    0.108391    11.00000    0.02325    0.02884 =
         0.01549    0.00629    0.00106   -0.00040
C16   1   -0.173151    0.645935    0.148365    11.00000    0.02614    0.02741 =
         0.01931    0.00979    0.00366    0.01137
O1    3    0.674348    0.862847    0.390267    11.00000    0.03200    0.03426 =
         0.03715    0.01461   -0.00581   -0.00248
O2    3    0.481658    0.787182   -0.015174    11.00000    0.03123    0.05311 =
         0.03054    0.01097    0.01372    0.00151
O3    3    0.303141    1.122504    0.187416    11.00000    0.06621    0.02381 =
         0.03131    0.01074    0.01284    0.00716
O4    3    0.034866    0.675716   -0.116013    11.00000    0.03292    0.03801 =
         0.01629    0.00648    0.00538    0.00095
O5    3   -0.169002    0.991693    0.090656    11.00000    0.04047    0.02548 =
         0.02620    0.00767   -0.00176    0.00856
O6    3   -0.289704    0.576937    0.156688    11.00000    0.02391    0.03853 =
         0.04279    0.02194    0.01124    0.00087
FE1   5    0.343041    0.843309    0.207489    11.00000    0.01964    0.01965 =
         0.01725    0.00804    0.00437    0.00138
FE2   5    0.016716    0.753330    0.135882    11.00000    0.01838    0.01973 =
         0.01438    0.00830    0.00327    0.00402
PART    1
S1    4    0.123265    0.858718    0.319003    21.00000    0.02397    0.01280 =
         0.00886    0.00573    0.00348    0.00167
SE1   6    0.256897    0.613534    0.172318    21.00000    0.01898    0.01694 =
         0.01375    0.00630    0.00428    0.00337
PART    2
S1'   4    0.255462    0.631831    0.186573   -21.00000    0.01624
SE1'  6    0.129733    0.881538    0.329943   -21.00000    0.01744
HKLF    4

REM
REM R1 =  0.0445 for    2777 Fo > 4sig(Fo)  and  0.0539 for all    3255 data
REM    244 parameters refined using      0 restraints

END

WGHT      0.0624      0.0000

REM Highest difference peak  0.962,  deepest hole -0.699,  1-sigma level  0.134
Q1    1   0.2395  0.5208  0.1018  11.00000  0.05    0.96
Q2    1   0.0044  0.6641  0.0571  11.00000  0.05    0.92
Q3    1   0.1231  0.9451  0.3815  11.00000  0.05    0.85
Q4    1   0.3526  0.9381  0.2778  11.00000  0.05    0.76
Q5    1   0.0689  0.9829  0.2973  11.00000  0.05    0.67
;
_shelx_res_checksum              7639
_shelx_hkl_file
;
   0   0  -1 64276.2 2108.05   1
   0   0  -2 189812. 4920.57   1
   0   0   3 373411. 5800.38   2
   0   0  -3 390276. 8295.17   1
   0   0   4 340602. 6807.48   2
   0   0  -4 343131. 8574.65   1
   0   0   5 28796.7 1757.74   3
   0   0  -5 33821.0 2910.16   1
   0   0   5 33893.1 2660.19   2
   0   0  -6 367811. 10140.7   1
   0   0  -7 7515.01 1626.05   1
   0   0  -8 65432.5 4862.31   1
   0   0   8 63040.2 4851.09  14
   0   0   9 19821.6 2981.40  14
   0   0  10 7416.17 2167.81  14
   0   0  11 8320.73 2130.76  14
   0   0  12 5749.22 1739.32  14
   0   0  13 98.9265 516.825  17
   0   0  14 5444.93 784.128  17
   0  -1  14 12219.1 1154.69  17
   0  -1  13 1200.63 707.739  17
   0  -1  12 3872.78 1642.12  14
   0  -1  11 631.670 879.931  14
   0  -1  10-2202.36 1720.57  14
   0  -1   9 157108. 8329.87  14
   0  -1   8 6964.33 1642.85  14
   0   1  -7 200762. 7582.77   1
   0  -1   7 197066. 7623.52   2
   0  -1   6 8338.41 1211.01   3
   0   1  -6 8927.75 1491.89   1
   0  -1   6 7695.81 1344.38   2
   0   1  -5 148638. 5514.51   1
   0  -1   5 132355. 4516.69   3
   0  -1   5 140053. 4670.54   2
   0  -1   4 154635. 4232.53   2
   0   1  -4 164219. 5375.39   1
   0  -1   4 148912. 4259.90   3
   0  -1   3 96708.4 2931.01   2
   0  -1   3 98131.4 2958.37   3
   0   1  -3 96816.9 3597.01   1
   0  -1   2 452012. 5287.99   3
   0  -1   1 559053. 5008.08   3
   0  -1   0 1338.64 231.260   1
   0  -1   0 1023.63 239.332   3
   0  -1  -1 999089. 7999.38   3
   0  -1  -2 133691. 4828.35   1
   0  -1  -3 74390.8 3941.44   1
   0  -1  -4 63482.6 3863.21   1
   0  -1  -5 195691. 7133.13   1
   0  -1  -6 79597.8 4991.99   1
   0  -1  -7 2615.31 1197.89   1
   0   1   8-471.239 1132.96  14
   0  -1  -8-381.518 622.079   1
   0   1   9 18883.0 2937.48  14
   0  -1  -9 19913.7 2886.16   1
   0   1  10 63262.0 5210.18  14
   0   1  11 22977.4 3039.68  14
   0   1  12 65838.9 4225.02  17
   0   1  13 4493.87 986.593  17
   0  -2  14 2772.45 600.705  17
   0  -2  13 11222.0 1633.04  17
   0  -2  13 14468.2 2196.23  14
   0  -2  12 84659.0 6210.98  14
   0  -2  11 3231.36 815.400  14
   0  -2  10 68021.2 5861.29  14
   0  -2   9 835.935 685.602   8
   0  -2   9 1389.84 982.779  14
   0  -2   9-184.345 597.031   2
   0  -2   8 47122.0 3957.35  14
   0  -2   8 42053.6 3601.20   2
   0  -2   7 588.897 585.082   2
   0   2  -6 9732.14 1391.29   1
   0  -2   6 13749.0 1877.62   3
   0  -2   6 11634.0 1499.98   2
   0  -2   5 49908.4 3286.37   3
   0  -2   5 52346.1 2823.22   2
   0   2  -5 50056.6 2720.21   1
   0   2  -4 151699. 4204.25   1
   0  -2   4 162215. 5224.99   3
   0  -2   4 148742. 4357.81   2
   0  -2   3 5123.85 834.124   3
   0   2  -3 5469.06 661.949   1
   0  -2   3 4860.31 719.067   2
   0  -2   2 190021. 4436.83   3
   0  -2   1 289043. 2713.95   1
   0  -2   1 296854. 5291.78   3
   0  -2   0 239560. 4813.25   3
   0  -2   0 231844. 3994.26   1
   0  -2  -1 227.424 244.183   1
   0  -2  -1 215.266 202.801   3
   0  -2  -2 347031. 8238.08   1
   0  -2  -3 5093.40 1178.23   1
   0  -2  -4 488763. 11154.2   1
   0  -2  -5 1478.52 833.738   1
   0  -2  -6 855.996 631.023   1
   0  -2  -7 123851. 6842.43   1
   0  -2  -8 267432. 10541.1   1
   0   2   8 296369. 10594.9  14
   0   2   9 47144.4 4411.46  14
   0  -2  -9 40371.8 4175.32   1
   0   2  10 155857. 6908.21   6
   0   2  11 62719.5 3977.39   6
   0   2  12 1736.32 806.634  17
   0   2  13 5370.19 913.768  17
   0  -3  13 123788. 5021.33  17
   0  -3  13 126390. 6139.22  14
   0  -3  12-85.7237 1151.78  17
   0  -3  12-857.680 1330.41  14
   0  -3  11 46089.0 4888.26  14
   0  -3  10 1469.15 1038.07   8
   0  -3  10-392.373 1032.69  14
   0  -3   9 4128.68 1027.76   8
   0  -3   9 2703.33 1178.90   2
   0  -3   9 5822.72 1724.16  14
   0  -3   8 22946.8 2710.10   2
   0  -3   8 25109.4 2828.01  14
   0  -3   8 22903.1 2127.85   8
   0  -3   8 25131.7 3078.23  19
   0  -3   7 6104.54 1492.00   3
   0  -3   7 5572.08 1187.81   2
   0  -3   6 116501. 4897.55   2
   0  -3   6 120661. 6492.55   3
   0  -3   5 34080.9 2515.16   2
   0  -3   5 38750.3 3303.28   3
   0  -3   4 95994.5 3933.28   2
   0  -3   4 106223. 4906.07   3
   0  -3   3 28205.5 2282.17   3
   0  -3   2 109952. 4196.87   3
   0  -3   1 2002.88 593.047   3
   0  -3   1 2211.48 361.678   1
   0  -3   0 93080.0 3106.83   1
   0  -3   0 95596.8 3798.31   3
   0  -3  -1 249305. 6702.95   1
   0  -3  -1 285634. 6661.99   3
   0  -3  -2 17160.2 1574.44   3
   0  -3  -2 17373.4 2068.58   1
   0  -3  -3 122438. 5673.58   1
   0  -3  -4 44908.7 3657.22   1
   0  -3  -5 10056.6 1876.84   1
   0  -3  -6 10307.5 2048.96   1
   0   3   7 226461. 8250.62  14
   0  -3  -7 211088. 9189.15   1
   0  -3  -8 7790.03 2026.38   1
   0   3   9 128080. 6602.64   6
   0   3  10 25220.0 2838.91   6
   0   3  11 10960.4 1688.37   6
   0   3  11 11992.6 1748.60  17
   0   3  12 34738.1 2413.86  17
   0   3  12 25607.2 1918.35   6
   0  -4  13 710.928 762.380  14
   0  -4  12 31364.9 3554.66  14
   0  -4  12 40653.0 3523.57  17
   0  -4  11 2758.74 1347.57   8
   0  -4  11-2070.85 1358.80  14
   0  -4  10 16679.9 2263.27   8
   0  -4  10 16694.0 2892.49  14
   0  -4   9 4083.15 1477.48  14
   0  -4   9 2754.10 1267.17  19
   0  -4   9 3755.10 1065.74   8
   0  -4   9 3252.73 1156.10   2
   0  -4   8 188458. 8215.02  19
   0  -4   8 176794. 7483.46   2
   0  -4   8 175551. 6416.59   8
   0  -4   7 78668.8 4701.66   2
   0  -4   7 84133.2 6431.41   3
   0  -4   6 20012.7 2231.80   2
   0  -4   6 22326.4 3223.17   3
   0  -4   5 222140. 9131.21   3
   0  -4   5 205784. 6980.37   2
   0  -4   4 28551.0 2936.16   3
   0  -4   3 4277.67 1147.69   3
   0  -4   2 552002. 10858.4   3
   0  -4   1 397204. 9033.09   3
   0  -4   1 395794. 5593.17   1
   0  -4   0 378338. 7457.50   1
   0  -4   0 389709. 9054.54   3
   0  -4  -1 12035.6 1650.73   1
   0  -4  -1 13090.1 1674.13   3
   0  -4  -2 54649.3 3144.39   3
   0  -4  -2 57729.0 3895.65   1
   0  -4  -3 19369.3 2427.60   1
   0  -4  -4 24086.2 2809.32   1
   0  -4  -5 38312.8 3768.66   1
   0   4   6 129916. 6272.19   6
   0  -4  -6 137632. 7372.08   1
   0  -4  -7 10788.9 2227.62   1
   0   4   7 8330.76 1706.02   6
   0  -4  -7 10614.6 1682.39  12
   0  -4  -8 156494. 8360.01   1
   0   4   8 150253. 7337.39   6
   0   4   9 14706.0 2334.32   6
   0   4  10 20551.0 2505.98   6
   0   4  10 25342.1 2497.10  17
   0   4  11 8638.10 1441.95   6
   0   4  11 9773.10 1332.12  17
   0   4  12 13012.7 1214.66   6
   0  -5  13 29599.2 2723.72  14
   0  -5  12 4409.90 1083.08  14
   0  -5  11 38656.6 4115.39  14
   0  -5  11 48328.3 3725.15   8
   0  -5  10 1287.09 842.000   8
   0  -5  10 1760.46 1234.55  14
   0  -5   9 266157. 9734.23  14
   0  -5   9 279755. 8898.54   8
   0  -5   9 289963. 10257.5   2
   0  -5   9 276619. 10832.9  19
   0  -5   8 103568. 6054.42  19
   0  -5   8 102391. 5899.41   2
   0  -5   7 116610. 5788.14  19
   0  -5   7 118659. 6185.05   2
   0  -5   7 109442. 8200.36   3
   0  -5   6 265534. 12155.9   3
   0  -5   6 268007. 9033.33   2
   0  -5   5 64155.4 5343.66   3
   0  -5   5 59593.9 4077.53   2
   0  -5   4 930.462 817.807   3
   0  -5   3 489910. 12279.8   3
   0  -5   2 55288.6 3959.29   3
   0  -5   1 143972. 4014.57   1
   0  -5   1 127634. 5895.59   3
   0  -5   0 158161. 5555.20   1
   0  -5   0 151740. 6513.74   3
   0  -5  -1 19660.7 2253.26   1
   0  -5  -1 25274.8 2630.98   3
   0  -5  -2 28146.8 2462.68   3
   0  -5  -2 29561.5 3036.28   1
   0  -5  -3 1717.01 903.639   1
   0  -5  -4 611.370 803.649   1
   0  -5  -5 26884.9 2500.99  12
   0  -5  -5 27121.2 3301.19   1
   0   5   5 26785.4 2861.09   6
   0  -5  -6 50080.0 4614.94   1
   0   5   6 46600.8 4024.39   6
   0  -5  -6 43553.6 3322.13  12
   0  -5  -7 55442.9 4935.53   1
   0   5   7 51319.2 4330.56   6
   0   5   8 2020.08 945.933   6
   0   5   9 7710.65 1578.62   6
   0   5  10 378.611 464.668   6
   0   5  11 7472.36 1215.54   6
   0  -6  13 3483.28 929.927  14
   0  -6  12 43514.3 3065.10   8
   0  -6  12 29149.0 3063.05  14
   0  -6  11 24596.8 2514.17   8
   0  -6  11 21870.5 3009.39  14
   0  -6  10 232793. 9504.79  14
   0  -6  10 241082. 8124.77   8
   0  -6   9 16568.1 2446.89  14
   0  -6   9 14786.7 2501.22  19
   0  -6   9 17783.7 2360.71   8
   0  -6   8 163693. 6885.11  15
   0  -6   8 161166. 11166.4   3
   0  -6   8 168268. 7687.37  19
   0  -6   8 177184. 7976.30   2
   0  -6   7 150128. 10701.1   3
   0  -6   7 153128. 6868.58  19
   0  -6   7 158094. 7600.68   2
   0  -6   7 144410. 6538.10  15
   0  -6   6 42078.7 3505.65  15
   0  -6   6 41754.4 3813.20   2
   0  -6   6 42049.4 3389.30  19
   0  -6   6 43084.6 5266.84   3
   0  -6   5 36833.4 4368.49   3
   0  -6   5 34182.4 3324.54   2
   0  -6   4 296881. 11357.5   3
   0  -6   3 5934.76 1563.38   3
   0  -6   2 267582. 9778.94   3
   0  -6   1-263.588 671.376   3
   0  -6   0 931.518 726.308   3
   0  -6   0 1032.71 674.629   1
   0  -6  -1 1844.36 851.428   1
   0  -6  -1 1179.32 803.740   3
   0  -6  -2 102817. 5969.19   1
   0  -6  -3 26649.3 3144.51   1
   0   6   4 11933.7 1954.43   6
   0  -6  -4 14943.1 2466.32   1
   0   6   5 14603.4 2249.80   6
   0  -6  -5 14233.8 2473.91   1
   0   6   6 25382.6 3102.48   6
   0  -6  -6 27212.0 3450.27   1
   0   6   7 35523.4 3684.28   6
   0   6   8 3961.27 1452.00   6
   0   6   9 8254.70 1562.62   6
   0   6  10 1631.93 739.466   6
   0   6  11 1150.04 390.439   6
   0  -7  12 5787.86 1131.33   8
   0  -7  12 2938.98 747.325  14
   0  -7  11 54427.4 3365.45   8
   0  -7  11 55737.4 4569.15  14
   0  -7  10 47960.0 4308.85  14
   0  -7  10 45988.6 3467.45   8
   0  -7   9 91050.7 5780.71  14
   0  -7   9 92319.1 6127.88  19
   0  -7   8 2222.15 982.168  15
   0  -7   8 1021.28 835.591  19
   0  -7   7 8472.98 1780.87  19
   0  -7   7 7834.43 2586.93   3
   0  -7   7 6291.72 1560.16  15
   0  -7   7 8091.71 1824.28   2
   0  -7   6 24994.3 3149.32  15
   0  -7   6 23263.9 3084.20   2
   0  -7   6 25457.6 2868.27  19
   0  -7   6 23346.0 4059.12   3
   0  -7   5 163065. 8062.31  15
   0  -7   5 165807. 7183.27  19
   0  -7   5 140575. 9072.90   3
   0  -7   4 568.053 782.765  15
   0  -7   4-441.785 1073.30   3
   0  -7   3 60220.2 4247.72  13
   0  -7   3 54627.9 5039.24   3
   0  -7   3 56660.1 4680.24  15
   0  -7   2 1449.83 1005.13  13
   0  -7   2 873.088 609.799   3
   0  -7   1 28008.0 3481.59   3
   0  -7   0 67138.8 5232.27   3
   0  -7   0 56366.1 4614.72  13
   0  -7  -1 100505. 6007.28  13
   0  -7  -1 91266.9 5726.19   3
   0  -7  -2 140382. 6866.86  13
   0  -7  -2 149258. 7533.14   1
   0   7   2 149083. 7074.22   6
   0  -7  -3 7046.81 1730.10   1
   0   7   3 7903.60 1648.29   6
   0  -7  -3 8072.65 1932.25  13
   0   7   4 40756.5 3748.18   6
   0  -7  -4 38621.0 3914.94   1
   0   7   5 28212.6 3182.69   6
   0  -7  -6 80736.2 4750.14  13
   0   7   6 93139.4 5791.77   6
   0   7   7 58422.5 4609.30   6
   0   7   8 51196.8 3974.47   6
   0   7   9 2558.95 803.332   6
   0   7  10 6719.98 1004.83   6
   0   7  10 5725.14 804.407   5
   0  -8  11 11854.4 1467.72   8
   0  -8  10 815.316 585.649   8
   0  -8   9 8930.38 2020.61  19
   0  -8   8 5517.73 1606.04  15
   0  -8   8 5888.36 1589.01  19
   0  -8   7 1302.85 975.490  15
   0  -8   7 629.861 655.399  19
   0  -8   6-416.591 540.517  19
   0  -8   6 535.973 1119.73  15
   0  -8   6 52.8914 773.179   2
   0  -8   6 739.074 881.257   3
   0  -8   5 35053.7 4619.96   3
   0  -8   5 33608.3 4077.33   2
   0  -8   5 34304.9 4203.12  15
   0  -8   4 36115.2 4502.24   3
   0  -8   4 38332.6 4395.37  15
   0  -8   3 1707.07 1044.93  15
   0  -8   3 1085.57 996.626   3
   0  -8   3 4346.66 1719.73  13
   0  -8   2 82039.4 6394.75   3
   0  -8   2 99827.6 6294.20  15
   0  -8   2 90844.7 6356.38  13
   0  -8   1 22611.5 3326.07   3
   0  -8   1 27102.8 3086.55  15
   0  -8   0 172728. 8622.74  13
   0  -8   0 179405. 8738.50   3
   0  -8  -1 87322.8 4832.51  15
   0   8   1 82653.1 5677.02   6
   0  -8  -1 93995.6 6111.25  13
   0   8   2 20214.4 2710.12   6
   0  -8  -2 21672.5 2917.21  13
   0  -8  -3 58243.2 4419.48  13
   0   8   3 59765.5 4568.28   6
   0  -8  -4 113460. 5828.90  13
   0   8   4 116380. 6367.83   6
   0  -8  -5 1248.35 913.299  13
   0   8   5 240.332 850.695   6
   0  -8  -6 74415.6 4208.35  13
   0   8   6 86023.1 5312.87   6
   0   8   7 24263.0 2674.78   6
   0   8   8 13317.3 1788.15   6
   0   8   9 9286.61 1141.73   6
   0   8   9 9414.71 1113.61   5
   0  -9  11 22357.2 1903.01   8
   0  -9  10 64753.0 3738.47   8
   0  -9   9 14399.8 2074.26   8
   0   9  -8 13490.6 1969.80  18
   0  -9   7 8408.09 2202.10  15
   0  -9   6 10913.3 2480.18  15
   0  -9   5 20786.5 3498.62  15
   0  -9   4 2285.37 1072.00  15
   0  -9   3 30517.4 3916.29  15
   0  -9   3 27589.3 3808.47   3
   0  -9   2 4271.96 1574.85   3
   0  -9   2 3724.15 1485.12  15
   0  -9   2 1987.62 1076.40  13
   0  -9   1 111313. 7004.09   3
   0  -9   1 98431.5 7023.25  13
   0  -9   1 121047. 6517.48  15
   0  -9   0 1744.73 835.122  15
   0  -9   0 1178.38 952.534  13
   0  -9  -1 41322.9 3966.07  13
   0   9   2 34087.7 3391.21   6
   0  -9  -2 35370.9 3570.02  13
   0  -9  -3 35777.4 3343.64  13
   0   9   3 33486.3 3331.29   6
   0  -9  -4 5531.36 1315.66  13
   0   9   4 7329.41 1603.40   6
   0   9   5 102314. 5380.51   6
   0  -9  -5 91523.6 4585.35  13
   0   9   6 12223.1 1797.19   6
   0   9   7 11323.3 1561.47   6
   0   9   8 8738.79 1053.62   5
   0 -10  10 23772.5 2160.64   8
   0 -10   9 52459.8 3768.33   8
   0  10  -8 1203.55 649.854  18
   0 -10   7 1883.01 1076.30  15
   0  10  -7-232.147 1098.28  18
   0 -10   6 7633.59 1989.48  15
   0 -10   5 341.587 1120.79  15
   0 -10   4 23422.9 3379.62  15
   0 -10   3 2537.78 1173.29  15
   0 -10   2 101978. 6103.60  15
   0 -10   1 20403.0 2605.75  15
   0 -10   1 20008.9 3054.55  13
   0 -10   0 31263.5 3008.63  15
   0 -10   0 33730.9 3772.64  13
   0 -10  -1 490.701 962.562  13
   0 -10  -2 5986.03 1437.55  13
   0 -10  -3 8732.89 1602.88  13
   0 -10  -4 34936.4 2694.06  13
   0 -10  -5 1334.44 570.617  13
   0  10   6 16343.7 1665.10   5
   0 -11   9 218.056 381.768   8
   0 -11   8-1095.28 1014.16   8
   0  11  -7 6051.68 1343.93  18
   0 -11   6 4823.76 1275.29  15
   0  11  -6 7283.97 1590.65  18
   0 -11   5 3647.80 1323.53  15
   0 -11   4 2713.76 1153.03  15
   0 -11   3 12757.0 2092.28  15
   0 -11   2 25058.7 2660.35  15
   0 -11   1 5825.60 1347.79  15
   0 -11  -1 462.582 587.114  13
   0 -11  -2 342.249 478.657  13
   0  11   3 1105.76 449.283   5
   0  11   4 3335.95 666.390   5
   0 -12   7 10893.0 1550.78   8
   0  12  -6 1795.48 632.884  18
   0  12  -5 14082.7 1674.33  18
   0 -12   4 19006.8 1977.17  15
   0  12  -4 19962.1 2022.03  18
   0 -12   3 39966.3 2682.63  15
   0  12  -3 39480.5 2738.95  18
   0 -12   2 390.668 419.764  15
   0  12  -2 977.235 489.614  18
   0  12  -1 40960.2 2530.01  18
   0  12   0 1262.45 422.461  18
  -1  12   0 36399.8 2084.43  18
  -1  12  -1 28213.1 2131.40  18
  -1  12  -2 1948.66 692.284  18
  -1  12  -3 24066.1 2151.52  18
  -1  12  -4 14513.3 1710.72  18
  -1  12  -5 2631.66 795.570  18
  -1  12  -6 1791.72 664.618  18
  -1  11   4 1160.33 483.568   5
  -1  11   3 3243.52 748.932   5
  -1  11   2 1276.18 543.436   5
  -1  11   1 565.108 454.797  18
  -1  11   0 3815.58 995.068  18
   1 -11   1 701.140 532.640  15
  -1  11  -1-11.7446 650.783  18
   1 -11   2 10771.3 1805.88  15
   1 -11   3 2382.94 1008.85  15
  -1  11  -3 2986.81 1213.29  18
   1 -11   4 33615.1 3403.68  15
  -1  11  -4 33999.6 3330.19  18
  -1  11  -5 1215.99 997.145  18
  -1  11  -6 101639. 5600.30  18
  -1  11  -7 14998.2 1972.63  18
   1 -11   8 6030.00 1276.57   8
  -1  10   7 1439.42 432.629   5
  -1  10   6 138.699 345.824   5
  -1  10   5 14396.1 1875.58   5
  -1  10   4 7027.17 1403.24   5
   1 -10  -3 10948.3 1584.81  13
  -1  10   3 17007.5 2174.74   5
  -1  10   2 3593.06 1295.35   5
   1 -10  -2 2888.36 854.872  13
  -1  10   1 10260.7 1796.95   5
   1 -10  -1 11686.9 2010.39  13
   1 -10   0 9581.77 1720.29  15
   1 -10   1 84.4106 557.735  15
   1 -10   2 16144.6 2533.26  15
   1 -10   3 41134.8 4118.79  15
   1 -10   4 17448.1 2902.47  15
   1 -10   4 8348.22 1962.29  19
   1 -10   5 89001.3 6439.88  19
   1 -10   5 119433. 7625.63  15
  -1  10  -6-396.890 1057.00  18
   1 -10   6-500.029 922.301  19
   1 -10   7 76033.6 5598.03  19
  -1  10  -7 83070.2 5226.02  18
  -1  10  -8 46771.8 3256.24  18
   1 -10   8 41355.7 4047.87  19
   1 -10   9 29467.6 2434.56   8
  -1   9   8 5261.91 920.447   5
  -1   9   7 1376.64 670.048   5
  -1   9   5 5831.60 1444.04   6
  -1   9   4 26921.3 3042.11   6
   1  -9  -3 4082.99 1204.52  13
   1  -9  -2 5477.97 1502.16  13
   1  -9  -1-648.700 692.619  13
   1  -9   0 637.808 804.891  15
   1  -9   0-629.266 796.683  13
   1  -9   1 8423.78 1884.69  15
   1  -9   1 6303.45 1717.44   3
   1  -9   1 3582.18 1402.94  13
   1  -9   2 24578.3 3204.65  15
   1  -9   2 17869.2 3049.86   3
   1  -9   3 32356.9 3869.41  15
   1  -9   3 22497.2 3699.14  19
   1  -9   4 102539. 7783.35  19
   1  -9   4 96605.1 6992.06  15
   1  -9   5 2551.81 1425.20  19
   1  -9   5 1784.97 1351.99  15
   1  -9   6 29598.6 3822.17  19
   1  -9   6 27334.6 3874.27  15
  -1   9  -7 4.84213 870.479  18
   1  -9   7 478.925 685.017  19
  -1   9  -8 1814.20 757.869  18
   1  -9   8 1627.32 1122.48  19
   1  -9   9 21840.5 3196.37  19
   1  -9   9 22102.5 3145.41  14
   1  -9   9 14231.0 1905.43   8
   1  -9  10 48649.6 2809.18   8
   1  -9  10 75530.1 5588.56  14
  -1   8   9 652.979 438.960   5
  -1   8   8 22258.9 2381.03   6
  -1   8   7 64067.1 4471.05   6
  -1   8   6 1624.32 794.302   6
  -1   8   5 84267.7 5573.74   6
   1  -8  -4 88532.8 4881.44  13
  -1   8   4 101694. 6181.23   6
  -1   8   3 15497.9 2477.77   6
   1  -8  -3 15427.8 2241.99  13
   1  -8  -2 10994.5 1998.02  13
  -1   8   2 9036.44 1956.17   6
   1  -8  -1 8032.97 1812.75  13
   1  -8   0 2454.08 1047.24   3
   1  -8   0 2579.79 1330.94  13
   1  -8   0 3603.33 1187.45  15
   1  -8   1 12080.7 2225.09  13
   1  -8   1 17403.5 2560.88  15
   1  -8   1 12480.7 2461.37   3
   1  -8   2 3360.60 1437.82  13
   1  -8   2 2505.85 980.625   3
   1  -8   2 3651.14 1301.52  15
   1  -8   3 23382.1 3442.24   3
   1  -8   3 24067.7 3387.81  15
   1  -8   4 8580.10 2185.90  19
   1  -8   4 6921.97 1914.95   3
   1  -8   4 6406.29 1762.66  15
   1  -8   5 20826.2 3227.31  19
   1  -8   5 18191.2 2959.02   2
   1  -8   5 19032.8 3378.39   3
   1  -8   5 18859.4 3095.85  15
   1  -8   6 10543.1 2431.22  15
   1  -8   6 8944.25 2130.92  19
   1  -8   7 13200.9 2491.56  19
  -1   8  -7 13282.5 2162.17  18
   1  -8   7 15222.4 2742.41  15
   1  -8   8 5216.80 1525.01  19
   1  -8   9 15382.1 2525.84  19
   1  -8   9 17403.0 2638.26  14
   1  -8   9 11843.3 1785.49   8
   1  -8  10 4827.54 1540.57  14
   1  -8  10 2510.10 820.026   8
   1  -8  11-434.233 893.026  14
  -1   7  10 4479.78 771.213   5
  -1   7  10 4185.60 802.106   6
  -1   7   9 29503.9 2684.37   6
  -1   7   8 28070.7 2618.01  11
  -1   7   8 32987.5 3235.69   6
  -1   7   7 22544.2 2974.22   6
  -1   7   7 22730.5 2487.42  11
  -1   7   6 150605. 7417.45   6
  -1   7   6 129312. 6050.68  11
  -1   7   5 950.046 799.275  11
   1  -7  -5 1993.18 1085.64   1
  -1   7   5 1769.96 1082.12   6
   1  -7  -4 3815.14 1310.32   1
  -1   7   4 5213.50 1589.88   6
  -1   7   4 3768.15 1293.28  11
  -1   7   3 34678.2 3667.13   6
   1  -7  -3 32755.5 3131.36  13
  -1   7   3 33955.1 3381.60  11
   1  -7  -3 31970.1 3260.31   1
   1  -7  -2 30152.3 3101.40  13
  -1   7   2 32714.7 3577.82   6
   1  -7  -1 4150.85 1200.71   3
   1  -7  -1 4186.10 1170.90  13
  -1   7   1 3112.29 960.512   6
   1  -7   0 5413.34 1510.16   3
   1  -7   1 26595.0 3217.97   3
   1  -7   2 91526.1 5471.64  13
   1  -7   2 95495.6 5782.66  15
   1  -7   2 92804.6 6095.47   3
   1  -7   3 191289. 8495.82  15
   1  -7   3 205666. 9268.98   3
   1  -7   4 53164.9 4586.42  15
   1  -7   4 58522.1 4662.16  19
   1  -7   4 49580.8 4739.54   3
   1  -7   5 21295.9 3013.93  15
   1  -7   5 16508.1 2985.19   3
   1  -7   5 15644.7 2545.19   2
   1  -7   5 16489.5 2523.33  19
   1  -7   6 2674.14 1484.13   3
   1  -7   6 2229.05 1047.05   2
   1  -7   6 1863.12 1081.87  15
   1  -7   6 1439.28 974.137  19
  -1   7  -7 2479.29 954.652  18
   1  -7   7 2253.59 1613.98   3
   1  -7   7 4094.70 1310.78  15
   1  -7   7 2394.35 906.687   2
   1  -7   7 1945.54 1220.73  19
   1  -7   8 1539.58 914.192  19
   1  -7   9 1848.18 853.713   8
   1  -7   9 1874.15 1023.33  19
   1  -7  10 7595.20 1271.13   8
   1  -7  10 10619.1 2188.59  14
   1  -7  11 2565.72 994.056  14
   1  -7  12 46932.1 3609.56  14
  -1   6  11 4132.93 741.166   6
  -1   6  10 6834.81 1107.02  11
  -1   6  10 9058.75 1334.87   5
  -1   6  10 7926.14 1397.34   6
  -1   6   9 22126.7 2648.75   6
  -1   6   9 23204.3 2533.51  11
  -1   6   8 6303.69 1617.72   6
  -1   6   7 12296.4 2192.05   6
  -1   6   6 1738.41 901.939   6
   1  -6  -6 2947.61 1408.07   1
   1  -6  -5 6797.75 1687.01   1
  -1   6   5 5700.75 1454.08   6
  -1   6   4 2133.76 1030.16  11
  -1   6   4 742.252 652.257   6
   1  -6  -4 291.967 481.683   1
   1  -6  -3 95615.4 5406.28   1
  -1   6   3 101980. 5755.88   6
   1  -6  -2 51838.2 3848.36   1
   1  -6  -2 43245.1 3401.94   3
   1  -6  -1 20080.2 2307.45   1
   1  -6  -1 15421.8 2146.24   3
   1  -6   0 145792. 6656.51   3
   1  -6   1 38731.8 3433.11   3
   1  -6   2 43.6690 403.888   3
   1  -6   3 299267. 10149.7   3
   1  -6   4 217823. 9171.10   3
   1  -6   5 201727. 9570.76   3
   1  -6   5 191554. 7843.81   2
   1  -6   5 207551. 8058.33  15
   1  -6   5 219153. 8045.68  19
   1  -6   6 100779. 5808.91   2
   1  -6   6 98272.0 5611.70  15
   1  -6   6 107677. 5876.27  19
   1  -6   6 107231. 7801.42   3
   1  -6   7 4373.88 1342.44   2
   1  -6   7 4850.65 1968.89   3
   1  -6   7 3642.43 1284.11  19
   1  -6   8 461.560 566.020   2
   1  -6   8 151.378 633.839  19
   1  -6   8 576.259 1086.01   3
   1  -6   9 38704.9 4067.77  19
   1  -6   9 34672.0 3007.98   8
   1  -6  10 310.660 570.707   8
   1  -6  10 1113.57 1165.99  14
   1  -6  11 93365.4 5833.60  14
   1  -6  12 177.233 799.153  14
   1  -6  13 28214.3 2212.71  14
  -1   5  11 7912.49 1273.54   6
  -1   5  11 6348.27 1079.96  11
  -1   5  10 1457.90 680.843   6
  -1   5   9 1219.22 837.717   6
  -1   5   8 43.9313 753.426   6
   1  -5  -7 15380.7 2615.48   1
  -1   5   7 13465.4 2336.98   6
   1  -5  -6 9232.66 2008.43   1
  -1   5   6 10140.6 1888.82   6
  -1   5   5 166.403 433.347   6
   1  -5  -5 1087.53 876.251   1
   1  -5  -4 126623. 6310.27   1
   1  -5  -3 29749.9 2924.84   1
   1  -5  -2 47272.5 3495.67   1
   1  -5  -2 44104.2 3118.98   3
   1  -5  -1 113115. 5077.55   1
   1  -5  -1 95528.2 4767.38   3
   1  -5   0 13145.4 1763.81   3
   1  -5   0 9862.93 1311.53   1
   1  -5   1 185957. 6532.09   3
   1  -5   2 554104. 11818.9   3
   1  -5   3 100839. 5205.75   3
   1  -5   4 235290. 8507.36   3
   1  -5   5 60410.8 4810.23   3
   1  -5   5 54818.5 3910.32   2
   1  -5   6 2568.08 1352.94   3
   1  -5   6 1712.50 841.791   2
   1  -5   7 18583.7 2392.71   2
   1  -5   7 16676.1 3283.10   3
   1  -5   7 18353.9 2475.88  19
   1  -5   8 120709. 6846.31  19
   1  -5   8 118901. 6184.75   2
   1  -5   8 118290. 8779.40   3
   1  -5   9 612.551 749.183  19
   1  -5   9 1018.28 843.158   8
   1  -5  10 5178.62 1665.09  14
   1  -5  11 996.594 924.142  14
   1  -5  12 1858.82 731.949  14
   1  -5  13 15384.0 1889.94  14
  -1   4  12 41187.1 2058.16  17
  -1   4  11 1185.79 627.177   6
  -1   4  11 2428.08 836.923  17
  -1   4  10-101.959 631.172  17
  -1   4  10 369.856 549.648   6
  -1   4   9 25268.5 2886.88   6
  -1   4   9 26373.5 2663.13  17
   1  -4  -8 2646.27 1375.95   1
  -1   4   8 2521.00 1146.65  17
  -1   4   8 2086.94 1070.65   6
  -1   4   7 63107.4 4434.32   6
   1  -4  -7 68695.5 5397.13   1
   1  -4  -6 6202.62 1643.60   1
  -1   4   6 5768.96 1316.66   6
   1  -4  -5 116662. 6223.06   1
   1  -4  -4 18.6979 427.150   1
   1  -4  -3 96907.6 3290.25   3
   1  -4  -3 100771. 5093.52   1
   1  -4  -2 120758. 4505.56   3
   1  -4  -2 135010. 5487.45   1
   1  -4  -1 24129.4 2190.85   1
   1  -4  -1 21101.2 1884.38   3
   1  -4   0 275218. 6694.25   3
   1  -4   0 279802. 6588.37   1
   1  -4   1 300874. 4473.56   1
   1  -4   1 294096. 6980.36   3
   1  -4   2 1252.98 568.237   3
   1  -4   3 348086. 8401.32   3
   1  -4   4 23239.0 2406.44   3
   1  -4   5 1356.60 829.258   3
   1  -4   5 414.489 346.992   2
   1  -4   6 7311.12 1359.81   2
   1  -4   6 7228.59 1766.82   3
   1  -4   7 86274.9 6865.94  16
   1  -4   7 88111.6 4830.17   2
   1  -4   7 98475.9 5559.50  19
   1  -4   8 1719.43 1149.35  19
   1  -4   8 1624.45 878.356   2
   1  -4   9 22929.6 3030.75  14
   1  -4   9 18650.9 2615.07   2
   1  -4   9 19621.0 3223.31  19
   1  -4  10 3084.56 1471.97  14
   1  -4  11 7174.66 1906.38  14
   1  -4  12 3851.35 1072.82  14
   1  -4  12 8847.82 1693.67  17
   1  -4  13 38660.8 3104.03  14
  -1   3  13 31784.3 1705.01  17
  -1   3  12 1699.23 732.921  17
  -1   3  11 12751.1 1890.55  17
  -1   3  11 9712.75 1489.83   6
  -1   3  10 17625.0 2435.52  17
  -1   3  10 13191.7 2010.56   6
  -1   3   9 1528.82 881.083   6
   1  -3  -8 96582.9 6476.04   1
  -1   3   8 84281.7 5048.75   6
   1  -3  -7 1258.69 951.822   1
  -1   3   7 1047.85 419.153   6
   1  -3  -6 36093.7 3642.98   1
   1  -3  -5 33078.3 3208.85   1
   1  -3  -4 3795.08 1144.14   1
   1  -3  -3 333.695 539.053   1
   1  -3  -3 524.489 252.465   3
  -1   3   2 16726.9 1884.60   4
   1  -3  -2 17015.6 2017.81   1
   1  -3  -2 19313.3 1469.79   3
  -1   3   1 2872.87 656.247   4
   1  -3  -1 4184.45 926.265   1
   1  -3  -1 3552.18 661.067   3
   1  -3   0 61767.2 2581.16   3
  -1   3   0 60457.6 2359.60   4
   1  -3   0 66205.1 3059.39   1
   1  -3   1 327102. 6110.69   3
   1  -3   1 318352. 4775.06   1
  -1   3  -1 313724. 4145.83   4
   1  -3   2 335049. 6609.28   3
  -1   3  -2 315186. 3305.37   4
   1  -3   3 14684.4 1563.87   3
  -1   3  -3 11053.1 573.889   4
   1  -3   4 758.928 495.525   3
   1  -3   4 89.2332 315.607   2
   1  -3   5 2000.23 608.569   2
   1  -3   5 2245.64 833.544   3
   1  -3   6 87745.8 5586.12   3
   1  -3   6 97744.7 4410.62   2
   1  -3   7 10904.6 1646.80   2
   1  -3   7 7464.90 1709.00   3
   1  -3   8 24760.1 3615.18  16
   1  -3   8 20140.2 2535.10   2
   1  -3   8 18835.5 2764.15  19
   1  -3   9 28725.6 3527.24  14
   1  -3   9 25547.8 3248.40   2
   1  -3  10 114100. 7386.34  14
   1  -3  11 3389.37 1315.79  14
   1  -3  12 85606.2 6005.18  14
   1  -3  13 59528.1 3189.92  17
   1  -3  13 63649.6 4113.57  14
  -1   2  13 12475.6 1391.24  17
  -1   2  12 48640.6 3420.82  17
  -1   2  11 84920.8 5033.49  17
  -1   2  10 18849.6 2288.99   6
  -1   2   9 48638.9 3739.11   6
   1  -2  -9 54724.0 4849.78   1
  -1   2   8 5670.37 1285.20   6
   1  -2  -8 7050.22 1811.33   1
  -1   2   8 9571.53 2007.17  14
   1  -2  -7 700.408 712.873   1
   1  -2  -6 20161.4 2686.80   1
   1  -2  -5 499.750 652.326   1
   1  -2  -4 174364. 6836.42   1
  -1   2   3 2487.19 692.382   4
   1  -2  -3 1477.34 702.955   1
  -1   2   2 209.701 272.539   4
   1  -2  -2 54.3345 121.162   3
   1  -2  -1 6467.87 618.158   3
  -1   2   1 5788.87 733.846   4
  -1   2   0 84130.4 2164.50   4
   1  -2   0 85313.8 2433.91   3
   1  -2   1 5543.88 695.448   3
  -1   2  -1 5541.95 479.764   4
  -1   2  -2 56403.1 1499.91   4
   1  -2   3 8617.73 956.863   2
  -1   2  -3 8618.58 568.877   1
   1  -2   4 60447.6 2746.19   2
  -1   2  -4 61617.0 1965.54   1
   1  -2   4 64773.1 3450.46   3
   1  -2   5 357332. 9373.69   3
  -1   2  -5 356775. 5807.76   1
   1  -2   5 361517. 7355.88   2
   1  -2   6 1121.72 565.532   2
   1  -2   6 1002.44 718.016   3
   1  -2   7 55197.5 4090.93   3
   1  -2   7 52473.0 3693.90   2
   1  -2   8 49600.3 4034.93  14
   1  -2   8 45687.2 4064.67   2
   1  -2   8 43963.9 4086.35  19
   1  -2   8 49404.4 4701.87  16
   1  -2   9 169344. 8282.71  14
   1  -2  10 1071.86 754.186  14
   1  -2  11 148623. 8624.59  14
   1  -2  12 17466.3 2720.75  14
   1  -2  13 32527.2 2922.50  14
   1  -2  13 28464.7 2247.35  17
  -1   1  14 27374.1 1618.17  17
  -1   1  13 3415.35 947.090  17
  -1   1  12 11205.1 1782.30  17
  -1   1  11 4151.50 1342.13  17
  -1   1  10 48188.7 4615.69  14
   1  -1  -9 25311.4 3235.75   1
  -1   1   9 21490.1 3415.57   8
  -1   1   9 25322.4 3375.12  14
  -1   1   8 27075.9 3243.39  14
   1  -1  -8 23846.5 3093.32   1
   1  -1  -7 47177.8 4121.74   1
   1  -1  -6 165519. 7285.68   1
   1  -1  -5 294218. 9323.55   1
  -1   1   4 14404.8 1839.75   4
   1  -1  -4 14348.4 1920.70   1
  -1   1   3 22078.4 1856.54   4
  -1   1   2 176843. 3892.49   4
   1  -1  -2 137075. 1511.59   3
  -1   1   1 771.261 223.348   4
  -1   1   0 389356. 3983.01   4
  -1   1  -1 40011.1 1207.99   4
   1  -1   2 11108.3 825.036   2
  -1   1  -2 10893.8 733.610   1
  -1   1  -3 81293.2 2487.36   1
   1  -1   3 82167.8 2638.35   2
  -1   1  -4 9592.94 1073.63   1
   1  -1   4 10396.5 1105.25   2
  -1   1  -5 17998.3 1721.97   1
   1  -1   5 18367.0 1755.72   2
   1  -1   6 3839.07 991.764   2
  -1   1  -6 4100.58 990.646   1
   1  -1   6 2996.33 1000.44   3
  -1   1  -7 7870.73 1461.68   1
   1  -1   7 7041.20 1688.63   2
   1  -1   8 38594.5 3957.74  16
   1  -1   8 39945.3 3738.71  14
   1  -1   9 63448.0 5249.31  14
   1  -1  10 80029.7 6183.94  14
   1  -1  11 6362.39 1853.48  14
  -1   1 -12 48381.9 3387.10  12
   1  -1  12 62020.6 4701.23  14
   1  -1  13 25394.9 2114.94  17
  -1   0  14 4861.85 797.658  17
  -1   0  13 9199.93 1546.16  17
  -1   0  12 1243.34 874.748  17
  -1   0  11 44456.0 4437.26  14
  -1   0  11 58102.4 4829.65   8
  -1   0  10 8166.08 2070.87  14
  -1   0  10 2650.79 961.112   8
  -1   0   9 60636.4 5207.13   8
   1   0  -9 72096.9 5261.67   1
  -1   0   9 72247.4 5663.76  14
  -1   0   8 38160.9 3800.82  14
   1   0  -8 45373.2 4021.58   1
   1   0  -7 592198. 14179.4   1
  -1   0   6 135916. 6271.37   2
   1   0  -6 125889. 6369.33   1
  -1   0   5 442197. 9425.30   2
   1   0  -5 394235. 10270.0   1
  -1   0   4 791338. 12252.3   4
  -1   0   4 827408. 10730.2   2
  -1   0   3 344679. 5999.94   4
  -1   0   3 354500. 5791.31   2
  -1   0   2 88862.8 2328.78   4
  -1   0   2 86627.5 2257.60   2
  -1   0   1 603488. 4997.90   4
  -1   0   1 594722. 4200.11   2
  -1   0   0 143722. 2495.79   1
   1   0   1 395341. 3145.39   2
  -1   0  -1 398585. 4771.08   1
   1   0   2 2760.70 399.563   2
  -1   0  -2 2953.88 522.410   1
  -1   0  -3 140410. 4239.84   1
   1   0   3 139730. 3562.65   2
   1   0   4 11510.9 1341.43   2
  -1   0  -4 12874.2 1616.11   1
  -1   0  -5 82128.1 4381.76   1
  -1   0  -6 15389.7 2159.18   1
  -1   0  -7 24425.2 2877.64   1
  -1   0  -8 27613.8 3240.38   1
   1   0   8 32387.0 3567.84  16
   1   0   8 30151.4 3337.03  14
   1   0   9 214114. 9715.01  14
   1   0  10 57359.8 5045.60  14
  -1   0 -11 2909.34 845.176  12
   1   0  11 4435.77 1492.94  14
   1   0  12 6273.67 1525.04  14
   1   0  13 8713.20 1259.05  17
  -1  -1  14 18926.5 1567.19  17
  -1  -1  13 14404.4 1801.84  17
  -1  -1  12 18213.2 2858.16  14
  -1  -1  12 12438.7 2130.41  17
  -1  -1  11 25030.3 3328.41   8
  -1  -1  11 54101.8 5086.61  14
  -1  -1  10 7393.71 1906.04  14
  -1  -1  10 6958.70 1760.35   8
  -1  -1   9 7408.61 1805.30   8
  -1  -1   9 4177.57 1376.38  14
  -1  -1   8 352756. 12033.1   2
  -1  -1   8 352531. 11205.5  14
   1   1  -7 1515.85 999.890   1
  -1  -1   7 268.568 447.243   2
   1   1  -6 375587. 10659.4   1
  -1  -1   6 378706. 8898.47   2
  -1  -1   5 44417.5 2203.50   3
  -1  -1   5 42721.7 2608.90   2
  -1  -1   4 18688.1 1503.74   2
  -1  -1   4 20713.0 1549.27   3
  -1  -1   4 19482.1 1732.60   4
  -1  -1   3 120415. 3727.34   3
  -1  -1   3 123404. 2947.34   4
  -1  -1   3 127464. 3432.86   2
  -1  -1   2 106835. 2677.92   2
  -1  -1   2 103864. 2161.66   4
  -1  -1   1 41700.1 1231.78   4
  -1  -1   1 44081.9 2173.84   3
  -1  -1   0 380519. 4983.88   1
  -1  -1  -1 4135.26 640.812   1
  -1  -1  -2 4189.88 762.442   1
  -1  -1  -3 94614.1 4269.43   1
  -1  -1  -4-3.23843 331.910   1
  -1  -1  -5 94606.8 5293.12   1
  -1  -1  -6 13228.3 2171.82   1
  -1  -1  -7 8027.81 1879.34   1
  -1  -1  -8 5752.31 1720.63   1
   1   1   8 4001.57 1176.94  14
   1   1   9 25759.0 3288.66  14
  -1  -1 -10-439.688 1016.74  12
   1   1  10 2060.59 1122.35  14
  -1  -1 -11 17701.4 2123.88  12
   1   1  11 18962.9 2361.41   6
   1   1  11 19044.5 2547.66  14
   1   1  12 3727.20 846.380   6
   1   1  13 6962.97 1001.17  17
  -1  -2  14 8524.05 1067.19  17
  -1  -2  13 807.659 633.608  17
  -1  -2  12-1745.40 1387.11   8
  -1  -2  12 598.540 856.683  17
  -1  -2  12 1621.78 1268.49  14
  -1  -2  11 18293.0 2992.06   8
  -1  -2  11 20219.9 3221.85  14
  -1  -2  11 25686.3 3396.54  17
  -1  -2  10 10974.0 2318.54   8
  -1  -2  10 4919.57 1479.19  14
  -1  -2   9 52790.5 3792.12   8
  -1  -2   9 47868.9 4532.46   2
  -1  -2   9 45861.8 4415.45  14
  -1  -2   8 11216.0 1893.44  14
  -1  -2   8 11958.8 2023.95   2
  -1  -2   7 109916. 5246.63   2
   1   2  -7 122521. 6092.91   1
  -1  -2   6 436.209 360.832   3
   1   2  -6-329.265 401.550   1
  -1  -2   6-125.820 295.053   2
  -1  -2   5 4728.08 1048.50   3
  -1  -2   5 3420.26 791.238   2
  -1  -2   4 166227. 5922.69   3
  -1  -2   4 158787. 4613.30   2
  -1  -2   4 169600. 4693.27   4
  -1  -2   3 50930.8 3204.03   3
  -1  -2   3 57659.0 2526.10   2
  -1  -2   3 57422.7 1659.86   4
  -1  -2   2 50917.3 1362.62   4
  -1  -2   2 45733.2 2931.43   3
  -1  -2   1 32662.2 1532.22   1
  -1  -2   1 31525.0 2439.71   3
  -1  -2   0 122876. 4631.01   3
  -1  -2   0 109114. 3149.08   1
  -1  -2  -1 14523.5 1391.52   1
  -1  -2  -2 50811.5 3142.67   1
  -1  -2  -3 349909. 9357.73   1
  -1  -2  -4 317174. 9796.72   1
  -1  -2  -5 7990.91 1711.10   1
  -1  -2  -6 131398. 7107.64   1
  -1  -2  -7 100001. 6521.62   1
   1   2   7 96761.1 5869.82  14
   1   2   8 41654.7 4047.67  14
  -1  -2  -8 35637.9 3997.17   1
  -1  -2  -8 36111.0 3703.13  12
   1   2   9 79115.0 5535.27  14
  -1  -2  -9 69911.3 5052.95  12
  -1  -2 -10 33547.0 3171.38  12
   1   2  11 10325.2 1774.84   6
  -1  -2 -11 9477.03 1473.59  12
   1   2  12 677.850 608.093  17
   1   2  12 547.421 462.227   6
   1   2  13 12918.5 1117.37  17
  -1  -3  13 2568.86 810.009  17
  -1  -3  13 5472.50 1481.32  14
  -1  -3  12 302.420 1030.34   8
  -1  -3  12 2648.38 1269.38  17
  -1  -3  12 1355.96 1041.70  14
  -1  -3  11 4662.28 1812.38   8
  -1  -3  11 2755.61 1679.75  17
  -1  -3  11 704.691 775.396  14
  -1  -3  10 163.237 591.090   2
  -1  -3  10 35.4572 714.557   8
  -1  -3  10-78.4791 1186.73  14
  -1  -3   9 51341.2 4505.50  14
  -1  -3   9 51412.7 4490.91   2
  -1  -3   9 53484.8 3797.95   8
  -1  -3   8 77287.3 4881.88  14
  -1  -3   8 80672.6 4262.93   8
  -1  -3   8 76885.3 4856.69   2
  -1  -3   7 40519.4 3183.43   2
  -1  -3   6 10361.3 1914.80   3
  -1  -3   6 8821.05 1397.41   2
  -1  -3   5 15805.0 2402.54   3
  -1  -3   5 17141.9 1791.01   2
  -1  -3   4 174280. 7390.65   3
  -1  -3   4 177529. 5470.94   2
  -1  -3   3 35627.5 3155.31   3
  -1  -3   3 35810.2 1043.37   4
  -1  -3   2 261.664 398.114   3
  -1  -3   2 212.468 111.144   4
  -1  -3   1 40020.9 1910.93   1
  -1  -3   1 41878.8 3184.42   3
  -1  -3   0 109245. 5001.52   3
  -1  -3   0 98280.8 3542.37   1
  -1  -3  -1 147193. 5231.02   1
  -1  -3  -2 109473. 5269.32   1
  -1  -3  -3 112919. 5947.41   1
  -1  -3  -4 210411. 8749.52   1
  -1  -3  -5 74463.2 5460.95   1
  -1  -3  -6 98592.1 6535.50   1
  -1  -3  -7 1309.02 1089.80  12
  -1  -3  -7 1291.64 1007.10   1
   1   3   7 3908.92 1294.44  14
  -1  -3  -8 196905. 9581.26   1
  -1  -3  -8 184703. 8189.32  12
  -1  -3  -9 50909.7 4075.19  12
  -1  -3 -10 29848.4 2770.98  12
   1   3  10 36239.5 3437.69   6
   1   3  11 10713.1 1654.06   6
   1   3  12 429.108 356.621   6
   1   3  12 46.3307 413.719  17
  -1  -4  13 9020.26 1448.29   8
  -1  -4  13 13886.4 1974.78  14
  -1  -4  12 18021.1 2723.06  14
  -1  -4  12 20912.8 2930.74   8
  -1  -4  12 14069.4 1943.86  17
  -1  -4  11 1158.88 846.543  17
  -1  -4  11 416.605 1236.66  14
  -1  -4  10 1658.05 971.289   8
  -1  -4  10 397.876 960.492  14
  -1  -4   9 67961.1 5093.41   2
  -1  -4   9 61668.6 4872.03  14
  -1  -4   9 59676.2 4170.34   8
  -1  -4   8 172818. 7736.93  19
  -1  -4   8 172971. 6676.38   8
  -1  -4   8 179309. 7296.52  14
  -1  -4   8 178939. 7523.12   2
  -1  -4   7 30692.7 3667.79   3
  -1  -4   7 30290.0 2931.88   2
  -1  -4   6 102657. 5186.50   2
  -1  -4   6 102852. 7218.72   3
  -1  -4   5 6471.94 1286.98   2
  -1  -4   5 6184.65 1657.92   3
  -1  -4   4 2744.07 1086.31   3
  -1  -4   3 1312.81 702.113   3
  -1  -4   2 25788.1 2842.59   3
  -1  -4   2 21555.9 971.110   4
  -1  -4   1 188871. 4748.37   1
  -1  -4   1 191670. 7416.18   3
  -1  -4   0 539.781 437.499   1
  -1  -4   0 669.170 500.313   3
  -1  -4  -1 384768. 9682.15   1
  -1  -4  -2 48890.0 3938.87   1
  -1  -4  -3 135147. 7150.86   1
  -1  -4  -4 227945. 9568.63   1
  -1  -4  -5 11506.5 2286.35   1
  -1  -4  -6 27777.1 2939.91  12
  -1  -4  -6 27011.9 3546.91   1
  -1  -4  -7 186248. 9428.32   1
  -1  -4  -7 196316. 8105.62  12
  -1  -4  -8 10047.1 1983.48  12
   1   4   9 100356. 5965.71   6
  -1  -4  -9 87428.3 4978.24  12
   1   4  10 17443.0 2328.68   6
   1   4  11 13156.9 1314.31  17
   1   4  11 12195.7 1581.64   6
  -1  -5  13 69935.9 3929.38  14
  -1  -5  13 51938.6 3567.57   8
  -1  -5  12 4888.83 1426.56  14
  -1  -5  12 10469.8 2068.41   8
  -1  -5  11 18179.8 2497.16   8
  -1  -5  11 9603.94 1952.47  14
  -1  -5  10 109378. 6875.51  14
  -1  -5  10 137127. 6574.87   8
  -1  -5   9 126305. 6254.21   8
  -1  -5   9 139582. 7262.91   2
  -1  -5   9 127509. 6913.93  14
  -1  -5   8 115511. 6276.72  19
  -1  -5   8 119737. 5986.20  14
  -1  -5   8 124159. 6597.58   2
  -1  -5   7 112074. 8508.26   3
  -1  -5   7 129332. 7087.47   7
  -1  -5   7 123472. 6449.79   2
  -1  -5   6 5216.62 1857.14   3
  -1  -5   6 7798.27 1629.38   2
  -1  -5   5 8529.66 2222.93   3
  -1  -5   5 9382.25 1672.20   2
  -1  -5   4 36300.4 4174.42   3
  -1  -5   3 8943.79 1998.09   3
  -1  -5   2 5611.24 1481.69   3
  -1  -5   1 110751. 6126.31   3
  -1  -5   1 113806. 4218.29   1
  -1  -5   0 266453. 7825.21   1
  -1  -5   0 242706. 8571.29   3
  -1  -5  -1 15040.3 2242.77   1
  -1  -5  -2 114135. 6583.92   1
  -1  -5  -3 31773.3 3708.17   1
  -1  -5  -4 1204.27 918.628   1
  -1  -5  -5 11021.9 2346.42   1
  -1  -5  -5 8175.78 1623.67  12
  -1  -5  -6 92552.4 5527.49  12
   1   5   6 106622. 6254.48   6
  -1  -5  -6 105922. 7043.45   1
  -1  -5  -7 1096.89 774.948  12
   1   5   7 568.731 782.618   6
  -1  -5  -8 4165.76 1321.93  12
   1   5   8 6127.30 1631.60   6
   1   5   9 2028.24 940.036   6
   1   5  10 465.739 628.598   6
   1   5  11 7636.21 1098.76   6
  -1  -6  13-490.449 777.492   8
  -1  -6  12 21896.6 2486.68   8
  -1  -6  12 20349.8 2568.25  14
  -1  -6  11 137875. 6393.85   8
  -1  -6  11 117948. 6970.02  14
  -1  -6  10-523.008 1429.27  14
  -1  -6  10 551.047 627.978   8
  -1  -6   9 178269. 7482.14   8
  -1  -6   9 188570. 8511.68  14
  -1  -6   8 113246. 6279.17  19
  -1  -6   8 108106. 6336.93   2
  -1  -6   7 9687.84 2808.41   3
  -1  -6   7 17297.6 2199.62  15
  -1  -6   7 16526.5 2483.40   2
  -1  -6   6 26950.9 3076.68   2
  -1  -6   6 23020.2 4234.08   3
  -1  -6   6 25778.3 2716.62  15
  -1  -6   5 23015.0 2756.62   2
  -1  -6   5 23607.5 3925.13   3
  -1  -6   4-244.073 723.758   3
  -1  -6   3 65349.7 5512.99   3
  -1  -6   2 3569.98 1344.82   3
  -1  -6   1 1541.04 601.154   1
  -1  -6   1 1743.73 1037.03   3
  -1  -6   0 5758.03 1284.05   1
  -1  -6   0 4950.94 1451.69   3
  -1  -6  -1 9909.53 1943.24   1
  -1  -6  -2 27338.0 3429.87   1
   1   6   3 9878.07 1681.18   6
  -1  -6  -3 10352.6 2189.02   1
  -1  -6  -4 177.741 780.283   1
   1   6   4 388.841 474.452   6
   1   6   5 11819.6 1958.01   6
  -1  -6  -5 13251.8 2503.62   1
   1   6   6 2123.55 1036.69   6
   1   6   7 830.915 699.599   6
   1   6   8 7694.59 1661.24   6
   1   6   9 16122.9 2130.42   6
   1   6  10 867.924 512.104   6
  -1  -7  12 25807.8 2386.23   8
  -1  -7  11 2862.57 919.613   8
  -1  -7  10 177837. 7155.93   8
  -1  -7   9 23435.3 2752.54   8
  -1  -7   8 10955.9 1854.77  15
  -1  -7   7-226.667 1201.25   3
  -1  -7   7 776.783 600.512   2
  -1  -7   7 1274.45 953.038  15
  -1  -7   6 51568.1 6377.84   3
  -1  -7   6 43301.9 4122.57   2
  -1  -7   6 48544.3 4373.17  15
  -1  -7   5 87986.9 5792.39   2
  -1  -7   5 92911.0 6379.56  15
  -1  -7   5 90865.3 7877.32   3
  -1  -7   4 55626.5 5105.45  15
  -1  -7   4 70047.1 4443.69  13
  -1  -7   4 68657.1 6309.93   3
  -1  -7   3 21644.2 2640.70  13
  -1  -7   3 17476.1 3020.63   3
  -1  -7   2 94252.5 6638.61   3
  -1  -7   2 107862. 6342.22  13
  -1  -7   1 118205. 7091.23  13
  -1  -7   1 135659. 7518.33   3
  -1  -7   0 24766.6 3273.36  13
  -1  -7   0 29261.1 3428.11   3
  -1  -7  -1 133281. 7371.75  13
  -1  -7  -1 101402. 6701.32   1
  -1  -7  -2 1648.37 850.937   1
   1   7   2 1318.80 446.126   6
  -1  -7  -3 79297.1 6050.95   1
   1   7   3 70914.7 4644.04   6
  -1  -7  -4 4781.56 1570.40   1
   1   7   4 5738.26 1500.16   6
   1   7   5 3908.58 1233.41   6
   1   7   6 7222.19 1783.03   6
   1   7   7 5223.68 1530.74   6
   1   7   8 26703.6 2752.80   6
  -1  -7  -8 23682.4 2193.18  13
   1   7   9 7905.17 1287.36   6
   1   7  10 22972.4 1519.29   6
  -1  -8  12 5221.70 1143.99   8
  -1  -8  11 21836.1 2168.51   8
  -1  -8  10 1.81597 711.509   8
  -1  -8   9 635.349 707.408   8
  -1  -8   8-135.260 726.339  15
  -1  -8   7 115745. 6959.11  15
  -1  -8   6 41856.9 4592.14  15
  -1  -8   6 39710.6 4178.77   2
  -1  -8   6 48497.4 5980.25   3
  -1  -8   5 9605.92 2299.43   2
  -1  -8   5 5419.44 1823.63  15
  -1  -8   5 9664.82 2478.55   3
  -1  -8   4 219534. 11263.6   3
  -1  -8   4 239818. 9606.63  13
  -1  -8   3 48786.3 5109.20   3
  -1  -8   3 55994.4 5199.10  15
  -1  -8   3 57904.9 5153.32  13
  -1  -8   2 1597.40 1418.21  13
  -1  -8   2 1208.01 1184.67   3
  -1  -8   2 1352.24 1358.47  15
  -1  -8   1 196805. 9290.90   3
  -1  -8   1 160703. 9019.62  13
  -1  -8   0 114419. 7432.85  13
  -1  -8  -1 26116.4 3527.75  13
   1   8   2 96360.3 5542.15   6
  -1  -8  -2 116415. 6578.75  13
  -1  -8  -3 17776.0 2653.80  13
   1   8   3 17290.4 2400.12   6
   1   8   4 33602.0 3255.93   6
  -1  -8  -4 35977.1 3556.91  13
  -1  -8  -5 1922.55 1258.80  13
   1   8   5 1255.00 916.167   6
   1   8   6 13167.9 2102.06   6
  -1  -8  -6 12058.2 1910.87  13
   1   8   7 32197.9 2936.70   6
  -1  -8  -7 28710.7 2441.67  13
   1   8   8 7628.87 1251.84   6
  -1  -9  11 4126.48 970.430   8
  -1  -9  10 4159.12 1136.62   8
  -1  -9   9 10291.0 1840.56   8
  -1  -9   8 40007.0 3823.43  15
  -1  -9   7 27613.7 3632.26  15
  -1  -9   6 27710.1 3962.91  15
  -1  -9   5 15493.2 2914.34  15
  -1  -9   4 12300.9 2600.01  15
  -1  -9   3 28822.4 3802.70  15
  -1  -9   3 23353.4 3770.24  13
  -1  -9   2 290462. 10768.3  15
  -1  -9   2 192255. 10529.3  13
  -1  -9   1 72247.0 5194.08  15
  -1  -9   1 62638.5 5664.68  13
  -1  -9   0 77164.0 5947.42  13
  -1  -9   0 68398.8 4736.33  15
  -1  -9  -1 80983.5 5704.23  13
  -1  -9  -1 68317.5 4447.07  15
  -1  -9  -2 12158.3 2214.42  13
  -1  -9  -3 938.692 922.296  13
   1   9   3 1568.99 885.590   6
   1   9   4 51212.3 3646.34   6
  -1  -9  -4 58651.6 4120.65  13
   1   9   5 11897.0 1789.19   6
  -1  -9  -5 12391.4 1845.66  13
   1   9   6 1102.57 588.631   6
  -1  -9  -6 1597.48 556.447  13
   1   9   7-120.761 404.673   6
  -1 -10  10 28541.2 2559.80   8
  -1 -10   9 96475.7 5311.93   8
  -1 -10   8 26891.2 3248.41  15
   1  10  -8 24772.6 2535.02  18
  -1 -10   7 21029.0 3226.86  15
  -1 -10   6 15349.6 2851.61  15
  -1 -10   5 22353.8 3309.47  15
  -1 -10   4 9005.34 2260.26  15
  -1 -10   3 124427. 6921.34  15
  -1 -10   2 4929.61 1463.25  13
  -1 -10   2 6704.31 1720.47  15
  -1 -10   1 65257.7 4560.50  15
  -1 -10   1 78505.9 6065.60  13
  -1 -10   0 41083.0 3386.26  15
  -1 -10   0 48264.2 4453.48  13
  -1 -10  -1-1015.58 919.359  13
  -1 -10  -1 450.529 465.490  15
  -1 -10  -2 2330.74 1011.77  13
  -1 -10  -3 28022.1 2733.99  13
  -1 -10  -4 22369.0 2232.94  13
  -1 -10  -5 132.535 418.678  13
   1  10   6 6756.38 937.542   5
  -1 -11   9 4343.01 1062.33   8
  -1 -11   8 21802.6 2499.35   8
   1  11  -7-305.446 521.663  18
  -1 -11   7-1456.77 1056.48  15
  -1 -11   6 2949.01 1160.00  15
  -1 -11   5 2867.84 1229.25  15
  -1 -11   4 7872.58 1783.85  15
  -1 -11   3 4093.62 1268.70  15
  -1 -11   2 8647.83 1637.92  15
  -1 -11   1-919.111 1050.97  13
  -1 -11   1-85.3508 473.191  15
  -1 -11   0-378.905 665.737  13
  -1 -11   0 950.663 660.618  15
  -1 -11  -1 4513.26 1087.26  13
  -1 -11  -2 3759.22 939.547  13
  -1 -11  -3 9577.32 1314.73  13
  -1 -12   6 11098.7 1459.79   8
   1  12  -6 11435.0 1436.73  18
  -1 -12   5 2791.40 784.017  15
  -1 -12   4 2477.96 763.523  15
  -1 -12   3-124.063 403.027  15
  -1 -12   2 8670.08 1184.71  15
  -1 -12   1 12852.5 1257.01  15
  -2  12  -1 6069.82 966.897  18
  -2  12  -2 13022.3 1440.87  18
  -2  12  -3 7944.30 1187.20  18
  -2  12  -4 9700.02 1375.92  18
  -2  12  -5 6259.50 1046.03  18
  -2  11   4 161.518 275.757   5
  -2  11   3 4023.04 850.504   5
  -2  11   2 787.584 436.802   5
  -2  11   1 38905.5 2502.31  18
   2 -11   0 6317.78 1327.71  19
  -2  11   0 11711.0 1655.83  18
   2 -11   1 24992.6 2787.06  19
  -2  11  -1 34365.2 2924.14  18
   2 -11   2 29990.8 3231.15  19
  -2  11  -2 37913.7 3249.31  18
   2 -11   3 20503.5 2747.19  19
  -2  11  -3 21471.0 2581.04  18
   2 -11   4-18.2395 756.033  19
  -2  11  -4 315.084 701.436  18
  -2  11  -5 85694.0 5077.14  18
   2 -11   5 77642.7 5113.83  19
   2 -11   6 31661.3 3090.81  19
  -2  11  -6 35000.2 3119.22  18
   2 -11   7 28266.9 2599.11  19
  -2  11  -7 21614.0 2146.07  18
  -2  10   7 4755.44 731.245   5
  -2  10   6 1442.99 590.562   5
  -2  10   5 286.806 502.125   5
  -2  10   4 3498.42 1091.27   5
  -2  10   3 330.843 522.378   5
  -2  10   2 72168.5 4596.62   5
  -2  10   1 1586.23 903.269   5
  -2  10   1 1038.04 715.511  18
  -2  10   0 50107.7 3911.92  18
  -2  10  -1 56671.6 4272.50  18
   2 -10   2 4028.96 1663.95  19
  -2  10  -2 5745.38 1645.06  18
   2 -10   3 50926.6 5796.67  19
  -2  10  -3 92545.6 6005.41  18
   2 -10   4 135277. 9256.17  19
  -2  10  -4 199884. 9015.47  18
  -2  10  -5 11789.1 2317.23  18
   2 -10   5 10859.5 2567.31  19
   2 -10   6 134485. 8225.69  19
  -2  10  -6 123566. 6801.62  18
  -2  10  -7 47447.8 3800.30  18
   2 -10   7 44916.1 4461.37  19
   2 -10   8 2483.15 873.989  14
   2 -10   8 4118.80 1396.19  19
  -2   9   8 457.670 346.164   5
  -2   9   7 1810.11 714.349   5
  -2   9   6-182.202 573.650   5
  -2   9   5 13264.5 2174.80   5
  -2   9   4 1024.91 891.337   5
  -2   9   3 81749.7 5541.93   5
  -2   9   2 1594.77 1259.10   5
  -2   9   1 101345. 6530.99   5
  -2   9   1 103397. 5532.33  18
  -2   9   0 1243.88 1088.02   5
   2  -9   1 2576.99 941.824  15
   2  -9   2 26741.1 3392.51  15
   2  -9   3 101238. 8434.68  19
   2  -9   3 95791.1 6854.05  15
  -2   9  -4 8490.48 2102.88  18
   2  -9   4 10351.0 2717.90  19
   2  -9   4 8122.35 2020.11  15
  -2   9  -5 86934.1 6331.82  18
   2  -9   5 110055. 8068.03  19
   2  -9   6 8110.38 2256.04  19
  -2   9  -6 7115.62 1907.07  18
  -2   9  -7 2590.89 1100.62  18
   2  -9   7 3021.67 1294.00  19
   2  -9   8 1125.29 1025.15  19
  -2   9  -8 1249.70 715.033  18
   2  -9   9 62829.3 4840.49  14
   2  -9   9 59919.7 4777.26  19
   2  -9  10 28740.4 3233.24  14
  -2   8   9 9835.59 1200.83   5
  -2   8   8 5185.71 1022.84  11
  -2   8   8 5946.24 1245.00   5
  -2   8   7 432.416 735.585   5
  -2   8   7 20.5163 530.077  11
  -2   8   6 22742.3 2530.58  11
  -2   8   6 30820.1 3262.82   6
  -2   8   5 4185.51 1179.36  11
  -2   8   5 2411.49 1023.74   6
  -2   8   4 54267.2 4301.59  11
  -2   8   4 55514.4 4797.68   6
  -2   8   3 874.284 688.487  11
  -2   8   2 70550.2 5724.42   5
  -2   8   1 2663.16 1346.03   5
   2  -8  -1 861.449 635.105  13
   2  -8   0 1825.74 987.883   3
  -2   8   0 2341.12 928.813   5
   2  -8   0 4887.83 1172.44  15
   2  -8   1-328.869 800.614   3
   2  -8   1 1377.73 950.513  15
   2  -8   2 44411.0 4454.33  15
   2  -8   2 44868.8 4649.39   3
   2  -8   3 9846.84 2223.29  15
   2  -8   3 12155.8 2496.88   3
   2  -8   4 36401.0 4285.07  15
   2  -8   4 41137.2 4596.10   3
   2  -8   4 48648.6 5186.87  19
   2  -8   5 22191.5 3509.45   3
   2  -8   5 24044.7 3574.14  19
  -2   8  -5 20129.8 2890.33  18
  -2   8  -6 17945.6 2800.53  18
   2  -8   6 21483.4 3264.24  19
   2  -8   7 15037.1 2630.99  19
  -2   8  -7 9896.73 1926.61  18
   2  -8   8 55147.4 4689.41  19
   2  -8   9 31684.2 3430.50  19
   2  -8  10 58914.7 4354.09  14
   2  -8  11 32938.8 3034.31  14
  -2   7  10 29222.7 1823.58   5
  -2   7  10 30648.3 1915.14  11
  -2   7   9 3891.55 953.677  11
  -2   7   9 3179.71 936.613   5
  -2   7   9 2474.20 770.542   6
  -2   7   8 999.202 697.933   5
  -2   7   8-366.384 644.258   6
  -2   7   8 470.549 663.003  11
  -2   7   7 27126.8 3186.15   6
  -2   7   7 27656.3 2993.13  11
  -2   7   6 4149.57 1335.75   6
  -2   7   6 2913.06 1095.19  11
  -2   7   5-136.730 817.844   6
  -2   7   5-384.369 769.017  11
  -2   7   4 1103.66 719.587   6
  -2   7   4 1315.62 818.907  11
  -2   7   3 3086.91 1306.31   6
  -2   7   3 2920.64 1255.63  11
  -2   7   2 119260. 7415.65  11
  -2   7   2 101318. 6641.04   6
   2  -7  -1 4753.29 1253.39   3
   2  -7   0 7320.08 1546.80  13
  -2   7   0 9512.73 1901.51   5
   2  -7   0 7352.57 1740.97   3
   2  -7   1 1720.64 684.785  15
   2  -7   1 1743.26 947.442   3
   2  -7   2 18548.3 2827.01   3
   2  -7   2 17340.3 2631.46  15
   2  -7   3 7107.93 1812.47   3
   2  -7   3 4349.12 1364.92  15
   2  -7   4 30068.1 3732.88   3
   2  -7   4 29230.6 3549.82  15
   2  -7   4 30184.4 3561.09  19
   2  -7   5 59650.4 4687.48   2
   2  -7   5 64796.7 5289.94  19
  -2   7  -5 63593.1 4787.69  18
   2  -7   5 68408.7 5546.72  15
   2  -7   5 68269.3 5892.82   3
   2  -7   6-260.632 680.054  19
   2  -7   6-10.1733 421.553   2
  -2   7  -6 487.285 641.776  18
   2  -7   6-459.928 714.334   3
  -2   7  -7 41047.6 3608.14  18
   2  -7   7 47148.2 4363.77  19
   2  -7   8 62855.4 5005.99  19
   2  -7   9 12759.5 2315.18  19
   2  -7  10 27412.4 3022.29  14
   2  -7  10 24167.8 3094.35  19
   2  -7  11 41168.8 3459.48  14
   2  -7  12 3589.50 749.084  14
  -2   6  11 808.959 408.987  11
  -2   6  10 7208.27 1095.77   5
  -2   6  10 7702.36 1332.98  11
  -2   6  10 7823.12 1293.01   6
  -2   6   9 2701.50 1090.55  11
  -2   6   9 1895.28 875.987   5
  -2   6   9 2616.26 941.646   6
  -2   6   8 39971.2 3668.67   6
  -2   6   8 40589.4 3673.88  11
  -2   6   7 37587.2 3715.05   6
  -2   6   7 35736.2 3477.24  11
  -2   6   6 16570.7 2402.14  11
  -2   6   6 16916.9 2672.69   6
   2  -6  -6 17129.4 2670.60   1
  -2   6   5 16489.0 2583.98   6
  -2   6   5 17913.8 2543.85  11
   2  -6  -5 16257.6 2512.42   1
  -2   6   4 174663. 8176.02   6
   2  -6  -4 158095. 7297.64   1
  -2   6   4 172378. 7627.61  11
  -2   6   3 80681.1 5558.44   6
   2  -6  -3 78316.8 4796.19   1
  -2   6   3 92689.9 5860.89  11
   2  -6  -2 144395. 6086.51   1
   2  -6  -1 181378. 7044.92   3
   2  -6   0 8291.03 1593.94   3
   2  -6   1 36561.5 3368.50   3
   2  -6   2 151550. 7042.85   3
   2  -6   3 38930.6 3660.95   3
   2  -6   4 135973. 6611.11  19
   2  -6   4 132275. 7027.90   3
   2  -6   4 131173. 6706.61  15
   2  -6   5 48171.9 3878.54   2
   2  -6   5 54064.1 4295.75  19
   2  -6   5 45396.4 4507.84   3
   2  -6   5 51525.9 4311.14  15
  -2   6  -5 50138.5 3745.46  18
   2  -6   6 126092. 8411.88   3
  -2   6  -6 113209. 5556.03  18
   2  -6   6 118830. 6083.91   2
   2  -6   6 122508. 6654.27  19
   2  -6   7 36114.5 5180.39   3
   2  -6   7 32928.0 3595.86  19
   2  -6   8 43524.8 4190.47  19
   2  -6   9 35510.0 3904.15  19
   2  -6  10 10422.2 2111.86  19
   2  -6  10 12526.5 2222.84  14
   2  -6  11 3151.42 1168.27  14
   2  -6  12 97325.6 4877.50  14
  -2   5  12 2124.04 525.835  11
  -2   5  11 2097.57 724.263  11
  -2   5  10 78.1661 439.503   6
  -2   5  10-240.691 398.032   5
  -2   5   9 34197.5 3242.19   6
  -2   5   8 44456.0 3941.94   6
  -2   5   7 2074.61 967.505   6
   2  -5  -7 3494.41 1313.97   1
  -2   5   6 49363.0 4185.29   6
   2  -5  -6 47725.4 4493.54   1
  -2   5   5 160404. 7383.95   6
   2  -5  -5 148818. 7402.23   1
   2  -5  -4 78729.5 5073.62   1
   2  -5  -3 344314. 9899.42   1
   2  -5  -2 377470. 8666.30   3
   2  -5  -2 366181. 9451.34   1
   2  -5  -1 12727.9 1645.80   3
   2  -5  -1 12639.6 1667.22   1
  -2   5   1 8752.92 1430.45   4
  -2   5   0 163607. 5714.26   4
   2  -5   0 191517. 6513.47   3
   2  -5   1 109798. 4993.09   3
  -2   5  -1 91376.9 3784.16   4
   2  -5   2 52398.2 3595.77   3
   2  -5   3 264052. 8401.73   3
   2  -5   4 111176. 5873.97   3
   2  -5   5 9094.84 1614.84   2
   2  -5   5 9675.83 1934.91   3
   2  -5   6 886.023 618.732   2
   2  -5   6 983.701 870.938   3
   2  -5   6 1954.30 958.558  19
   2  -5   6-561.465 1055.89  16
   2  -5   7 25152.5 3104.34  19
   2  -5   7 23156.7 3985.45   3
   2  -5   7 18379.6 3927.72  16
   2  -5   7 23522.9 2553.77   2
   2  -5   8 6148.22 2441.50   3
   2  -5   8 8621.97 1965.47  19
   2  -5   9 4772.68 1684.99  19
   2  -5  10 7958.71 1957.05  14
   2  -5  11 30726.6 3369.43  14
   2  -5  12 939.774 605.150  14
   2  -5  13 30765.4 2122.44  14
  -2   4  12 18676.9 1456.25  17
  -2   4  11 5747.59 1120.24  17
  -2   4  10 41247.2 3132.07  17
  -2   4  10 28113.5 2683.02   6
  -2   4   9 26392.5 2595.42  17
  -2   4   9 19855.3 2568.66   6
  -2   4   8 5426.76 1376.06  17
  -2   4   8 3994.44 1281.58   6
   2  -4  -8 3026.16 1255.25   1
  -2   4   7 84172.9 5245.01   6
  -2   4   7 91284.3 4663.01  17
   2  -4  -7 83967.3 6077.62   1
  -2   4   6 222949. 8168.85   6
   2  -4  -6 220446. 9427.63   1
   2  -4  -5 21587.8 2889.44   1
   2  -4  -4 596391. 14167.8   1
  -2   4   3 211434. 8065.33   4
   2  -4  -3 208959. 7939.20   1
   2  -4  -2 48666.0 3547.09   1
  -2   4   2 55197.5 3669.84   4
   2  -4  -1 36142.9 2387.30   3
   2  -4  -1 31634.9 2581.59   1
  -2   4   1 37960.9 2623.29   4
  -2   4   0 411397. 7398.03   4
   2  -4   0 402323. 8264.65   1
   2  -4   0 419930. 8260.93   3
   2  -4   1 1772.99 491.374   1
   2  -4   1 3003.40 758.235   3
  -2   4  -1 2412.21 517.797   4
   2  -4   2 165711. 5690.97   3
  -2   4  -2 166412. 3737.11   4
   2  -4   3 46230.1 3223.79   3
   2  -4   4 47541.1 3631.66   3
   2  -4   4 47008.1 3168.96   2
   2  -4   5 2372.01 796.398   2
   2  -4   5 2694.85 1077.06   3
   2  -4   6 34908.0 3296.06  19
   2  -4   6 30548.7 2637.62   2
   2  -4   6 30878.6 3862.08   3
   2  -4   7 82654.5 7036.80   3
   2  -4   7 119686. 9128.64  16
   2  -4   7 105220. 6062.18  19
   2  -4   7 98302.2 4953.70   2
   2  -4   8 5057.39 1976.01   3
   2  -4   8 6942.98 2693.94  16
   2  -4   8 4780.87 1564.03  19
   2  -4   9 36364.9 3920.99  14
   2  -4   9 34130.1 4113.31  19
   2  -4  10 8183.28 2076.36  14
   2  -4  11 11629.2 2211.34  14
   2  -4  12-1314.52 1103.27  14
   2  -4  13 33750.7 2369.42  14
  -2   3  13 28071.7 1699.30  17
  -2   3  12 8429.65 1269.83  17
  -2   3  11 32619.2 2897.36  17
  -2   3  10 689.241 920.764  17
  -2   3   9 704.375 526.283   6
  -2   3   9 780.005 837.787  17
  -2   3   8 4717.17 1417.87  17
  -2   3   8 2781.91 1100.93   6
   2  -3  -8 3788.22 1376.62   1
  -2   3   7 17541.4 2219.19   6
   2  -3  -7 23018.7 3209.65   1
  -2   3   7 21308.9 2392.39  17
   2  -3  -6 15864.5 2649.65   1
   2  -3  -5 265712. 10244.3   1
   2  -3  -4 1851.17 852.041   1
  -2   3   4 1289.96 645.810   4
  -2   3   3 173231. 6457.21   4
  -2   3   2 28346.7 2199.19   4
   2  -3  -2 31482.6 1713.69   3
   2  -3  -1 126950. 3620.50   3
  -2   3   1 126796. 4028.95   4
   2  -3   0 58498.3 2694.74   3
  -2   3   0 60660.0 2563.68   4
  -2   3  -1 292744. 5192.13   4
   2  -3   1 297890. 6447.47   3
  -2   3  -2 79918.9 2650.89   4
   2  -3   3 22167.2 1783.10   2
  -2   3  -3 23115.1 1415.82   4
   2  -3   3 22748.7 2132.81   3
   2  -3   4 10248.2 1646.09   3
   2  -3   4 9250.37 1207.56   2
  -2   3  -4 8481.26 896.545   4
   2  -3   5 356057. 10990.2   3
   2  -3   5 332549. 7443.86   2
   2  -3   6 228022. 6697.28   2
   2  -3   6 220397. 9942.49   3
   2  -3   7 1504.64 1469.94  16
   2  -3   7 1000.98 654.146   2
   2  -3   7 2012.85 1238.67   3
   2  -3   7 2854.22 1069.69  19
   2  -3   8 216230. 9306.13  19
   2  -3   8 230332. 11407.9  16
   2  -3   9 51012.0 5332.40  16
   2  -3   9 52690.9 4701.54  14
   2  -3  10 1901.45 1315.04  14
   2  -3  11 35379.7 4007.19  14
   2  -3  12 89585.5 5487.74  14
   2  -3  13 10076.5 1376.73  14
  -2   2  13-247.405 463.561  17
  -2   2  12 1628.38 866.107  17
  -2   2  11 1578.85 1024.28  17
  -2   2  10 1962.55 1173.07  17
  -2   2   9 3255.24 1254.28  17
   2  -2  -9 2247.24 1183.81   1
   2  -2  -8 10050.1 2252.29   1
  -2   2   8 8088.48 1741.04  17
   2  -2  -7 6943.17 1938.34   1
   2  -2  -6 142810. 7820.28   1
  -2   2   5 11727.5 2019.09   4
   2  -2  -5 11878.4 2110.96   1
  -2   2   4 2970.98 943.543   4
   2  -2  -3 19212.7 892.178   3
  -2   2   3 20863.0 1910.00   4
  -2   2   2 125870. 4035.03   4
   2  -2  -2 121897. 2756.68   3
  -2   2   1 51632.0 2344.31   4
  -2   2   0 339608. 5472.13   4
  -2   2  -1 210989. 4149.10   4
  -2   2  -2 197011. 4163.75   4
  -2   2  -3 3289.19 589.633   4
   2  -2   3 3454.94 602.929   2
  -2   2  -4 291067. 5157.40   1
   2  -2   4 302538. 5913.12   2
   2  -2   5 365302. 7384.47   2
   2  -2   6 203205. 6246.37   2
   2  -2   6 155805. 8188.96   3
   2  -2   7 314874. 11791.7   3
   2  -2   7 330042. 9618.87   2
   2  -2   7 298382. 11433.2  16
   2  -2   7 305362. 9498.28  19
   2  -2   8 27860.3 3364.20  19
   2  -2   8 30469.7 3897.08  16
   2  -2   8 32942.8 3380.25  14
   2  -2   9 974.856 1287.06  16
   2  -2   9 2280.97 1305.26  14
   2  -2  10 90308.4 6443.15  14
   2  -2  11 47517.7 4484.86  14
   2  -2  12 34039.2 3363.84  14
   2  -2  13 41111.9 2261.93  17
  -2   1  14 2080.14 495.445  17
  -2   1  13 1013.24 633.035  17
  -2   1  12 38359.5 3197.02  17
  -2   1  11 499.976 908.946  17
  -2   1  10 65043.1 6155.28   8
  -2   1  10 52443.1 4466.48  17
   2  -1  -9 3129.71 1139.85   1
  -2   1   9 1333.57 923.539   8
  -2   1   9 3676.15 1455.44  17
  -2   1   8 341.096 1408.43   8
   2  -1  -8 3287.55 1349.78   1
  -2   1   8 4452.78 1703.49  17
  -2   1   8 4041.71 1435.44  14
   2  -1  -7 22904.5 3324.61   1
   2  -1  -6 45140.9 4277.85   1
  -2   1   5 16793.4 2203.40   4
  -2   1   4 429042. 8935.58   4
  -2   1   3 105230. 3753.31   4
  -2   1   2 346712. 6047.93   4
  -2   1   1 39735.1 1861.04   4
  -2   1   0 5654.33 692.646   4
  -2   1  -1 142316. 3349.35   4
   2  -1   1 130804. 2207.42   2
   2  -1   2 96568.1 2138.48   2
  -2   1  -2 97863.0 3032.58   1
   2  -1   3 282553. 4624.74   2
  -2   1  -3 285919. 5707.35   1
   2  -1   4 85504.5 3100.24   2
  -2   1  -4 89195.1 3549.29   1
  -2   1  -5 188161. 5817.56   1
   2  -1   5 192123. 5779.98   2
  -2   1  -6 232770. 7175.39   1
   2  -1   7 3222.37 1120.84   3
   2  -1   7 2737.04 1118.31  19
   2  -1   7 3973.31 1391.99  16
   2  -1   7 5229.75 1319.48  14
   2  -1   8 22588.8 3232.05  16
   2  -1   8 22804.3 2815.61  14
   2  -1   9 130991. 7676.21  16
   2  -1   9 131522. 7199.66  14
   2  -1  10 12551.1 2248.73  14
   2  -1  11 27194.7 3410.89  14
   2  -1  12 71557.2 4300.11  14
  -2   1 -12 56718.9 3630.99  12
   2  -1  13 4304.87 795.949  17
  -2   0  14 21274.2 1621.72  17
  -2   0  13 27516.1 2475.89  17
  -2   0  12 91413.4 5164.12  17
  -2   0  11 158956. 7425.76  17
  -2   0  11 134470. 8049.72   8
  -2   0  10 3846.48 1487.47  17
  -2   0  10 4782.31 1714.14  14
   2   0  -9 102789. 6542.59   1
  -2   0   9 111494. 6625.32  17
  -2   0   9 103022. 6350.00  14
  -2   0   8 388565. 12433.1   8
   2   0  -8 383758. 12937.1   1
  -2   0   8 375032. 11510.4  14
   2   0  -7 105313. 6686.91   1
  -2   0   6 200091. 7930.29   4
  -2   0   5 339623. 8640.28   2
  -2   0   5 336018. 8530.35   4
  -2   0   4 82955.0 3567.27   2
  -2   0   4 80016.5 3390.08   4
  -2   0   3 182929. 4452.76   2
  -2   0   3 187946. 4620.11   4
  -2   0   2 10457.0 901.957   2
  -2   0   2 10339.1 979.183   4
  -2   0   1 16705.2 1169.70   4
  -2   0   0 280018. 4658.44   4
  -2   0  -1 513461. 7299.10   1
  -2   0  -2 633301. 8891.61   1
  -2   0  -3 104934. 4062.52   1
  -2   0  -4 124183. 4980.10   1
  -2   0  -5 46141.7 3442.89   1
  -2   0  -6 4659.84 1314.59   1
  -2   0  -7 19715.1 2701.48   1
   2   0   7 22649.7 2565.29  14
   2   0   7 18658.8 2590.89  16
   2   0   8 48686.5 4569.12  16
   2   0   8 48890.2 4202.94  14
   2   0   9 18258.6 2985.57  16
   2   0   9 13669.4 2292.38  14
   2   0  10 36029.4 3749.22  14
  -2   0 -11 640.492 624.129  12
   2   0  11 2887.80 1233.41  14
   2   0  12 1004.64 358.108   6
  -2   0 -12 349.771 399.331  12
   2   0  13 8153.67 1011.36  17
  -2  -1  14 4195.26 843.168  17
  -2  -1  13 108616. 4881.16  17
  -2  -1  12 90261.0 5312.20  17
  -2  -1  12 79260.1 6166.31   8
  -2  -1  11 12514.5 2516.89  14
  -2  -1  11 12771.0 2398.97  17
  -2  -1  10 41530.7 4687.52   8
  -2  -1  10 51614.1 4725.27  17
  -2  -1  10 49087.0 4689.51  14
  -2  -1   9 41961.4 4168.67   8
   2   1  -9 43441.1 4165.82   1
  -2  -1   9 44715.5 4533.23  17
  -2  -1   9 40091.1 4132.27  14
   2   1  -8 339.556 663.717   1
  -2  -1   8 2686.70 1305.96   8
  -2  -1   8 128.984 892.072  14
  -2  -1   8-343.863 791.196  17
  -2  -1   7 369751. 10468.3   2
  -2  -1   6 287062. 8003.03   2
  -2  -1   6 279160. 8767.84   4
  -2  -1   5 82712.1 3788.60   2
  -2  -1   5 78486.6 3702.40   4
  -2  -1   4 64312.7 2753.45   4
  -2  -1   4 65195.1 2888.21   2
  -2  -1   3 8510.61 927.779   4
  -2  -1   3 8097.04 890.596   2
  -2  -1   2 107365. 2981.93   4
  -2  -1   2 104225. 2628.89   2
  -2  -1   1 236112. 4355.71   4
  -2  -1   1 238787. 3185.64   2
  -2  -1   0 607216. 8382.21   1
  -2  -1  -1 355513. 6870.51   1
  -2  -1  -2 206001. 5813.94   1
  -2  -1  -3 44374.8 3103.90   1
  -2  -1  -4 107085. 5470.66   1
  -2  -1  -5 15688.7 2433.23   1
  -2  -1  -6 43497.6 4184.84   1
  -2  -1  -7 45.2080 841.401   1
   2   1   7 1196.53 887.673  16
   2   1   7-491.074 827.739  14
   2   1   8 32885.9 3598.96  14
  -2  -1  -8 40070.3 4269.11   1
   2   1   8 39533.3 4150.63  16
   2   1   9-698.276 869.974  14
  -2  -1 -10 9520.54 1907.87  12
   2   1  10 10881.7 2036.08  14
  -2  -1 -11 2772.57 1012.14  12
  -2  -1 -12 12377.1 1333.08  12
   2   1  12 14021.8 1463.42   6
  -2  -2  14 50345.9 2541.69  17
  -2  -2  13 45699.2 4323.10   8
  -2  -2  13 25222.3 2469.23  17
  -2  -2  12 3934.51 915.274   8
  -2  -2  12 12380.1 2104.78  17
  -2  -2  11 40225.2 4473.39   8
  -2  -2  11 44669.4 4266.98  17
  -2  -2  11 39742.1 4264.76  14
  -2  -2  10 2829.79 1524.21   8
  -2  -2  10 1705.56 1277.69  14
  -2  -2  10 1863.67 1503.14  17
  -2  -2   9 3647.15 1226.68  17
  -2  -2   9 4214.45 1503.84   2
  -2  -2   9 5699.56 1611.11   8
  -2  -2   9 2655.09 1109.08  14
  -2  -2   8 232000. 8641.60   2
   2   2  -8 215158. 9193.16   1
  -2  -2   8 247860. 9800.03   7
  -2  -2   8 196871. 8155.49  17
  -2  -2   8 195888. 8410.32  14
  -2  -2   8 229662. 7597.98   8
  -2  -2   7 102616. 5151.57   2
  -2  -2   6 63729.7 3617.68   2
  -2  -2   6 63234.6 3978.68   4
  -2  -2   5 66645.4 3093.42   4
  -2  -2   5 65180.1 3074.43   3
  -2  -2   5 62327.0 3253.96   2
  -2  -2   4 48526.7 2879.11   3
  -2  -2   4 45224.4 2106.10   4
  -2  -2   4 47038.1 2562.75   2
  -2  -2   3 137047. 5052.80   3
  -2  -2   3 130496. 3315.16   4
  -2  -2   3 134527. 3926.32   2
  -2  -2   2 370544. 5793.45   2
  -2  -2   2 364637. 5582.35   4
  -2  -2   1 796736. 9931.37   1
  -2  -2   0 426884. 7708.71   1
  -2  -2  -1 44963.2 2783.91   1
  -2  -2  -2 122452. 5224.01   1
  -2  -2  -3 316914. 9569.96   1
  -2  -2  -4 7800.84 1769.37   1
  -2  -2  -5 68489.9 5436.71   1
  -2  -2  -6 22353.6 3314.45   1
  -2  -2  -7 16405.1 2895.44   1
   2   2   7 12466.3 2124.07  16
  -2  -2  -8-968.814 1416.99  12
   2   2   8 537.238 638.931  16
  -2  -2  -8 290.468 712.116   1
   2   2   8 743.684 778.698  14
  -2  -2  -9 8613.86 1930.86  12
   2   2   9 10625.3 1937.12  14
  -2  -2 -10 11752.7 2026.09  12
  -2  -2 -11 5335.39 1156.90  12
   2   2  11 6446.51 1304.08   6
   2   2  12 35074.5 2259.29  17
   2   2  12 27665.2 1923.87   6
  -2  -3  13 24161.7 3002.36   8
  -2  -3  13 24928.8 2426.05  17
  -2  -3  12 4472.59 1239.78  17
  -2  -3  12 1524.15 742.151   8
  -2  -3  12 4707.93 1578.60  14
  -2  -3  11 33218.8 4181.35   8
  -2  -3  11 26964.4 3330.90  17
  -2  -3  11 27211.1 3540.96  14
  -2  -3  10 3925.51 1603.65   8
  -2  -3  10 1010.50 1000.58  17
  -2  -3  10 680.687 1018.94  14
  -2  -3   9 27225.3 3406.19   2
  -2  -3   9 25969.3 2857.75   8
  -2  -3   9 21240.3 2674.08  17
  -2  -3   9 16664.5 2676.91  14
  -2  -3   8 5472.97 1373.58   2
  -2  -3   8 6100.90 1272.40   8
  -2  -3   8 4765.28 1035.72  17
  -2  -3   8 4616.73 1411.25   7
  -2  -3   8 2910.34 832.989  14
  -2  -3   7 3687.77 1028.60   2
  -2  -3   6 6743.36 1290.09   3
  -2  -3   6 6583.51 1250.17   2
  -2  -3   5 80518.2 4725.97   3
  -2  -3   5 74368.0 3820.98   2
  -2  -3   4 231607. 6246.51   2
  -2  -3   4 212540. 8084.46   3
  -2  -3   4 220088. 4233.38   4
  -2  -3   3 17133.0 1595.07   2
  -2  -3   3 15795.9 1108.66   4
  -2  -3   3 15749.8 2234.61   3
  -2  -3   2 307442. 9439.47   3
  -2  -3   2 310226. 5130.04   4
  -2  -3   1 14661.5 1451.25   1
  -2  -3   0 665.408 430.045   1
  -2  -3  -1 307240. 8256.81   1
  -2  -3  -2 428948. 11256.5   1
  -2  -3  -3 93245.4 5972.10   1
  -2  -3  -4 370755. 12839.0   1
  -2  -3  -5 13.4587 1075.34   1
  -2  -3  -6-190.210 846.850  12
  -2  -3  -6-156.291 872.438   1
  -2  -3  -7 25829.9 3622.26   1
  -2  -3  -7 25700.4 3280.38  12
  -2  -3  -8 3781.31 1413.92  12
  -2  -3  -9 5434.18 1578.21  12
  -2  -3 -10 18566.3 2243.92  12
   2   3  10 19820.7 2464.04   6
   2   3  11 12898.9 1676.37   6
  -2  -3 -11 9999.96 1272.23  12
  -2  -4  13 44539.7 3907.13   8
  -2  -4  12 2990.19 1671.98   8
  -2  -4  12 3469.04 1323.35  14
  -2  -4  11 20057.9 3217.31   8
  -2  -4  11 16100.7 2713.34  14
  -2  -4  10 1057.79 855.001   8
  -2  -4  10-1605.07 1436.97  14
  -2  -4   9 1308.61 839.599   2
  -2  -4   9 2169.69 957.140   8
  -2  -4   9 1431.03 1182.99   7
  -2  -4   9-510.040 1314.45  14
  -2  -4   8 1793.48 950.435   2
  -2  -4   8 1969.96 789.650   8
  -2  -4   8 2138.30 881.441   7
  -2  -4   7 11528.1 1721.15   8
  -2  -4   7 13484.4 2040.39   7
  -2  -4   7 11762.1 1857.99   2
  -2  -4   6 43106.7 4198.21   3
  -2  -4   6 40960.0 3313.99   2
  -2  -4   5 472436. 14577.2   3
  -2  -4   5 497548. 10943.1   2
  -2  -4   4 165476. 5927.84   2
  -2  -4   4 154383. 8208.20   3
  -2  -4   3 223191. 9343.29   3
  -2  -4   3 200937. 3796.19   4
  -2  -4   2 625.569 768.920   3
  -2  -4   2 725.644 301.840   4
  -2  -4   1 90822.3 3960.85   1
  -2  -4   0 457874. 9907.16   1
  -2  -4  -1 207744. 7752.49   1
  -2  -4  -2 277284. 10241.2   1
  -2  -4  -3 236428. 10493.3   1
  -2  -4  -4 1963.38 1086.15   1
  -2  -4  -5 67506.7 4664.04  12
  -2  -4  -5 66663.6 6052.89   1
  -2  -4  -6 60432.5 4758.72  12
  -2  -4  -6 57994.2 5583.90   1
  -2  -4  -7 34761.8 3770.67  12
  -2  -4  -8 3801.14 1481.54  12
  -2  -4  -9 22055.4 2653.24  12
   2   4   9 21450.8 2778.16   6
  -2  -4 -10 485.003 528.564  12
   2   4  10 113.066 571.472   6
   2   4  11 4644.27 868.641   6
  -2  -5  13 1615.19 607.320   8
  -2  -5  12 30300.8 3531.89   8
  -2  -5  11 4442.26 1394.35   8
  -2  -5  10 2583.98 1088.45   8
  -2  -5   9 12402.7 2442.93   7
  -2  -5   9 12261.7 2000.76   8
  -2  -5   9 14549.5 2354.34   2
  -2  -5   8 39663.1 3140.59  10
  -2  -5   8 37577.6 3332.77   8
  -2  -5   8 40810.7 4133.47   7
  -2  -5   8 38767.6 3716.93   2
  -2  -5   7 47426.9 3248.45  10
  -2  -5   7 47494.1 4887.97   3
  -2  -5   7 48918.2 4198.31   7
  -2  -5   7 48785.4 4018.98   2
  -2  -5   6 26037.1 3940.75   3
  -2  -5   6 25589.9 2821.14   2
  -2  -5   5 133882. 6169.28   2
  -2  -5   5 128797. 8856.34   3
  -2  -5   4 132785. 8477.87   3
  -2  -5   3 23765.1 3378.17   3
  -2  -5   2 49831.6 4547.86   3
  -2  -5   1 100225. 4605.49   1
  -2  -5   0 82002.5 4806.98   1
  -2  -5  -1 298559. 10471.6   1
  -2  -5  -2 35452.2 3979.14   1
  -2  -5  -3 1993.80 1064.42  12
  -2  -5  -3-257.736 981.084   1
  -2  -5  -4 1757.93 907.238  12
  -2  -5  -4-68.6481 1050.80   1
  -2  -5  -5 12878.7 2179.78  12
  -2  -5  -5 13205.5 2697.17   1
  -2  -5  -6 28142.5 3890.16   1
  -2  -5  -6 26741.1 3257.87  12
  -2  -5  -7 635.749 813.389  12
   2   5   7 204.713 784.462   6
  -2  -5  -8 6996.86 1718.82  12
   2   5   8 9311.90 1790.10   6
   2   5   9 2307.51 913.275   6
   2   5  10 2128.80 782.367   6
  -2  -6  13 39135.7 3191.89   8
  -2  -6  12 14840.7 2279.03   8
  -2  -6  11 798.513 794.206   8
  -2  -6  10 22018.5 2665.33   8
  -2  -6   9 24885.8 2843.12   8
  -2  -6   8 18936.7 2441.77   8
  -2  -6   8 25544.6 3513.34   7
  -2  -6   8 20238.6 2691.24   2
  -2  -6   7 19633.5 2988.78   7
  -2  -6   7 16535.3 3403.31   3
  -2  -6   7 17671.3 2543.42   2
  -2  -6   7 17246.1 2142.09  15
  -2  -6   6 35738.3 3502.84   2
  -2  -6   6 34072.3 5119.37   3
  -2  -6   6 33992.7 3382.24   7
  -2  -6   6 33118.8 3267.64  15
  -2  -6   5 3329.96 1031.76   2
  -2  -6   5 3688.34 1983.25   3
  -2  -6   4 50185.2 5523.39   3
  -2  -6   3 19264.0 3239.72   3
  -2  -6   2 1798.22 1204.26   3
  -2  -6   1 31913.3 2913.57   1
  -2  -6   0 33441.1 3388.32   1
  -2  -6  -1 2140.15 1027.79   1
  -2  -6  -2 14647.1 2699.29   1
  -2  -6  -3 1217.88 1037.19   1
   2   6   3 450.729 499.513   6
   2   6   4 12307.7 2014.12   6
  -2  -6  -4 16160.3 3028.90   1
   2   6   5 48099.7 4125.72   6
   2   6   6 1323.71 855.905   6
   2   6   7 32970.9 3518.86   6
   2   6   8 24686.3 2777.14   6
   2   6   9 1592.11 744.341   6
   2   6  10 13072.2 1268.26   6
  -2  -7  13 6219.29 1171.04   8
  -2  -7  12 22303.2 2390.19   8
  -2  -7  11 19183.8 2287.65   8
  -2  -7  10 35946.5 3306.34   8
  -2  -7   9 12254.4 2011.60   8
  -2  -7   8 2595.74 904.962  15
  -2  -7   8 2598.85 1782.43   7
  -2  -7   7 30.3633 637.407   2
  -2  -7   7 1921.94 1057.15   7
  -2  -7   7 1018.15 1787.28   3
  -2  -7   7 1016.89 921.735  15
  -2  -7   6 122963. 6785.93   2
  -2  -7   6 121029. 7098.87  15
  -2  -7   6 130080. 9962.70   3
  -2  -7   5 47518.9 4287.01   2
  -2  -7   5 53589.3 6198.89   3
  -2  -7   5 47811.3 5032.38  15
  -2  -7   4 102082. 7902.82   3
  -2  -7   4 88860.2 5145.14  13
  -2  -7   3 42169.7 4751.79   3
  -2  -7   3 45425.1 4082.90  13
  -2  -7   2 1165.00 1242.42  13
  -2  -7   1-797.565 1863.26  13
  -2  -7   0 91792.7 6912.65  13
  -2  -7   0 78646.6 5654.16   1
  -2  -7  -1-581.183 653.694   1
  -2  -7  -2 44099.5 4774.03   1
   2   7   3 19645.3 2384.96   6
  -2  -7  -3 22718.4 3418.51   1
   2   7   4 53865.6 4089.23   6
   2   7   5 22273.7 2733.23   6
   2   7   6 22429.6 2775.61   6
   2   7   7 41141.2 3491.74   6
  -2  -7  -8 2724.41 903.102  13
   2   7   8 930.927 584.006   6
   2   7   9 42612.3 2358.64   6
  -2  -8  12 24006.4 2302.77   8
  -2  -8  11 94982.7 4764.66   8
  -2  -8  10 3512.25 1180.82   8
  -2  -8   9 740.746 766.311   8
  -2  -8   8 43220.0 3732.06  15
  -2  -8   7 125516. 7329.21  15
  -2  -8   6 623.370 932.747  15
  -2  -8   5 275418. 11140.7   2
  -2  -8   5 304042. 13921.7   3
  -2  -8   4 11551.8 2418.59  13
  -2  -8   4 10619.4 2606.95   3
  -2  -8   4 7190.86 2377.02  15
  -2  -8   3 24340.3 3587.35  13
  -2  -8   2 10818.1 2546.95  13
  -2  -8   1 13915.4 2695.15  13
  -2  -8   0 25091.1 3961.17  13
  -2  -8  -1 73267.6 5797.56  13
  -2  -8  -2 13158.6 2525.34  13
  -2  -8  -3 16805.0 2617.40  13
   2   8   3 13040.6 1976.28   6
  -2  -8  -4 3533.34 1541.08  13
   2   8   4 1373.18 850.860   6
  -2  -8  -5 55165.0 4164.68  13
   2   8   5 44649.6 3475.62   6
  -2  -8  -6 866.167 903.549  13
   2   8   6 2292.14 869.685   6
  -2  -8  -7 1516.90 770.233  13
   2   8   7 1864.74 795.348   6
   2   8   8 18168.5 1479.47   6
  -2  -9  11 817.624 579.529   8
  -2  -9  10 4547.31 1115.72   8
  -2  -9   9 53947.6 4043.78   8
  -2  -9   9 48645.0 3347.69  15
  -2  -9   8 50313.0 4294.34   8
  -2  -9   8 52107.1 4316.33  15
  -2  -9   7 47402.4 4969.67  15
  -2  -9   6 69931.3 6255.29  15
  -2  -9   5 43692.7 5016.88  15
  -2  -9   4 97245.8 7218.67  15
  -2  -9   4 103358. 7404.81  13
  -2  -9   3 22684.2 3476.50  15
  -2  -9   3 20215.5 3650.54  13
  -2  -9   2 27696.0 3902.30  13
  -2  -9   2 45263.5 4417.51  15
  -2  -9   1 4113.37 1410.89  13
  -2  -9   1 3816.01 1300.38  15
  -2  -9   0 58005.2 5238.07  13
  -2  -9  -1 113.620 955.459  13
  -2  -9  -1 370.528 668.169  15
  -2  -9  -2 178.197 841.167  13
  -2  -9  -2 408.437 670.321  15
  -2  -9  -3 4156.72 1393.93  13
  -2  -9  -4 1701.19 945.556  13
   2   9   4 1424.98 542.308   6
  -2  -9  -5 2871.13 955.958  13
   2   9   5 2250.50 669.365   6
  -2  -9  -6 659.416 619.091  13
   2   9   6 1842.76 565.512   6
  -2 -10  10 46988.1 3378.25   8
  -2 -10   9 44477.6 3535.69   8
  -2 -10   8 42583.7 3760.51   8
  -2 -10   8 48338.5 4122.49  15
  -2 -10   7 73893.5 5721.98  15
  -2 -10   6 9424.27 2099.81  15
  -2 -10   5 16147.7 2833.73  15
  -2 -10   4 24049.9 3297.84  15
  -2 -10   3 16380.6 2651.87  15
  -2 -10   3 4747.48 1207.20  13
  -2 -10   2 20736.4 3375.55  13
  -2 -10   2 18446.1 2612.25  15
  -2 -10   1 35314.4 3357.04  15
  -2 -10   1 46348.2 4646.58  13
  -2 -10   0 9309.69 2066.11  13
  -2 -10   0 9017.83 1760.65  15
  -2 -10  -1 924.352 872.189  13
  -2 -10  -1 41.7869 528.471  15
  -2 -10  -2 474.557 701.752  13
  -2 -10  -3 23324.9 2413.29  13
  -2 -10  -4 3994.43 958.562  13
  -2 -10  -5 2495.51 627.854  13
  -2 -11   8 5063.30 1082.94   8
  -2 -11   7 11596.8 1739.20   8
  -2 -11   7 11683.1 1925.32  15
  -2 -11   6 1054.28 803.788   8
  -2 -11   6 1877.08 951.591  15
  -2 -11   5 1379.40 927.062  15
  -2 -11   4 455.937 744.740  15
  -2 -11   3 514.083 615.703  15
  -2 -11   2 3436.75 1080.21  15
  -2 -11   1-86.6425 673.043  13
  -2 -11   1-579.875 583.243  15
  -2 -11   0 1695.99 813.262  13
  -2 -11   0 1148.36 631.023  15
  -2 -11  -1 149.641 473.351  13
  -2 -11  -2 45229.2 2829.35  13
  -2 -11  -3 915.470 473.167  13
   2  12  -6 1197.91 467.567  18
  -2 -12   6 709.264 334.514  15
  -2 -12   5 14206.2 1532.81  15
  -2 -12   4 906.610 538.982  15
  -2 -12   3 20260.2 1761.19  15
  -2 -12   2 7444.18 1034.63  15
  -3  12  -1 1205.58 424.529  18
  -3  12  -2 14339.7 1359.77  18
  -3  12  -3 3151.55 706.489  18
  -3  12  -4 1111.31 463.366  18
  -3  11   4 2426.65 581.396   5
  -3  11   3 5146.22 864.522   5
  -3  11   2 21193.1 1720.24   5
  -3  11   0 12234.9 1549.03  18
   3 -11   0 8945.08 1681.03  19
   3 -11   1 46913.0 3935.06  19
  -3  11  -1 56706.4 3541.76  18
   3 -11   2 1900.32 1133.44  19
  -3  11  -2 961.827 625.337  18
  -3  11  -3 6446.42 1421.54  18
   3 -11   3 6196.60 1674.01  19
  -3  11  -4 17946.0 2250.21  18
   3 -11   4 14439.2 2247.98  19
  -3  11  -5 1432.77 737.374  18
   3 -11   5 1551.78 884.134  19
  -3  11  -6 12749.0 1697.71  18
   3 -11   6 11412.1 1781.83  19
  -3  10   6 11676.1 1328.28   5
  -3  10   5 144.951 376.209   5
  -3  10   4 30491.9 2663.11   5
  -3  10   3 55151.3 3802.98   5
  -3  10   2 2278.44 1005.27   5
  -3  10   1 107634. 5596.61   5
  -3  10   1 111018. 5023.36  18
  -3  10   0 79797.1 4789.27   5
  -3  10   0 96176.5 5113.99  18
  -3  10  -1 3542.47 1183.16  18
   3 -10   2 50607.2 5759.02  19
  -3  10  -2 68214.9 4902.91  18
   3 -10   3 12701.9 2783.29  19
  -3  10  -3 22580.2 3014.73  18
  -3  10  -4 2919.75 1195.34  18
   3 -10   4 2008.00 1052.56  19
   3 -10   5 26074.7 3794.48  19
  -3  10  -5 23586.3 2989.91  18
   3 -10   6 9833.40 2070.42  19
  -3  10  -6 9686.66 1815.52  18
   3 -10   7 21995.7 2894.27  19
  -3  10  -7 19978.3 2200.50  18
   3 -10   8 3676.41 1235.38  19
   3 -10   8 2025.57 655.896  14
  -3   9   8 6450.12 879.257   5
  -3   9   7 12630.8 1596.97   5
  -3   9   6 404.290 483.644   5
  -3   9   5 18704.3 2483.09   5
  -3   9   4 30327.5 3281.27   5
  -3   9   3 938.758 809.355   5
  -3   9   2 79863.2 5622.95   5
  -3   9   1 19278.3 2861.73   5
  -3   9   1 23939.2 2667.06  18
  -3   9   0 15379.2 2456.55   5
  -3   9   0 22361.8 2758.83  18
  -3   9  -1 32771.0 3538.36  18
  -3   9  -2 12745.1 2527.01  18
  -3   9  -3 5143.72 1811.05  18
   3  -9   3 1945.68 1446.24  19
   3  -9   4 38281.3 4968.23  19
  -3   9  -4 31270.4 3796.41  18
   3  -9   5 17113.5 3206.16  19
  -3   9  -5 11730.6 2411.47  18
  -3   9  -6 4557.72 1506.57  18
   3  -9   6 6371.73 2161.62  19
  -3   9  -7 107.570 587.632  18
   3  -9   7 821.566 947.367  19
   3  -9   8 4367.05 1293.64  19
   3  -9   9 84814.5 5224.58  19
   3  -9   9 87744.7 5138.06  14
  -3   8   9 16465.4 1374.02   5
  -3   8   8 944.297 504.996  11
  -3   8   8 1593.29 667.568   5
  -3   8   7 924.146 620.440  11
  -3   8   7 1686.86 786.932   5
  -3   8   6 387.680 717.705  11
  -3   8   6 950.553 884.138   5
  -3   8   5 20052.6 2866.66   5
  -3   8   5 20097.6 2675.19  11
  -3   8   4 2533.52 1039.99  11
  -3   8   4 4202.64 1628.85   5
  -3   8   3 96548.2 6670.77   5
  -3   8   2 4714.25 1629.61   5
  -3   8   2 6116.79 1316.95  18
  -3   8   1 23776.7 3267.22   5
  -3   8   1 31819.1 3220.93  18
  -3   8   0 701.065 725.868   5
  -3   8   0 1824.27 1099.09  18
  -3   8  -1 5093.61 1329.68   5
   3  -8   1 6555.37 1739.85   3
  -3   8  -1 6412.70 1855.52  18
   3  -8   2 5090.11 1617.73   3
  -3   8  -2 7359.55 2045.49  18
   3  -8   3 54553.3 5154.36   3
  -3   8  -3 46140.6 4725.39  18
  -3   8  -4 7508.28 1971.25  18
   3  -8   4 12917.9 2733.65  19
  -3   8  -5 9055.55 2116.27  18
   3  -8   5 7519.66 2072.63  19
   3  -8   6 2520.96 1364.72  19
  -3   8  -6 1667.88 1086.07  18
   3  -8   7 44420.9 4282.12  19
  -3   8  -7 42470.7 3650.68  18
   3  -8   8 54019.3 4455.94  19
   3  -8   9 25884.0 2893.74  19
   3  -8  10 92466.3 4941.16  14
  -3   7  10-248.946 367.549  11
  -3   7   9 2877.33 693.583  10
  -3   7   9 3357.06 1034.74  11
  -3   7   9 3506.97 906.608   5
  -3   7   8 1827.52 908.404  11
  -3   7   8 960.074 685.492   5
  -3   7   7 11102.8 1988.30  11
  -3   7   7 13412.7 2260.04   5
  -3   7   6 8097.29 1799.47  11
  -3   7   6 9075.32 2053.90   5
  -3   7   5 51326.5 4451.67  11
  -3   7   5 48993.2 4804.44   5
  -3   7   4 1767.85 1061.81  11
  -3   7   4 1756.80 1371.36   5
  -3   7   3 3041.02 1009.77  11
  -3   7   3 3691.77 1597.20   5
  -3   7   2 29277.1 3977.72  11
  -3   7   2 29210.1 3693.13   5
  -3   7   2 39338.5 3305.28  18
  -3   7   1 913.914 739.335   5
  -3   7   1 1483.11 1128.68  18
  -3   7   0 1247.35 903.778   5
   3  -7   0 1299.68 755.588   3
  -3   7   0 1776.02 1106.14  18
   3  -7   1 27927.9 3385.01   3
  -3   7  -1 23652.6 2757.32   5
  -3   7  -1 24909.6 3259.36  18
   3  -7   2 25572.3 3367.75   3
  -3   7  -2 20026.6 2926.27  18
   3  -7   3 50479.9 4813.17   3
  -3   7  -3 43882.8 4374.34  18
   3  -7   4 45981.5 4663.51   3
   3  -7   4 44175.5 4502.25  19
  -3   7  -4 40542.9 4124.79  18
   3  -7   5 1373.85 946.132   3
   3  -7   5 218.176 720.047  19
  -3   7  -5 1021.75 921.928  18
   3  -7   6 24962.7 3310.15  19
  -3   7  -6 22360.6 3009.70  18
  -3   7  -7 72748.8 4681.13  18
   3  -7   7 69067.0 5303.52  19
   3  -7   8 64660.7 4948.16  19
   3  -7   9 91292.0 5638.03  19
   3  -7  10 2728.87 1057.42  14
   3  -7  11 10137.3 1491.89  14
  -3   6  11 5859.96 903.439  11
  -3   6  10 17198.7 2024.52  11
  -3   6  10 14195.8 1389.97   5
  -3   6   9 4290.71 1271.99  11
  -3   6   9 4023.01 1119.81  10
  -3   6   9 2769.96 950.540   5
  -3   6   8 54756.0 4401.76  11
  -3   6   8 51353.4 4085.37   5
  -3   6   8 47570.9 3941.41   6
  -3   6   7 2053.33 984.191   6
  -3   6   7 2055.23 1153.06  11
  -3   6   7 3485.89 1387.09   5
  -3   6   6 35728.2 3688.23  11
  -3   6   6 34434.7 3998.98   5
  -3   6   6 32882.0 3730.42   6
  -3   6   5 38059.3 3881.82  11
  -3   6   5 37956.9 4267.38   5
   3  -6  -5 37670.6 3949.11   1
  -3   6   5 36152.0 3948.69   6
  -3   6   4 116266. 7071.37  11
  -3   6   4 121486. 7372.14   5
   3  -6  -4 113020. 6407.55   1
  -3   6   4 106857. 6801.59   6
  -3   6   3 39850.5 4278.47  11
  -3   6   3 31855.9 3786.05   5
   3  -6  -3 32955.9 3205.71   1
  -3   6   2 60663.6 5286.53  11
  -3   6   2 67962.2 5119.39   5
  -3   6   1 3178.03 1386.00  11
  -3   6   1 2690.52 1116.54   5
   3  -6  -1 3290.86 1024.97   3
  -3   6   1 2978.12 1085.24   4
   3  -6   0 39871.4 3676.84   3
  -3   6   0 40474.5 3716.52  18
   3  -6   1 30385.6 3186.15   3
  -3   6  -1 29402.9 3253.34  18
  -3   6  -2 33028.0 3405.88  18
   3  -6   2 34245.0 3509.75   3
   3  -6   3 266.943 488.597   3
  -3   6  -3-264.583 663.374  18
   3  -6   4 6922.56 1738.66   3
   3  -6   4 6963.15 1708.54  19
  -3   6  -4 6922.47 1658.21  18
   3  -6   5 324572. 12249.5   3
   3  -6   5 322098. 11161.1  19
  -3   6  -5 321587. 10245.5  18
   3  -6   6 4093.41 1403.30  19
   3  -6   6 4790.37 1819.97   3
  -3   6  -6 2713.65 989.100  18
   3  -6   7 165850. 8124.83  19
  -3   6  -7 159468. 6652.36  18
   3  -6   7 169942. 10864.3  16
   3  -6   8 60192.9 4922.15  19
   3  -6   9 2394.05 1159.40  19
   3  -6  10 19991.9 2563.29  14
   3  -6  11 36729.6 3029.79  14
   3  -6  12-502.237 490.253  14
  -3   5  12 13244.3 1229.98  11
  -3   5  11 15867.2 1849.59  11
  -3   5  10 38148.8 3355.22  11
  -3   5   9 101860. 5230.19   5
  -3   5   9 97188.4 5296.87   6
  -3   5   8 4194.93 1259.67   6
  -3   5   8 5625.93 1513.69   5
  -3   5   7 81357.6 5797.29   5
  -3   5   7 77327.4 5339.46   6
   3  -5  -6 97715.3 6630.83   1
  -3   5   6 94268.5 6084.32   6
  -3   5   5 50673.1 4330.52  11
   3  -5  -5 42132.2 4340.97   1
  -3   5   5 40403.5 4038.00   6
  -3   5   4 105030. 6243.45  11
   3  -5  -4 96907.8 6236.21   1
  -3   5   4 86747.8 5716.50   6
   3  -5  -3 143698. 7243.76   1
  -3   5   3 131676. 7386.15   4
   3  -5  -2 6296.08 1414.01   1
  -3   5   2 5593.72 1419.74   4
   3  -5  -1 48921.7 3277.23   3
   3  -5  -1 45204.4 3423.72   1
  -3   5   1 49422.1 3697.63   4
   3  -5   0 4116.81 1146.58   3
  -3   5   0 3995.63 962.427   4
   3  -5   1 5029.39 1284.60   3
  -3   5  -1 3746.16 816.771   4
   3  -5   2 99708.8 5350.80   3
   3  -5   3 19343.3 2489.11   3
   3  -5   4 43669.7 3940.67   3
   3  -5   4 48516.3 3992.67  19
  -3   5  -4 50113.6 3684.41  18
   3  -5   5 3169.88 1343.02   3
  -3   5  -5 1550.74 784.720  18
   3  -5   5 2530.45 1161.45  19
   3  -5   6 214137. 11117.3   3
   3  -5   6 207643. 8800.69  19
   3  -5   6 187335. 13231.6  16
  -3   5  -6 195769. 7233.94  18
   3  -5   7 10164.7 2940.98   3
   3  -5   7 5943.65 2063.66  16
   3  -5   7 5859.89 1661.08  19
   3  -5   8 50060.7 7049.87  16
   3  -5   8 45000.8 4376.44  19
   3  -5   9 17926.7 2792.04  19
   3  -5  10 20245.6 2764.82  14
   3  -5  11 16168.1 2193.98  14
   3  -5  12 17629.2 1787.82  14
  -3   4  12 634.802 416.536  11
  -3   4  11 102512. 4259.70  17
  -3   4  10 77278.7 4057.87  10
  -3   4  10 106327. 4929.43  17
  -3   4   9 228.086 525.291   6
  -3   4   9 1489.14 1085.08  10
  -3   4   9 2218.75 1091.07  17
  -3   4   8 83158.0 5339.34   6
  -3   4   8 86208.3 5554.82   5
  -3   4   8 92684.0 4983.49  17
  -3   4   7 37832.0 3628.09   6
  -3   4   7 41712.9 4140.45   5
   3  -4  -7 40864.5 4502.54   1
  -3   4   7 44721.9 3405.22  17
  -3   4   6 2175.90 905.893   6
   3  -4  -6-442.197 787.207   1
  -3   4   6 2148.55 1104.50  17
   3  -4  -5 156567. 8645.49   1
  -3   4   5 158966. 8568.54   4
   3  -4  -4 82735.8 6020.04   1
  -3   4   4 82799.0 5726.95   4
  -3   4   3 12069.2 2045.09   4
   3  -4  -2 20803.7 1745.55   3
  -3   4   2 19967.0 2251.61   4
   3  -4  -1 1504.72 607.601   3
  -3   4   1 806.845 446.576   4
   3  -4   0 3961.47 951.738   3
  -3   4   0 3061.53 746.090   4
   3  -4   1 6043.88 1243.11   3
  -3   4  -1 5564.81 973.937   4
   3  -4   2 14260.8 1898.39   3
  -3   4  -2 16083.4 1509.02   4
   3  -4   3 1276.58 725.276   3
   3  -4   4 7858.59 1644.32   3
   3  -4   5 42950.0 4290.94   3
   3  -4   5 44656.6 3803.46  19
   3  -4   6 81650.5 5315.43  19
   3  -4   6 77403.4 6706.17   3
   3  -4   6 88199.6 8708.67  16
   3  -4   7 23033.8 4049.35   3
   3  -4   7 26594.8 3253.75  19
   3  -4   7 31943.3 5409.46  16
   3  -4   8 12534.2 3412.09  16
   3  -4   8 9722.50 2204.82  19
   3  -4   9 13689.6 2621.34  19
   3  -4   9 18758.7 3774.62  16
   3  -4   9 18143.0 2782.85  14
   3  -4  10 2034.79 1125.66  14
   3  -4  11 148.427 652.730  14
   3  -4  12 4060.85 910.543  14
  -3   3  13 4389.18 821.309  11
  -3   3  12 42814.0 2734.76  17
  -3   3  11 22161.1 2317.35  17
  -3   3  10 47437.5 3486.63  10
  -3   3  10 57210.9 4002.84  17
  -3   3   9 4031.79 1284.80  17
  -3   3   9 5850.15 1759.30  10
  -3   3   8 6775.47 1535.39  17
   3  -3  -8 4163.88 1682.78   1
  -3   3   7 12197.4 2137.97   5
   3  -3  -7 11051.2 2476.08   1
  -3   3   7 14134.3 1996.95  17
   3  -3  -6 87360.3 6661.53   1
  -3   3   5 36377.4 3795.72   4
  -3   3   4 13351.5 2126.46   4
  -3   3   3 1200.50 700.106   4
   3  -3  -2 7744.35 1008.04   3
  -3   3   2 6154.29 1116.82   4
   3  -3  -1 126414. 4388.75   3
  -3   3   1 113935. 4356.83   4
  -3   3   0 33465.8 2258.05   4
  -3   3  -1 302042. 6639.27   4
  -3   3  -2 151008. 4646.38   4
  -3   3  -3 16832.0 1567.74   4
  -3   3  -4 3949.90 754.745   4
   3  -3   5 204442. 9464.61   3
   3  -3   6 4715.18 1298.70  19
   3  -3   6 6914.66 2036.11   3
   3  -3   6 2861.89 1410.58  16
   3  -3   7 149504. 9668.67  16
   3  -3   7 152944. 7278.06  19
   3  -3   8 776.482 735.599  19
   3  -3   8 2105.00 1498.84  16
   3  -3   9 5369.34 2131.92  16
   3  -3   9 5662.81 1834.82  14
   3  -3  10 2099.20 1186.45  14
   3  -3  11-1970.48 1409.75  14
  -3   3 -12 457.847 671.793  12
   3  -3  12 4305.54 960.080  14
  -3   2  13 11278.9 1347.01  17
  -3   2  12 1395.83 824.423  17
  -3   2  11 37503.5 3316.88  17
  -3   2  10 2597.32 1326.53  17
  -3   2   9 7333.46 2325.32  10
   3  -2  -9 7540.24 2090.45   1
  -3   2   9 8301.80 1932.63  17
  -3   2   8 17059.1 3533.57  10
   3  -2  -8 12735.3 2702.50   1
  -3   2   8 16443.0 2391.16  17
   3  -2  -7 23318.1 3737.63   1
  -3   2   7 31501.3 3169.02  17
  -3   2   6 4173.33 1418.91   4
  -3   2   5 31195.1 3278.25   4
  -3   2   4 3370.47 995.649   4
  -3   2   3 163162. 5564.66   4
   3  -2  -3 155036. 3370.88   3
  -3   2   2 84902.5 3680.49   4
  -3   2   1 62556.7 2970.62   4
  -3   2   0 370319. 6980.96   4
  -3   2  -1 45214.7 2478.40   4
  -3   2  -2 64274.5 3050.93   4
  -3   2  -3 98297.8 3884.73   4
  -3   2  -4 225039. 6034.92   4
  -3   2  -5 89851.1 3906.66   4
   3  -2   6 130943. 7780.89  16
   3  -2   6 137713. 5994.91  19
   3  -2   7 9883.31 2281.28  16
   3  -2   7 12941.5 2116.69  19
   3  -2   7 14812.9 3085.67   3
   3  -2   8 14790.0 2856.17  16
   3  -2   8 20680.0 2690.90  14
   3  -2   9 1478.88 1390.36  16
   3  -2   9 623.781 974.541  14
   3  -2  10-789.227 1137.70  14
   3  -2  11 11548.8 1919.77  14
  -3   2 -12 5171.40 988.185  12
   3  -2  12 7808.51 1222.62  14
  -3   1  13 26177.2 2209.27  17
  -3   1  12 4753.72 1378.99  17
  -3   1  11 44462.2 3929.70  17
  -3   1  10 32378.1 5363.19   8
  -3   1  10 6094.49 1777.34  17
  -3   1   9 30813.6 4377.80  10
   3  -1  -9 40617.1 4641.67   1
  -3   1   9 38316.8 5246.70   8
  -3   1   9 40317.8 3940.68  17
  -3   1   8-744.418 1507.75   8
   3  -1  -8 176.257 693.041   1
  -3   1   8-644.788 1410.42  10
  -3   1   8 61.2015 1009.12  17
  -3   1   7 87.4244 1060.76   8
  -3   1   7-60.2211 823.970   4
  -3   1   7 276.390 698.767  17
  -3   1   6 21602.3 2790.96   4
  -3   1   5 25583.3 2595.18   4
  -3   1   4 23138.2 2159.02   4
  -3   1   3 195128. 5671.42   4
  -3   1   2 14525.7 1456.82   4
  -3   1   1 163885. 4567.13   4
  -3   1   0 67366.0 2972.21   4
  -3   1  -1 236416. 5686.04   4
  -3   1  -2 225536. 5674.92   4
  -3   1  -3 49556.7 2798.29   4
  -3   1  -4 122822. 4677.06   1
  -3   1  -5 424043. 9360.30   1
   3  -1   6 36624.7 3920.97  16
   3  -1   7 23470.0 3334.50  16
   3  -1   7 30116.2 3021.66  14
   3  -1   8 8161.93 2130.62  16
   3  -1   8 9255.26 1921.59  14
   3  -1   9 32354.0 4013.31  16
   3  -1   9 33392.1 3562.62  14
   3  -1  10 935.888 893.114  14
  -3   1 -11 11613.7 1891.07  12
   3  -1  11 14303.5 2002.50  14
  -3   1 -12 967.962 383.967  12
  -3   0  14 1828.81 511.997  17
  -3   0  13 33541.3 2645.35  17
  -3   0  12 177650. 7102.13  17
  -3   0  11 18986.9 4158.15   8
  -3   0  11 5859.95 1571.39  17
  -3   0  10 49749.8 5627.45   8
  -3   0  10 78122.8 5728.65  17
  -3   0   9 1879.44 1062.18   8
  -3   0   9-48.0060 1857.77  10
   3   0  -9 3880.11 1588.55   1
   3   0  -8 3034.64 1307.91   1
  -3   0   8 2791.26 1365.38  10
  -3   0   8 2247.24 870.887   7
  -3   0   8 5116.35 1608.25   8
  -3   0   8 2153.32 933.280  17
  -3   0   7 9439.10 1900.02   4
  -3   0   6 1351.06 775.303   4
  -3   0   5 149527. 5624.21   4
  -3   0   4 22495.2 1995.80   4
  -3   0   3 376571. 7504.99   4
  -3   0   2 257981. 5861.77   4
  -3   0   1 28254.8 1928.91   4
  -3   0   0 122925. 4078.24   4
  -3   0  -1 192551. 5172.50   4
  -3   0  -2 16410.5 1679.87   1
  -3   0  -3 324889. 8046.75   1
  -3   0  -4 87381.5 4558.54   1
  -3   0  -5 42970.3 3552.38   1
  -3   0  -6 9398.02 1795.09   1
   3   0   6 7428.95 1785.27  16
   3   0   7 13784.2 2508.68  16
   3   0   7 15373.4 2192.69  14
   3   0   8 45940.4 4670.84  16
   3   0   8 45357.2 3980.84  14
   3   0   9 19792.0 3070.23  16
   3   0   9 16572.0 2437.39  14
  -3   0 -10-759.743 1301.84  12
   3   0  10-27.3181 639.320  14
  -3   0 -11 13434.1 1923.28  12
  -3   0 -12 1546.12 550.523  12
   3   0  12 580.477 267.504   6
  -3  -1  14 54313.1 2610.43  17
  -3  -1  13 85261.4 4317.14  17
  -3  -1  12 34053.8 4624.54   8
  -3  -1  12 25847.9 2896.21  17
  -3  -1  11 70189.0 6590.74   8
  -3  -1  11 123668. 6893.94  17
  -3  -1  10 1150.96 842.846   8
  -3  -1  10 3769.23 1438.05  17
  -3  -1   9 35500.2 3863.59  10
   3   1  -9 39224.2 4362.90   1
  -3  -1   9 46445.6 4893.65   8
  -3  -1   9 40353.5 4144.06  17
  -3  -1   8 38529.7 3924.98  10
  -3  -1   8 31022.3 3576.80   7
  -3  -1   8 28799.2 3312.73  17
  -3  -1   8 37731.1 3862.39   8
  -3  -1   8 33729.7 3505.04  14
  -3  -1   7 11730.1 1989.11   4
  -3  -1   6 16865.6 2306.32   2
  -3  -1   6 20036.2 2206.43   4
  -3  -1   5 17689.1 1897.97   2
  -3  -1   5 18429.3 1818.55   4
  -3  -1   4 113593. 4079.33   2
  -3  -1   4 125331. 4432.23   4
  -3  -1   3 16605.0 1296.20   2
  -3  -1   3 17712.1 1595.29   4
  -3  -1   2 97989.4 3641.24   4
  -3  -1   2 97120.5 2505.48   2
  -3  -1   1 2122.38 603.572   4
  -3  -1   0 8265.08 1102.42   4
  -3  -1  -1 3454.89 851.330   1
  -3  -1  -2 46159.4 3156.84   1
  -3  -1  -3-91.2617 413.525   1
  -3  -1  -4 25884.1 2885.05   1
  -3  -1  -5 36444.4 3737.96   1
  -3  -1  -6 2621.27 1209.85   1
   3   1   6 1987.38 948.871  16
  -3  -1  -7 85248.6 6160.67   1
   3   1   7 86657.6 6301.65  16
   3   1   8 2394.11 1470.33  16
  -3  -1  -9 103372. 6653.74  12
  -3  -1 -10 1408.84 869.117  12
  -3  -1 -11 10816.5 1604.01  12
  -3  -2  14 20492.2 1573.95  17
  -3  -2  13 68638.5 5386.31   8
  -3  -2  13 39637.0 3030.77  17
  -3  -2  12 62288.2 4458.03  17
  -3  -2  12 45006.7 4976.99   8
  -3  -2  11 7267.76 2172.66   8
  -3  -2  11 8748.55 1812.82  17
  -3  -2  10 19353.8 3379.37   8
  -3  -2  10 11838.7 2204.17  17
  -3  -2   9 1852.39 1142.93  10
  -3  -2   9 1800.37 1061.51  17
  -3  -2   9 1510.53 776.619   7
  -3  -2   9 3099.40 1542.12  14
  -3  -2   8 248475. 8775.23  10
  -3  -2   8 249872. 8841.95   8
  -3  -2   8 247273. 9733.37   7
  -3  -2   8 223650. 8478.97  17
  -3  -2   8 226568. 9505.08   2
  -3  -2   7 4362.28 1241.06   2
  -3  -2   6 34156.4 2904.72   2
  -3  -2   6 31405.8 2546.02   4
  -3  -2   5 34409.1 2494.80   2
  -3  -2   5 32854.4 2243.14   4
  -3  -2   4 178651. 5007.43   4
  -3  -2   4 172154. 4859.93   2
  -3  -2   3 17390.8 1542.79   4
  -3  -2   3 16763.0 1330.07   2
  -3  -2   2 128817. 4248.84   4
  -3  -2   2 123731. 3123.59   2
  -3  -2   1 210102. 5397.10   4
  -3  -2   1 198905. 3504.87   2
  -3  -2   0 81882.1 3964.22   1
  -3  -2  -1 13126.9 1736.88   1
  -3  -2  -2 1527.69 675.196   1
  -3  -2  -3 14755.3 2317.31   1
  -3  -2  -4 9562.25 2040.03   1
  -3  -2  -5 89251.1 6545.17   1
  -3  -2  -6 132103. 8278.35   1
   3   2   6 130845. 7036.51  16
  -3  -2  -7 40394.2 4312.72  12
  -3  -2  -7 36204.5 4356.62   1
   3   2   7 34141.9 3699.48  16
  -3  -2  -8 105495. 6930.11  12
   3   2   8 93558.8 5872.39  16
  -3  -2  -9 25522.2 3168.30  12
  -3  -2 -10 4280.17 1375.48  12
  -3  -2 -11 37873.8 2552.63  12
   3   2  11 42658.3 2822.74   6
  -3  -3  13 12634.9 2408.24   8
  -3  -3  13 9651.91 1426.89  17
  -3  -3  12-1070.69 1818.68   8
  -3  -3  12 367.712 888.890  17
  -3  -3  11 18014.3 3410.65   8
  -3  -3  11 9621.57 1777.87  17
  -3  -3  10 35501.6 4106.76   8
  -3  -3  10 21041.9 2866.36  17
  -3  -3   9 119788. 6575.43  10
  -3  -3   9 118213. 6449.89   8
  -3  -3   9 113424. 7163.34   7
  -3  -3   9 107771. 5949.86  17
  -3  -3   9 111667. 6901.65   2
  -3  -3   8 1255.74 751.854   2
  -3  -3   8 1740.46 774.161   8
  -3  -3   8 1970.57 1118.87  10
  -3  -3   8 3028.31 1035.73  17
  -3  -3   8 1378.71 709.777   7
  -3  -3   7 43.9134 444.871   2
  -3  -3   7 578.983 585.128  10
  -3  -3   7-345.191 375.125   8
  -3  -3   7-226.453 644.218   7
  -3  -3   6 38043.7 2995.15   2
  -3  -3   5 189584. 5065.07   4
  -3  -3   5 195098. 6087.71   2
  -3  -3   4 129165. 4076.05   4
  -3  -3   4 135193. 4680.08   2
  -3  -3   3 257088. 5836.49   4
  -3  -3   3 269549. 6135.50   2
  -3  -3   2 26972.8 1853.08   2
  -3  -3   2 27873.1 2015.70   4
  -3  -3   1 51659.9 2783.81   4
  -3  -3   0 111968. 5067.79   1
  -3  -3  -1 39140.7 3296.05   1
  -3  -3  -2 40348.7 3767.69   1
  -3  -3  -3 135377. 7603.24   1
  -3  -3  -4 11293.6 1955.64  12
  -3  -3  -4 7307.80 2014.33   1
  -3  -3  -5 17704.6 2722.59  12
  -3  -3  -5 16538.0 3131.62   1
  -3  -3  -6 39391.5 4107.83  12
  -3  -3  -6 32542.5 4410.11   1
  -3  -3  -7 29653.7 3751.17  12
  -3  -3  -8 52.6566 886.834  12
  -3  -3  -9 3101.90 1233.03  12
  -3  -3 -10 30061.1 2577.33  12
   3   3  10 30169.4 2619.79   6
   3   3  11 7291.98 1014.62   6
  -3  -4  13 157.424 1096.69   8
  -3  -4  12 27588.0 3755.60   8
  -3  -4  11 15871.1 3140.51   8
  -3  -4  10 98972.0 6214.57   8
  -3  -4   9 1603.84 856.217   2
  -3  -4   9 682.827 934.564  10
  -3  -4   9 684.323 631.816   8
  -3  -4   9 908.931 1115.70   7
  -3  -4   8 61097.4 4136.20  10
  -3  -4   8 58248.8 4188.08   8
  -3  -4   8 58328.6 4726.28   7
  -3  -4   8 60608.1 4518.15   2
  -3  -4   7 138941. 6313.40   2
  -3  -4   7 137118. 5745.61  10
  -3  -4   7 135243. 5850.12   8
  -3  -4   7 145766. 6834.69   7
  -3  -4   6 91522.3 4757.38   2
  -3  -4   5 169432. 6195.43   2
  -3  -4   4 568561. 10794.5   2
  -3  -4   3 28176.0 2281.80   2
  -3  -4   3 30163.1 1984.01   4
  -3  -4   2 205898. 5522.58   4
  -3  -4   1 139466. 4777.43   4
  -3  -4   0 1818.93 808.753   1
  -3  -4  -1 116536. 6321.54   1
  -3  -4  -2 293963. 11305.9   1
  -3  -4  -3 29.0862 460.549  12
  -3  -4  -3 253.668 721.226   1
  -3  -4  -4 63933.6 4613.47  12
  -3  -4  -4 61551.5 6065.27   1
  -3  -4  -5 29239.0 3432.78  12
  -3  -4  -5 32292.1 4447.11   1
  -3  -4  -6 22947.4 3250.42  12
  -3  -4  -7 17328.5 2908.22  12
  -3  -4  -8 1781.58 1093.05  12
  -3  -4  -9 1704.70 832.401  12
   3   4   9 995.235 597.550   6
   3   4  10 1432.37 615.364   6
  -3  -5  13 35446.0 3307.62   8
  -3  -5  12 21765.8 3158.36   8
  -3  -5  11 54696.4 4869.13   8
  -3  -5  10 18787.3 2612.24   8
  -3  -5   9 70419.6 4825.25   8
  -3  -5   9 75048.7 5009.84  10
  -3  -5   9 68898.3 5561.16   7
  -3  -5   8 95009.4 5226.22  10
  -3  -5   8 96489.2 5396.01   8
  -3  -5   8 100911. 6360.25   7
  -3  -5   8 95834.7 5631.08   2
  -3  -5   7 27005.8 2846.98   2
  -3  -5   7 25188.8 2603.73  10
  -3  -5   7 25680.2 2671.77   8
  -3  -5   7 24406.2 2916.83   7
  -3  -5   6 230459. 7601.59  10
  -3  -5   6 237460. 8677.91   7
  -3  -5   6 235692. 8229.16   2
  -3  -5   5 254135. 7875.65  10
  -3  -5   5 250965. 8658.49   7
  -3  -5   5 254660. 8271.66   2
  -3  -5   4 30577.7 2816.20   2
  -3  -5   3 106319. 5106.73   2
  -3  -5   2 63941.3 3291.78   4
  -3  -5   1 26149.1 2274.93   4
  -3  -5   0 3254.31 1146.66   1
  -3  -5  -1 60079.7 5074.44   1
  -3  -5  -2 10710.3 2078.48  12
  -3  -5  -2 11103.7 2415.07   1
  -3  -5  -3 9285.97 1927.88  12
  -3  -5  -3 9564.89 2437.31   1
  -3  -5  -4 2184.29 1328.81  12
  -3  -5  -4 2504.04 1548.52   1
  -3  -5  -5 57945.0 4679.36  12
  -3  -5  -6 11753.3 2303.42  12
  -3  -5  -7 35639.7 3788.01  12
   3   5   7 39695.3 3843.59   6
  -3  -5  -8 15522.6 2220.16  12
   3   5   8 14638.5 2016.67   6
   3   5   9 1933.77 714.230   6
   3   5  10 329.663 294.767   6
  -3  -6  13 11849.0 1694.15   8
  -3  -6  12 35348.2 3412.04   8
  -3  -6  11 6711.12 1754.34   8
  -3  -6  10 7191.19 1606.41   8
  -3  -6   9 334.871 760.561   8
  -3  -6   9 555.098 989.537   7
  -3  -6   8 4458.75 1277.06   8
  -3  -6   8 4534.04 1451.63   7
  -3  -6   7 139544. 6488.16   8
  -3  -6   7 154147. 7999.64   7
  -3  -6   7 141464. 6727.30   2
  -3  -6   6 31473.4 3078.31  10
  -3  -6   6 29365.0 3047.50   2
  -3  -6   6 31853.4 3624.88   7
  -3  -6   5 75149.3 5358.26   7
  -3  -6   5 68522.1 4661.84   2
  -3  -6   4 12992.2 2148.91   2
  -3  -6   4 17956.1 2799.10   7
  -3  -6   3 16422.0 2775.29   7
  -3  -6   2 18675.6 2687.40  13
  -3  -6   2 20848.9 3509.12   7
  -3  -6   1 14668.1 3353.11   7
  -3  -6   0 84044.9 5887.25   1
  -3  -6   0 22306.4 4353.69   7
  -3  -6  -1 7885.16 2066.29   1
  -3  -6  -1 10147.2 2833.52   7
  -3  -6  -2 2392.42 1202.67   1
   3   6   3 19424.3 2384.96   6
  -3  -6  -3 24754.8 3839.15   1
   3   6   4 114388. 6046.82   6
   3   6   5 226.416 641.942   6
   3   6   6 128943. 6615.73   6
   3   6   7 13415.2 1992.29   6
   3   6   8 1177.38 729.273   6
   3   6   9 32767.9 2100.69   6
  -3  -7  13-802.282 654.852   8
  -3  -7  12 13729.0 2015.59   8
  -3  -7  11 44495.0 3630.29   8
  -3  -7  10 7491.16 1666.06   8
  -3  -7   9 2148.53 1536.49   7
  -3  -7   9 2727.35 1136.21   8
  -3  -7   8 2899.85 1126.43   8
  -3  -7   8 4254.53 1831.19   7
  -3  -7   7 10200.2 1970.05   8
  -3  -7   7 13856.3 2847.41   7
  -3  -7   7 12015.5 2122.47  15
  -3  -7   6 9230.97 1853.15   2
  -3  -7   6 10855.3 2375.71   7
  -3  -7   6 7777.38 2087.32  15
  -3  -7   5 29398.4 3353.69   2
  -3  -7   5 37922.8 4356.97   7
  -3  -7   4 568.072 816.545  13
  -3  -7   4 1632.60 1000.10   2
  -3  -7   3 24367.0 3731.88   7
  -3  -7   3 32832.9 3614.93  13
  -3  -7   2 16970.9 3024.57  13
  -3  -7   2 4569.97 1453.32   7
  -3  -7   1 46459.7 4993.62  13
  -3  -7   1 39111.7 4752.01   7
  -3  -7   0 93790.2 7374.41  13
  -3  -7   0 78352.3 6651.94   7
  -3  -7  -1-3636.69 1466.61   1
  -3  -7  -1 2258.72 1444.14   7
  -3  -7  -2 62334.6 5234.09   7
  -3  -7  -3 114001. 6509.09   7
   3   7   4 8627.24 1636.05   6
  -3  -7  -4 8569.07 1708.03   7
   3   7   5 155253. 6510.57   6
  -3  -7  -5 114636. 5617.10   7
   3   7   6 13717.0 1949.91   6
   3   7   7 1497.37 697.183   6
  -3  -7  -8 13561.4 1412.65  13
   3   7   8 14704.2 1396.48   6
  -3  -8  12 73632.9 4291.74   8
  -3  -8  11 12655.2 1942.28   8
  -3  -8  10 69403.4 4418.52   8
  -3  -8   9 18410.1 2429.95   8
  -3  -8   8 14276.6 2194.62   8
  -3  -8   8 10581.0 1908.80  15
  -3  -8   7 1400.04 779.128   8
  -3  -8   7 159.868 1079.59   7
  -3  -8   7 1425.47 1078.23  15
  -3  -8   6 45549.6 5010.18   7
  -3  -8   6 68776.5 6129.21  15
  -3  -8   5-2206.62 2481.33  15
  -3  -8   4 190582. 8641.90  13
  -3  -8   3 14469.5 3041.88  13
  -3  -8   2 26680.0 3939.88  13
  -3  -8   1 7363.90 2348.81  13
  -3  -8   0 2489.32 2002.20  13
  -3  -8  -1 46734.4 4607.49  13
  -3  -8  -2 54215.7 4540.58  13
  -3  -8  -3 32273.5 3432.64  13
  -3  -8  -4 111218. 5854.28  13
  -3  -8  -5 8306.67 1689.63  13
   3   8   5 5583.36 1064.51   6
  -3  -8  -6 6263.71 1204.55  13
   3   8   6 4557.91 852.080   6
  -3  -8  -7 7332.45 1018.25  13
  -3  -9  11 114007. 5455.23   8
  -3  -9  10 48840.2 3616.04   8
  -3  -9   9 14700.4 2074.44   8
  -3  -9   8 21542.7 2664.82   8
  -3  -9   8 23173.3 2757.34  15
  -3  -9   7 125976. 6642.43   8
  -3  -9   7 131449. 7949.40  15
  -3  -9   6 1198.41 1082.17  15
  -3  -9   6-108.742 838.833   8
  -3  -9   5 27663.3 4099.87  15
  -3  -9   4 25397.4 3852.76  15
  -3  -9   4 27244.1 3824.01  13
  -3  -9   3-1335.01 1264.74  13
  -3  -9   2-281.953 2089.25  13
  -3  -9   1-1869.71 1813.23  13
  -3  -9   0 9150.34 2129.44  13
  -3  -9  -1 8364.94 1975.78  13
  -3  -9  -2 8556.43 1727.08  13
  -3  -9  -3 2861.79 1176.91  13
  -3  -9  -4 2380.84 935.151  13
  -3  -9  -5 11308.9 1478.99  13
  -3  -9  -6 1005.46 513.790  13
  -3 -10   9 52448.1 3527.12   8
  -3 -10   8 76023.4 4374.95   8
  -3 -10   8 87944.9 4997.27  15
  -3 -10   7 7995.66 1501.19   8
  -3 -10   7 6345.06 1417.34  15
  -3 -10   6 42266.8 3361.69   8
  -3 -10   6 41364.7 4345.41  15
  -3 -10   5 4395.04 1579.89  15
  -3 -10   4 5495.70 1747.17  15
  -3 -10   3 791.460 757.131  15
  -3 -10   3-2549.08 1846.10  13
  -3 -10   2 18799.9 2568.03  15
  -3 -10   2 22305.2 3176.84  13
  -3 -10   1 2875.05 1409.47  13
  -3 -10   1 1625.92 972.196  15
  -3 -10   0 3641.02 1115.71  13
  -3 -10   0 3449.27 1053.64  15
  -3 -10  -1 1704.98 761.361  13
  -3 -10  -1 2907.30 838.805  15
  -3 -10  -2 2486.73 881.509  13
  -3 -10  -3 11879.8 1505.92  13
  -3 -10  -4 9312.96 1140.66  13
  -3 -11   7 6050.61 1173.74  15
  -3 -11   6 820.253 716.300  15
  -3 -11   5 11679.9 1812.45  15
  -3 -11   4 612.523 709.253  15
  -3 -11   3 63030.5 3714.56  15
  -3 -11   2 29362.8 2472.56  15
  -3 -11   1 810.112 586.905  15
  -3 -11   1 719.811 616.400  13
  -3 -11   0 13999.6 1422.73  15
  -3 -11   0 13607.6 1594.10  13
  -3 -11  -1 30657.9 2149.30  13
  -3 -11  -2 3890.85 693.465  13
   4 -11  -1 1154.19 602.520  19
   4 -11   0 11124.5 1703.01  19
  -4  11   0 13531.6 1351.05  18
  -4  11  -1 4185.81 887.319  18
   4 -11   1 4453.91 1175.99  19
  -4  11  -2 33250.8 2524.21  18
   4 -11   2 25579.5 2706.40  19
   4 -11   3 3161.37 911.898  19
  -4  11  -3 7130.72 1257.05  18
   4 -11   4 26264.6 2609.91  19
  -4  11  -4 32662.4 2530.98  18
  -4  11  -5 994.528 507.496  18
   4 -11   5 2044.41 760.135  19
  -4  10   6 16172.7 1289.74   5
  -4  10   6 17776.3 1359.65  10
  -4  10   5 63755.0 3077.28   5
  -4  10   4 25543.9 2205.85   5
  -4  10   3 2842.56 1018.12   5
  -4  10   2 25349.9 2544.79   5
  -4  10   1 39800.3 2770.31  18
  -4  10   1 41464.2 3243.04   5
  -4  10   0 11746.6 1731.43   5
  -4  10   0 13910.9 1907.50  18
  -4  10  -1 44507.1 3549.97  18
   4 -10   1 35034.3 4364.78  19
  -4  10  -2 8630.60 1813.01  18
   4 -10   2 4785.31 1635.39  19
  -4  10  -3 3122.64 1251.12  18
   4 -10   3 942.338 707.090  19
   4 -10   4 1939.07 786.638  19
  -4  10  -4 8185.53 1870.69  18
   4 -10   5 9067.12 1881.02  19
  -4  10  -5 10863.8 1897.19  18
  -4  10  -6 11395.7 1679.89  18
   4 -10   6 11293.4 1948.01  19
   4 -10   7 3825.42 1014.73  19
  -4   9   7 7520.35 1077.14   5
  -4   9   7 8543.14 1166.26  10
  -4   9   6 46501.9 3093.87   5
  -4   9   5 21.8797 591.946   5
  -4   9   4 9838.70 1883.13   5
  -4   9   3 39959.3 3760.94   5
  -4   9   2 46951.5 4219.74   5
  -4   9   1 27580.0 3301.16   5
  -4   9   1 31850.1 2973.82  18
  -4   9   0 16030.8 2514.44   5
  -4   9   0 21990.0 2807.73  18
  -4   9  -1 3151.98 1085.77   5
  -4   9  -1 6492.60 1784.25  18
  -4   9  -2 194.933 1034.99  18
   4  -9   3 1390.04 1313.81  19
  -4   9  -3 1167.51 1036.95  18
   4  -9   4 13007.5 2902.92  19
  -4   9  -4 10144.8 2210.66  18
   4  -9   5 13658.5 2753.52  19
  -4   9  -5 10185.2 1971.04  18
   4  -9   6 6921.16 1792.83  19
  -4   9  -6 4863.01 1249.35  18
  -4   9  -7 1436.68 713.530  18
   4  -9   7 1526.78 847.160  19
   4  -9   8 4677.83 1244.10  19
  -4   8   8 21543.1 1853.24   5
  -4   8   8 23020.9 1929.71  10
  -4   8   7 30617.7 2687.31   5
  -4   8   6 309.884 565.264   5
  -4   8   5 2883.19 1197.72   5
  -4   8   4 39025.1 4026.20   5
  -4   8   3 31434.7 3684.17   5
  -4   8   2 24913.3 3399.33   5
  -4   8   2 33125.9 3054.18  18
  -4   8   1 51564.3 4288.99  18
  -4   8   1 38854.6 4157.18   5
  -4   8   0 561.144 830.236   5
  -4   8   0 1248.65 1153.64  18
  -4   8  -1 7732.46 1830.44   5
  -4   8  -1 7430.71 1974.44  18
  -4   8  -2 51152.6 4037.21   5
  -4   8  -2 48235.4 5023.31  18
   4  -8   3 172466. 9929.87  19
  -4   8  -3 161603. 8778.24  18
  -4   8  -4 9725.26 2276.00  18
   4  -8   4 10114.3 2489.37  19
   4  -8   5 31210.3 3898.84  19
  -4   8  -5 30258.4 3614.41  18
   4  -8   6 15971.8 2666.11  19
  -4   8  -6 16132.7 2402.25  18
   4  -8   7 31967.9 3417.07  19
  -4   8  -7 29495.6 2759.76  18
   4  -8   8 1336.78 813.101  19
   4  -8   9 85155.9 4718.57  19
   4  -8   9 83455.9 4432.60  14
  -4   7   9 65698.0 3648.69  11
  -4   7   9 56027.8 2804.59   5
  -4   7   9 62311.2 3096.82  10
  -4   7   8 7281.17 1465.50  11
  -4   7   8 6656.38 1314.66   5
  -4   7   7 7824.01 1656.10  11
  -4   7   7 6733.33 1545.64   5
  -4   7   6 712.272 675.088  11
  -4   7   6 1689.90 940.352   5
  -4   7   5 9262.62 2030.24  11
  -4   7   5 9912.87 2174.12   5
  -4   7   4 46859.8 4690.85  11
  -4   7   4 40912.2 4437.27   5
  -4   7   3 5642.39 1774.77   5
  -4   7   2 9210.87 2248.51   5
  -4   7   2 14249.3 2150.98  18
  -4   7   1 21843.3 3213.25   5
  -4   7   1 25743.9 3108.09  18
  -4   7   0 64833.6 5088.12   5
  -4   7   0 65048.1 5589.19  18
   4  -7   1 18513.7 2793.74   3
  -4   7  -1 17599.6 2540.23   5
  -4   7  -1 17065.2 2961.49  18
   4  -7   2 221974. 9818.49   3
  -4   7  -2 222692. 8202.54   5
  -4   7  -2 202517. 9807.11  18
   4  -7   3 10189.5 2133.20   3
  -4   7  -3 9895.06 2386.49  18
  -4   7  -4 54200.5 4958.37  18
   4  -7   4 50756.7 4870.84  19
   4  -7   5 147946. 8061.41  19
  -4   7  -5 152518. 7829.86  18
   4  -7   6 3824.25 1506.22  19
  -4   7  -6 1862.19 997.748  18
   4  -7   7 4360.71 1346.88  19
  -4   7  -7 4780.21 1285.26  18
   4  -7   8 171257. 7454.06  19
   4  -7   9 3167.51 1036.79  19
   4  -7   9 6269.60 1420.23  14
   4  -7  10 52284.4 3283.55  14
  -4   6  11 2107.54 526.233  11
  -4   6  10-64.9295 405.091  11
  -4   6  10 637.326 486.107  10
  -4   6   9 10613.1 1732.04  11
  -4   6   9 11089.5 1658.25  10
  -4   6   9 11199.7 1521.23   5
  -4   6   8 4137.95 1485.47  11
  -4   6   8 3143.01 1030.72   5
  -4   6   7 25472.3 3134.64  11
  -4   6   7 26898.4 3255.02   5
  -4   6   6 4073.87 1397.19  11
  -4   6   6 4899.25 1547.52   5
  -4   6   5 8441.50 2096.59  11
  -4   6   5 7700.91 2185.23   5
  -4   6   4 8777.35 2206.68  11
  -4   6   4 8797.85 2146.64   5
  -4   6   3 38886.9 4432.79  11
  -4   6   3 37849.0 4227.12   5
  -4   6   2 48257.7 5045.15  11
  -4   6   2 54764.9 4851.19   5
  -4   6   2 57176.0 5080.41   4
  -4   6   1 68403.9 5171.05   5
  -4   6   1 77116.5 5444.97  18
   4  -6   0 113300. 6116.68   3
  -4   6   0 114704. 6277.30   5
  -4   6   0 106774. 6757.34  18
   4  -6   1 282279. 10136.4   3
  -4   6  -1 279246. 9214.36   5
  -4   6  -2 2680.18 1094.72   5
   4  -6   2 1780.07 902.105   3
  -4   6  -2 1956.98 1130.29  18
   4  -6   3 189527. 8611.10   3
  -4   6  -3 193759. 6891.38   5
  -4   6  -3 200675. 9216.26  18
   4  -6   4 97936.1 6449.66   3
   4  -6   4 100475. 6523.06  19
  -4   6  -4 104260. 6448.93  18
   4  -6   5 22875.0 3175.70  19
  -4   6  -5 22272.1 2997.02  18
   4  -6   6 136903. 7379.21  19
  -4   6  -6 134068. 6666.46  18
  -4   6  -7 85538.0 4849.55  18
   4  -6   7 90699.9 5841.87  19
   4  -6   7 99085.2 8596.96  16
   4  -6   8 3904.21 1343.03  19
   4  -6   9 60988.4 4480.45  19
   4  -6   9 63508.3 4226.71  14
   4  -6  10 2536.38 942.279  14
  -4   5  11 15160.9 1678.99  11
  -4   5  10 63735.3 4099.92  11
  -4   5  10 59997.4 3290.98  10
  -4   5   9 1818.79 1052.21  11
  -4   5   9 897.451 905.282  10
  -4   5   9 1290.04 698.681   5
  -4   5   8 81206.7 5503.29  11
  -4   5   8 86404.2 5353.04   5
  -4   5   7 2738.16 1295.91  11
  -4   5   7 2239.05 1059.29   5
  -4   5   6 61502.3 5148.03  11
  -4   5   6 57851.4 5203.40   5
   4  -5  -6 64150.1 5635.72   1
  -4   5   5 23394.9 3348.75  11
  -4   5   5 17051.1 2883.31   5
   4  -5  -5 20537.3 3350.61   1
  -4   5   4 20317.3 3077.00  11
  -4   5   4 15628.4 2636.39   5
   4  -5  -4 17486.4 3019.64   1
  -4   5   4 13955.8 2789.37   4
  -4   5   3 21092.9 3126.27  11
  -4   5   3 21536.4 3029.36   5
   4  -5  -3 20079.4 3118.93   1
  -4   5   3 20652.2 3105.59   4
  -4   5   2 18056.6 2904.76  11
  -4   5   2 15176.0 2459.91   5
  -4   5   2 14629.2 2249.00  18
  -4   5   2 14958.8 2367.24   4
   4  -5  -1 179879. 6611.15   3
  -4   5   1 191191. 7705.93   5
  -4   5   1 190530. 7650.86   4
  -4   5   1 182910. 8159.95  18
   4  -5   0 115495. 5727.88   3
  -4   5   0 117306. 5750.61   5
  -4   5   0 104168. 6364.79  18
  -4   5   0 112257. 5434.08   4
   4  -5   1 103222. 5693.74   3
  -4   5  -1 103919. 5215.59   5
  -4   5  -1 101270. 6228.36  18
   4  -5   2 103823. 5896.76   3
  -4   5  -2 113144. 5325.21   5
  -4   5  -2 113971. 6459.45  18
   4  -5   3 33266.2 3502.55   3
  -4   5  -3 33960.7 2807.32   5
  -4   5  -3 37773.8 3605.48  18
   4  -5   4 4064.08 1286.10   3
   4  -5   4 5740.83 1576.33  19
  -4   5  -4 5641.89 1403.32  18
   4  -5   5 84576.5 6348.86   3
   4  -5   5 89483.3 5892.44  19
  -4   5  -5 85998.3 5302.11  18
   4  -5   5 92405.9 10247.2  16
   4  -5   6 134111. 7216.77  19
  -4   5  -6 125217. 6150.48  18
   4  -5   6 149018. 13416.8  16
   4  -5   7 1681.69 973.587  19
   4  -5   7 2911.80 1992.31  16
   4  -5   8 10768.3 3377.69  16
   4  -5   8 8410.44 1909.60  19
   4  -5   9 4214.73 1360.24  14
   4  -5  10 35485.7 3125.11  14
   4  -5  11 5883.54 1010.84  14
  -4   4  12 29663.8 2103.75  11
  -4   4  11 41820.1 3116.71  11
  -4   4  10 10415.4 1881.26  11
  -4   4  10 10579.2 1627.44  10
  -4   4  10 11421.6 1619.68  17
  -4   4   9 85143.5 5330.85  10
  -4   4   9 97834.3 5041.92  17
  -4   4   8 1490.49 750.946   5
  -4   4   8 2454.45 1003.90  17
  -4   4   7 24071.0 3237.08   5
   4  -4  -7 23040.2 3404.83   1
  -4   4   7 28157.4 3019.34  17
  -4   4   6 1521.88 1090.52  11
  -4   4   6-879.668 941.708  17
   4  -4  -6-314.501 755.413   1
  -4   4   6-125.251 1052.31   5
  -4   4   5 1358.50 1062.97  11
   4  -4  -5 11.3847 697.846   1
  -4   4   5 599.961 724.492   5
  -4   4   5-477.780 786.510  17
  -4   4   5-329.442 1004.77   4
  -4   4   4 7468.60 1806.39  11
  -4   4   4 6996.91 1737.39   5
  -4   4   4 5936.69 1647.35   4
  -4   4   3 28100.7 3237.14  11
  -4   4   3 34759.8 3420.97   5
  -4   4   3 29298.8 3108.42   4
  -4   4   2 29658.7 2873.54   4
   4  -4  -1 10206.6 1675.73   3
  -4   4   1 9468.02 1568.95   4
   4  -4   0 10211.7 1742.67   3
  -4   4   0 10239.3 1603.03   4
  -4   4  -1 9308.98 1463.67   4
   4  -4   1 8532.92 1602.46   3
  -4   4  -2 34015.2 2616.22   4
   4  -4   2 29211.3 2943.50   3
  -4   4  -3 5857.28 1103.32   5
   4  -4   3 7078.72 1593.47   3
  -4   4  -3 6564.72 1403.94  18
   4  -4   3 6208.40 1480.15  19
   4  -4   4 7030.02 1725.85   3
   4  -4   4 7309.43 1697.95  19
  -4   4  -4 9234.64 1658.16  18
   4  -4   5 17894.6 3030.85   3
   4  -4   5 19609.4 2651.01  19
  -4   4  -5 16025.4 2208.67  18
  -4   4  -6-78.3664 715.188  18
   4  -4   6 792.580 1049.32   3
   4  -4   6 625.214 634.876  19
   4  -4   6-186.151 1860.59  16
   4  -4   7 10563.2 2080.03  19
   4  -4   7 12277.4 3409.88  16
   4  -4   8 12725.3 2299.07  19
   4  -4   8 15382.1 3562.03  16
   4  -4   9 85120.0 6972.06  16
   4  -4   9 79612.7 5141.10  14
   4  -4  10 1115.40 878.184  14
   4  -4  11 79021.0 3913.50  14
  -4   3  12 8363.47 1315.83  11
  -4   3  11 28498.1 2238.02  10
  -4   3  11 35589.5 2851.49  17
  -4   3  10 52284.3 3891.07  10
  -4   3  10 67671.5 4364.10  17
  -4   3   9 2618.27 1683.72  10
  -4   3   9 361.693 1015.22  17
  -4   3   8 12113.8 2963.56  10
  -4   3   8 7888.34 1883.76  17
   4  -3  -7 3573.14 1390.03   1
  -4   3   7 3003.62 1000.99   5
   4  -3  -6 76376.0 6436.85   1
  -4   3   6 71414.3 5146.36   5
  -4   3   6 81898.3 5081.95  17
  -4   3   6 77926.2 6236.49   4
  -4   3   5 18216.1 2487.88   5
  -4   3   5 16400.6 2142.08  17
  -4   3   5 17909.9 2697.83   4
  -4   3   4 62078.4 4335.52   4
  -4   3   3 7895.58 1436.55   4
  -4   3   2 43644.9 3250.95   4
   4  -3  -2 41843.7 2673.23   3
  -4   3   1 19069.7 2046.47   4
  -4   3   0 319752. 8166.98   4
  -4   3  -1 11702.5 1579.40   4
  -4   3  -2 39952.8 2867.33   4
  -4   3  -3 60525.5 3497.03   4
   4  -3   4 1056.94 863.975  19
  -4   3  -4 1093.67 531.653  18
  -4   3  -5-87.3809 540.689  18
   4  -3   5 190.619 419.416  19
   4  -3   5 127.121 768.143   3
   4  -3   6 4185.46 1943.99   3
   4  -3   6 4183.88 1298.84  19
   4  -3   6 4447.99 1728.69  16
   4  -3   7 5070.00 1477.49  19
   4  -3   7 2626.76 1193.04  16
   4  -3   8 75322.7 5610.54  19
   4  -3   8 70245.9 6479.92  16
   4  -3   8 76078.1 5219.51  14
   4  -3   9 20720.1 3221.58  16
   4  -3   9 21713.1 2763.60  14
   4  -3  10 107719. 5786.90  14
   4  -3  11 5140.90 971.744  14
  -4   2  13 5573.31 838.499  11
  -4   2  12 13886.5 1706.62  17
  -4   2  11 27380.6 2540.14  10
  -4   2  11 33562.1 3072.80  17
  -4   2  10 1593.40 805.573  10
  -4   2  10 4732.61 1519.38  17
  -4   2   9 988.534 1545.80  10
  -4   2   9 675.974 1215.02  17
  -4   2   8 24341.8 3906.45  10
   4  -2  -8 20421.1 3630.64   1
  -4   2   8 26847.0 3341.01  17
   4  -2  -7 162513. 9537.71   1
  -4   2   7 160864. 7676.61  17
  -4   2   7 161514. 9259.21   4
  -4   2   6 16065.2 2330.21  17
  -4   2   6 17414.5 2822.28   4
  -4   2   5 117290. 6155.96   4
  -4   2   4 82985.0 4641.79   4
  -4   2   3 41530.3 3159.63   4
  -4   2   2 22181.1 2174.26   4
  -4   2   1 438708. 9319.27   4
  -4   2   0 21993.1 2063.71   4
  -4   2  -1 165742. 5767.70   4
  -4   2  -2 30102.5 2508.70   4
  -4   2  -3 14816.7 1792.52   4
  -4   2  -4 34466.4 2809.19   4
  -4   2  -5 75735.8 4203.25   4
  -4   2  -5 74559.6 4250.44  18
   4  -2   6 15045.8 2147.20  19
   4  -2   6 13314.2 2526.13  16
   4  -2   7 31456.3 3349.63  19
   4  -2   7 23930.8 3647.22  16
   4  -2   7 34616.8 4794.68   3
   4  -2   8 5343.02 1877.61  16
   4  -2   8 9432.77 1887.68  14
   4  -2   9 36448.6 4067.95  16
   4  -2   9 40883.1 3747.96  14
   4  -2  10 810.992 687.652  14
  -4   2 -11 8733.30 1512.62  12
  -4   1  13 4124.35 780.450  11
  -4   1  13 6005.93 995.233  17
  -4   1  12 688.582 637.269  17
  -4   1  11 1183.75 926.845  10
  -4   1  11 300.964 869.566  17
  -4   1  10 43715.2 4364.73  10
  -4   1  10 46833.9 4237.34  17
  -4   1   9 1071.07 1617.19  17
  -4   1   9-1268.24 1656.71  10
   4  -1  -8 98869.3 7755.40   1
  -4   1   8 118395. 8396.30   8
  -4   1   8 98333.3 6243.90  17
  -4   1   7-224.270 1534.11  10
  -4   1   7 4291.92 1865.92   8
  -4   1   7 2800.89 895.759  17
  -4   1   7 1320.94 697.402   4
  -4   1   6 198441. 8700.37  10
  -4   1   6 162636. 8509.19   8
  -4   1   6 171424. 7169.04  17
  -4   1   6 194769. 8422.95   4
  -4   1   5 37403.5 3251.57   4
  -4   1   4 66099.5 4039.32   4
  -4   1   3 171232. 6056.50   4
  -4   1   2 593119. 10776.6   4
  -4   1   1 2770.99 792.636   4
  -4   1   0 360938. 8364.90   4
  -4   1  -1 121348. 4996.95   4
  -4   1  -2 3293.97 916.064   4
  -4   1  -3 71806.6 4076.38   4
  -4   1  -4 105992. 5043.04   4
  -4   1  -5 16584.3 2114.57   4
  -4   1  -6 36259.1 3241.20   4
   4  -1   7 445.937 937.390  16
   4  -1   8-713.759 932.281  16
   4  -1   8 745.440 751.901  14
   4  -1   9 20883.5 3040.11  16
  -4   1 -10 223.214 1309.14  12
  -4   1 -11 6561.62 1213.79  12
  -4   0  13 2701.93 884.015  17
  -4   0  12 1880.25 932.512  17
  -4   0  11 27361.5 3148.82  10
  -4   0  11 24157.6 3057.61  17
  -4   0  10 6684.34 2346.59  10
  -4   0  10 12742.4 3285.80   8
  -4   0  10 5393.97 1951.28  17
   4   0  -9 98271.2 7896.85   1
  -4   0   9 89595.5 7405.77   8
  -4   0   9 114062. 6958.96  17
  -4   0   8 7719.85 2277.03  10
  -4   0   8 1155.49 1207.00   8
  -4   0   8 7396.15 1746.12  17
  -4   0   8 5400.58 1560.13   7
  -4   0   8 5491.95 1565.91   4
  -4   0   7 256076. 10107.0  10
  -4   0   7 216500. 8094.67   7
  -4   0   7 183163. 9507.08   8
  -4   0   7 216354. 8483.68  17
  -4   0   7 226703. 9412.97   4
  -4   0   6 150026. 6809.52  10
  -4   0   6 143029. 6583.35   4
  -4   0   6 141863. 6320.84  17
  -4   0   5 4943.81 1150.31   4
  -4   0   4 83286.7 4415.46   4
  -4   0   3 377465. 8839.03   4
  -4   0   2 65674.4 3598.85   4
  -4   0   1 444509. 9398.16   4
  -4   0   0 37974.0 2791.95   4
  -4   0  -1 649.156 510.688   4
  -4   0  -2 2562.97 840.712   4
  -4   0  -3 40436.6 3149.50   4
  -4   0  -4 255.296 380.226   4
  -4   0  -5 24252.4 2755.88   4
  -4   0  -6 9097.99 1828.17   4
   4   0   6 10163.0 2307.81  16
   4   0   7 21018.3 3297.99  16
   4   0   8 26938.0 3572.66  16
  -4   0  -9 25451.3 3199.51  12
   4   0   9 27566.5 3421.48  16
  -4   0 -10 12546.7 2046.71  12
  -4   0 -11 1754.13 762.541  12
  -4  -1  13 923.640 617.297  17
  -4  -1  12 16411.8 2308.09  17
  -4  -1  11 6885.60 1757.74  10
  -4  -1  11 4552.75 2197.99   8
  -4  -1  11 7367.81 1795.64  17
  -4  -1  10 18069.5 2848.56  10
  -4  -1  10 15691.5 2811.26   8
   4   1  -9 23957.2 3679.44   1
  -4  -1   9 20891.4 3181.72  10
  -4  -1   9 19908.4 3282.81   8
  -4  -1   9 22692.4 3539.23   7
  -4  -1   9 25491.8 3321.39  17
  -4  -1   8 3372.19 1757.54  10
  -4  -1   8 3634.28 1569.48   8
  -4  -1   8 3612.35 1180.77  17
  -4  -1   8 3516.72 1210.94   7
  -4  -1   7 17111.1 2514.39  10
  -4  -1   7 12496.9 2168.66   7
  -4  -1   7 13388.9 2454.42   8
  -4  -1   7 12015.9 2098.14  17
  -4  -1   7 12004.5 2000.07   4
  -4  -1   6 10594.0 1679.22   4
  -4  -1   5 47688.8 3345.34   4
  -4  -1   4 48678.2 3230.47   4
  -4  -1   3 53642.0 3396.10   4
  -4  -1   2 4131.96 944.821   4
  -4  -1   1 52245.9 3280.18   4
  -4  -1   0 273761. 7505.53   4
  -4  -1  -1 29868.6 2537.29   4
  -4  -1  -2 2284.81 796.442   4
  -4  -1  -3 22331.2 2730.90   1
  -4  -1  -4 1782.11 956.287   1
  -4  -1  -4 2477.32 832.521   9
  -4  -1  -5 58678.8 4875.52   1
  -4  -1  -6 77172.6 5659.87   1
   4   1   6 78095.2 6066.36  16
   4   1   7 542.684 910.967  16
  -4  -1  -8 161071. 8433.38  12
   4   1   8 152490. 7952.19  16
  -4  -1  -9 37268.7 3677.07  12
  -4  -1 -10 25493.2 2553.22  12
  -4  -1 -11 29104.4 2037.60  12
   4   1  11 29785.1 2029.06   6
  -4  -2  12 7368.03 2551.52   8
  -4  -2  12 1587.58 1043.74  17
  -4  -2  11 321.533 1234.85  10
  -4  -2  11-2057.13 2240.57   8
  -4  -2  11 3423.13 1096.71  17
  -4  -2  10-246.474 1365.53  10
  -4  -2  10-696.578 1316.41   8
  -4  -2  10 2267.03 1315.92  17
  -4  -2   9 86283.1 6382.71  10
  -4  -2   9 91624.5 6816.09   8
  -4  -2   9 83313.1 6345.24   7
  -4  -2   9 75191.5 5490.37  17
  -4  -2   8 114092. 6567.75  10
  -4  -2   8 116012. 6912.58   8
  -4  -2   8 119434. 6880.28   7
  -4  -2   8 106654. 5936.67  17
  -4  -2   7 4680.10 1295.35  10
  -4  -2   7 8078.86 1888.63   8
  -4  -2   7 5687.13 1423.94  17
  -4  -2   7 6096.75 1525.45   7
  -4  -2   6 21378.5 2292.63  10
  -4  -2   6 18006.5 2301.00   2
  -4  -2   6 20401.3 2563.32   7
  -4  -2   6 17486.2 1975.70   4
  -4  -2   5 3354.40 868.657   4
  -4  -2   4 30166.1 2472.26   4
  -4  -2   3 2635.53 781.286   4
  -4  -2   2 14343.4 1741.66   4
  -4  -2   1 416.357 395.625   4
  -4  -2   0 2131.42 726.441   4
  -4  -2  -1 624816. 12258.4   4
  -4  -2  -2 29177.6 3121.37   1
  -4  -2  -3 9917.22 1721.28   9
  -4  -2  -3 8944.28 1951.35   1
  -4  -2  -4 78751.4 5936.43   1
  -4  -2  -4 77148.8 5384.38  12
  -4  -2  -4 71400.0 4464.25   9
  -4  -2  -5 50479.7 4995.82   1
  -4  -2  -5 42697.1 4276.56  12
  -4  -2  -6 15143.5 2674.60  12
  -4  -2  -6 14364.0 2688.84   1
   4   2   6 12734.1 2355.91  16
  -4  -2  -7 205863. 9394.85  12
   4   2   7 171072. 8186.68  16
  -4  -2  -8 24534.7 3165.86  12
   4   2   8 16899.6 2422.25  16
  -4  -2  -9 74278.4 4752.28  12
  -4  -2 -10 8043.71 1327.77  12
  -4  -3  13 40100.7 4029.16   8
  -4  -3  12 6978.95 1740.37   8
  -4  -3  12 8782.92 1456.59  17
  -4  -3  11 991.144 874.548  10
  -4  -3  11-947.347 1337.71   8
  -4  -3  11 1622.69 1002.71  17
  -4  -3  10 29457.2 3814.76  10
  -4  -3  10 32654.2 4190.17   8
  -4  -3  10 24753.0 3556.79   7
  -4  -3  10 25499.8 3230.79  17
  -4  -3   9 81825.6 5933.98  10
  -4  -3   9 90451.2 6331.45   8
  -4  -3   9 74187.4 5854.08   7
  -4  -3   9 75725.9 5039.54  17
  -4  -3   8 127414. 6656.35  10
  -4  -3   8 136477. 7029.80   8
  -4  -3   8 123381. 6803.42   2
  -4  -3   8 119302. 5742.12  17
  -4  -3   8 127704. 7091.25   7
  -4  -3   7 154009. 6750.84  10
  -4  -3   7 168339. 6971.45   2
  -4  -3   7 151423. 5915.67  17
  -4  -3   7 167184. 7560.75   7
  -4  -3   7 163092. 6963.34   8
  -4  -3   6 17107.3 2109.30  10
  -4  -3   6 16218.6 1973.28   8
  -4  -3   6 14882.3 1897.24   2
  -4  -3   6 17574.9 2233.44   7
  -4  -3   5 294.580 247.727   4
  -4  -3   4 113018. 4602.06   4
  -4  -3   3 53834.6 3236.14   4
  -4  -3   2 91739.7 4379.87   4
  -4  -3   1 52.8746 322.400   4
  -4  -3   0 32971.3 2820.39   4
  -4  -3  -1 1051.82 842.322   1
  -4  -3  -2 16160.9 2703.61   1
  -4  -3  -2 15474.9 2239.72   9
  -4  -3  -3 63646.3 5567.01   1
  -4  -3  -3 63722.5 4712.66  12
  -4  -3  -3 56958.3 4332.70   9
  -4  -3  -4 23377.3 2980.72  12
  -4  -3  -4 23159.4 3573.91   1
  -4  -3  -5 62011.8 4945.75  12
  -4  -3  -5 58272.3 5713.97   1
  -4  -3  -6 64544.6 5186.53  12
  -4  -3  -7 4784.72 1619.76  12
  -4  -3  -8 25663.2 3027.58  12
  -4  -3  -9 5420.39 1294.66  12
  -4  -3 -10 917.769 512.427  12
   4   3  10 523.295 441.499   6
  -4  -4  13 31865.3 3269.09   8
  -4  -4  12 5090.75 1182.84   8
  -4  -4  11 112788. 6568.05  10
  -4  -4  11 161171. 8865.00   8
  -4  -4  10 4783.72 1648.80  10
  -4  -4  10 6709.85 2154.09   8
  -4  -4  10 3125.93 1260.24   7
  -4  -4   9 185554. 8380.96  10
  -4  -4   9 189864. 8611.70   8
  -4  -4   9 171442. 8527.22   7
  -4  -4   8 114844. 6097.50  10
  -4  -4   8 114032. 6159.72   8
  -4  -4   8 110825. 6599.54   7
  -4  -4   7 400.274 891.737  10
  -4  -4   7 426.320 515.069   8
  -4  -4   7 634.039 736.895   7
  -4  -4   6 46402.8 3522.79  10
  -4  -4   6 49881.6 3556.55   8
  -4  -4   6 44350.1 3798.20   7
  -4  -4   5 239060. 7917.40  10
  -4  -4   5 239385. 8581.59   7
  -4  -4   4 3620.67 1070.11  10
  -4  -4   4 2110.67 982.144   7
  -4  -4   3 208780. 6318.31   4
  -4  -4   2 38975.7 2928.20   4
  -4  -4   1 80.9400 315.622   4
  -4  -4   0 39245.6 3630.84   9
  -4  -4   0 33778.7 3056.38   4
  -4  -4   0 38691.8 4589.49   7
  -4  -4  -1 5080.98 1280.95  12
  -4  -4  -1 3548.53 1319.41   9
  -4  -4  -1 7055.00 1811.40   1
  -4  -4  -2-45.4361 655.227  12
  -4  -4  -2 1561.31 1072.46   1
  -4  -4  -3 3054.61 1468.41  12
  -4  -4  -3 1586.97 1135.70   1
  -4  -4  -4 28866.3 3346.11  12
  -4  -4  -4 28792.6 4206.92   1
  -4  -4  -5 23724.6 3049.87  12
  -4  -4  -6 37851.9 3937.51  12
  -4  -4  -7 21135.8 2727.64  12
  -4  -4  -8 3464.76 1100.55  12
   4   4   9 2937.09 808.583   6
  -4  -5  13 22920.3 2505.50   8
  -4  -5  12 142648. 7467.28   8
  -4  -5  11 3679.79 1706.60   8
  -4  -5  10 112232. 6685.47  10
  -4  -5  10 112135. 6684.16   8
  -4  -5  10 96510.3 6523.37   7
  -4  -5   9 47009.6 4217.37  10
  -4  -5   9 50592.4 4281.35   8
  -4  -5   9 45671.2 4421.92   7
  -4  -5   8 6994.16 1673.96  10
  -4  -5   8 6837.25 1583.21   8
  -4  -5   8 6715.33 1855.47   7
  -4  -5   7 31697.5 3101.29  10
  -4  -5   7 31527.5 3582.46   7
  -4  -5   7 35203.8 3288.94   8
  -4  -5   6 60795.3 4227.06  10
  -4  -5   6 61814.7 4138.02   8
  -4  -5   6 60286.2 4772.76   7
  -4  -5   5 34782.3 3245.11  10
  -4  -5   5 31486.2 3539.54   7
  -4  -5   4 115638. 5739.10  10
  -4  -5   4 120908. 6957.46   7
  -4  -5   3 3115.98 1136.06  10
  -4  -5   3 2735.60 1615.87   7
  -4  -5   2 1592.49 1289.18   7
  -4  -5   1 23419.6 2534.51   4
  -4  -5   1 27631.8 4432.87   7
  -4  -5   0 14920.2 2156.31   4
  -4  -5   0 9815.03 2739.83   7
  -4  -5  -1 22665.1 2986.23   4
  -4  -5  -2 3763.50 1391.39  12
  -4  -5  -2 1587.90 1109.21   1
  -4  -5  -3 1568.14 1192.70  12
  -4  -5  -3 1036.61 696.936   1
  -4  -5  -4 8540.43 1975.19  12
  -4  -5  -5 13198.7 2304.17  12
  -4  -5  -6 2462.31 1355.63  12
   4   5   7 9697.04 1647.58   6
   4   5   8 3357.97 892.494   6
   4   5   9 3471.17 671.724   6
  -4  -6  13 31465.3 2668.61   8
  -4  -6  12 10561.5 1896.16   8
  -4  -6  11 50909.3 4343.14   8
  -4  -6  10 3319.03 1685.06   8
  -4  -6  10-1918.66 1355.77   7
  -4  -6   9 8761.88 1907.89   8
  -4  -6   9 8040.08 2160.15   7
  -4  -6   8 2289.62 1090.71   8
  -4  -6   8 2731.49 1741.25   7
  -4  -6   7 37915.6 3545.18  10
  -4  -6   7 37401.2 4111.73   7
  -4  -6   7 39650.9 3620.71   8
  -4  -6   6 197.884 862.923  10
  -4  -6   6 1916.77 1141.35   8
  -4  -6   6 1644.37 1370.47   7
  -4  -6   5 29197.9 3827.00   7
  -4  -6   4 126.751 1018.82   7
  -4  -6   3 13383.3 2884.56   7
  -4  -6   2 6756.05 2633.17   7
  -4  -6   1 67262.4 5539.97  13
  -4  -6   1 79560.5 7727.48   7
  -4  -6   0 63048.7 6880.76   7
  -4  -6  -1 12130.2 2315.21   4
  -4  -6  -1 19568.2 4003.38   7
  -4  -6  -2 19231.3 3548.27   7
   4   6   4-142.740 618.423   6
   4   6   5 49202.6 3620.85   6
   4   6   6 13197.3 1764.08   6
   4   6   7 9851.56 1378.94   6
  -4  -6  -7 7707.78 1366.31   7
   4   6   8 7107.48 903.309   6
  -4  -7  12-527.144 751.653   8
  -4  -7  11 18103.7 2559.19   8
  -4  -7  10 5945.24 1745.27   8
  -4  -7   9 15367.0 2367.72   8
  -4  -7   9 15779.9 3191.01   7
  -4  -7   8 11296.7 1996.67   8
  -4  -7   8 13662.4 2875.86   7
  -4  -7   7 8418.94 1765.06   8
  -4  -7   7 7357.04 2319.03   7
  -4  -7   7 6416.72 1640.58  15
  -4  -7   6 5491.85 1475.22   8
  -4  -7   6 2945.81 1645.82   7
  -4  -7   5 17672.8 3492.21   7
  -4  -7   4 42868.3 5203.68   7
  -4  -7   3 1634.31 1295.51   7
  -4  -7   2 214270. 9909.57  13
  -4  -7   2 94366.5 8182.18   7
  -4  -7   1 23832.7 3573.39  13
  -4  -7   1 20839.1 3487.92   7
  -4  -7   0 17002.7 3383.53  13
  -4  -7   0 12546.4 2888.92   7
  -4  -7  -1 125378. 8185.33   7
  -4  -7  -2 38897.9 4150.93   7
  -4  -7  -3 6078.93 1567.45   7
  -4  -7  -4 41034.2 3571.75   7
  -4  -7  -5 3185.45 1035.82   7
   4   7   6 12141.8 1298.49   6
  -4  -7  -6 8383.65 1256.32   7
  -4  -7  -7 3509.78 790.385  13
  -4  -8  11 39793.1 3591.22   8
  -4  -8  10 10172.9 1979.88   8
  -4  -8   9 12281.6 2054.51   8
  -4  -8   9 14406.0 3338.00   7
  -4  -8   8 18672.2 2449.22   8
  -4  -8   8 17248.2 3564.66   7
  -4  -8   7 918.006 686.483   8
  -4  -8   7-287.384 1127.06   7
  -4  -8   7 1471.88 1061.77  15
  -4  -8   6 961.159 1005.04   7
  -4  -8   6 5450.77 1847.06  15
  -4  -8   5 9168.49 2499.12   7
  -4  -8   4-2791.26 2121.64   7
  -4  -8   3 79291.1 6814.67   7
  -4  -8   3 105089. 6598.77  13
  -4  -8   2-3428.32 1783.58  13
  -4  -8   2 1625.85 1603.05   7
  -4  -8   1 94486.5 6911.02  13
  -4  -8   1 100887. 7037.22   7
  -4  -8   0 26503.0 3507.78  13
  -4  -8   0 23094.7 3325.95   7
  -4  -8  -1 1480.22 1281.06  13
  -4  -8  -1-429.006 837.139   7
  -4  -8  -2 29522.5 3210.62  13
  -4  -8  -2 20890.9 2472.30   7
  -4  -8  -3 49767.1 3710.53  13
  -4  -8  -4 1447.88 769.034  13
  -4  -8  -5 30582.5 2411.71  13
  -4  -8  -6 840.998 481.770  13
  -4  -9  10 1574.38 665.226   8
  -4  -9   9 3158.94 1258.48   8
  -4  -9   8-530.756 655.092   8
  -4  -9   7 234.037 772.584  15
  -4  -9   6-522.305 1244.72  15
  -4  -9   5 6484.36 2359.58  15
  -4  -9   4 58375.6 5469.30  15
  -4  -9   3 8515.02 1846.92  13
  -4  -9   2 25519.2 3273.00  13
  -4  -9   1-1493.66 1500.49  13
  -4  -9   0 1339.87 764.333  13
  -4  -9  -1 8021.13 1592.62  13
  -4  -9  -2 15449.4 1919.67  13
  -4  -9  -3 732.666 543.573  13
  -4  -9  -4 1481.54 621.081  13
  -4 -10   7 2671.28 838.435  15
  -4 -10   6 3570.67 1232.64  15
  -4 -10   5 4928.93 1340.08  15
  -4 -10   4 3198.21 1153.53  15
  -4 -10   3 8786.84 1628.38  15
  -4 -10   2 7115.11 1387.71  13
  -4 -10   2 7524.96 1451.06  15
  -4 -10   1 1409.62 709.968  13
  -4 -10   1 1131.11 815.599  15
  -4 -10   0 35.8258 504.055  13
  -4 -10   0 431.439 419.567  15
  -4 -10  -1 226.349 516.088  13
  -4 -10  -1 558.171 355.185  15
  -4 -10  -2 1436.07 520.983  13
  -4 -11   6 5367.14 971.517  15
  -4 -11   5 10088.7 1354.73  15
  -4 -11   4 23544.3 2008.08  15
  -4 -11   3 45045.4 2664.43  15
  -4 -11   2 2510.03 627.906  15
  -4 -11   1 14495.7 1292.16  15
   5 -11   0 4439.56 844.822  19
   5 -11   1 6543.74 1028.72  19
   5 -11   2 7413.25 1088.69  19
  -5  10   4 3064.37 650.013   5
  -5  10   3 70.7697 320.777   5
  -5  10   2 3403.14 815.606   5
  -5  10   1 392.224 451.769   5
  -5  10   0 656.004 402.161   5
  -5  10   0 1179.12 607.638  18
   5 -10   0 2310.72 1139.78  19
   5 -10   1 22099.3 2912.54  19
  -5  10  -1 28962.2 2484.51  18
   5 -10   2 16698.7 2486.59  19
  -5  10  -2 23315.7 2389.97  18
   5 -10   3 29262.0 3175.24  19
  -5  10  -3 46058.5 3330.62  18
  -5  10  -4 22088.8 2237.59  18
   5 -10   4 13042.7 1933.30  19
  -5  10  -5 86.2302 338.980  18
   5 -10   5 154.535 435.683  19
  -5   9   6 847.169 563.787  10
  -5   9   6 579.836 425.381   5
  -5   9   5 871.439 515.885   5
  -5   9   4 476.775 691.290   5
  -5   9   3 8077.08 1576.07   5
  -5   9   2 6065.24 1484.65   5
  -5   9   1 1566.77 779.461   5
  -5   9   1 2132.40 805.673  18
  -5   9   0 486.468 781.331  18
  -5   9   0-6.65852 770.102   5
  -5   9  -1 321.707 633.683   5
  -5   9  -1 2347.99 1172.93  18
   5  -9   1-482.581 1454.65  19
  -5   9  -2 27279.2 3184.73  18
   5  -9   2 15852.9 2935.28  19
   5  -9   3-244.007 864.271  19
  -5   9  -3 874.300 890.125  18
   5  -9   4 11908.5 2366.49  19
  -5   9  -4 11048.5 2066.36  18
   5  -9   5 2302.66 890.590  19
  -5   9  -5 2971.71 952.225  18
   5  -9   6 690.638 722.477  19
  -5   9  -6 615.572 593.286  18
   5  -9   7 8406.60 1394.97  19
  -5   8   8 14098.3 1261.32  10
  -5   8   7 331.444 496.576  10
  -5   8   7 530.410 462.994   5
  -5   8   6 1863.98 838.182   5
  -5   8   5 10607.5 1902.05   5
  -5   8   4 21843.1 2849.82   5
  -5   8   3 3685.61 1350.70   5
  -5   8   2 25046.2 3264.82   5
  -5   8   2 25233.6 2569.16  18
  -5   8   1 7611.24 1919.47   5
  -5   8   1 9521.09 1821.79  18
  -5   8   0 8440.15 1957.44   5
  -5   8   0 9939.57 2119.61  18
  -5   8  -1 1751.51 1054.85   5
  -5   8  -1 3270.88 1563.78  18
   5  -8   2 51440.0 5386.23  19
  -5   8  -2 60411.5 5402.04  18
   5  -8   3 25139.3 3597.69  19
  -5   8  -3 27623.5 3569.12  18
   5  -8   4 16962.1 2927.77  19
  -5   8  -4 13400.5 2360.29  18
   5  -8   5 2142.56 1284.24  19
  -5   8  -5 1387.80 713.031  18
   5  -8   6 952.458 719.939  19
  -5   8  -6 1524.71 835.683  18
   5  -8   7 6641.30 1359.73  19
  -5   8  -7 7026.49 1105.26  18
   5  -8   8 749.820 550.083  19
   5  -8   8 1272.94 684.741  14
  -5   7   9 17984.4 1480.06  10
  -5   7   8 942.026 657.318  10
  -5   7   8 533.801 389.538   5
  -5   7   7 1930.38 1054.53  10
  -5   7   7 788.457 617.248   5
  -5   7   6 1153.26 895.509   5
  -5   7   5 86340.7 5912.11   5
  -5   7   4 29538.6 3765.98   5
  -5   7   3 38899.3 4286.31   5
  -5   7   2 20433.9 3074.83   5
  -5   7   2 26552.9 2965.65  18
  -5   7   1 6981.14 1812.96   5
  -5   7   1 11126.6 2203.21  18
  -5   7   0 855.727 1011.04   5
  -5   7   0 2776.12 1634.34  18
  -5   7  -1 176529. 8120.30   5
  -5   7  -1 174401. 9359.48  18
  -5   7  -2 22102.9 2739.87   5
  -5   7  -2 17884.7 3035.43  18
   5  -7   3 108829. 7209.10  19
  -5   7  -3 98768.8 7002.45  18
   5  -7   4 10069.1 2248.96  19
  -5   7  -4 11905.5 2339.41  18
   5  -7   5 4276.95 1474.81  19
  -5   7  -5 4161.47 1401.04  18
   5  -7   6 533.412 748.415  19
  -5   7  -6 1301.39 892.395  18
   5  -7   7 25024.1 2700.58  19
  -5   7  -7 22693.1 2220.27  18
   5  -7   8 755.565 584.209  19
   5  -7   9 7998.32 1176.91  14
  -5   6  10 960.911 406.180  10
  -5   6   9 785.728 427.886  11
  -5   6   9 520.570 473.189  10
  -5   6   9 1457.29 477.855   5
  -5   6   8 11707.4 1903.31  11
  -5   6   8 11524.3 1710.71   5
  -5   6   8 13496.5 2018.00  10
  -5   6   7 3967.51 1293.94  11
  -5   6   7 6215.06 1521.70   5
  -5   6   6 96174.7 6247.03  11
  -5   6   6 104271. 6487.35   5
  -5   6   5 3365.28 1319.39  11
  -5   6   5 3405.45 1380.64   5
  -5   6   4 46953.9 4978.60  11
  -5   6   4 47530.4 4796.05   5
  -5   6   3 126958. 7664.17   5
  -5   6   2 369.650 853.155   5
  -5   6   2-198.976 732.993  18
  -5   6   1 49611.8 4594.31   5
  -5   6   1 51587.1 4860.95  18
  -5   6   0 128868. 7086.90   5
  -5   6   0 127504. 7994.72  18
  -5   6  -1 1045.27 775.641   5
   5  -6   1 1496.57 886.937   3
  -5   6  -1 1216.18 1041.46  18
  -5   6  -2 167995. 7392.96   5
  -5   6  -2 154215. 8796.11  18
   5  -6   3 213.755 737.575  19
  -5   6  -3 1866.55 1367.97  18
   5  -6   4 5333.89 1592.26  19
  -5   6  -4 5527.48 1680.17  18
   5  -6   5 41344.4 3995.45  19
  -5   6  -5 42570.8 4075.81  18
  -5   6  -6 3584.87 1208.88  18
   5  -6   6 4462.83 1377.99  19
   5  -6   7 417.619 600.015  19
  -5   6  -7 297.006 561.139  18
   5  -6   7 724.718 1001.30  16
   5  -6   8 18847.5 2286.39  19
   5  -6   9 2596.54 803.298  14
  -5   5  11 1331.05 458.063  11
  -5   5  10 476.284 486.481  11
  -5   5  10 830.603 600.337  10
  -5   5   9 16924.3 2205.57  11
  -5   5   9 20231.2 2284.80  10
  -5   5   8 2530.99 1097.45  11
  -5   5   8 2844.13 1228.57  10
  -5   5   8 4548.88 1289.08   5
  -5   5   7 25104.7 3236.33  11
  -5   5   7 30105.1 3485.07   5
  -5   5   6 26733.6 3549.71  11
  -5   5   6 24691.4 3410.66   5
  -5   5   5 116350. 7491.34  11
  -5   5   5 109539. 7132.88   5
  -5   5   4 1577.26 939.662  11
  -5   5   4 1607.48 863.480   5
  -5   5   4 2066.42 947.457   4
  -5   5   3 2438.04 1249.11  11
  -5   5   3 2801.89 1196.28   5
  -5   5   3 3356.45 1383.42   4
  -5   5   2 93708.0 6095.42   5
  -5   5   2 91867.3 6140.37  18
  -5   5   2 91719.2 6077.79   4
  -5   5   1 101462. 6053.50   5
  -5   5   1 97917.9 6665.18  18
  -5   5   1 106602. 6096.95   4
   5  -5   0 24479.9 2828.25   3
  -5   5   0 24068.4 2933.55   5
  -5   5   0 21620.7 3316.73  18
   5  -5   1 171545. 7752.40   3
  -5   5  -1 188159. 7830.91   5
  -5   5  -1 167941. 8934.59  18
  -5   5  -2 1771.47 1030.09   5
   5  -5   2 1259.99 916.718   3
  -5   5  -2 996.855 991.987  18
   5  -5   3 4375.93 1416.66   3
   5  -5   3 3845.48 1456.76  19
  -5   5  -3 4034.83 1315.51  18
   5  -5   4 39434.1 3908.64  19
  -5   5  -4 35494.4 3762.10  18
   5  -5   5 83382.9 5544.96  19
  -5   5  -5 80524.3 5321.99  18
   5  -5   5 89807.6 10308.5  16
   5  -5   6 5670.58 1438.41  19
  -5   5  -6 4266.18 1233.65  18
   5  -5   6 7699.94 3297.14  16
   5  -5   7 7619.62 1588.11  19
   5  -5   7 7729.55 2800.12  16
   5  -5   8 1394.65 1224.06  16
   5  -5   8 1488.09 857.030  14
   5  -5   9 17126.8 1938.52  14
  -5   4  11-356.819 377.753  11
  -5   4  11-89.2733 347.788  10
  -5   4  10 15040.5 1982.61  11
  -5   4  10 13526.9 1754.51  10
  -5   4   9 2347.83 1026.33  11
  -5   4   9 2905.67 1254.73  10
  -5   4   8 42942.2 4122.80  11
  -5   4   8 42767.4 3673.39   5
  -5   4   8 46072.1 4508.05  10
  -5   4   7 8751.64 2136.32  11
  -5   4   7 7818.53 1856.35   5
  -5   4   6 9338.49 2199.12  11
  -5   4   6 5844.92 1658.15   5
  -5   4   5 27467.8 3529.44  11
  -5   4   5 27453.0 3458.00   5
   5  -4  -5 27369.7 4006.53   1
  -5   4   5 26318.1 3568.18   4
  -5   4   4 7207.41 1767.67  11
  -5   4   4 7705.06 1696.51   5
  -5   4   4 6971.82 1795.95   4
  -5   4   3 10725.7 2346.10  11
  -5   4   3 10439.9 1974.79   5
  -5   4   3 10052.0 1981.72   4
  -5   4   2 13932.9 2166.85   5
  -5   4   2 9812.38 2117.70  18
  -5   4   2 13179.3 2120.35   4
   5  -4  -1 40241.6 3394.39   3
  -5   4   1 43607.9 3709.75   5
  -5   4   1 35218.5 3881.68  18
  -5   4   1 41717.5 3559.07   4
   5  -4   0 45483.4 3761.85   3
  -5   4   0 43650.8 3648.68   5
  -5   4   0 45432.0 4388.89  18
  -5   4   0 43967.5 3644.64   4
  -5   4  -1 2847.90 1041.90   5
   5  -4   1 2470.67 1001.72   3
  -5   4  -1 1515.68 1011.27  18
  -5   4  -1 3556.05 1059.94   4
   5  -4   2 372.758 508.241   3
   5  -4   2 1329.64 672.618  19
  -5   4  -2 982.269 578.763  18
   5  -4   3 2623.95 1144.36   3
   5  -4   3 1529.92 875.329  19
  -5   4  -3 1542.42 998.095  18
   5  -4   4 106941. 6890.80   3
   5  -4   4 113506. 6141.91  19
  -5   4  -4 103471. 6086.65  18
   5  -4   5 12969.7 2214.32  19
  -5   4  -5 10722.5 2024.55  18
   5  -4   5 17150.8 4449.25  16
  -5   4  -6 27202.7 2950.21  18
   5  -4   6 32471.8 3299.46  19
   5  -4   6 31753.3 5421.52  16
   5  -4   7 22505.9 2745.45  19
   5  -4   7 31285.1 4871.85  16
   5  -4   8 37309.7 4707.30  16
   5  -4   8 34615.3 3117.97  14
   5  -4   9 201.130 508.294  14
  -5   3  12 336.709 351.887  11
  -5   3  11 24058.6 2253.48  11
  -5   3  11 26016.8 2096.69  10
  -5   3  10-64.4664 535.221  11
  -5   3  10-304.687 840.008  10
  -5   3   9 1580.44 974.161  11
  -5   3   9 815.416 946.722  10
  -5   3   8 4760.06 1557.30  11
  -5   3   8 5235.94 2235.77  10
  -5   3   7 25828.0 3378.49  11
  -5   3   7 20997.9 2786.42   5
  -5   3   7 27829.7 4071.32  10
  -5   3   6 63189.0 5168.45  11
  -5   3   6 68423.6 5108.32   5
  -5   3   6 50068.1 5241.60  10
  -5   3   6 69136.8 5953.04   4
  -5   3   5 7794.86 1750.97  11
  -5   3   5 8728.84 1873.09   5
  -5   3   5 7364.83 1796.85   4
  -5   3   4 17590.1 2728.20  11
  -5   3   4 21260.4 2663.80   5
  -5   3   4 17787.4 2529.74   4
  -5   3   3 5181.96 1267.99  11
  -5   3   3 4636.02 1361.40   5
  -5   3   3 4412.18 1230.33   4
  -5   3   2-358.736 603.050  18
  -5   3   2 183.001 417.932   5
  -5   3   2 888.112 646.527   4
  -5   3   1 14935.8 2043.58   5
  -5   3   1 12431.2 2351.91  18
  -5   3   1 14156.6 2027.77   4
  -5   3   0 33609.9 3029.83   5
  -5   3   0 38547.8 3798.06  18
  -5   3   0 36445.1 3214.76   4
  -5   3  -1 2539.41 914.309   5
  -5   3  -1 2921.97 1093.03  18
  -5   3  -1 2479.42 814.846   4
  -5   3  -2 1665.28 608.051  18
  -5   3  -2 2676.12 892.401   4
  -5   3  -3 195825. 8106.72  18
  -5   3  -3 200579. 7121.03   4
  -5   3  -4 7898.82 1661.51  18
  -5   3  -5 54987.8 4207.56  18
   5  -3   5 60653.3 5893.98   3
  -5   3  -6 30389.0 3141.52  18
   5  -3   6 34034.3 4809.16  16
   5  -3   7 23188.7 3822.97  16
   5  -3   8 31088.6 3900.62  16
   5  -3   8 34406.7 3062.03  14
   5  -3   9 174366. 7772.03  16
  -5   3 -10 700.160 618.438  12
  -5   2  12 34495.3 2240.76  11
  -5   2  11 15158.5 1889.69  11
  -5   2  11 20364.5 2138.37  10
  -5   2  10 1394.35 697.437  11
  -5   2  10-224.811 847.561  10
  -5   2   9 2959.56 1420.91  11
  -5   2   9 1678.09 1268.04  10
  -5   2   9 92.6521 1143.09  17
  -5   2   8 86615.6 5793.06  11
  -5   2   8 97795.5 7287.50  10
  -5   2   8 107901. 6635.09  17
  -5   2   7 11339.0 2227.08  11
  -5   2   7 6011.20 1513.94  10
  -5   2   7 6673.09 1473.20  17
  -5   2   7 8747.37 2210.46   4
  -5   2   6 77133.1 5294.79  11
  -5   2   6 86399.2 6461.94  10
  -5   2   5 81739.9 5163.83  11
  -5   2   5 91666.5 5129.72   5
  -5   2   5 92689.5 6264.01  10
  -5   2   5 86254.2 5550.97   4
  -5   2   4 956.550 818.848  10
  -5   2   4 1577.40 711.718   5
  -5   2   4 1705.57 819.269   4
  -5   2   3 6595.39 1393.87  10
  -5   2   3 5505.52 1218.70   5
  -5   2   3 5067.76 1298.71   4
  -5   2   2 13060.1 1809.89   5
  -5   2   2 12886.7 1903.39   4
  -5   2   1 6850.44 1331.19   5
  -5   2   1 7539.64 1486.82   4
  -5   2   0 117282. 5408.26   5
  -5   2   0 131596. 6439.84  18
  -5   2   0 116854. 5660.67   4
  -5   2  -1 633.481 695.342  18
  -5   2  -1 2368.71 950.187   4
  -5   2  -2 148191. 6739.30  18
  -5   2  -2 158808. 6609.73   4
  -5   2  -3 553.144 675.261  18
  -5   2  -3 1050.50 545.644   4
  -5   2  -4 44830.1 3502.36   4
  -5   2  -4 49647.8 3534.41   9
  -5   2  -4 46165.7 3901.17  18
  -5   2  -5 4904.54 1371.71  18
   5  -2   6 6719.00 2067.94  16
   5  -2   7 29758.5 3882.78  16
   5  -2   8 73866.2 5656.83  16
   5  -2   9 5503.01 1536.94  16
  -5   2 -10 40925.5 2966.51  12
  -5   1  12 6195.82 976.364  11
  -5   1  12 7551.35 996.766  10
  -5   1  11 1309.49 796.775  11
  -5   1  11 2231.09 1139.88  10
  -5   1  10 9555.98 2619.24  10
  -5   1  10 6776.54 1737.90  17
  -5   1   9 104667. 7375.24  10
  -5   1   9 121669. 7098.38  17
  -5   1   8-3050.05 2482.52  10
  -5   1   8-809.630 1592.60  17
  -5   1   7 239923. 10680.3  10
  -5   1   7 217088. 9409.75  17
  -5   1   7 253793. 11049.8   4
  -5   1   6 104997. 6675.33  10
  -5   1   6 107108. 6540.20   4
  -5   1   5 21044.4 2702.05  10
  -5   1   5 20385.6 2671.43   4
  -5   1   4 39848.6 3351.75  10
  -5   1   4 43075.4 3707.73   4
  -5   1   3 172685. 7037.68   4
  -5   1   2 697.755 551.619   4
  -5   1   1 211251. 7589.45   4
  -5   1   0 31218.2 2900.70   4
  -5   1  -1 11672.0 1962.95  18
  -5   1  -1 10444.2 1682.21   4
  -5   1  -2 23636.6 2650.14   4
  -5   1  -2 21876.6 2624.18  18
  -5   1  -3 32194.2 2855.33   9
  -5   1  -3 29308.4 3016.55   4
  -5   1  -3 28227.7 2975.84  18
  -5   1  -4 12019.0 1780.93   9
  -5   1  -4 12516.4 2003.45   4
  -5   1  -4 13599.5 2163.48  18
  -5   1  -5 26979.7 3046.48  18
  -5   1  -5 30396.2 3111.55   4
   5  -1   6 16317.4 2957.53  16
   5  -1   7 11090.1 2395.62  16
   5  -1   8 23474.1 3134.52  16
  -5   1  -9 9112.01 1624.99  12
   5  -1   9 9381.00 1791.81  16
  -5   1 -10 98.5661 472.921  12
  -5   0  12 3487.67 753.803  10
  -5   0  11 59676.3 4459.42  10
  -5   0  10 150948. 8530.02  10
  -5   0  10 165966. 8298.26  17
  -5   0   9 191.285 2148.24  10
  -5   0   9 4138.47 1446.09  17
  -5   0   8 231322. 10877.2  10
  -5   0   8 244898. 11901.0   8
  -5   0   8 220729. 8765.70   7
  -5   0   8 212763. 9571.46  17
  -5   0   8 212236. 9853.21   4
  -5   0   7 11138.0 2548.00  10
  -5   0   7 10291.3 2754.98   8
  -5   0   7 7485.42 1935.04  17
  -5   0   7 8728.66 1709.48   7
  -5   0   7 7232.18 1755.76   4
  -5   0   6 58385.5 4560.80  10
  -5   0   6 58162.8 5656.76   8
  -5   0   6 58455.0 3863.05   7
  -5   0   6 54893.1 4349.92   4
  -5   0   5 110636. 5605.24  10
  -5   0   5 107586. 5882.60   4
  -5   0   4 51765.2 3563.21  10
  -5   0   4 53236.7 4018.66   4
  -5   0   3 3851.85 1146.68   4
  -5   0   2 147765. 6377.00   4
  -5   0   1 14704.0 2012.41   4
  -5   0   0 22036.2 2470.10   4
  -5   0  -1 16498.6 2053.79   9
  -5   0  -1 15926.3 2179.17   4
  -5   0  -1 14923.8 2188.93  18
  -5   0  -2 5820.76 1322.33   9
  -5   0  -2 5112.74 1278.53  18
  -5   0  -2 4913.56 1404.24   4
  -5   0  -3 66728.9 4235.68   9
  -5   0  -3 69326.7 4762.72   4
  -5   0  -3 64115.9 4639.22  18
  -5   0  -4 2238.81 821.940   9
  -5   0  -4 857.401 894.541  18
  -5   0  -4 1063.21 804.560   4
  -5   0  -5 10235.9 1812.10   9
  -5   0  -5 8866.72 1919.04   4
   5   0   6 3884.90 1665.70  16
  -5   0  -7 13575.2 2240.72  12
   5   0   7 14991.3 2696.72  16
  -5   0  -8-971.011 1136.80  12
   5   0   8 1309.43 1036.52  16
  -5   0  -9 9200.98 1628.79  12
  -5   0 -10 11100.5 1403.85  12
  -5  -1  12 15229.1 1717.11  10
  -5  -1  11 18121.7 2649.44  10
  -5  -1  10 17974.1 2887.72  10
  -5  -1  10 26398.7 3447.98  17
  -5  -1   9 60467.3 5534.69  10
  -5  -1   9 58936.2 5934.12   8
  -5  -1   9 62256.0 5195.55   7
  -5  -1   9 63208.3 5217.10  17
  -5  -1   8-753.055 1523.86  10
  -5  -1   8-1241.35 1989.03   8
  -5  -1   8 1950.39 1567.59  17
  -5  -1   8-219.685 956.967   7
  -5  -1   7 10214.6 2025.48  10
  -5  -1   7 5800.50 1695.46   8
  -5  -1   7 10324.1 1897.92   4
  -5  -1   7 8804.68 1872.07   7
  -5  -1   6 2270.17 1139.42  10
  -5  -1   6 937.532 1452.79   8
  -5  -1   6 1973.32 881.155   7
  -5  -1   6 2012.87 882.797   4
  -5  -1   5 22577.4 2462.24  10
  -5  -1   5 23691.8 2657.16   4
  -5  -1   5 25493.9 2659.22   7
  -5  -1   4 2689.68 663.780  10
  -5  -1   4 2987.54 947.891   7
  -5  -1   4 2610.72 904.511   4
  -5  -1   3 28314.2 2801.82   4
  -5  -1   2 7201.61 1425.26   4
  -5  -1   1 578.126 424.396   4
  -5  -1   0 1298.23 622.600   9
  -5  -1   0 317.450 673.920  18
  -5  -1   0 1034.20 690.721   4
  -5  -1  -1 285538. 8910.61   9
  -5  -1  -1 276565. 9203.53   4
  -5  -1  -1 293752. 9828.40  18
  -5  -1  -2 104503. 5457.28   9
  -5  -1  -2 104361. 5821.16   4
  -5  -1  -2 99261.1 5974.63  18
  -5  -1  -3 70650.8 5317.82  12
  -5  -1  -3 72490.1 4600.46   9
  -5  -1  -3 69281.3 4962.13   4
  -5  -1  -4 99812.6 6383.07  12
  -5  -1  -4 93753.3 5349.48   9
  -5  -1  -4 103669. 6320.89   4
  -5  -1  -5 24109.3 3133.98  12
  -5  -1  -5 23682.2 2829.30   9
  -5  -1  -6-658.619 1288.18  12
   5   1   6-224.551 1231.34  16
  -5  -1  -7 96088.7 6052.35  12
   5   1   7 88091.6 6206.73  16
  -5  -1  -8 25615.1 2896.58  12
   5   1   8 27868.6 3054.46  16
  -5  -1  -9 50807.1 3396.53  12
  -5  -1 -10 236.320 283.073  12
  -5  -2  12 1650.18 599.707  10
  -5  -2  11 9096.71 1593.19  10
  -5  -2  11 24942.5 3899.30   8
  -5  -2  10 33971.9 4068.31  10
  -5  -2  10 30383.9 4031.82   8
  -5  -2   9 100602. 6967.61  10
  -5  -2   9 107970. 6884.75   7
  -5  -2   8 17046.0 2847.06  10
  -5  -2   8 12093.3 2585.12   8
  -5  -2   8 16651.1 2727.94   7
  -5  -2   7 5893.31 1520.42  10
  -5  -2   7 3963.96 1624.00   8
  -5  -2   7 6859.87 1645.05   7
  -5  -2   6 85582.8 5035.39  10
  -5  -2   6 88941.5 6497.20   8
  -5  -2   6 86670.5 5426.14   7
  -5  -2   6 80222.5 4653.30   4
  -5  -2   5 5.63777 517.358  10
  -5  -2   5 226.646 792.857   7
  -5  -2   5 281.040 333.228   4
  -5  -2   4 110343. 5121.89  10
  -5  -2   4 108084. 5389.69   4
  -5  -2   4 117056. 5960.06   7
  -5  -2   3 81612.3 4199.01  10
  -5  -2   3 77041.7 4221.99   9
  -5  -2   3 82794.9 4735.65   4
  -5  -2   3 91809.7 5224.20   7
  -5  -2   2 32327.6 2840.88   9
  -5  -2   2 32538.6 2939.33   4
  -5  -2   2 33612.4 3186.53   7
  -5  -2   1 6383.17 1285.10   9
  -5  -2   1 7798.13 1549.20   4
  -5  -2   1 6612.10 1508.31   7
  -5  -2   0 474077. 11672.3   9
  -5  -2   0 451592. 11741.1   4
  -5  -2  -1 54631.6 4165.65   9
  -5  -2  -1 50241.2 4086.05   4
  -5  -2  -2 246087. 8971.09   9
  -5  -2  -2 232935. 9155.70   4
  -5  -2  -3 125039. 6902.26  12
  -5  -2  -3 123685. 6495.64   9
  -5  -2  -3 120010. 6884.36   4
  -5  -2  -4 4096.15 1371.13  12
  -5  -2  -4 2915.51 1103.68   9
  -5  -2  -4 3369.95 1344.43   4
  -5  -2  -5 8503.25 1848.37  12
  -5  -2  -6 93150.2 5860.73  12
   5   2   6 82628.2 5814.51  16
  -5  -2  -7 7981.51 1747.58  12
   5   2   7 4542.67 1396.88  16
  -5  -2  -8 36362.4 3129.73  12
  -5  -2  -9 11039.5 1449.58  12
  -5  -3  12-2073.54 873.326  10
  -5  -3  12 16066.5 2999.95   8
  -5  -3  11 15749.3 2477.15  10
  -5  -3  11 17042.1 2798.59   8
  -5  -3  10 10791.7 2361.59  10
  -5  -3  10 4008.79 885.679   8
  -5  -3  10 8427.15 1978.49   7
  -5  -3   9-136.395 993.867   8
  -5  -3   9 1873.82 830.771   7
  -5  -3   8 47152.9 4219.95  10
  -5  -3   8 47602.1 4989.16   8
  -5  -3   8 44419.6 4319.15   7
  -5  -3   7 63032.0 4616.69  10
  -5  -3   7 76521.5 6051.68   8
  -5  -3   7 67550.0 5038.60   7
  -5  -3   6 6921.04 1492.84  10
  -5  -3   6 7720.85 1746.89   7
  -5  -3   5 27252.2 2764.08  10
  -5  -3   5 25158.2 2998.96   7
  -5  -3   4 40259.4 3256.85  10
  -5  -3   4 37647.4 3052.34   4
  -5  -3   4 38886.3 3644.02   7
  -5  -3   3 8485.88 1571.48  10
  -5  -3   3 8257.36 1553.74   9
  -5  -3   3 7606.07 1415.58   4
  -5  -3   3 5613.75 1449.75   7
  -5  -3   2 35498.3 2719.66  10
  -5  -3   2 36342.3 3142.33   4
  -5  -3   2 31625.1 3009.13   9
  -5  -3   2 37466.9 3696.38   7
  -5  -3   1 166768. 7207.01   9
  -5  -3   1 160128. 6913.35   4
  -5  -3   1 177165. 8467.44   7
  -5  -3   0 64253.6 4730.06   9
  -5  -3   0 61619.7 4514.33   4
  -5  -3   0 58852.5 5325.48   7
  -5  -3  -1 308036. 10693.9   9
  -5  -3  -1 280908. 10058.8   4
  -5  -3  -2 64527.6 5029.29  12
  -5  -3  -2 63682.1 5095.96   9
  -5  -3  -2 68164.0 5275.83   4
  -5  -3  -3-178.722 708.790  12
  -5  -3  -3-434.926 884.815   9
  -5  -3  -3 995.665 749.787   4
  -5  -3  -4 9512.54 1933.99  12
  -5  -3  -5 83542.9 5471.96  12
   5   3   5 72359.1 5081.92  16
  -5  -3  -6 5437.60 1500.22  12
  -5  -3  -7 29929.6 2968.86  12
  -5  -3  -8 1482.76 709.431  12
   5   3   9 167.357 277.409   6
  -5  -4  12 41947.7 3891.10   8
  -5  -4  11-2710.92 1744.07  10
  -5  -4  11-1688.40 1740.54   8
  -5  -4  10 145961. 7863.68  10
  -5  -4  10 119538. 7801.43   8
  -5  -4  10 132723. 7303.40   7
  -5  -4   9 44715.9 4131.76  10
  -5  -4   9 42419.6 4609.00   8
  -5  -4   9 39570.3 4141.76   7
  -5  -4   8 70454.4 5019.45  10
  -5  -4   8 79993.9 6183.86   8
  -5  -4   8 68066.5 5210.86   7
  -5  -4   7 9502.63 1927.89  10
  -5  -4   7 12724.7 2602.84   8
  -5  -4   7 8504.33 1994.44   7
  -5  -4   6 1347.04 1063.42  10
  -5  -4   6 629.066 734.429   7
  -5  -4   5 520.157 744.989  10
  -5  -4   5 252.759 757.951   7
  -5  -4   4 44338.7 3610.68  10
  -5  -4   4 38785.1 3992.45   7
  -5  -4   3 34759.1 3031.76  10
  -5  -4   3 32827.7 3311.42   9
  -5  -4   3 32619.9 2917.59   4
  -5  -4   3 36258.4 4023.87   7
  -5  -4   2 58085.7 3764.11  10
  -5  -4   2 54114.0 4268.85   9
  -5  -4   2 55261.7 3950.68   4
  -5  -4   2 62814.6 5491.60   7
  -5  -4   1 18259.1 2769.49   9
  -5  -4   1 19913.8 2590.01   4
  -5  -4   1 20435.4 3387.79   7
  -5  -4   0 161170. 8206.09   9
  -5  -4   0 151626. 7421.47   4
  -5  -4   0 152480. 9800.10   7
  -5  -4  -1 1376.48 804.583  12
  -5  -4  -1 821.266 801.555   9
  -5  -4  -1 2028.94 999.941   4
  -5  -4  -1-92.0467 1630.87   7
  -5  -4  -2 4620.37 1430.51  12
  -5  -4  -2 5039.77 1667.37   4
  -5  -4  -3 19760.9 2742.61  12
  -5  -4  -4 100667. 5873.35  12
  -5  -4  -5 751.500 809.965  12
  -5  -4  -6 13698.3 2078.71  12
  -5  -4  -7 5680.41 1247.60  12
   5   4   8 11933.2 1374.46   6
  -5  -4  -8 11069.4 1545.24   7
  -5  -5  12 3529.35 1264.30   8
  -5  -5  11 91646.7 6306.65   8
  -5  -5  10 20278.9 3081.47  10
  -5  -5  10 12822.8 2555.46   8
  -5  -5  10 14102.1 2458.32   7
  -5  -5   9 33110.8 3582.90  10
  -5  -5   9 36452.7 4203.33   8
  -5  -5   9 29022.1 3449.54   7
  -5  -5   8 786.332 1123.29  10
  -5  -5   8 972.688 905.780   7
  -5  -5   7 522.347 939.184  10
  -5  -5   7 2986.79 1762.29   8
  -5  -5   7 698.936 789.566   7
  -5  -5   6 1558.23 812.179  10
  -5  -5   6 357.999 784.592   7
  -5  -5   5 15541.1 2388.79  10
  -5  -5   5 15964.1 2776.34   7
  -5  -5   4 5753.38 1467.85  10
  -5  -5   4 5387.70 1755.44   7
  -5  -5   3 18033.3 3193.99   7
  -5  -5   2 14737.9 3273.03   7
  -5  -5   1 543.939 635.859   4
  -5  -5   1 2895.50 2072.77   7
  -5  -5   0 22182.5 3109.99   4
  -5  -5   0 13617.2 3514.78   7
  -5  -5  -1 904.625 1164.41   7
  -5  -5  -2 30130.7 4671.05   7
  -5  -5  -3 8449.87 2859.34   7
   5   5   6-85.1670 439.417   6
  -5  -5  -6 701.972 921.693   7
   5   5   7 22639.3 1757.02   6
  -5  -5  -7 22134.5 2179.49   7
  -5  -6  12 75655.0 4511.79   8
  -5  -6  11-1513.60 1387.04   8
  -5  -6  10 33487.7 4103.76   8
  -5  -6  10 29831.0 3534.14   7
  -5  -6   9 3068.53 1584.04   8
  -5  -6   9 515.328 932.136   7
  -5  -6   8 44312.0 4504.03   8
  -5  -6   8 37049.7 4153.65   7
  -5  -6   7 30561.5 3868.06   7
  -5  -6   6 25992.5 3731.42   7
  -5  -6   5 42768.8 4816.93   7
  -5  -6   4 3574.74 2064.98   7
  -5  -6   3 977.061 1083.17   7
  -5  -6   2 47511.1 5835.23   7
  -5  -6   1 27489.0 4401.15   7
  -5  -6   0 28262.8 3549.48  13
  -5  -6   0 28258.2 4466.71   7
  -5  -6  -1 103380. 8318.82   7
  -5  -6  -2 5635.88 2228.99   7
  -5  -6  -3 2026.23 1526.15   7
  -5  -6  -4 1883.88 1125.13   7
  -5  -6  -5 1215.05 882.737   7
  -5  -6  -6 10265.7 1470.88   7
  -5  -6  -7-455.269 379.094  13
  -5  -7  11 408.719 912.761   8
  -5  -7  10 4282.57 1529.76   8
  -5  -7   9 90678.7 6579.71   8
  -5  -7   9 85545.8 6530.80   7
  -5  -7   8 82070.1 6588.67   7
  -5  -7   7 78911.1 6556.82   7
  -5  -7   6 120948. 8304.90   7
  -5  -7   5 16549.9 3544.07   7
  -5  -7   4 12424.1 3045.08   7
  -5  -7   3 95111.7 8037.45   7
  -5  -7   2 23678.5 3918.91   7
  -5  -7   1 49376.9 5668.41   7
  -5  -7   0 65176.0 5071.47  13
  -5  -7   0 76201.5 6481.72   7
  -5  -7  -1 12555.8 2324.07  13
  -5  -7  -1 14077.3 2563.33   7
  -5  -7  -2 21503.1 2587.35  13
  -5  -7  -2 20726.8 2964.46   7
  -5  -7  -3 6429.75 1312.78  13
  -5  -7  -3 5410.92 1308.31   7
  -5  -7  -4 1701.55 782.273  13
  -5  -7  -4 2099.89 813.032   7
  -5  -7  -5 14231.4 1530.82  13
  -5  -7  -5 10259.1 1305.79   7
  -5  -8   9 1679.53 1364.55   7
  -5  -8   8 106702. 7907.61   7
  -5  -8   7 44387.3 5066.05   7
  -5  -8   7 43294.9 3709.99  15
  -5  -8   6-1918.37 2114.11   7
  -5  -8   6-1463.20 1470.35  15
  -5  -8   5 11584.0 2334.90   7
  -5  -8   4 64724.2 5898.46   7
  -5  -8   3 532.669 1060.74   7
  -5  -8   2 108478. 7109.05   7
  -5  -8   1 26442.9 3342.26   7
  -5  -8   1 17397.6 2261.73  13
  -5  -8   0 2477.05 1153.59  13
  -5  -8   0 4385.98 1408.99   7
  -5  -8  -1 8611.30 1538.35  13
  -5  -8  -1 9505.46 1828.13   7
  -5  -8  -2 6291.07 1208.63  13
  -5  -8  -2 7122.91 1342.99   7
  -5  -8  -3 6745.49 1111.89  13
  -5  -8  -3 4389.97 913.798   7
  -5  -8  -4 4865.68 834.864  13
  -5  -9   7 1425.24 727.412   7
  -5  -9   7 3708.55 1024.18  15
  -5  -9   6 17195.6 2484.36   7
  -5  -9   6 8683.37 1762.60  15
  -5  -9   5 25027.2 2876.00   7
  -5  -9   5 21065.7 3083.33  15
  -5  -9   4 8997.00 1708.31   7
  -5  -9   4 9181.34 2112.83  15
  -5  -9   3 97855.6 4941.74   7
  -5  -9   2 14633.2 1790.56   7
  -5  -9   1 583.195 474.560  13
  -5  -9   0 1509.73 715.109  13
  -5  -9  -1 6379.12 942.890  13
  -5  -9  -2 17835.4 1433.79  15
  -5  -9  -2 16923.4 1418.71  13
  -5 -10   6 9317.83 1347.55  15
  -5 -10   5 3372.09 944.707  15
  -5 -10   4 6570.54 1215.37  15
  -5 -10   3 4787.31 1013.44  15
  -5 -10   2 429.593 482.442  15
  -5 -10   1 1301.52 499.507  15
   6 -10  -1 8423.65 1168.33  19
   6 -10   0 19944.8 1864.30  19
   6 -10   1 7870.64 1161.63  19
  -6   9   5 5220.56 784.202   5
  -6   9   4 2999.82 720.851   5
  -6   9   3 5333.95 1005.34   5
  -6   9   2 13040.9 1666.45   5
  -6   9   1 1645.51 544.641   5
   6  -9  -1 3106.17 1207.39  19
  -6   9   1 3702.31 808.478  18
  -6   9   0 5839.97 1056.07  18
   6  -9   0 5086.40 1491.97  19
   6  -9   1 621.752 578.970  19
  -6   9  -1 1719.95 743.147  18
   6  -9   2 17448.4 2344.50  19
  -6   9  -2 29225.6 2666.37  18
   6  -9   3 429.078 399.596  19
  -6   9  -3 2147.12 795.606  18
   6  -9   4 1202.07 583.736  19
  -6   9  -4 2383.41 807.795  18
  -6   8   6 1925.73 583.434   5
  -6   8   6 2343.40 762.508  10
  -6   8   5 4889.11 1075.32  10
  -6   8   5 2734.43 823.068   5
  -6   8   4 11853.5 1806.93   5
  -6   8   4 12886.7 1740.00  10
  -6   8   3 1990.52 890.320   5
  -6   8   3 3941.61 1289.49  10
  -6   8   2 14787.6 2180.51   5
  -6   8   1 3158.29 1104.16   5
  -6   8   1 6563.28 1373.22  18
  -6   8   0 407.225 616.069   5
  -6   8   0 1981.43 1058.05  18
   6  -8   1 40.6329 685.804  19
  -6   8  -1 930.999 792.983  18
   6  -8   2 932.192 873.275  19
  -6   8  -2 988.682 622.998  18
   6  -8   3 1175.08 1019.15  19
  -6   8  -3-594.710 880.852  18
   6  -8   4 9364.99 1643.92  19
  -6   8  -4 10460.5 1840.60  18
  -6   8  -5 45100.1 3312.08  18
   6  -8   5 47486.6 3282.46  19
  -6   7   8 299.656 344.173  10
  -6   7   7 1339.60 637.205  10
  -6   7   7 761.375 428.731   5
  -6   7   6 16186.7 1987.14   5
  -6   7   6 15100.2 2022.24  10
  -6   7   5 7875.47 1713.37  10
  -6   7   5 7416.78 1641.43   5
  -6   7   4 59468.1 4673.67   5
  -6   7   4 62796.7 4639.73  10
  -6   7   3 49186.9 4489.63   5
  -6   7   2 3412.07 1219.08   5
  -6   7   2 6855.09 1472.88  18
  -6   7   1 23931.8 3065.07   5
  -6   7   1 24821.6 2995.61  18
  -6   7   0 5404.30 1692.58   5
  -6   7   0 6431.49 1734.63  18
   6  -7   1 1501.09 959.256  19
  -6   7  -1 1829.30 908.663  18
   6  -7   2 25734.2 3283.20  19
  -6   7  -2 26754.1 3485.84  18
   6  -7   3 2269.44 1093.13  19
  -6   7  -3 1716.50 985.750  18
   6  -7   4 43944.5 3719.18  19
  -6   7  -4 45318.7 4074.64  18
   6  -7   5 4557.97 1153.70  19
  -6   7  -5 5228.98 1266.77  18
   6  -7   6 51441.1 3231.01  19
  -6   7  -6 54089.0 3363.06  18
   6  -7   7 3729.21 827.672  14
  -6   6   9 6154.53 911.476  10
  -6   6   8 13596.5 1387.02   5
  -6   6   8 16517.9 1855.83  10
  -6   6   7 27303.9 2545.79   5
  -6   6   7 31915.0 2984.69  10
  -6   6   6 2308.83 1275.67  10
  -6   6   6 214.522 707.035   5
  -6   6   5 116663. 6777.30   5
  -6   6   5 135036. 7341.43  10
  -6   6   4 52709.7 4836.18   5
  -6   6   3 54511.7 5044.31   5
  -6   6   2 44424.6 4427.35   5
  -6   6   2 48858.8 4206.89  18
  -6   6   1 7901.61 2088.05   5
  -6   6   1 5572.71 1702.81  18
  -6   6   0 14867.2 2618.66   5
  -6   6   0 10628.7 2454.40  18
   6  -6   1 70478.1 5491.85  19
  -6   6  -1 77575.0 6379.11  18
   6  -6   2 10051.0 2076.84  19
  -6   6  -2 12016.9 2608.89  18
   6  -6   3 17780.8 2490.51  19
  -6   6  -3 23131.6 3415.63  18
   6  -6   4 2872.13 1112.27  19
  -6   6  -4 1271.25 1103.95  18
   6  -6   5 1202.11 625.057  19
  -6   6  -5 805.764 643.092  18
   6  -6   6 4668.42 1102.90  19
  -6   6  -6 3991.82 1105.81  18
   6  -6   7 14617.2 1645.34  14
  -6   5  10 14810.2 1294.06  10
  -6   5   9 39420.1 2742.58  10
  -6   5   8 27196.8 2664.57  11
  -6   5   8 29121.2 2350.77   5
  -6   5   8 27956.1 2817.73  10
  -6   5   7 4616.32 1153.12  11
  -6   5   7 6761.65 1863.70  10
  -6   5   7 6866.79 1506.79   5
  -6   5   6 155158. 7755.98   5
  -6   5   6 182361. 8877.94  10
  -6   5   5 2530.59 1738.79  10
  -6   5   5-260.360 1059.32   5
  -6   5   4 4332.70 1621.91  10
  -6   5   4 6162.85 1722.30   5
  -6   5   3 73224.0 5722.73   5
  -6   5   3 77155.8 5071.59  18
  -6   5   2 18452.7 2904.82   5
  -6   5   2 16251.6 2645.26  18
  -6   5   1 1498.30 1177.29   5
  -6   5   1-987.356 973.997  18
  -6   5   0 30804.1 3517.29   5
  -6   5   0 25130.2 3773.83  18
   6  -5   1 6625.69 1634.98  19
  -6   5  -1 8411.42 2244.88  18
   6  -5   2 515.099 503.381  19
  -6   5  -2 524.241 912.426  18
   6  -5   3 1515.48 901.975  19
  -6   5  -3 1812.53 1285.09  18
  -6   5  -4 1601.20 730.683   9
   6  -5   4 2753.13 1032.88  19
  -6   5  -4 3033.32 1246.45  18
   6  -5   4 3891.64 2007.21  16
  -6   5  -5 30571.2 3197.36  18
   6  -5   5 32246.4 5057.06  16
  -6   5  -6 8220.52 1556.83  18
   6  -5   6 6658.85 2206.14  16
   6  -5   7 13056.5 2545.51  16
   6  -5   7 14149.2 1660.46  14
  -6   4  10 1566.02 490.335  11
  -6   4  10 3465.56 907.802  10
  -6   4   9 2610.21 854.019  11
  -6   4   9 2641.62 985.599  10
  -6   4   8 4582.91 1159.95  11
  -6   4   8 4470.84 1516.15  10
  -6   4   7 52262.1 4357.45  11
  -6   4   7 55372.0 4342.20   5
  -6   4   7 67167.4 5557.82  10
  -6   4   6 882.732 807.533  11
  -6   4   6 3059.50 1811.41  10
  -6   4   6 830.187 661.721   5
  -6   4   5 73822.2 5702.10   5
  -6   4   5 57083.5 5641.04  10
  -6   4   4 929.859 1059.81  10
  -6   4   4 3385.65 1269.46   5
  -6   4   3 39669.0 4149.61   5
  -6   4   3 35172.0 3763.56  10
  -6   4   3 39643.0 3969.47  18
  -6   4   2 4219.30 1434.63   5
  -6   4   2 6950.35 2088.24  18
  -6   4   2 4579.43 1470.81   4
  -6   4   1 66609.5 4979.54   5
  -6   4   1 51123.7 5119.02  18
  -6   4   1 66200.0 4791.00   4
  -6   4   0 35635.0 3616.04   5
  -6   4   0 35559.0 4393.93  18
  -6   4   0 35078.5 3404.51   4
  -6   4  -1 503.678 1232.53  18
  -6   4  -2 1469.66 1229.01  18
  -6   4  -3 88587.4 6183.50  18
  -6   4  -4 78424.7 4592.03   9
  -6   4  -4 76721.7 5456.11  18
  -6   4  -5 29674.3 3290.52  18
   6  -4   5 43300.0 6093.96  16
  -6   4  -6 72132.6 4438.45  18
   6  -4   6 89350.6 7808.29  16
   6  -4   7 2013.85 1298.62  16
   6  -4   8 7266.26 1640.58  16
  -6   3  11 14180.0 1325.36  10
  -6   3  10 2390.42 639.434  11
  -6   3  10 3949.93 1158.38  10
  -6   3   9 827.547 542.308  11
  -6   3   9-1101.33 1107.83  10
  -6   3   8 123.105 573.827  11
  -6   3   8 811.566 1104.23  10
  -6   3   7 6969.25 1681.29  11
  -6   3   7 4871.08 1820.89  10
  -6   3   7 5990.79 1382.83   5
  -6   3   6 1767.08 881.733  11
  -6   3   6 305.161 1470.29  10
  -6   3   6 2060.23 1011.79   5
  -6   3   5 8729.02 1913.20  11
  -6   3   5 8260.46 2095.05  10
  -6   3   5 11919.0 2232.66   5
  -6   3   4 19941.4 2775.95   5
  -6   3   4 16966.7 2809.00  10
  -6   3   4 20309.7 2839.49   4
  -6   3   3 8321.68 1876.83   5
  -6   3   3 6063.61 1606.79  10
  -6   3   3 6715.26 1907.81  18
  -6   3   3 6890.92 1695.91   4
  -6   3   2 48699.7 4113.80   5
  -6   3   2 37521.8 4349.22  18
  -6   3   2 44794.2 4104.67   4
  -6   3   1 37555.3 3571.91   5
  -6   3   1 32000.8 4054.72  18
  -6   3   1 41333.8 3796.14   4
  -6   3   0 11886.8 2427.75  18
  -6   3   0 11577.3 2017.02   4
  -6   3  -1 99130.4 6684.25  18
  -6   3  -1 90331.0 5401.30   4
  -6   3  -2 133668. 7564.36  18
  -6   3  -3 46349.5 3811.83   9
  -6   3  -3 40873.3 4182.66  18
  -6   3  -4 141226. 6304.07   9
  -6   3  -4 137706. 7167.13  18
  -6   3  -5 140193. 6878.26  18
  -6   3  -6 3109.07 1017.18  18
   6  -3   6 3312.91 1616.07  16
   6  -3   7 20474.2 3126.10  16
  -6   3  -8 29912.5 2740.42  12
   6  -3   8 31291.3 3148.23  16
  -6   2  11 1268.78 580.525  10
  -6   2  10 8400.72 1827.22  10
  -6   2   9 15299.3 2523.78  10
  -6   2   8 3929.20 1274.06  10
  -6   2   7 1899.11 1011.23  10
  -6   2   6 18810.4 2529.71   5
  -6   2   6 16208.8 3120.04  10
  -6   2   5 47955.5 4081.05   5
  -6   2   5 42506.4 4477.19  10
  -6   2   5 46424.8 4379.26   4
  -6   2   4 36039.3 3484.16   5
  -6   2   4 33738.5 3621.11  10
  -6   2   4 34471.0 3621.54   4
  -6   2   3 38934.3 3541.15   5
  -6   2   3 33025.8 3266.52  10
  -6   2   3 30771.1 3996.22  18
  -6   2   3 38067.4 3725.27   4
  -6   2   2 20787.7 2566.89   5
  -6   2   2 17072.5 3088.40  18
  -6   2   2 23603.2 2912.39   4
  -6   2   1 428.052 1053.22  18
  -6   2   1 1029.37 761.453   4
  -6   2   0 10497.5 2401.63  18
  -6   2   0 10404.8 1928.84   4
  -6   2  -1 147265. 7846.61  18
  -6   2  -1 147889. 6943.08   4
  -6   2  -2 3353.90 1257.15   9
  -6   2  -2 2840.42 1304.65  18
  -6   2  -2 1778.17 784.007   4
  -6   2  -3 121565. 6172.34   9
  -6   2  -3 119253. 6921.85  18
  -6   2  -4 45050.2 3641.08   9
  -6   2  -4 40655.9 4060.15  18
  -6   2  -5 13169.4 2308.03  18
   6  -2   6 31356.4 3995.30  16
  -6   2  -7 29330.4 2999.66  12
   6  -2   7 25869.5 3265.99  16
  -6   2  -8 9023.48 1433.49  12
   6  -2   8 8832.58 1704.77  16
  -6   2  -9 27301.0 1953.03  12
  -6   1  11 63225.7 3634.01  10
  -6   1  10 23928.1 3085.28  10
  -6   1   9 1739.31 1247.39  10
  -6   1   8 64550.6 5426.21  10
  -6   1   7 69680.2 6040.57  10
  -6   1   6 25673.0 3496.27  10
  -6   1   5 23073.1 2532.60   5
  -6   1   5 20456.4 2955.64  10
  -6   1   5 23115.5 2995.35   4
  -6   1   4 3123.02 1068.80   5
  -6   1   4 2191.44 1210.29  10
  -6   1   4 3413.96 1214.93   4
  -6   1   3 736.091 661.228  10
  -6   1   3-159.678 713.920  18
  -6   1   3-412.122 443.348   4
  -6   1   2 754.745 1065.78  18
  -6   1   2 1821.67 925.012   4
  -6   1   1 739.337 952.724  18
  -6   1   1 161.169 686.103   4
  -6   1   0 27658.1 3633.26  18
  -6   1   0 28680.6 3148.57   4
  -6   1  -1 11928.1 2030.54   9
  -6   1  -1 9731.40 1865.72   4
  -6   1  -1 10976.7 2290.48  18
  -6   1  -2 53115.9 4164.61   9
  -6   1  -2 50343.3 4566.71  18
  -6   1  -2 57024.2 4371.80   4
  -6   1  -3 884.597 609.819   9
  -6   1  -3-102.966 847.767  18
  -6   1  -4 36006.8 3396.87   9
  -6   1  -4 34598.3 3631.23  18
  -6   1  -5 2435.82 1118.41  12
  -6   1  -5 4701.27 1333.28   9
  -6   1  -6 27986.4 3194.68  12
   6  -1   6 23540.5 3346.59  16
  -6   1  -7 432.348 653.726  12
   6  -1   7 119.000 589.895  16
  -6   1  -8 25139.7 2331.99  12
   6  -1   8 25481.1 2629.00  16
  -6   0  12 37184.7 2035.31  10
  -6   0  11 12147.2 1847.03  10
  -6   0  10 2788.12 1472.24  10
  -6   0   9 72297.8 5764.97  10
  -6   0   8 34622.1 3947.12  10
  -6   0   7 15832.1 2682.50  10
  -6   0   6 13911.1 2473.79  10
  -6   0   6 13911.3 2457.90   4
  -6   0   5 14711.0 2378.06  10
  -6   0   5 14927.9 2322.33   9
  -6   0   5 18375.9 2586.00   4
  -6   0   4 41900.3 3424.57  10
  -6   0   4 42408.0 3681.15   9
  -6   0   4 44861.7 4036.25   4
  -6   0   3 5061.04 1016.33  10
  -6   0   3 6182.88 1446.51   9
  -6   0   3 7156.49 1624.68   4
  -6   0   2 10794.7 1892.99   9
  -6   0   2 11296.4 2666.50  18
  -6   0   2 13800.3 2226.08   4
  -6   0   1 1092.19 684.087   9
  -6   0   1 2504.40 1405.15  18
  -6   0   1 2068.45 913.808   4
  -6   0   0 36322.5 3489.76   9
  -6   0   0 38897.6 4104.11  18
  -6   0   0 40273.8 3692.98   4
  -6   0  -1 6543.22 1583.93   9
  -6   0  -1 5043.21 1764.06  18
  -6   0  -1 8220.31 1759.24   4
  -6   0  -1 3967.12 1532.45   7
  -6   0  -2 19189.9 2586.07   9
  -6   0  -2 16216.6 2712.31  18
  -6   0  -2 22007.9 2784.98   4
  -6   0  -2 15433.0 2632.66   7
  -6   0  -3 1674.42 981.563   9
  -6   0  -4 11226.0 2121.71  12
  -6   0  -4 9073.51 1937.64   9
  -6   0  -5-562.197 870.325  12
  -6   0  -5 774.963 578.606   9
  -6   0  -6 3479.19 1137.11  12
   6   0   6 2265.58 1032.34  16
  -6   0  -7 12457.4 1796.19  12
   6   0   7 12308.5 2167.19  16
  -6   0  -8 5362.53 1109.88  12
   6   0   8 6746.55 1334.19  16
  -6   0  -8 3997.64 1089.12   7
  -6  -1  12 4165.07 771.615  10
  -6  -1  11-454.696 1015.43  10
  -6  -1  10 7004.13 1508.60  10
  -6  -1   9 5962.57 1623.29  10
  -6  -1   9 6409.35 1554.24   7
  -6  -1   8 3299.77 1277.17  10
  -6  -1   8 3139.71 1104.88   7
  -6  -1   7 3100.56 1433.39  10
  -6  -1   7 3065.45 1172.88   7
  -6  -1   6 26225.6 3018.41  10
  -6  -1   6 27834.6 3042.34   7
  -6  -1   6 28488.2 3156.27   4
  -6  -1   5 48387.6 3909.39  10
  -6  -1   5 52757.9 4224.12   4
  -6  -1   5 56534.4 4220.94   7
  -6  -1   4 673.970 700.497  10
  -6  -1   4 1244.34 792.658   9
  -6  -1   4 1136.09 834.697   7
  -6  -1   4-91.7229 514.287   4
  -6  -1   3 131216. 5518.56  10
  -6  -1   3 124975. 6100.90   9
  -6  -1   3 132386. 6771.33   4
  -6  -1   3 135123. 6681.62   7
  -6  -1   2 17668.2 2383.09   9
  -6  -1   2 20551.1 2673.58   4
  -6  -1   2 16705.0 2460.44   7
  -6  -1   1 6902.28 1541.10   9
  -6  -1   1 7545.65 1574.58   4
  -6  -1   1 4965.34 1569.94   7
  -6  -1   0 101231. 5776.83   9
  -6  -1   0 101483. 5986.26   4
  -6  -1   0 102758. 6276.37   7
  -6  -1  -1 40866.7 3929.75   9
  -6  -1  -1 44816.0 4079.74   4
  -6  -1  -1 37841.8 4027.37   7
  -6  -1  -2 11556.7 2073.83   9
  -6  -1  -2 13047.8 2264.10   4
  -6  -1  -2 10958.1 2599.88   7
  -6  -1  -3 105420. 6180.58   9
  -6  -1  -4 3065.02 1349.08  12
  -6  -1  -4 2970.97 1132.20   9
  -6  -1  -5 13931.9 2222.44  12
  -6  -1  -6 1485.52 964.791  12
   6   1   6-926.215 1114.82  16
  -6  -1  -7 3514.68 1069.98  12
   6   1   7 3126.77 1013.73  16
  -6  -1  -8 1473.14 577.848  12
  -6  -1  -8 2340.40 854.169   7
  -6  -2  12 899.173 438.658  10
  -6  -2  11 14905.7 2273.51  10
  -6  -2  10 3367.50 1183.72  10
  -6  -2   9 6746.09 2165.31  10
  -6  -2   9 4439.92 1481.62   7
  -6  -2   8 9531.96 2172.95  10
  -6  -2   8 6775.95 1828.14   7
  -6  -2   7 116433. 6509.32  10
  -6  -2   7 120360. 6675.94   7
  -6  -2   6 89702.4 5452.01  10
  -6  -2   6 97161.5 5886.43   7
  -6  -2   5 71826.1 4652.14  10
  -6  -2   5 76139.5 4859.43   4
  -6  -2   5 74612.4 5145.02   7
  -6  -2   4 164144. 6608.50  10
  -6  -2   4 169565. 7404.97   9
  -6  -2   4 164960. 7217.72   4
  -6  -2   4 170287. 7758.24   7
  -6  -2   3 709.967 594.376  10
  -6  -2   3 1682.18 848.522   9
  -6  -2   3 1945.38 1025.02   4
  -6  -2   3 1733.36 1043.07   7
  -6  -2   2 31623.6 3285.61   9
  -6  -2   2 30194.7 3184.22   4
  -6  -2   2 32482.9 3515.36   7
  -6  -2   1 91545.6 5634.49   9
  -6  -2   1 96306.2 5775.43   4
  -6  -2   1 95759.7 6154.89   7
  -6  -2   0 121957. 6659.32   9
  -6  -2   0 126798. 6833.80   4
  -6  -2   0 118535. 7462.59   7
  -6  -2  -1 181242. 8343.05   9
  -6  -2  -1 188472. 8642.99   4
  -6  -2  -1 185283. 9653.27   7
  -6  -2  -2 5661.27 1631.84   9
  -6  -2  -2 4588.15 1783.08   7
  -6  -2  -3 9037.22 1966.48   9
  -6  -2  -4 21041.8 2784.99  12
  -6  -2  -5 1522.88 916.296  12
   6   2   5 296.408 806.453  16
  -6  -2  -6 1132.94 855.961  12
   6   2   6-14.8994 533.398  16
  -6  -2  -7 779.838 548.904  12
   6   2   7 1449.71 658.430  16
  -6  -2  -8 953.146 488.366   7
  -6  -3  11 7260.38 1502.30  10
  -6  -3  10-393.567 1246.18  10
  -6  -3  10-1264.46 1008.38   7
  -6  -3   9 9760.96 2206.05  10
  -6  -3   9 7974.37 1805.46   7
  -6  -3   8 46703.1 4301.27  10
  -6  -3   8 44923.9 4195.88   7
  -6  -3   7 18976.9 2677.03  10
  -6  -3   7 19320.3 2817.60   7
  -6  -3   6 129912. 6352.37  10
  -6  -3   6 131987. 7024.17   7
  -6  -3   5 139589. 6425.86  10
  -6  -3   5 139729. 7232.41   7
  -6  -3   4 823.231 828.747  10
  -6  -3   4 723.924 757.292   9
  -6  -3   4 465.041 446.266   4
  -6  -3   4 627.373 841.294   7
  -6  -3   3 33633.7 2918.77  10
  -6  -3   3 29466.3 3275.90   9
  -6  -3   3 28664.0 3064.08   4
  -6  -3   3 32771.8 3671.97   7
  -6  -3   2 84323.9 5540.11   9
  -6  -3   2 85060.0 5289.94   4
  -6  -3   2 95082.4 6454.16   7
  -6  -3   1 4433.46 1527.73   9
  -6  -3   1 3675.85 1246.66   4
  -6  -3   1 2630.45 1626.24   7
  -6  -3   0 29452.0 3543.92   9
  -6  -3   0 31732.3 3567.59   4
  -6  -3   0 29252.3 4270.73   7
  -6  -3  -1 65684.6 5379.45   9
  -6  -3  -1 66612.9 6576.65   7
  -6  -3  -2 22262.4 3226.81   9
  -6  -3  -2 19253.4 3814.61   7
  -6  -3  -3 6453.77 1497.27  12
  -6  -3  -3 3195.43 1952.30   7
  -6  -3  -4 1237.34 893.645  12
  -6  -3  -4 1237.17 1707.50   7
  -6  -3  -5 1294.87 891.949  12
  -6  -3  -5 4242.13 2314.89   7
  -6  -3  -6 718.957 520.012  12
  -6  -3  -6 1373.24 1181.00   7
  -6  -3  -7 8079.04 1455.96   7
  -6  -4  10 2185.62 1428.48  10
  -6  -4  10 176.200 760.090   7
  -6  -4   9 1488.36 1127.00  10
  -6  -4   9 3237.20 1663.16   8
  -6  -4   9 132.611 739.222   7
  -6  -4   8 8690.66 1842.91  10
  -6  -4   8 6167.56 1721.46   7
  -6  -4   7 67940.1 4667.72  10
  -6  -4   7 68396.9 5094.68   7
  -6  -4   6 15337.7 2282.09  10
  -6  -4   6 17348.6 2653.80   7
  -6  -4   5 41206.0 3540.90  10
  -6  -4   5 40196.5 4035.84   7
  -6  -4   4 35537.7 3254.98  10
  -6  -4   4 31679.6 3584.31   9
  -6  -4   4 35158.9 3848.04   7
  -6  -4   3 15134.6 1992.15  10
  -6  -4   3 15049.4 2452.24   9
  -6  -4   3 16878.4 2913.10   7
  -6  -4   2 7420.82 1689.49   9
  -6  -4   2 8659.94 2400.24   7
  -6  -4   1 125132. 7417.34   9
  -6  -4   1 138273. 9224.16   7
  -6  -4   0 25691.1 3566.15   9
  -6  -4   0 29605.7 4602.13   7
  -6  -4  -1-886.109 1760.55   7
  -6  -4  -2-867.563 1435.23   7
  -6  -4  -3 8405.42 2490.43   7
  -6  -4  -4 15396.2 3088.24   7
  -6  -4  -5 6466.36 1807.45   7
   6   4   6 4773.45 758.318   6
  -6  -4  -6 7472.98 1440.95   7
  -6  -4  -7 8714.95 1183.40   7
  -6  -5  10 10858.2 1938.67   7
  -6  -5   9 12017.9 2182.40  10
  -6  -5   9 7265.23 1740.60   7
  -6  -5   8 7709.94 1691.12  10
  -6  -5   8 5966.44 1603.53   7
  -6  -5   7 18098.3 2440.28  10
  -6  -5   7 19145.3 2885.90   7
  -6  -5   6 34195.0 3236.23  10
  -6  -5   6 31355.4 3710.01   7
  -6  -5   5 17601.4 2460.00  10
  -6  -5   5 18287.0 2995.22   7
  -6  -5   4 5249.46 1905.94   7
  -6  -5   3 6070.60 2106.59   7
  -6  -5   2 10952.3 2711.34   7
  -6  -5   1 2104.56 1980.62   7
  -6  -5   0-242.069 1191.93   7
  -6  -5  -1 1131.24 1112.04   7
  -6  -5  -2 17971.6 3583.55   7
  -6  -5  -3 23072.5 3480.37   7
  -6  -5  -4 5687.36 1742.06   7
  -6  -5  -5 39439.1 3260.94   7
  -6  -5  -6 5043.83 955.982   7
  -6  -6  10 2717.43 1079.61   7
  -6  -6   9 11514.3 2087.06   7
  -6  -6   8 36701.8 3856.76   7
  -6  -6   7 1321.60 961.147   7
  -6  -6   6 57730.5 5163.10   7
  -6  -6   5 17705.8 3261.70   7
  -6  -6   4 33101.4 4338.52   7
  -6  -6   3 3285.06 1614.28   7
  -6  -6   2 12138.5 2772.46   7
  -6  -6   1-1899.43 2131.06   7
  -6  -6   0 1868.65 1299.43   7
  -6  -6  -1 23255.9 3464.95   7
  -6  -6  -2 6647.04 1394.63  13
  -6  -6  -2 8608.55 2071.08   7
  -6  -6  -3 8190.50 1292.07  13
  -6  -6  -3 11493.7 2069.83   7
  -6  -6  -4 19662.2 1685.18  13
  -6  -6  -4 28253.3 2563.77   7
  -6  -6  -5 92.8540 365.449   7
  -6  -7   9 38939.2 3932.47   7
  -6  -7   8 29846.5 3670.99   7
  -6  -7   7 167265. 8691.78   7
  -6  -7   6-55.0449 1304.98   7
  -6  -7   6-1323.93 1224.58  15
  -6  -7   5 30465.8 4007.01   7
  -6  -7   4 3434.17 1356.67   7
  -6  -7   3-299.191 1624.96   7
  -6  -7   2 12046.6 2736.41   7
  -6  -7   1 5301.38 2113.92   7
  -6  -7   0 15578.0 2796.36   7
  -6  -7  -1 17951.5 2621.42   7
  -6  -7  -2 20423.2 2334.38   7
  -6  -7  -3 6823.27 1186.21   7
  -6  -8   8 35236.9 3638.25   7
  -6  -8   7 857.315 1130.30   7
  -6  -8   6 21486.6 2936.26   7
  -6  -8   6 19867.9 2194.80  15
  -6  -8   5 5628.20 1676.41   7
  -6  -8   5 5250.52 1486.61  15
  -6  -8   4 4009.66 1387.84   7
  -6  -8   3 13363.0 2150.82   7
  -6  -8   2 13605.5 2074.71   7
  -6  -8   1 7000.89 1472.31   7
  -6  -8   0 3545.04 1025.15   7
  -6  -8  -1 1805.35 639.655   7
  -6  -9   5 4177.08 983.682  15
  -6  -9   4 10638.8 1537.02  15
  -6  -9   3 15978.0 1767.98  15
  -6  -9   2 116.980 404.131  15
  -6  -9   1 361.176 347.915  15
   7  -8  -2 3326.07 774.688  19
   7  -8  -1 2939.01 697.397  19
  -7   8   1 5231.43 878.060  18
   7  -8   0 17583.8 1842.24  19
  -7   8   0 28683.7 2292.27  18
   7  -8   1 8733.51 1167.15  19
  -7   8  -1 21830.2 2160.17  18
  -7   8  -2 2618.02 824.754  18
  -7   8  -3 10986.2 1504.23  18
  -7   7   5 11570.9 1469.98   5
  -7   7   5 10124.3 1165.34  10
  -7   7   4 11451.8 1705.47   5
  -7   7   3 7943.11 1499.23   5
   7  -7  -2 10412.7 1715.12  19
  -7   7   2 17569.9 1798.33  18
   7  -7  -1 12525.7 1877.41  19
  -7   7   1 22856.9 2383.27  18
   7  -7   0 1969.56 589.048  19
  -7   7   0 3498.94 1207.84  18
   7  -7   1 648.195 471.527  19
  -7   7  -1 3702.86 1393.69  18
  -7   7  -2 8008.89 1754.06  18
  -7   7  -3 35511.2 2305.63   9
  -7   7  -3 35135.1 3223.34  18
  -7   7  -4 1211.19 658.913  18
  -7   6   7 1837.58 584.756  10
  -7   6   6 29623.6 2419.75   5
  -7   6   6 27962.9 2357.39  10
  -7   6   5 15566.5 2079.75   5
  -7   6   5 15589.3 1919.14  10
  -7   6   4 13994.9 2216.75   5
  -7   6   4 13192.4 1808.34  10
  -7   6   3 36792.3 3581.49   5
  -7   6   2 32046.7 3099.46  18
  -7   6   1 3775.92 1486.67  18
  -7   6   0 10525.5 2273.83  18
  -7   6  -1 4943.80 1764.40  18
  -7   6  -2 4207.79 1447.61  18
  -7   6  -3 3380.30 929.777   9
  -7   6  -3 2376.58 1195.81  18
  -7   6  -4 49970.0 3827.14  18
  -7   6  -5 75.5608 386.098  18
  -7   5   8 3587.93 943.494  10
  -7   5   7 39136.6 3031.04  10
  -7   5   6 26244.3 2673.62   5
  -7   5   6 25993.6 2838.67  10
  -7   5   5 14496.4 2244.86   5
  -7   5   5 11574.0 2039.28  10
  -7   5   4 93.6301 939.869   5
  -7   5   4 728.434 772.158  10
  -7   5   3-146.722 920.253   5
  -7   5   3-365.679 636.242  18
  -7   5   2 186.507 658.748  18
  -7   5   1 4247.79 1729.34  18
  -7   5   0 14019.5 2844.21  18
  -7   5  -1 661.365 1142.88  18
  -7   5  -2 1910.28 997.292   9
  -7   5  -2 1696.05 1173.31  18
  -7   5  -3 4784.93 1130.20   9
  -7   5  -3 4690.46 1476.90  18
   7  -5   3 4829.92 1650.98  16
  -7   5  -4 22307.1 2744.84  18
   7  -5   4 17481.1 2881.24  16
  -7   5  -5 8242.82 1457.07  18
   7  -5   5 6083.03 1506.36  16
  -7   4   9 1941.99 753.026  10
  -7   4   8 27813.9 2657.16  10
  -7   4   7 6027.70 1459.82  10
  -7   4   6 17487.9 2395.90   5
  -7   4   6 15079.7 2364.30  10
  -7   4   5 8347.02 1765.11   5
  -7   4   5 7294.61 1617.26  10
  -7   4   4 8967.80 2054.43   5
  -7   4   4 7989.70 1809.13  10
  -7   4   3 46437.3 4391.18   5
  -7   4   3 43071.1 4130.12  18
  -7   4   2 9506.04 2314.71  18
  -7   4   1 74840.9 6534.15  18
  -7   4   0 1725.42 1343.58  18
  -7   4  -1 22751.0 3629.52  18
  -7   4  -2 4069.77 1177.21   9
  -7   4  -2 3200.04 1431.06  18
  -7   4  -3 12803.4 1892.86   9
  -7   4  -3 15334.1 2594.61  18
  -7   4  -4 10844.2 1544.34   9
  -7   4  -4 11577.4 2020.13  18
   7  -4   4 5904.00 1925.43  16
  -7   4  -5 86078.3 4750.57  18
   7  -4   5 101459. 7215.20  16
   7  -4   6 25599.2 3070.61  16
  -7   3  10 1780.87 632.656  10
  -7   3   9 7203.31 1468.00  10
  -7   3   8 13523.2 2332.83  10
  -7   3   7 15282.8 2452.92  10
  -7   3   6 19054.4 2818.70  10
  -7   3   5 18430.1 2982.80  10
  -7   3   4 25775.9 3044.70  10
  -7   3   3 82722.7 6343.43  18
  -7   3   2 172905. 9919.98  18
  -7   3   1 4414.22 1689.35  18
  -7   3   0 95653.1 7404.60  18
  -7   3  -1 63604.3 4683.12   9
  -7   3  -1 66998.6 5880.16  18
  -7   3  -2 27316.4 3007.40   9
  -7   3  -2 24789.9 3436.42  18
  -7   3  -3 22112.0 2573.43   9
  -7   3  -3 22116.2 3007.17  18
  -7   3  -4 52900.1 3510.29   9
  -7   3  -4 50551.6 4157.31  18
   7  -3   5 20032.2 3261.35  16
   7  -3   6 23120.1 3027.63  16
   7  -3   7 738.636 642.588  16
  -7   2  10 19415.4 1886.66  10
  -7   2   9 6154.54 1563.09  10
  -7   2   8 1310.16 1156.20  10
  -7   2   7 2144.89 1254.67  10
  -7   2   6 8970.15 2103.13  10
  -7   2   5 2041.62 1331.61  10
  -7   2   4 141980. 6612.69  10
  -7   2   3 88159.6 7116.34  18
  -7   2   2 25176.5 3954.83  18
  -7   2   1 85929.8 7206.11  18
  -7   2   0 32828.2 3441.14   9
  -7   2   0 33590.3 4425.58  18
  -7   2  -1 1020.38 778.654   9
  -7   2  -1 595.378 816.213  18
  -7   2  -2 83907.8 5228.96   9
  -7   2  -2 78495.5 5981.66  18
  -7   2  -3 62162.0 4356.87   9
  -7   2  -3 55274.9 4766.38  18
  -7   2  -4 23345.3 2566.08   9
   7  -2   5 9494.35 2195.50  16
   7  -2   6 1248.04 875.669  16
   7  -2   7 9978.55 1592.51  16
  -7   1  11 1166.60 397.526  10
  -7   1  10 10202.2 1525.56  10
  -7   1   9 87.3630 944.090  10
  -7   1   8 936.848 1093.44  10
  -7   1   7 8372.88 1743.52  10
  -7   1   6-414.163 1248.01  10
  -7   1   5 89058.2 5469.51  10
  -7   1   5 80273.4 5491.28   9
  -7   1   4 19248.8 2356.26  10
  -7   1   4 21151.6 2912.75   9
  -7   1   3 46777.3 4266.42   9
  -7   1   2 50547.7 4339.44   9
  -7   1   1 127.754 779.558   9
  -7   1   1 472.430 1030.95  18
  -7   1   0 1825.64 796.466   9
  -7   1   0 345.244 1294.86  18
  -7   1  -1 118219. 6475.93   9
  -7   1  -1 120120. 7611.34  18
  -7   1  -2 61032.3 4537.34   9
  -7   1  -3 10206.3 1849.38   9
  -7   1  -4 2183.65 860.774   9
   7  -1   5 7958.04 1972.01  16
   7  -1   6 17044.9 2336.29  16
   7  -1   7 9390.46 1445.89  16
  -7   0  11 875.668 453.158  10
  -7   0  10 1528.47 830.518  10
  -7   0   9-1138.95 1245.06  10
  -7   0   8 9895.38 1940.37  10
  -7   0   7 902.027 1125.62  10
  -7   0   6 15279.1 2483.25  10
  -7   0   5 979.657 703.747  10
  -7   0   5 2198.04 1011.33   9
  -7   0   4 79364.3 4577.38  10
  -7   0   4 83493.0 5582.96   9
  -7   0   3-235.679 624.270   9
  -7   0   2 2435.20 1059.49   9
  -7   0   1 4371.15 1564.61   9
  -7   0   0 35675.3 3624.26   9
  -7   0  -1 13001.4 2125.15   9
  -7   0  -2 1507.59 887.634   9
  -7   0  -3-395.681 653.285   9
  -7   0  -4 4660.58 1229.73   9
   7   0   5 57870.5 4738.54  16
   7   0   6 25183.0 2664.05  16
   7   0   7 42513.6 2594.78  16
  -7  -1  11-408.434 438.482  10
  -7  -1  10 16717.5 2038.07  10
  -7  -1   9 2664.71 968.069  10
  -7  -1   8 20153.4 2927.93  10
  -7  -1   7 3893.73 1517.70  10
  -7  -1   7 1343.25 723.631   7
  -7  -1   6 13626.2 2227.37  10
  -7  -1   6 14624.1 2026.86   7
  -7  -1   5 1708.40 972.388  10
  -7  -1   5 1816.09 1212.72   9
  -7  -1   5 1809.38 836.507   7
  -7  -1   4 83028.3 4580.80  10
  -7  -1   4 81752.0 5508.82   9
  -7  -1   4 80903.8 4970.31   7
  -7  -1   3 5225.47 1462.95   9
  -7  -1   3 4925.09 1416.78   7
  -7  -1   2 70188.3 5013.24   9
  -7  -1   2 65671.7 4658.35   7
  -7  -1   1 6294.92 1544.88   9
  -7  -1   1 2410.62 1149.52   7
  -7  -1   0 2116.15 1141.68   9
  -7  -1   0 1642.15 1178.72   7
  -7  -1  -1-356.413 658.375   9
  -7  -1  -1 838.700 1011.37   7
  -7  -1  -2 263.823 772.449   9
  -7  -1  -2 254.839 820.148   7
  -7  -1  -3 30301.3 3305.61   9
  -7  -1  -3 31379.3 3863.92   7
  -7  -1  -4 34474.1 3817.13   7
   7   1   5 15860.9 2261.92  16
  -7  -1  -5 13840.0 2180.36   7
   7   1   6 68754.9 3798.82  16
  -7  -1  -6 50536.7 3271.89   7
  -7  -2  11 66532.1 3361.06  10
  -7  -2  10-116.808 878.546  10
  -7  -2   9 14141.4 2212.83  10
  -7  -2   9 12216.8 1817.87   7
  -7  -2   8 38804.4 3677.39  10
  -7  -2   8 31861.1 3017.46   7
  -7  -2   7 3070.73 1402.62  10
  -7  -2   7 960.838 861.240   7
  -7  -2   6 55980.8 4140.34  10
  -7  -2   6 52929.5 4104.82   7
  -7  -2   5 98524.1 5152.76  10
  -7  -2   5 98375.8 5606.83   7
  -7  -2   4 4069.17 1078.86  10
  -7  -2   4 4494.62 1413.53   9
  -7  -2   4 2965.47 1156.36   7
  -7  -2   3 99494.6 6024.44   9
  -7  -2   3 97925.0 5858.46   7
  -7  -2   2 3207.92 1263.06   9
  -7  -2   2 3287.40 1201.50   7
  -7  -2   1 10444.7 2134.76   9
  -7  -2   1 7825.78 2169.76   7
  -7  -2   0 3581.48 1496.55   9
  -7  -2   0 2241.21 1507.52   7
  -7  -2  -1 12227.9 2270.83   9
  -7  -2  -1 9236.13 2389.17   7
  -7  -2  -2 30679.1 3476.17   9
  -7  -2  -2 31607.5 4172.86   7
  -7  -2  -3 11749.6 2612.67   7
   7   2   4 35458.8 3459.34  16
  -7  -2  -4 35470.8 3985.75   7
   7   2   5 12996.9 1719.04  16
  -7  -2  -5 11932.3 2032.74   7
  -7  -2  -6 3425.83 870.938   7
  -7  -3  10 61236.5 3938.98  10
  -7  -3   9 3093.21 1232.68  10
  -7  -3   9 2035.18 908.064   7
  -7  -3   8 27940.2 2903.51  10
  -7  -3   8 28467.0 2901.59   7
  -7  -3   7 110206. 5583.13  10
  -7  -3   7 103921. 5703.58   7
  -7  -3   6 84138.5 4750.37  10
  -7  -3   6 81193.4 5142.30   7
  -7  -3   5 28191.0 2783.07  10
  -7  -3   5 28162.0 3216.13   7
  -7  -3   4 94133.8 4761.46  10
  -7  -3   4 95050.0 6270.61   9
  -7  -3   4 90029.4 5716.90   7
  -7  -3   3 814.973 745.024   9
  -7  -3   3-922.680 1175.54   7
  -7  -3   2 5343.41 1625.90   9
  -7  -3   2 2729.09 1303.90   7
  -7  -3   1 4882.65 1618.99   9
  -7  -3   1 4938.51 1729.72   7
  -7  -3   0 69514.4 5292.79   9
  -7  -3   0 72448.3 6322.66   7
  -7  -3  -1 11203.0 2101.64   9
  -7  -3  -1 8494.96 2471.06   7
  -7  -3  -2 15668.1 3139.52   7
  -7  -3  -3 6126.60 1800.72   7
  -7  -3  -4 789.350 730.884   7
  -7  -3  -5 4191.79 1198.05   7
  -7  -4   9 18172.8 2325.88  10
  -7  -4   9 13414.4 1855.82   7
  -7  -4   8 77714.1 4523.11  10
  -7  -4   8 70926.3 4507.21   7
  -7  -4   7 58115.7 3879.35  10
  -7  -4   7 52708.2 4094.57   7
  -7  -4   6 46467.7 3457.46  10
  -7  -4   6 46258.6 3962.50   7
  -7  -4   5 72526.5 4201.35  10
  -7  -4   5 72761.5 5155.33   7
  -7  -4   4 7758.30 1772.10   7
  -7  -4   3 425.088 782.785   7
  -7  -4   2 11327.3 2413.80   7
  -7  -4   1 37353.7 4530.44   7
  -7  -4   0 7914.77 2239.04   7
  -7  -4  -1 19749.6 3288.80   7
  -7  -4  -2 426.786 851.158   7
  -7  -4  -3 18797.3 2770.46   7
  -7  -4  -4 1817.47 680.491   7
  -7  -4  -5 23357.4 1948.96   7
  -7  -5   9 19504.3 2203.69   7
  -7  -5   8 8410.82 1623.95   7
  -7  -5   7 23955.3 2836.94   7
  -7  -5   6 3472.73 1272.68   7
  -7  -5   5 2318.52 1389.37   7
  -7  -5   4 12967.6 2529.42   7
  -7  -5   3 21673.8 3287.42   7
  -7  -5   2 55085.9 5195.89   7
  -7  -5   1 672.901 1228.78   7
  -7  -5   0 12965.3 2426.29   7
  -7  -5  -1 18575.4 2869.92   7
  -7  -5  -2 54769.9 4454.58   7
  -7  -5  -3 6135.88 1335.22   7
  -7  -5  -4 93014.0 3886.18   7
  -7  -6   9 2774.22 962.749   7
  -7  -6   8 4759.99 1319.50   7
  -7  -6   7 6105.34 1478.24   7
  -7  -6   6 573.303 931.479   7
  -7  -6   5 28087.7 3266.83   7
  -7  -6   4 2484.96 1166.44   7
  -7  -6   3 43121.8 4305.28   7
  -7  -6   2-292.470 1121.15   7
  -7  -6   1 21929.9 3063.66   7
  -7  -6   0 35366.3 3710.81   7
  -7  -6  -1 17801.3 2389.12   7
  -7  -6  -2 40124.0 2949.00   7
  -7  -6  -3 93442.5 3527.57   7
  -7  -7   8 14975.0 1966.54   7
  -7  -7   7 9227.41 1666.79   7
  -7  -7   6 27245.1 2957.86   7
  -7  -7   5-715.106 962.842   7
  -7  -7   5 1354.13 558.486  15
  -7  -7   4 28031.7 2999.39   7
  -7  -7   3-873.505 1062.74   7
  -7  -7   2 13218.6 1976.45   7
  -7  -7   1 13385.0 1885.65   7
  -7  -7   0 6902.17 1221.35   7
  -7  -7  -1 16710.4 1539.40   7
  -7  -8   4 2964.76 822.439   7
  -8   7   2 45320.1 2421.08   9
  -8   7   1 43406.0 2489.69   9
  -8   6   4 2196.74 612.522   9
  -8   6   3 26400.5 2287.26   9
  -8   6   2 4390.70 1081.52   9
  -8   6   1 28104.0 2562.67   9
  -8   6   0 16503.7 1902.80   9
  -8   6   0 21815.0 2343.36  18
  -8   6  -1 2643.05 730.307   9
  -8   6  -1 1695.05 606.541  18
  -8   5   5 2339.63 627.542   9
  -8   5   4 1751.78 784.019   9
  -8   5   3 2021.10 940.215   9
  -8   5   2 12671.0 2006.10   9
  -8   5   1 505.099 499.548   9
  -8   5   1 973.318 746.935  18
  -8   5   0 7091.42 1406.42   9
  -8   5   0 4320.80 1249.01  18
  -8   5  -1 1914.46 782.584   9
  -8   5  -1 798.073 635.968  18
  -8   5  -2 808.263 614.014   9
  -8   5  -2-117.538 856.166  18
  -8   4   6 18357.6 1704.21  10
  -8   4   5 2274.96 777.433   9
  -8   4   4 31099.0 3086.05   9
  -8   4   3 11877.3 2017.77   9
  -8   4   2 24865.6 2968.21   9
  -8   4   1 1090.36 638.578   9
  -8   4   0 27911.8 2902.46   9
  -8   4   0 19775.0 3118.64  18
  -8   4  -1 3913.85 1074.44   9
  -8   4  -1 2341.23 1125.91  18
  -8   4  -2 2372.69 793.818   9
   8  -4   2 3534.37 1566.63  16
  -8   4  -3 1098.60 572.808   9
   8  -4   3-788.349 560.045  16
  -8   3   8 80.2721 365.800  10
  -8   3   7 54767.0 3219.19  10
  -8   3   6 25486.2 2300.48  10
  -8   3   5 700.840 653.981   9
  -8   3   4 10080.7 1867.55   9
  -8   3   3 116443. 6453.41   9
  -8   3   2 888.026 769.223   9
  -8   3   1 54988.8 4331.41   9
  -8   3   0 5118.20 1307.95   9
  -8   3  -1 5865.57 1361.93   9
  -8   3  -2 1063.17 712.004   9
  -8   3  -3-13.4622 413.478   9
   8  -3   3-285.901 1217.19  16
   8  -3   4 3240.81 1138.79  16
  -8   2   8 55300.4 3225.93  10
  -8   2   7 16473.0 1982.95  10
  -8   2   6 1245.95 853.572  10
  -8   2   5 34491.1 3180.85   9
  -8   2   4 55373.0 4459.81   9
  -8   2   3 15488.6 2503.05   9
  -8   2   2 60506.7 4651.19   9
  -8   2   1 3798.23 1285.20   9
  -8   2   0 889.345 745.251   9
  -8   2  -1 13135.1 1990.16   9
  -8   2  -2 2113.77 907.407   9
  -8   2  -3 2102.94 721.295   9
   8  -2   4 848.404 643.024  16
   8  -2   5 3567.02 952.394  16
  -8   1   9 20552.9 1813.23  10
  -8   1   8 2199.03 647.081  10
  -8   1   7 3797.08 1072.43  10
  -8   1   6 32775.4 2884.51  10
  -8   1   5 30087.3 2525.42  10
  -8   1   5 23617.5 2732.08   9
  -8   1   4 22425.7 2833.11   9
  -8   1   3 42110.4 3939.53   9
  -8   1   2 178.742 652.940   9
  -8   1   1 286.192 630.725   9
  -8   1   0 7029.96 1584.54   9
  -8   1  -1 50022.2 3818.96   9
  -8   1  -2 2221.44 933.032   9
  -8   1  -3 4678.95 1000.38   9
   8  -1   4 8809.06 1613.53  16
   8  -1   5 18971.0 1953.85  16
  -8   0   9 8438.49 1281.10  10
  -8   0   8 411.945 813.670  10
  -8   0   7 8619.71 1585.92  10
  -8   0   6 9663.54 1566.13  10
  -8   0   5 13187.7 1691.70  10
  -8   0   5 7262.88 1416.50   9
  -8   0   4 208.073 570.233   9
  -8   0   3 920.635 871.018   9
  -8   0   2 8060.75 1785.76   9
  -8   0   1 1197.44 807.854   9
  -8   0   0 36000.5 3408.65   9
  -8   0  -1 3283.27 1091.94   9
  -8   0  -2 8288.13 1591.40   9
  -8   0  -3 16273.9 1920.48   9
   8   0   4 7681.58 1402.36  16
  -8  -1   9 22744.5 2040.56  10
  -8  -1   8 11952.9 1630.17  10
  -8  -1   7-248.668 627.822  10
  -8  -1   6 432.579 564.228  10
  -8  -1   5 1234.22 588.927  10
  -8  -1   4 3101.51 1326.56   9
  -8  -1   3 57876.4 4476.60   9
  -8  -1   2 1627.95 1025.85   9
  -8  -1   1 52276.6 4198.96   9
  -8  -1   0 568.901 761.794   9
  -8  -1  -1 22699.2 2595.18   9
  -8  -1  -2 21814.6 2444.41   9
   8   1   3 710.629 562.330  16
   8   1   4 25719.6 2178.91  16
  -8  -2   9 17355.2 1702.39  10
  -8  -2   8 690.160 604.930  10
  -8  -2   7 4780.13 1095.17  10
  -8  -2   6 9201.22 1436.77  10
  -8  -2   6 9798.64 1396.79   7
  -8  -2   5 6073.20 1237.59   7
  -8  -2   4 22801.0 2934.40   9
  -8  -2   4 21548.0 2208.12   7
  -8  -2   3 1893.46 717.428   9
  -8  -2   3 2249.24 905.696   7
  -8  -2   2 19361.0 2602.06   9
  -8  -2   2 16877.9 2116.61   7
  -8  -2   1 4654.52 1365.63   9
  -8  -2   1 5203.00 1223.47   7
  -8  -2   0 13330.0 2111.00   9
  -8  -2   0 14276.9 2055.83   7
  -8  -2  -1 19693.5 2428.89   7
  -8  -2  -2 1685.19 552.054   7
  -8  -2  -3 9727.25 1351.01   7
   8   2   3 12398.3 1524.13  16
  -8  -3   8 10701.5 1295.85   7
  -8  -3   7 32888.8 2471.96   7
  -8  -3   6 685.718 590.068   7
  -8  -3   5 22436.9 2350.72   7
  -8  -3   4 4356.36 1131.69   7
  -8  -3   3 6076.22 1352.64   7
  -8  -3   2 3262.80 1055.31   7
  -8  -3   1 1231.85 781.400   7
  -8  -3   0 11722.4 2015.40   7
  -8  -3  -1 12752.7 1979.10   7
  -8  -3  -2 9886.90 1600.04   7
  -8  -4   7 307.926 417.433   7
  -8  -4   6 19498.6 2115.29   7
  -8  -4   5 175.296 532.596   7
  -8  -4   4 2172.71 849.793   7
  -8  -4   3 6512.36 1503.35   7
  -8  -4   2 16448.4 2402.04   7
  -8  -4   1 9709.74 1718.53   7
  -8  -4   0 661.599 822.168   7
  -8  -4  -1 2108.95 899.278   7
  -8  -4  -2 2847.45 884.762   7
  -8  -5   7 24891.7 2146.01   7
  -8  -5   6 12154.6 1654.48   7
  -8  -5   5 20157.2 2252.81   7
  -8  -5   4 662.012 619.162   7
  -8  -5   3 49383.2 3714.78   7
  -8  -5   2 11759.1 1848.49   7
  -8  -5   1 6773.62 1345.48   7
  -8  -5   0 13412.5 1731.18   7
  -8  -6   5 3882.67 935.028   7
  -8  -6   4 91793.6 4378.57   7
  -8  -6   3 747.230 483.292   7
  -8  -6   2 48095.5 3000.60   7
  -9   3   3 695.360 394.124   9
  -9   3   2 12737.6 1578.08   9
  -9   3   1 4109.80 929.950   9
  -9   3   0 44143.7 2749.87   9
  -9   2   3 10166.0 1511.93   9
  -9   2   2 186.551 408.033   9
  -9   2   1 26584.2 2451.03   9
  -9   2   0 5944.10 1104.23   9
  -9   2  -1 9623.68 1240.04   9
  -9   1   4 31634.2 2508.89   9
  -9   1   3 2654.15 831.005   9
  -9   1   2 5497.67 1196.62   9
  -9   1   1 436.948 474.976   9
  -9   1   0 19501.1 2019.01   9
  -9   1  -1 15987.8 1631.27   9
  -9   0   4 9405.07 1361.32   9
  -9   0   3 302.182 461.618   9
  -9   0   2 4130.07 1030.98   9
  -9   0   1 33627.2 2827.84   9
  -9   0   0 16601.2 1852.42   9
   0   0   0    0.00    0.00   0
TITL CF2-207 in P-1
REM P-1 (#2 in standard setting)
CELL 1.54184   7.502343  10.290582  11.646076  99.6715 100.4935  91.9921
ZERR    2.00   0.000445   0.000671   0.000587   0.0049   0.0046   0.0050
LATT  1
SFAC C H O S Fe Se
UNIT 32.00 12.00 12.00 2.00 4.00 2.00
TREF
HKLF 4
END
;
_shelx_hkl_checksum              88141
#END Tags that were not found in dictionaries
loop_
_space_group_symop_operation_xyz
'x, y, z'
'-x, -y, -z'
loop_
_atom_site_label
_atom_site_type_symbol
_atom_site_fract_x
_atom_site_fract_y
_atom_site_fract_z
_atom_site_U_iso_or_equiv
_atom_site_adp_type
_atom_site_occupancy
_atom_site_site_symmetry_order
_atom_site_calc_flag
_atom_site_refinement_flags_posn
_atom_site_refinement_flags_adp
_atom_site_refinement_flags_occupancy
_atom_site_disorder_assembly
_atom_site_disorder_group
C1 C 0.1586(6) 0.7635(5) 0.4361(4) 0.0213(10) Uani 1 1 d . . . . .
C2 C 0.1236(7) 0.8269(5) 0.5439(4) 0.0251(11) Uani 1 1 d . . . . .
H2 H 0.0883 0.9152 0.5508 0.030 Uiso 1 1 calc R U . . .
C3 C 0.1390(7) 0.7641(5) 0.6431(5) 0.0277(11) Uani 1 1 d . . . . .
H3 H 0.1144 0.8095 0.7160 0.033 Uiso 1 1 calc R U . . .
C4 C 0.1898(7) 0.6371(5) 0.6338(5) 0.0264(11) Uani 1 1 d . . . . .
H4 H 0.2014 0.5949 0.7011 0.032 Uiso 1 1 calc R U . . .
C5 C 0.2780(7) 0.4354(5) 0.5180(5) 0.0252(11) Uani 1 1 d . . . . .
H5 H 0.2846 0.3928 0.5849 0.030 Uiso 1 1 calc R U . . .
C6 C 0.3192(7) 0.3686(5) 0.4159(5) 0.0269(11) Uani 1 1 d . . . . .
H6 H 0.3536 0.2802 0.4117 0.032 Uiso 1 1 calc R U . . .
C7 C 0.3107(6) 0.4311(5) 0.3168(4) 0.0211(10) Uani 1 1 d . . . . .
H7 H 0.3433 0.3848 0.2467 0.025 Uiso 1 1 calc R U . . .
C8 C 0.2556(6) 0.5588(5) 0.3188(4) 0.0180(9) Uani 1 1 d . . . . .
C9 C 0.2128(6) 0.6313(5) 0.4239(4) 0.0174(9) Uani 1 1 d . . . . .
C10 C 0.2252(6) 0.5677(5) 0.5265(4) 0.0212(10) Uani 1 1 d . . . . .
C11 C 0.5478(7) 0.8566(5) 0.3177(4) 0.0229(10) Uani 1 1 d . . . . .
C12 C 0.4300(7) 0.8084(5) 0.0725(4) 0.0243(10) Uani 1 1 d . . . . .
C13 C 0.3222(7) 1.0150(5) 0.1955(4) 0.0262(11) Uani 1 1 d . . . . .
C14 C 0.0255(6) 0.7045(5) -0.0182(4) 0.0216(10) Uani 1 1 d . . . . .
C15 C -0.0972(7) 0.8982(5) 0.1084(4) 0.0226(10) Uani 1 1 d . . . . .
C16 C -0.1732(7) 0.6459(5) 0.1484(4) 0.0235(11) Uani 1 1 d . . . . .
O1 O 0.6743(5) 0.8628(4) 0.3903(4) 0.0352(9) Uani 1 1 d . . . . .
O2 O 0.4817(5) 0.7872(4) -0.0152(3) 0.0369(9) Uani 1 1 d . . . . .
O3 O 0.3031(6) 1.1225(4) 0.1874(4) 0.0392(10) Uani 1 1 d . . . . .
O4 O 0.0349(5) 0.6757(4) -0.1160(3) 0.0288(8) Uani 1 1 d . . . . .
O5 O -0.1690(5) 0.9917(4) 0.0907(3) 0.0312(9) Uani 1 1 d . . . . .
O6 O -0.2897(5) 0.5769(4) 0.1567(4) 0.0328(9) Uani 1 1 d . . . . .
Fe1 Fe 0.34304(10) 0.84331(7) 0.20749(6) 0.01818(19) Uani 1 1 d . . . . .
Fe2 Fe 0.01672(10) 0.75333(7) 0.13588(6) 0.01679(19) Uani 1 1 d . . . . .
S1 S 0.1233(6) 0.8587(5) 0.3190(4) 0.0147(8) Uani 0.698(3) 1 d . . P A 1
Se1 Se 0.2569(4) 0.6135(3) 0.1723(2) 0.0159(4) Uani 0.698(3) 1 d . . P A 1
S1' S 0.255(2) 0.6318(15) 0.1866(13) 0.016(3) Uiso 0.302(3) 1 d . . P A 2
Se1' Se 0.1297(7) 0.8815(5) 0.3299(5) 0.0174(13) Uiso 0.302(3) 1 d . . P A 2
loop_
_atom_site_aniso_label
_atom_site_aniso_U_11
_atom_site_aniso_U_22
_atom_site_aniso_U_33
_atom_site_aniso_U_23
_atom_site_aniso_U_13
_atom_site_aniso_U_12
C1 0.019(2) 0.023(2) 0.024(2) 0.011(2) 0.0039(19) 0.0016(19)
C2 0.025(3) 0.023(3) 0.026(3) 0.006(2) 0.000(2) 0.003(2)
C3 0.034(3) 0.031(3) 0.020(2) 0.004(2) 0.011(2) 0.003(2)
C4 0.029(3) 0.032(3) 0.020(2) 0.012(2) 0.003(2) 0.003(2)
C5 0.027(3) 0.025(3) 0.024(3) 0.011(2) 0.000(2) 0.005(2)
C6 0.028(3) 0.021(3) 0.031(3) 0.008(2) 0.003(2) 0.004(2)
C7 0.020(2) 0.025(2) 0.019(2) 0.0050(19) 0.0036(18) 0.0054(19)
C8 0.017(2) 0.020(2) 0.020(2) 0.0102(18) 0.0059(18) 0.0011(17)
C9 0.015(2) 0.021(2) 0.018(2) 0.0073(18) 0.0027(17) 0.0014(18)
C10 0.020(2) 0.021(2) 0.025(3) 0.0094(19) 0.0039(19) 0.0022(19)
C11 0.028(3) 0.019(2) 0.025(3) 0.0097(19) 0.006(2) 0.0002(19)
C12 0.024(3) 0.029(3) 0.021(3) 0.008(2) 0.005(2) -0.001(2)
C13 0.033(3) 0.030(3) 0.021(2) 0.015(2) 0.011(2) 0.002(2)
C14 0.019(2) 0.028(3) 0.021(3) 0.014(2) 0.0009(18) 0.0021(19)
C15 0.023(2) 0.029(3) 0.015(2) 0.0063(19) 0.0011(19) 0.000(2)
C16 0.026(3) 0.027(3) 0.019(2) 0.0098(19) 0.0037(19) 0.011(2)
O1 0.032(2) 0.034(2) 0.037(2) 0.0146(17) -0.0058(18) -0.0025(17)
O2 0.031(2) 0.053(3) 0.031(2) 0.0110(18) 0.0137(17) 0.0015(19)
O3 0.066(3) 0.024(2) 0.031(2) 0.0107(16) 0.013(2) 0.0072(19)
O4 0.033(2) 0.038(2) 0.0163(18) 0.0065(15) 0.0054(14) 0.0009(16)
O5 0.040(2) 0.025(2) 0.0262(19) 0.0077(15) -0.0018(16) 0.0086(17)
O6 0.0239(19) 0.039(2) 0.043(2) 0.0219(18) 0.0112(16) 0.0009(17)
Fe1 0.0196(4) 0.0197(4) 0.0172(4) 0.0080(3) 0.0044(3) 0.0014(3)
Fe2 0.0184(4) 0.0197(4) 0.0144(4) 0.0083(3) 0.0033(3) 0.0040(3)
S1 0.0240(15) 0.0128(16) 0.0089(12) 0.0057(11) 0.0035(8) 0.0017(12)
Se1 0.0190(6) 0.0169(9) 0.0138(8) 0.0063(6) 0.0043(5) 0.0034(6)
loop_
_atom_type_symbol
_atom_type_description
_atom_type_scat_dispersion_real
_atom_type_scat_dispersion_imag
_atom_type_scat_source
C C 0.0181 0.0091 'International Tables Vol C Tables 4.2.6.8 and 6.1.1.4'
H H 0.0000 0.0000 'International Tables Vol C Tables 4.2.6.8 and 6.1.1.4'
O O 0.0492 0.0322 'International Tables Vol C Tables 4.2.6.8 and 6.1.1.4'
S S 0.3331 0.5567 'International Tables Vol C Tables 4.2.6.8 and 6.1.1.4'
Fe Fe -1.1336 3.1974 'International Tables Vol C Tables 4.2.6.8 and 6.1.1.4'
Se Se -0.7943 1.1372 'International Tables Vol C Tables 4.2.6.8 and 6.1.1.4'
loop_
_geom_angle_atom_site_label_1
_geom_angle_atom_site_label_2
_geom_angle_atom_site_label_3
_geom_angle
C2 C1 C9 120.1(4)
C2 C1 S1 114.9(4)
C9 C1 S1 125.0(4)
C2 C1 Se1' 108.4(4)
C9 C1 Se1' 131.5(4)
C1 C2 C3 121.8(5)
C1 C2 H2 119.1
C3 C2 H2 119.1
C4 C3 C2 119.4(5)
C4 C3 H3 120.3
C2 C3 H3 120.3
C3 C4 C10 121.2(5)
C3 C4 H4 119.4
C10 C4 H4 119.4
C6 C5 C10 121.3(5)
C6 C5 H5 119.4
C10 C5 H5 119.4
C5 C6 C7 119.8(5)
C5 C6 H6 120.1
C7 C6 H6 120.1
C8 C7 C6 121.5(4)
C8 C7 H7 119.2
C6 C7 H7 119.2
C7 C8 C9 120.1(4)
C7 C8 S1' 117.9(5)
C9 C8 S1' 121.9(5)
C7 C8 Se1 111.2(4)
C9 C8 Se1 128.6(4)
C8 C9 C1 124.6(4)
C8 C9 C10 118.2(4)
C1 C9 C10 117.3(4)
C4 C10 C5 120.6(5)
C4 C10 C9 120.2(4)
C5 C10 C9 119.1(5)
O1 C11 Fe1 177.5(5)
O2 C12 Fe1 178.3(5)
O3 C13 Fe1 177.8(5)
O4 C14 Fe2 178.2(5)
O5 C15 Fe2 179.4(5)
O6 C16 Fe2 178.7(4)
C12 Fe1 C11 101.6(2)
C12 Fe1 C13 92.3(2)
C11 Fe1 C13 100.2(2)
C12 Fe1 S1' 89.6(4)
C11 Fe1 S1' 101.6(5)
C13 Fe1 S1' 157.2(5)
C12 Fe1 S1 155.2(2)
C11 Fe1 S1 102.5(2)
C13 Fe1 S1 89.0(2)
C12 Fe1 Se1' 158.4(2)
C11 Fe1 Se1' 100.0(2)
C13 Fe1 Se1' 84.1(2)
S1' Fe1 Se1' 85.9(4)
C12 Fe1 Se1 85.56(18)
C11 Fe1 Se1 102.52(17)
C13 Fe1 Se1 157.16(19)
S1 Fe1 Se1 83.80(14)
C12 Fe1 Fe2 100.93(17)
C11 Fe1 Fe2 148.43(16)
C13 Fe1 Fe2 100.76(18)
S1' Fe1 Fe2 56.7(4)
S1 Fe1 Fe2 54.66(13)
Se1' Fe1 Fe2 59.21(13)
Se1 Fe1 Fe2 57.63(7)
C15 Fe2 C14 91.8(2)
C15 Fe2 C16 100.5(2)
C14 Fe2 C16 100.8(2)
C15 Fe2 S1 87.9(2)
C14 Fe2 S1 153.8(2)
C16 Fe2 S1 105.0(2)
C15 Fe2 S1' 156.9(4)
C14 Fe2 S1' 90.4(4)
C16 Fe2 S1' 101.7(5)
C15 Fe2 Se1 159.51(18)
C14 Fe2 Se1 85.94(16)
C16 Fe2 Se1 99.93(16)
S1 Fe2 Se1 85.26(13)
C15 Fe2 Se1' 84.4(2)
C14 Fe2 Se1' 152.0(2)
C16 Fe2 Se1' 107.2(2)
S1' Fe2 Se1' 82.9(4)
C15 Fe2 Fe1 102.32(16)
C14 Fe2 Fe1 97.87(16)
C16 Fe2 Fe1 149.88(15)
S1 Fe2 Fe1 56.79(12)
S1' Fe2 Fe1 54.6(4)
Se1 Fe2 Fe1 57.99(7)
Se1' Fe2 Fe1 56.35(13)
C1 S1 Fe2 118.1(3)
C1 S1 Fe1 113.8(3)
Fe2 S1 Fe1 68.55(13)
C8 Se1 Fe2 108.88(17)
C8 Se1 Fe1 109.09(19)
Fe2 Se1 Fe1 64.38(7)
C8 S1' Fe1 119.1(7)
C8 S1' Fe2 115.7(7)
Fe1 S1' Fe2 68.7(5)
C1 Se1' Fe1 108.5(3)
C1 Se1' Fe2 106.9(3)
Fe1 Se1' Fe2 64.45(13)
loop_
_geom_bond_atom_site_label_1
_geom_bond_atom_site_label_2
_geom_bond_distance
C1 C2 1.388(7)
C1 C9 1.425(6)
C1 S1 1.796(6)
C1 Se1' 1.864(7)
C2 C3 1.405(7)
C2 H2 0.9500
C3 C4 1.366(7)
C3 H3 0.9500
C4 C10 1.407(7)
C4 H4 0.9500
C5 C6 1.362(7)
C5 C10 1.424(7)
C5 H5 0.9500
C6 C7 1.405(7)
C6 H6 0.9500
C7 C8 1.389(7)
C7 H7 0.9500
C8 C9 1.418(6)
C8 S1' 1.824(18)
C8 Se1 1.886(5)
C9 C10 1.446(6)
C11 O1 1.142(6)
C11 Fe1 1.799(5)
C12 O2 1.147(6)
C12 Fe1 1.796(5)
C13 O3 1.138(6)
C13 Fe1 1.805(5)
C14 O4 1.143(6)
C14 Fe2 1.795(5)
C15 O5 1.149(6)
C15 Fe2 1.790(5)
C16 O6 1.135(6)
C16 Fe2 1.814(6)
Fe1 S1' 2.212(16)
Fe1 S1 2.271(5)
Fe1 Se1' 2.332(5)
Fe1 Se1 2.377(3)
Fe1 Fe2 2.5270(10)
Fe2 S1 2.215(5)
Fe2 S1' 2.267(16)
Fe2 Se1 2.367(3)
Fe2 Se1' 2.406(5)
loop_
_geom_torsion_atom_site_label_1
_geom_torsion_atom_site_label_2
_geom_torsion_atom_site_label_3
_geom_torsion_atom_site_label_4
_geom_torsion
C9 C1 C2 C3 -0.4(8)
S1 C1 C2 C3 177.9(4)
Se1' C1 C2 C3 -178.3(4)
C1 C2 C3 C4 0.0(8)
C2 C3 C4 C10 -0.6(8)
C10 C5 C6 C7 0.3(8)
C5 C6 C7 C8 -2.0(8)
C6 C7 C8 C9 2.4(8)
C6 C7 C8 S1' 178.3(7)
C6 C7 C8 Se1 -179.5(4)
C7 C8 C9 C1 178.7(5)
S1' C8 C9 C1 2.9(9)
Se1 C8 C9 C1 1.0(7)
C7 C8 C9 C10 -1.1(7)
S1' C8 C9 C10 -176.9(7)
Se1 C8 C9 C10 -178.8(4)
C2 C1 C9 C8 -178.5(5)
S1 C1 C9 C8 3.4(8)
Se1' C1 C9 C8 -1.1(8)
C2 C1 C9 C10 1.3(7)
S1 C1 C9 C10 -176.8(4)
Se1' C1 C9 C10 178.7(4)
C3 C4 C10 C5 180.0(5)
C3 C4 C10 C9 1.6(8)
C6 C5 C10 C4 -177.5(5)
C6 C5 C10 C9 0.9(8)
C8 C9 C10 C4 177.9(5)
C1 C9 C10 C4 -1.9(7)
C8 C9 C10 C5 -0.5(7)
C1 C9 C10 C5 179.7(5)
C2 C1 S1 Fe2 -145.0(4)
C9 C1 S1 Fe2 33.2(6)
Se1' C1 S1 Fe2 -174(3)
C2 C1 S1 Fe1 137.6(4)
C9 C1 S1 Fe1 -44.3(6)
Se1' C1 S1 Fe1 108(3)
C7 C8 Se1 Fe2 146.1(3)
C9 C8 Se1 Fe2 -36.0(5)
S1' C8 Se1 Fe2 -50(5)
C7 C8 Se1 Fe1 -145.3(3)
C9 C8 Se1 Fe1 32.5(5)
S1' C8 Se1 Fe1 19(5)
C7 C8 S1' Fe1 -141.2(6)
C9 C8 S1' Fe1 34.7(11)
Se1 C8 S1' Fe1 -158(6)
C7 C8 S1' Fe2 139.9(6)
C9 C8 S1' Fe2 -44.2(10)
Se1 C8 S1' Fe2 123(5)
C2 C1 Se1' Fe1 144.7(3)
C9 C1 Se1' Fe1 -32.9(6)
S1 C1 Se1' Fe1 -63(2)
C2 C1 Se1' Fe2 -147.2(4)
C9 C1 Se1' Fe2 35.2(6)
S1 C1 Se1' Fe2 5(2)
