#------------------------------------------------------------------------------
#$Date: 2016-03-21 15:00:18 +0200 (Mon, 21 Mar 2016) $
#$Revision: 178733 $
#$URL: svn://www.crystallography.net/cod/cif/4/08/44/4084408.cif $
#------------------------------------------------------------------------------
#
# This file is available in the Crystallography Open Database (COD),
# http://www.crystallography.net/
#
# All data on this site have been placed in the public domain by the
# contributors.
#
data_4084408
loop_
_publ_author_name
'Wang, Lili'
'Ganguly, Rakesh'
'Mathey, Fran\,cois'
_publ_section_title
;
 Revisiting the Chemistry of Phosphinidene Sulfides
;
_journal_issue                   19
_journal_name_full               Organometallics
_journal_page_first              5614
_journal_paper_doi               10.1021/om500828n
_journal_volume                  33
_journal_year                    2014
_chemical_formula_sum            'C17 H15 O5 P S W'
_chemical_formula_weight         546.17
_space_group_crystal_system      triclinic
_space_group_IT_number           2
_space_group_name_Hall           '-P 1'
_space_group_name_H-M_alt        'P -1'
_symmetry_space_group_name_Hall  '-P 1'
_symmetry_space_group_name_H-M   'P -1'
_atom_sites_solution_hydrogens   geom
_cell_angle_alpha                71.1062(14)
_cell_angle_beta                 76.9129(15)
_cell_angle_gamma                86.0001(14)
_cell_formula_units_Z            2
_cell_length_a                   8.2214(3)
_cell_length_b                   11.0575(4)
_cell_length_c                   11.3306(4)
_cell_measurement_reflns_used    9896
_cell_measurement_temperature    103.(2)
_cell_measurement_theta_max      31.0465
_cell_measurement_theta_min      2.5435
_cell_volume                     949.23(6)
_computing_cell_refinement       'SAINT V8.34A (Bruker AXS Inc., 2013)'
_computing_data_collection       'APEX2 (Bruker AXS Inc., 2013)'
_computing_data_reduction        'SAINT V8.34A (Bruker AXS Inc., 2013)'
_computing_molecular_graphics    'XP (Bruker AXS Inc., 2013)'
_computing_publication_material  'APEX2 (Bruker AXS Inc., 2013)'
_computing_structure_refinement  'SHELXL-2013 (Sheldrick, 2013)'
_diffrn_ambient_temperature      103.(2)
_diffrn_detector_area_resol_mean 8.3333
_diffrn_measured_fraction_theta_full 0.992
_diffrn_measured_fraction_theta_max 0.992
_diffrn_measurement_device_type  'CCD area detector'
_diffrn_measurement_method       'phi and omega scans'
_diffrn_radiation_monochromator  graphite
_diffrn_radiation_type           MoK\a
_diffrn_radiation_wavelength     0.71073
_diffrn_reflns_av_R_equivalents  0.0472
_diffrn_reflns_av_unetI/netI     0.0374
_diffrn_reflns_limit_h_max       11
_diffrn_reflns_limit_h_min       -11
_diffrn_reflns_limit_k_max       16
_diffrn_reflns_limit_k_min       -16
_diffrn_reflns_limit_l_max       16
_diffrn_reflns_limit_l_min       -16
_diffrn_reflns_number            29982
_diffrn_reflns_theta_full        31.17
_diffrn_reflns_theta_max         31.17
_diffrn_reflns_theta_min         2.54
_diffrn_source                   'fine-focus sealed tube'
_exptl_absorpt_coefficient_mu    6.302
_exptl_absorpt_correction_T_max  0.79
_exptl_absorpt_correction_T_min  0.43
_exptl_absorpt_correction_type   multi-scan
_exptl_absorpt_process_details   'SADABS V2012/1 (Bruker AXS Inc.)'
_exptl_crystal_colour            yellow
_exptl_crystal_density_diffrn    1.911
_exptl_crystal_density_method    'not measured'
_exptl_crystal_description       plate
_exptl_crystal_F_000             524
_exptl_crystal_size_max          0.400
_exptl_crystal_size_mid          0.300
_exptl_crystal_size_min          0.040
_refine_diff_density_max         2.358
_refine_diff_density_min         -1.461
_refine_ls_extinction_method     none
_refine_ls_goodness_of_fit_ref   1.068
_refine_ls_hydrogen_treatment    constr
_refine_ls_matrix_type           full
_refine_ls_number_parameters     228
_refine_ls_number_reflns         6089
_refine_ls_number_restraints     0
_refine_ls_restrained_S_all      1.068
_refine_ls_R_factor_all          0.0254
_refine_ls_R_factor_gt           0.0226
_refine_ls_shift/su_max          0.001
_refine_ls_shift/su_mean         0.000
_refine_ls_structure_factor_coef Fsqd
_refine_ls_weighting_details
'w=1/[\s^2^(Fo^2^)+(0.0286P)^2^+0.1127P] where P=(Fo^2^+2Fc^2^)/3'
_refine_ls_weighting_scheme      calc
_refine_ls_wR_factor_gt          0.0557
_refine_ls_wR_factor_ref         0.0571
_reflns_number_gt                5674
_reflns_number_total             6089
_reflns_threshold_expression     'I > 2\s(I)'
_cod_data_source_file            om500828n_si_001.cif
_cod_data_source_block           I_mat187
_cod_depositor_comments
'Adding full bibliography for 4084407--4084409.cif.'
_cod_database_code               4084408
#BEGIN Tags that were not found in dictionaries:
_shelx_res_file
;
TITL mat187 in P-1
CELL 0.71073   8.22140  11.05750  11.33060  71.1062  76.9129  86.0001
ZERR    2.00   0.00030   0.00040   0.00040   0.0014   0.0015   0.0014
LATT 1
SFAC C  H  O  P  S  W
UNIT 34  30  10  2  2  2
L.S. 4
ACTA
BOND $H
FMAP 2
PLAN 5
omit 0 0 1
omit 0 1 1
omit 0 1 0
size 0.04 0.30 0.40
temp -170
WGHT    0.028600    0.112700
FVAR       0.13362
W1    6    0.834130    0.396946    0.313176    11.00000    0.01121    0.00904 =
         0.01127   -0.00424   -0.00336    0.00052
C1    1    1.084573    0.359418    0.267613    11.00000    0.01780    0.01160 =
         0.01941   -0.00461   -0.00571   -0.00037
C2    1    0.846097    0.527895    0.134765    11.00000    0.01474    0.01666 =
         0.01243   -0.00757    0.00110   -0.00156
C3    1    0.884759    0.535575    0.378746    11.00000    0.01491    0.01515 =
         0.01676   -0.00401   -0.00598    0.00320
C4    1    0.585527    0.431854    0.364128    11.00000    0.01930    0.01653 =
         0.01462   -0.00719   -0.00593    0.00202
C5    1    0.824572    0.262784    0.487836    11.00000    0.01457    0.01516 =
         0.01309   -0.00774   -0.00101   -0.00040
C6    1    0.565304    0.134801    0.329152    11.00000    0.00956    0.01310 =
         0.01672   -0.00420    0.00077   -0.00054
AFIX  23
H6A   2    0.560473    0.100149    0.422135    11.00000   -1.20000
H6B   2    0.474274    0.197835    0.315302    11.00000   -1.20000
AFIX   0
C7    1    0.540898    0.027387    0.279319    11.00000    0.01067    0.01367 =
         0.02205   -0.00369   -0.00247   -0.00223
C8    1    0.406966    0.048055    0.204852    11.00000    0.01487    0.01902 =
         0.03800   -0.00808   -0.01087   -0.00141
AFIX 137
H8A   2    0.434488    0.123329    0.128769    11.00000   -1.50000
H8B   2    0.299994    0.061601    0.258163    11.00000   -1.50000
H8C   2    0.398667   -0.027225    0.178835    11.00000   -1.50000
AFIX   0
C9    1    0.778728   -0.074831    0.371732    11.00000    0.01483    0.01190 =
         0.02652   -0.00201   -0.00736   -0.00008
AFIX  23
H9A   2    0.840505   -0.156409    0.381974    11.00000   -1.20000
H9B   2    0.723361   -0.072294    0.458109    11.00000   -1.20000
AFIX   0
C10   1    0.646815   -0.072614    0.297985    11.00000    0.01343    0.01244 =
         0.02987   -0.00566   -0.00585   -0.00319
C11   1    0.648949   -0.182293    0.246907    11.00000    0.02611    0.01752 =
         0.06372   -0.02078   -0.02150    0.00425
AFIX 137
H11A  2    0.566788   -0.167224    0.193121    11.00000   -1.50000
H11B  2    0.620991   -0.261610    0.318257    11.00000   -1.50000
H11C  2    0.760463   -0.189651    0.195994    11.00000   -1.50000
AFIX   0
C12   1    0.761858    0.244478    0.079431    11.00000    0.01260    0.01276 =
         0.01448   -0.00616   -0.00137   -0.00233
C13   1    0.654109    0.340737    0.028193    11.00000    0.02420    0.01771 =
         0.01611   -0.00896   -0.00699    0.00611
AFIX  43
H13   2    0.591215    0.387987    0.079591    11.00000   -1.20000
AFIX   0
C14   1    0.638340    0.367776   -0.097138    11.00000    0.02715    0.01878 =
         0.01766   -0.00581   -0.00964    0.00269
AFIX  43
H14   2    0.563216    0.432137   -0.130727    11.00000   -1.20000
AFIX   0
C15   1    0.732355    0.300755   -0.173336    11.00000    0.02457    0.02639 =
         0.01804   -0.01038   -0.00602   -0.00433
AFIX  43
H15   2    0.723783    0.320663   -0.259793    11.00000   -1.20000
AFIX   0
C16   1    0.838708    0.204810   -0.123263    11.00000    0.02268    0.03211 =
         0.01890   -0.01744   -0.00174    0.00372
AFIX  43
H16   2    0.902143    0.158431   -0.175342    11.00000   -1.20000
AFIX   0
C17   1    0.853179    0.175958    0.002888    11.00000    0.01592    0.02028 =
         0.01981   -0.01193   -0.00336    0.00309
AFIX  43
H17   2    0.925474    0.109401    0.036910    11.00000   -1.20000
AFIX   0
O1    3    1.224111    0.337364    0.246282    11.00000    0.01484    0.02616 =
         0.03975   -0.01054   -0.00583    0.00162
O2    3    0.851410    0.602332    0.037279    11.00000    0.03116    0.02298 =
         0.01752    0.00050   -0.00526   -0.00263
O3    3    0.913487    0.613963    0.417262    11.00000    0.02636    0.01409 =
         0.02507   -0.00880   -0.01315    0.00173
O4    3    0.446631    0.452111    0.394039    11.00000    0.01595    0.03996 =
         0.02671   -0.01719   -0.00387    0.00664
O5    3    0.821412    0.185434    0.583793    11.00000    0.03326    0.01850 =
         0.01698   -0.00167   -0.00845   -0.00089
P1    4    0.769401    0.214818    0.246403    11.00000    0.00933    0.00944 =
         0.01280   -0.00464   -0.00190    0.00036
S1    5    0.930185    0.059554    0.295010    11.00000    0.01008    0.01156 =
         0.02251   -0.00558   -0.00476    0.00139
HKLF 4

REM  mat187 in P-1
REM R1 =  0.0226 for    5674 Fo > 4sig(Fo)  and  0.0254 for all    6089 data
REM    228 parameters refined using      0 restraints

END

WGHT      0.0285      0.1218

REM Highest difference peak  2.358,  deepest hole -1.461,  1-sigma level  0.166
Q1    1   0.7907  0.3712  0.3782  11.00000  0.05    2.36
Q2    1   0.8865  0.4273  0.2426  11.00000  0.05    2.35
Q3    1   0.9230  0.4502  0.2206  11.00000  0.05    1.43
Q4    1   0.9662  0.3785  0.2345  11.00000  0.05    1.31
Q5    1   0.9265  0.4013  0.3167  11.00000  0.05    1.16
;
_shelx_res_checksum              65781
_shelx_hkl_file
;
  -1   0   0   82.87    4.41
   1   0   0   91.91    5.59
   1   0   0   83.00    4.99
   1   0   0   88.23    3.85
  -2   0   0  197.62    8.95
  -2   0   0  216.62   13.02
  -2   0   0  199.25    8.46
  -2   0   0  199.09   11.63
  -2   0   0  200.66   10.27
  -2   0   0  197.93   11.63
   2   0   0  211.44   13.00
   2   0   0  199.13   11.88
   2   0   0  212.78    8.96
   2   0   0  204.04   10.28
   2   0   0  200.76   11.64
   2   0   0  191.14    8.46
   2   0   0  198.98   11.63
  -3   0   0  551.60   31.57
  -3   0   0  548.68   24.34
  -3   0   0  546.09   31.56
  -3   0   0  566.21   35.29
   3   0   0  561.03   31.56
   3   0   0  536.45   22.95
   3   0   0  562.45   27.89
   3   0   0  562.51   24.42
   3   0   0  533.49   32.19
  -4   0   0  120.93    7.81
  -4   0   0  114.93    6.92
  -4   0   0  113.81    5.25
   4   0   0  115.47    7.11
   4   0   0  120.40    5.28
   4   0   0  118.42    6.91
   4   0   0  120.14    6.18
   4   0   0  111.35    5.05
  -5   0   0   74.06    5.03
  -5   0   0   67.51    4.37
   5   0   0   70.85    4.37
   5   0   0   73.52    4.56
   5   0   0   67.23    3.21
   5   0   0   72.16    3.29
  -6   0   0   69.82    5.08
  -6   0   0   68.10    4.39
  -6   0   0   68.34    5.55
   6   0   0   70.40    4.58
   6   0   0   72.34    4.38
   6   0   0   67.77    3.23
  -7   0   0    8.90    1.57
  -7   0   0    7.91    1.03
  -7   0   0    7.38    1.39
   7   0   0    9.13    1.08
   7   0   0    8.07    1.17
   7   0   0    7.38    0.77
  -8   0   0   27.14    2.96
  -8   0   0   30.08    2.25
  -8   0   0   22.00    2.69
   8   0   0   25.62    1.65
   8   0   0   28.16    2.16
   8   0   0   28.25    2.38
  -9   0   0   51.90    4.87
  -9   0   0   49.16    3.64
   9   0   0   52.83    2.74
   9   0   0   49.84    3.84
 -10   0   0   39.72    3.11
 -10   0   0   39.48    4.30
 -10   0   0   31.17    3.79
  10   0   0   39.78    2.35
  10   0   0   42.51    3.36
 -11   0   0    4.49    2.00
 -11   0   0    5.40    1.20
  11   0   0    6.78    1.06
  11   0   0    3.74    1.33
  11  -1   0    4.95    0.97
  11  -1   0    4.72    1.36
 -11   1   0    2.66    1.81
 -11   1   0    4.83    1.20
  10  -1   0   37.84    2.24
  10  -1   0   34.47    3.07
 -10   1   0   34.16    2.91
 -10   1   0   33.74    3.90
   9  -1   0   23.44    1.61
   9  -1   0   22.95    2.26
  -9   1   0   18.61    2.73
  -9   1   0   28.38    3.09
  -9   1   0   23.46    2.13
   8  -1   0    9.20    1.40
   8  -1   0   10.98    1.31
   8  -1   0   11.78    1.09
  -8   1   0    7.27    1.63
  -8   1   0   12.93    2.00
  -8   1   0   10.55    1.33
   7  -1   0  149.32    6.67
   7  -1   0  153.77    9.08
   7  -1   0  149.46    9.36
  -7   1   0  150.13   11.40
  -7   1   0  149.77    9.11
   6  -1   0  128.46    5.79
   6  -1   0  129.66    7.89
   6  -1   0  135.29    8.16
   6  -1   0  135.92    6.04
  -6   1   0  134.69    9.92
  -6   1   0  115.46    9.00
  -6   1   0  138.67    7.95
   5  -1   0    3.05    0.39
   5  -1   0    1.76    0.35
   5  -1   0    2.05    0.47
   5  -1   0    3.11    0.64
  -5   1   0    2.54    0.70
  -5   1   0    2.33    0.50
  -5   1   0    2.11    0.75
   4  -1   0  328.68   18.99
   4  -1   0  349.92   14.67
   4  -1   0  328.11   19.40
   4  -1   0  324.63   13.84
  -4   1   0  318.17   21.34
  -4   1   0  336.92   19.02
  -4   1   0  318.71   23.51
   3  -1   0  345.27   20.50
   3  -1   0  317.40   18.72
   3  -1   0  319.07   13.36
   3  -1   0  315.92   18.35
   3  -1   0  335.98   14.18
  -3   1   0  292.31   20.57
  -3   1   0  311.62   22.69
  -3   1   0  317.46   18.36
  -3   1   0  318.50   18.36
   2  -1   0    9.03    0.73
   2  -1   0    9.00    0.71
   2  -1   0    9.27    0.53
   2  -1   0    9.99    0.56
   2  -1   0   10.50    0.83
   2  -1   0    9.19    0.89
  -2   1   0    8.94    0.70
  -2   1   0    9.89    0.55
  -2   1   0    8.69    0.89
  -2   1   0    8.56    0.71
  -2   1   0    9.95    0.54
   1  -1   0  696.03   28.78
   1  -1   0  646.13   27.05
   1  -1   0  674.83   45.92
   1  -1   0  718.86   37.21
   1  -1   0  642.40   41.60
   1  -1   0  613.27   37.95
   1  -1   0  666.60   25.11
  -1   1   0  570.32   41.45
  -1   1   0  632.57   37.88
  -1   1   0  554.31   36.98
  -1   1   0  681.00   26.86
  -1   1   0  589.22   25.06
  -1   1   0  708.17   37.24
  -1   1   0  674.57   46.01
  -1   1   0  659.16   28.68
   0  -1   0   -0.05    0.01
   0  -1   0   -0.03    0.02
   0  -1   0   -0.05    0.03
   0  -1   0    0.01    0.06
   0  -1   0    0.00    0.02
   0  -1   0   -0.01    0.02
   0   1   0   -0.03    0.02
   0   1   0   -0.02    0.02
   0   1   0   -0.02    0.02
   0   1   0   -0.05    0.05
  -1  -1   0   80.70    3.99
  -1  -1   0   79.54    4.62
  -1  -1   0   76.83    5.06
  -1  -1   0   79.83    4.69
   1   1   0   78.25    5.44
   1   1   0   80.81    3.06
   1   1   0   74.50    4.54
   1   1   0   68.90    3.98
   1   1   0   75.54    4.55
   1   1   0   83.38    5.07
  -2  -1   0  346.60   20.11
  -2  -1   0  348.98   20.08
  -2  -1   0  340.15   24.23
  -2  -1   0  358.25   15.43
  -2  -1   0  351.21   17.72
  -2  -1   0  363.26   22.44
   2   1   0  345.17   20.06
   2   1   0  366.52   13.59
   2   1   0  340.04   17.72
   2   1   0  306.36   20.12
   2   1   0  360.44   20.49
   2   1   0  356.08   14.59
   2   1   0  377.11   22.46
  -3  -1   0  138.51    9.10
  -3  -1   0  136.29    8.13
  -3  -1   0  141.48    6.17
  -3  -1   0  135.49    8.12
   3   1   0  142.48    7.20
   3   1   0  138.72    5.91
   3   1   0  142.25    5.44
   3   1   0  143.04    8.34
   3   1   0  135.11    8.10
  -4  -1   0    5.79    0.60
  -4  -1   0    5.10    0.35
  -4  -1   0    5.77    0.69
  -4  -1   0    5.94    0.83
   4   1   0    5.74    0.60
   4   1   0    5.19    0.73
   4   1   0    5.23    0.31
   4   1   0    5.87    0.51
   4   1   0    6.34    0.68
  -5  -1   0  100.02    6.33
  -5  -1   0  103.43    7.15
  -5  -1   0  107.33    4.74
   5   1   0  107.31    4.65
   5   1   0  104.22    6.56
   5   1   0  106.91    6.32
   5   1   0  106.38    4.14
   5   1   0  107.06    5.68
  -6  -1   0   91.44    5.77
  -6  -1   0   92.13    4.25
  -6  -1   0   94.10    6.56
   6   1   0   96.60    5.75
   6   1   0   92.85    5.98
   6   1   0   90.75    4.22
   6   1   0  100.26    5.24
  -7  -1   0    1.90    0.80
  -7  -1   0    1.51    0.53
   7   1   0    2.26    0.70
   7   1   0    1.81    0.56
   7   1   0    1.59    0.43
   7   1   0    2.91    0.78
  -8  -1   0   49.78    4.17
  -8  -1   0   49.77    3.50
  -8  -1   0   51.07    4.59
   8   1   0   50.24    3.70
   8   1   0   50.50    2.60
  -9  -1   0   47.71    3.35
  -9  -1   0   44.87    4.48
  -9  -1   0   45.53    4.07
   9   1   0   45.48    2.48
   9   1   0   41.25    3.47
 -10  -1   0   -0.28    0.61
 -10  -1   0   -0.98    1.16
 -10  -1   0    0.94    1.28
  10   1   0    0.89    0.56
 -11  -1   0   53.01    3.95
 -11  -1   0   53.97    5.59
  11   1   0   48.91    2.91
  11  -2   0    6.03    1.04
  11  -2   0    6.65    1.53
 -11   2   0    6.03    2.20
 -11   2   0    8.50    1.50
  10  -2   0   35.85    2.28
  10  -2   0   38.84    3.27
 -10   2   0   37.70    3.07
 -10   2   0   35.56    4.09
   9  -2   0    3.16    0.71
   9  -2   0    3.14    0.99
  -9   2   0    2.85    1.25
  -9   2   0    2.16    0.84
  -9   2   0    2.96    1.39
   8  -2   0   28.43    2.40
   8  -2   0   28.54    2.26
   8  -2   0   27.40    1.68
  -8   2   0   28.08    2.29
  -8   2   0   30.59    3.11
  -8   2   0   22.59    2.68
   7  -2   0  115.72    7.40
   7  -2   0  116.36    5.47
   7  -2   0  112.62    5.27
   7  -2   0  123.03    7.19
  -7   2   0  115.32    9.03
  -7   2   0  116.22    7.21
   6  -2   0    6.35    0.86
   6  -2   0    7.87    0.71
   6  -2   0    6.21    0.95
   6  -2   0    6.90    0.72
  -6   2   0    7.60    0.95
  -6   2   0    6.22    1.20
  -6   2   0    8.46    1.39
   5  -2   0  234.69   13.89
   5  -2   0  236.15   10.48
   5  -2   0  223.52    9.91
   5  -2   0  232.27   13.58
  -5   2   0  234.25   13.61
  -5   2   0  233.74   16.87
   4  -2   0  272.77   11.38
   4  -2   0  253.74   10.72
   4  -2   0  252.82   14.71
   4  -2   0  255.19   15.01
  -4   2   0  218.73   16.43
  -4   2   0  251.39   14.72
  -4   2   0  269.39   18.25
   3  -2   0   43.29    2.85
   3  -2   0   36.22    2.56
   3  -2   0   41.03    1.97
   3  -2   0   39.00    2.52
   3  -2   0   39.94    1.86
  -3   2   0   41.45    2.82
  -3   2   0   39.09    2.53
  -3   2   0   41.41    3.18
   2  -2   0   76.12    6.02
   2  -2   0   87.68    5.48
   2  -2   0   94.32    4.19
   2  -2   0   92.26    3.94
   2  -2   0   90.87    5.40
  -2   2   0   97.50    3.61
  -2   2   0   92.37    5.40
  -2   2   0  103.39    6.76
  -2   2   0   92.70    5.41
   1  -2   0  133.21    7.81
   1  -2   0  157.61    9.76
   1  -2   0  125.23    7.80
   1  -2   0  130.95    5.67
   1  -2   0  132.60    6.04
  -1   2   0  127.10    7.80
  -1   2   0  149.94    9.79
  -1   2   0  127.20    7.80
  -1   2   0  132.33    5.67
  -1   2   0  133.74    5.28
  -1   2   0  135.97    8.06
  -1   2   0  135.60    6.05
   0  -2   0   20.26    1.23
   0  -2   0   15.16    1.62
   0  -2   0   19.40    0.94
   0  -2   0   19.29    1.25
   0  -2   0   19.21    1.19
   0   2   0   20.26    0.88
   0   2   0   20.34    1.23
   0   2   0   19.56    1.23
   0   2   0   20.70    0.85
   0   2   0   19.15    1.25
   0   2   0   16.41    1.63
   0   2   0   18.23    1.48
   0   2   0   19.91    0.95
  -1  -2   0  106.51    4.89
  -1  -2   0  113.10    6.41
  -1  -2   0  112.77    6.39
  -1  -2   0  112.85    7.67
  -1  -2   0  106.13    6.61
  -1  -2   0  108.11    7.93
  -1  -2   0  106.73    7.14
   1   2   0  113.21    4.89
   1   2   0  104.35    6.43
   1   2   0  111.88    7.16
   1   2   0  107.99    6.62
   1   2   0  107.96    7.67
   1   2   0  113.31    4.34
   1   2   0  116.03    6.38
  -2  -2   0   58.25    3.95
   2   2   0   57.14    3.11
   2   2   0   59.65    2.37
   2   2   0   56.77    3.55
  -3  -2   0    0.86    0.35
  -3  -2   0    0.86    0.32
  -3  -2   0    0.65    0.31
   3   2   0    0.80    0.16
   3   2   0    0.48    0.22
   3   2   0    0.94    0.28
  -4  -2   0   25.70    1.69
  -4  -2   0   22.38    1.63
  -4  -2   0   22.74    1.85
   4   2   0   23.36    1.46
   4   2   0   22.15    1.70
   4   2   0   22.33    1.56
   4   2   0   21.65    1.15
  -5  -2   0  165.74   11.36
  -5  -2   0  170.79   10.14
   5   2   0  171.96   10.07
   5   2   0  171.18    9.00
   5   2   0  175.18   10.42
   5   2   0  174.43    7.37
  -6  -2   0    2.45    0.58
  -6  -2   0    1.40    0.69
   6   2   0    1.57    0.38
   6   2   0    2.09    0.67
   6   2   0    2.66    0.63
   6   2   0    2.59    0.54
  -7  -2   0   36.25    3.02
  -7  -2   0   36.32    2.57
   7   2   0   33.48    1.87
   7   2   0   35.93    2.50
   7   2   0   38.25    2.47
   7   2   0   32.36    2.70
  -8  -2   0  138.26    8.42
  -8  -2   0  135.24    9.59
   8   2   0  135.80    7.67
   8   2   0  137.86    6.17
  -9  -2   0   21.43    2.67
  -9  -2   0   19.01    1.85
   9   2   0   17.51    1.34
 -10  -2   0   23.97    3.53
 -10  -2   0   19.55    2.80
 -10  -2   0   21.99    2.14
  10   2   0   21.52    1.59
 -11  -2   0   23.89    3.49
 -11  -2   0   31.00    2.68
 -11  -2   0   32.98    4.19
  11   2   0   28.80    1.99
  11  -3   0   48.98    4.21
  11  -3   0   50.18    3.05
 -11   3   0   56.82    4.17
 -11   3   0   55.74    5.76
  10  -3   0   43.22    2.52
  10  -3   0   39.09    3.42
 -10   3   0   41.44    3.31
 -10   3   0   38.69    4.36
   9  -3   0    5.51    1.20
   9  -3   0    5.72    0.94
  -9   3   0    6.13    1.15
  -9   3   0    6.54    1.76
   8  -3   0  103.74    6.60
   8  -3   0  102.42    4.89
   8  -3   0  102.12    5.03
   8  -3   0  105.76    6.84
  -8   3   0  104.58    8.44
  -8   3   0  107.73    7.41
  -8   3   0  104.14    6.65
   7  -3   0   91.71    5.91
   7  -3   0   86.62    4.22
   7  -3   0   91.83    5.73
   7  -3   0   89.11    4.37
  -7   3   0   86.60    5.74
  -7   3   0   96.85    6.43
  -7   3   0   90.81    7.26
   6  -3   0    8.43    1.03
   6  -3   0    9.10    0.83
   6  -3   0    7.30    0.79
   6  -3   0    6.91    1.03
  -6   3   0    9.24    1.10
  -6   3   0    9.68    1.52
  -6   3   0   10.04    1.24
   5  -3   0   93.86    6.16
   5  -3   0   97.62    4.67
   5  -3   0   96.15    6.03
   5  -3   0   97.38    4.43
  -5   3   0  110.92    6.71
  -5   3   0   96.67    6.05
  -5   3   0   99.77    7.57
   4  -3   0   24.12    1.73
   4  -3   0   24.02    1.29
   4  -3   0   25.61    1.37
   4  -3   0   21.33    1.73
  -4   3   0   26.54    1.84
  -4   3   0   23.03    1.72
  -4   3   0   25.78    2.23
   3  -3   0   34.44    2.26
   3  -3   0   33.41    1.64
   3  -3   0   34.02    1.75
   3  -3   0   32.95    2.23
  -3   3   0   34.66    2.24
  -3   3   0   35.09    2.86
  -3   3   0   35.73    1.43
   2  -3   0  102.71    4.75
   2  -3   0   99.29    4.45
   2  -3   0   96.77    6.21
   2  -3   0  119.58    6.80
   2  -3   0   99.14    6.13
  -2   3   0  114.12    7.75
  -2   3   0   97.35    6.12
  -2   3   0  101.59    4.11
   1  -3   0    2.49    0.29
   1  -3   0    1.96    0.31
   1  -3   0    3.38    0.29
  -1   3   0    3.02    0.36
  -1   3   0    2.94    0.39
  -1   3   0    3.07    0.39
  -1   3   0    2.87    0.25
  -1   3   0    3.33    0.82
   0  -3   0   36.39    2.37
   0  -3   0   40.66    2.34
   0  -3   0   39.63    2.33
   0  -3   0   35.62    1.79
   0   3   0   37.87    2.81
   0   3   0   38.14    1.67
   0   3   0   33.65    3.07
   0   3   0   38.42    2.33
   0   3   0   37.70    2.38
   0   3   0   38.22    1.80
  -1  -3   0   59.88    2.88
  -1  -3   0   63.74    4.54
  -1  -3   0   64.18    3.80
  -1  -3   0   60.03    4.25
  -1  -3   0   64.36    3.91
  -1  -3   0   64.99    3.80
   1   3   0   67.37    4.83
   1   3   0   67.51    2.90
   1   3   0   60.06    3.81
   1   3   0   64.90    3.95
   1   3   0   60.60    4.52
  -2  -3   0   49.58    3.37
  -2  -3   0   47.20    3.04
  -2  -3   0   47.26    2.19
  -2  -3   0   48.48    3.05
   2   3   0   48.73    3.58
   2   3   0   50.01    2.19
   2   3   0   49.34    3.12
   2   3   0   46.66    2.64
  -3  -3   0   15.72    1.34
  -3  -3   0   13.47    1.24
  -3  -3   0   11.37    1.25
   3   3   0   17.49    1.22
   3   3   0   16.24    1.04
  -4  -3   0   87.34    5.84
  -4  -3   0   86.75    5.32
  -4  -3   0   67.55    5.32
   4   3   0   87.27    5.14
   4   3   0   88.04    4.60
   4   3   0   89.93    3.73
  -5  -3   0   86.64    5.99
  -5  -3   0   84.91    5.37
   5   3   0   88.90    3.84
   5   3   0   83.96    5.22
   5   3   0   85.12    4.74
  -6  -3   0    4.71    0.82
  -6  -3   0    5.68    1.09
   6   3   0    5.92    0.63
   6   3   0    6.91    0.84
   6   3   0    5.59    0.83
  -7  -3   0   82.61    5.20
  -7  -3   0   78.31    5.89
   7   3   0   79.89    5.08
   7   3   0   80.37    3.77
   7   3   0   84.56    4.74
  -8  -3   0   31.48    3.11
  -8  -3   0   35.43    2.65
   8   3   0   35.46    1.93
   8   3   0   34.71    2.55
  -9  -3   0   25.96    2.80
  -9  -3   0   25.09    2.22
   9   3   0   25.83    1.66
   9   3   0   25.09    2.26
 -10  -3   0   58.82    4.19
 -10  -3   0   54.66    5.03
  10   3   0   60.24    3.09
 -11  -3   0   11.36    2.74
 -11  -3   0   12.18    1.72
 -11  -3   0   13.60    2.52
  11   3   0   11.98    1.30
  11  -4   0   25.31    2.15
  11  -4   0   26.20    2.74
 -11   4   0   24.10    3.96
 -11   4   0   26.07    2.66
  10  -4   0    5.02    0.99
  10  -4   0    4.20    1.24
 -10   4   0    5.64    1.28
 -10   4   0    5.14    2.01
   9  -4   0   55.57    2.97
   9  -4   0   52.28    4.06
   9  -4   0   53.08    2.94
  -9   4   0   55.13    5.29
  -9   4   0   54.58    3.96
   8  -4   0   66.34    3.52
   8  -4   0   73.47    3.65
   8  -4   0   69.57    4.76
   8  -4   0   69.59    4.92
  -8   4   0   74.99    6.27
  -8   4   0   74.10    4.84
   7  -4   0    2.30    0.58
   7  -4   0    2.64    0.71
   7  -4   0    1.95    0.73
   7  -4   0    2.38    0.55
  -7   4   0    1.64    1.01
  -7   4   0    1.35    0.65
  -7   4   0    3.13    0.72
   6  -4   0   60.87    3.99
   6  -4   0   59.00    3.01
   6  -4   0   57.39    3.87
   6  -4   0   55.28    2.84
  -6   4   0   58.97    3.90
  -6   4   0   61.93    4.99
   5  -4   0   96.44    4.44
   5  -4   0   98.98    6.18
   5  -4   0   96.50    6.06
   5  -4   0  102.21    4.72
  -5   4   0  102.28    7.67
  -5   4   0   96.22    6.06
   4  -4   0    5.30    0.74
   4  -4   0    4.31    0.53
   4  -4   0    3.46    0.58
   4  -4   0    4.41    0.50
  -4   4   0    5.00    1.04
  -4   4   0    3.90    0.63
   3  -4   0   21.20    1.18
   3  -4   0   23.02    1.62
   3  -4   0   22.64    1.28
   3  -4   0   23.14    1.63
  -3   4   0   24.47    2.20
  -3   4   0   21.15    1.59
   2  -4   0  120.24    5.23
   2  -4   0  118.50    5.59
   2  -4   0  118.87    7.34
   2  -4   0  118.95    7.22
  -2   4   0  134.47    9.25
  -2   4   0  119.02    7.40
  -2   4   0  128.20    8.57
  -2   4   0  120.53    7.21
   1  -4   0    5.13    0.40
   1  -4   0    5.97    0.48
   1  -4   0    5.55    0.58
  -1   4   0    6.60    0.68
  -1   4   0    3.34    0.95
  -1   4   0    5.77    0.59
  -1   4   0    5.42    0.54
   0  -4   0  226.47   10.14
   0  -4   0  231.18   13.14
   0  -4   0  200.69   15.79
   0   4   0  245.56   13.16
   0   4   0  241.92   13.57
   0   4   0  242.38   15.80
   0   4   0  200.25   16.43
  -1  -4   0  310.61   17.94
  -1  -4   0  289.58   20.02
  -1  -4   0  321.16   18.72
  -1  -4   0  320.28   17.95
  -1  -4   0  304.20   13.83
   1   4   0  305.37   21.52
   1   4   0  322.72   17.97
   1   4   0  317.53   22.35
   1   4   0  314.60   18.58
  -2  -4   0    5.71    0.61
  -2  -4   0    5.58    0.39
  -2  -4   0    5.85    0.70
  -2  -4   0    6.00    0.65
   2   4   0    5.89    0.71
   2   4   0    5.21    0.74
   2   4   0    6.11    0.75
   2   4   0    5.47    0.38
  -3  -4   0  208.04   12.92
  -3  -4   0  236.81   14.33
  -3  -4   0  228.63    9.69
   3   4   0  185.74   12.85
   3   4   0  233.76   11.32
  -4  -4   0  384.41   25.38
   4   4   0  410.37   22.73
   4   4   0  382.82   20.05
  -5  -4   0    4.69    0.88
  -5  -4   0    4.63    0.91
   5   4   0    6.09    0.56
   5   4   0    7.62    0.90
   5   4   0    5.88    0.77
  -6  -4   0  148.26    8.40
  -6  -4   0  130.87    9.27
   6   4   0  134.36    7.37
   6   4   0  129.79    8.11
   6   4   0  135.51    5.94
  -7  -4   0   50.16    3.51
  -7  -4   0   49.78    3.99
   7   4   0   50.57    3.21
   7   4   0   48.23    3.43
   7   4   0   50.14    2.47
  -8  -4   0   -0.04    0.77
  -8  -4   0   -0.06    0.53
   8   4   0    0.39    0.38
   8   4   0    0.37    0.61
  -9  -4   0   33.68    2.79
  -9  -4   0   41.00    3.53
   9   4   0   36.34    2.82
   9   4   0   32.55    2.02
 -10  -4   0    6.89    1.80
 -10  -4   0    9.34    1.44
  10   4   0    9.63    1.10
  10   4   0    9.28    1.62
 -11  -4   0    0.19    1.55
 -11  -4   0    0.89    0.77
 -11  -4   0    1.57    1.41
  11  -5   0    5.03    1.46
  10  -5   0   10.46    1.34
  10  -5   0    9.70    1.72
 -10   5   0   12.51    1.80
 -10   5   0   12.61    2.74
   9  -5   0   30.01    2.02
   9  -5   0   32.23    2.01
   9  -5   0   30.16    2.81
  -9   5   0   31.63    2.71
  -9   5   0   29.77    3.79
   8  -5   0    2.07    0.79
   8  -5   0    1.36    0.78
   8  -5   0    0.91    0.53
   8  -5   0    0.77    0.54
  -8   5   0    0.56    1.24
  -8   5   0    1.05    0.69
   7  -5   0   38.47    2.14
   7  -5   0   37.53    2.22
   7  -5   0   39.39    2.88
   7  -5   0   40.50    2.98
  -7   5   0   36.79    3.82
  -7   5   0   37.18    2.87
   6  -5   0   70.90    4.81
   6  -5   0   71.29    3.47
   6  -5   0   73.69    3.68
   6  -5   0   73.36    4.73
  -6   5   0   71.57    4.73
  -6   5   0   77.23    6.12
   5  -5   0    6.81    0.71
   5  -5   0    5.24    0.85
   5  -5   0    4.61    0.67
   5  -5   0    6.57    0.92
  -5   5   0    3.30    0.71
  -5   5   0    3.14    1.03
   4  -5   0  109.51    6.42
   4  -5   0  103.76    6.47
   4  -5   0   99.86    4.95
   4  -5   0  103.68    4.66
  -4   5   0  110.48    8.19
  -4   5   0  102.31    6.38
   3  -5   0  230.76   14.14
   3  -5   0  237.52   10.79
   3  -5   0  237.12   13.93
   3  -5   0  235.74   10.11
  -3   5   0  248.33   16.61
  -3   5   0  249.49   17.55
  -3   5   0  236.11   13.91
  -3   5   0  232.04   14.31
   2  -5   0  125.67    5.85
   2  -5   0  127.49    7.56
   2  -5   0  131.68    5.48
  -2   5   0  126.98    7.55
  -2   5   0  136.63    8.97
  -2   5   0  130.16    7.73
  -2   5   0  106.45    9.62
   1  -5   0   74.42    4.66
   1  -5   0   72.14    3.60
   1  -5   0   77.60    3.36
   1  -5   0   84.73    5.54
  -1   5   0   73.94    4.74
  -1   5   0   76.96    4.66
   0  -5   0  377.61   22.32
   0  -5   0  378.17   24.88
   0  -5   0  379.65   17.25
   0   5   0  404.35   23.08
   0   5   0  339.67   27.84
   0   5   0  424.24   26.86
   0   5   0  409.38   22.35
  -1  -5   0   68.81    3.25
  -1  -5   0   68.70    4.27
  -1  -5   0   71.33    4.30
  -1  -5   0   65.66    4.75
   1   5   0   69.39    5.04
   1   5   0   70.08    4.42
   1   5   0   70.91    4.29
   1   5   0   74.99    5.58
  -2  -5   0   25.19    1.28
  -2  -5   0   25.31    1.80
  -2  -5   0   25.06    2.02
   2   5   0   26.24    1.88
   2   5   0   25.97    1.89
   2   5   0   26.23    2.09
  -3  -5   0  288.87   16.31
  -3  -5   0  279.17   18.10
  -3  -5   0  279.56   12.32
   3   5   0  283.16   19.44
   3   5   0  282.81   14.32
   3   5   0  242.29   16.32
   3   5   0  287.81   12.32
  -4  -5   0   17.87    1.61
  -4  -5   0   15.17    1.61
   4   5   0   17.48    1.27
   4   5   0   14.23    1.43
  -5  -5   0  133.21    8.65
  -5  -5   0  105.75    7.83
   5   5   0  127.27    6.83
   5   5   0  134.88    7.67
  -6  -5   0  164.57    9.82
  -6  -5   0  158.21   10.79
   6   5   0  148.34    6.85
   6   5   0  158.68    9.48
   6   5   0  162.81    8.56
  -7  -5   0   11.09    1.51
  -7  -5   0    9.43    1.62
   7   5   0    9.19    1.27
   7   5   0   10.72    0.92
  -8  -5   0   23.87    2.74
  -8  -5   0   28.20    2.42
   8   5   0   29.29    2.31
   8   5   0   29.03    1.65
  -9  -5   0   60.44    4.31
  -9  -5   0   55.62    5.01
   9   5   0   60.11    3.07
   9   5   0   66.10    4.19
 -10  -5   0   20.47    2.92
 -10  -5   0   16.79    2.04
  10   5   0   19.89    2.39
  10  -6   0   47.13    3.62
  10  -6   0   38.44    2.53
 -10   6   0   39.61    3.40
 -10   6   0   33.40    4.72
   9  -6   0   19.96    2.37
   9  -6   0   17.73    1.54
   9  -6   0   20.04    1.73
  -9   6   0   19.42    3.14
  -9   6   0   20.72    2.18
   8  -6   0    1.49    0.60
   8  -6   0    0.40    0.68
   8  -6   0    0.31    0.69
   8  -6   0    0.16    0.49
  -8   6   0    0.46    1.34
  -8   6   0   -0.20    0.65
   7  -6   0   68.62    3.51
   7  -6   0   60.93    3.28
   7  -6   0   69.18    4.62
   7  -6   0   65.63    4.49
  -7   6   0   66.93    5.98
  -7   6   0   65.87    4.51
   6  -6   0   37.76    2.73
   6  -6   0   36.40    1.99
   6  -6   0   35.37    2.11
   6  -6   0   36.26    2.72
  -6   6   0   34.86    2.68
  -6   6   0   34.29    3.66
   5  -6   0    2.54    0.64
   5  -6   0    2.48    0.63
   5  -6   0    1.83    0.47
   5  -6   0    2.48    0.57
  -5   6   0    1.61    0.98
  -5   6   0    1.91    0.59
   4  -6   0  138.39    5.96
   4  -6   0  132.15    6.36
   4  -6   0  135.34    8.31
   4  -6   0  132.34    8.20
  -4   6   0  133.13    8.19
  -4   6   0  139.26    9.69
  -4   6   0  137.94    8.38
  -4   6   0  136.38   10.53
   3  -6   0   89.27    5.82
   3  -6   0   94.83    4.16
   3  -6   0   91.38    4.46
   3  -6   0   91.68    5.75
  -3   6   0   93.82    5.82
  -3   6   0   90.31    7.57
  -3   6   0   93.33    5.74
  -3   6   0  100.57    6.75
   2  -6   0   35.50    1.97
   2  -6   0   39.12    1.82
   2  -6   0   37.64    2.54
  -2   6   0   37.18    2.50
  -2   6   0   38.53    2.95
  -2   6   0   37.27    2.52
   1  -6   0  281.05   12.99
   1  -6   0  294.53   12.17
  -1   6   0  286.71   17.29
  -1   6   0  295.14   16.81
   0  -6   0  129.35    8.73
   0  -6   0  130.07    6.06
   0  -6   0  132.36    7.86
   0   6   0  111.58   10.02
   0   6   0  144.98    9.42
   0   6   0  137.50    7.89
   0   6   0  136.59    8.10
  -1  -6   0   17.36    1.37
  -1  -6   0   16.03    1.50
  -1  -6   0   17.26    1.18
  -1  -6   0   17.13    1.02
   1   6   0   17.71    1.42
   1   6   0   19.40    2.09
   1   6   0   18.41    1.39
   1   6   0   18.18    1.54
  -2  -6   0  199.59    9.15
  -2  -6   0  200.59   13.39
  -2  -6   0  202.62   11.99
   2   6   0  214.03   12.44
   2   6   0  199.89   14.32
   2   6   0  209.07   12.09
  -3  -6   0   72.26    4.44
  -3  -6   0   71.93    3.18
  -3  -6   0   67.34    4.88
   3   6   0   72.73    5.19
   3   6   0   56.00    4.45
   3   6   0   70.38    3.91
  -4  -6   0   14.37    0.71
  -4  -6   0   13.14    1.49
  -4  -6   0   13.99    1.66
   4   6   0   13.43    1.18
   4   6   0    9.94    1.40
  -5  -6   0   81.13    5.62
  -5  -6   0   81.39    5.97
   5   6   0   88.38    4.79
   5   6   0   81.39    5.34
  -6  -6   0   20.86    2.15
  -6  -6   0   14.67    2.05
   6   6   0   22.91    1.79
   6   6   0   22.42    1.74
   6   6   0   20.72    1.20
  -7  -6   0   10.36    1.62
  -7  -6   0    9.75    1.67
   7   6   0   14.95    1.62
   7   6   0   10.77    0.87
  -8  -6   0   44.99    3.46
  -8  -6   0   39.98    3.82
   8   6   0   42.17    2.27
   8   6   0   47.36    3.21
  -9  -6   0   45.81    3.61
  -9  -6   0   45.87    4.23
   9   6   0   47.22    3.48
 -10  -6   0    0.95    0.79
 -10  -6   0    0.42    1.29
  10   6   0    0.08    0.95
  10  -7   0   13.26    1.43
  10  -7   0    9.23    1.79
  10  -7   0   14.01    1.56
 -10   7   0   17.66    3.46
 -10   7   0   12.66    1.90
   9  -7   0    1.06    0.70
   9  -7   0    1.87    1.03
   9  -7   0    0.80    0.66
  -9   7   0    0.77    0.82
  -9   7   0    2.00    1.85
   8  -7   0   32.38    2.75
   8  -7   0   33.01    2.79
   8  -7   0   34.65    2.06
   8  -7   0   31.79    2.13
  -8   7   0   28.73    2.68
  -8   7   0   28.19    3.77
   7  -7   0  133.65    8.75
   7  -7   0  142.80    6.31
   7  -7   0  135.53    6.70
   7  -7   0  138.41    8.63
  -7   7   0  142.12   11.22
  -7   7   0  135.49    8.62
   6  -7   0   12.82    1.48
   6  -7   0   10.35    1.43
   6  -7   0   13.70    1.27
   6  -7   0   11.02    1.03
  -6   7   0   12.39    1.51
  -6   7   0   11.86    1.42
  -6   7   0   11.10    1.45
  -6   7   0   10.31    2.21
   5  -7   0   64.13    3.21
   5  -7   0   63.68    4.44
   5  -7   0   68.03    4.48
   5  -7   0   67.74    3.49
  -5   7   0   65.54    4.44
  -5   7   0   68.44    4.45
  -5   7   0   70.27    5.13
  -5   7   0   70.37    6.09
   4  -7   0  157.07    7.50
   4  -7   0  158.60    7.00
   4  -7   0  162.61    9.69
   4  -7   0  157.26    9.78
  -4   7   0  146.79   12.42
  -4   7   0  159.16    9.83
  -4   7   0  167.25    9.68
  -4   7   0  169.99   11.42
   3  -7   0   13.94    1.33
   3  -7   0   14.54    1.34
   3  -7   0   12.45    1.01
   3  -7   0   15.21    0.95
  -3   7   0   13.96    2.45
  -3   7   0   14.51    1.42
  -3   7   0   12.97    1.28
  -3   7   0   14.37    1.23
   2  -7   0   94.93    3.94
   2  -7   0   83.61    4.21
   2  -7   0   90.04    5.48
  -2   7   0   79.20    6.49
  -2   7   0   72.16    7.26
  -2   7   0   96.52    5.54
  -2   7   0   93.95    5.48
   1  -7   0   74.35    4.50
   1  -7   0   73.07    3.49
  -1   7   0   77.25    4.57
  -1   7   0   62.43    5.39
  -1   7   0   56.48    5.99
  -1   7   0   80.73    4.54
   0  -7   0   13.15    1.20
   0  -7   0   11.49    0.90
   0  -7   0   14.24    1.31
   0   7   0   13.42    1.21
   0   7   0   14.26    1.21
   0   7   0   14.68    1.36
   0   7   0   13.33    2.18
  -1  -7   0  162.16    7.57
  -1  -7   0  170.78    9.88
  -1  -7   0  169.95   10.04
  -1  -7   0  157.00   10.98
   1   7   0  172.08    9.91
   1   7   0  165.23   11.72
   1   7   0  164.44   12.60
   1   7   0  168.37   10.19
  -2  -7   0   42.78    3.39
  -2  -7   0   45.35    3.07
  -2  -7   0   45.74    2.27
   2   7   0   46.79    3.56
   2   7   0   45.74    3.18
   2   7   0   49.26    3.18
  -3  -7   0    3.16    0.81
  -3  -7   0    2.68    0.36
  -3  -7   0    3.16    0.72
   3   7   0    1.73    0.66
   3   7   0    2.22    0.65
   3   7   0    2.58    0.64
   3   7   0    3.70    0.76
  -4  -7   0   85.51    3.81
  -4  -7   0   79.98    5.46
  -4  -7   0   81.45    5.94
   4   7   0   89.93    4.80
   4   7   0   77.99    5.50
  -5  -7   0   83.39    6.27
  -5  -7   0   93.91    5.98
   5   7   0   90.73    5.07
   5   7   0   82.33    5.69
  -6  -7   0    7.35    1.48
  -6  -7   0   10.91    1.67
   6   7   0   10.09    0.78
   6   7   0   12.41    1.45
  -7  -7   0    3.06    1.15
  -7  -7   0    0.98    0.88
   7   7   0    1.79    0.77
   7   7   0    2.59    0.49
  -8  -7   0   60.26    4.39
  -8  -7   0   53.46    4.72
   8   7   0   56.03    3.87
  -9  -7   0    7.10    1.40
  -9  -7   0    7.85    1.91
   9   7   0    6.21    1.37
 -10  -7   0   10.24    2.24
 -10  -7   0   11.08    1.80
  10   7   0   13.83    2.06
   9  -8   0    4.64    0.97
   9  -8   0    4.64    0.92
   9  -8   0    4.80    1.32
  -9   8   0    4.27    1.19
  -9   8   0    4.53    2.52
   8  -8   0   49.71    2.73
   8  -8   0   45.89    3.73
   8  -8   0   43.69    2.85
   8  -8   0   49.89    3.74
  -8   8   0   48.83    4.17
  -8   8   0   46.04    5.38
  -8   8   0   51.72    3.78
  -8   8   0   44.27    3.59
   7  -8   0   18.19    1.65
   7  -8   0   17.95    1.95
   7  -8   0   19.21    1.46
   7  -8   0   19.13    1.97
  -7   8   0   17.96    3.10
  -7   8   0   18.34    1.85
  -7   8   0   17.59    2.05
  -7   8   0   18.52    2.09
   6  -8   0   44.52    3.28
   6  -8   0   45.01    2.59
   6  -8   0   40.88    2.37
   6  -8   0   44.43    3.31
  -6   8   0   41.32    4.72
  -6   8   0   42.68    3.27
  -6   8   0   44.27    3.19
  -6   8   0   45.20    3.65
   5  -8   0   85.38    4.38
   5  -8   0   85.76    5.63
   5  -8   0   86.40    5.66
   5  -8   0   88.27    4.08
  -5   8   0   90.20    6.49
  -5   8   0   85.44    5.59
  -5   8   0   87.81    5.62
  -5   8   0   81.01    7.53
   4  -8   0   37.97    2.15
   4  -8   0   36.61    2.72
   4  -8   0   35.49    2.69
   4  -8   0   38.61    1.96
  -4   8   0   36.76    2.60
  -4   8   0   27.05    3.88
  -4   8   0   36.49    3.00
  -4   8   0   36.18    2.68
   3  -8   0   52.11    3.52
   3  -8   0   52.28    2.44
   3  -8   0   49.82    3.41
   3  -8   0   49.99    2.67
  -3   8   0   37.86    4.79
  -3   8   0   49.55    3.34
  -3   8   0   49.19    3.39
  -3   8   0   51.64    3.98
   2  -8   0  131.19    6.55
   2  -8   0  149.03    6.12
  -2   8   0  139.13    8.62
  -2   8   0  140.18    8.47
   1  -8   0   36.20    2.11
   1  -8   0   39.71    2.96
   1  -8   0   42.23    2.78
  -1   8   0   32.15    3.90
  -1   8   0   38.54    2.72
  -1   8   0   43.80    2.79
  -1   8   0   41.17    3.31
   0  -8   0    3.36    0.74
   0  -8   0    3.50    0.67
   0  -8   0    3.73    0.55
   0   8   0    3.51    0.68
   0   8   0    2.95    0.60
   0   8   0    2.93    1.29
   0   8   0    4.47    0.78
  -1  -8   0  117.82    8.13
  -1  -8   0  120.75    7.32
  -1  -8   0  117.76    5.59
   1   8   0  118.67    8.60
   1   8   0  124.90    9.60
   1   8   0  118.57    7.52
   1   8   0  122.89    7.35
  -2  -8   0   46.65    3.77
  -2  -8   0   51.67    2.52
  -2  -8   0   50.90    3.42
   2   8   0   49.89    3.47
   2   8   0   51.62    3.93
   2   8   0   52.53    3.53
  -3  -8   0   12.31    0.81
  -3  -8   0   13.13    1.33
  -3  -8   0    9.97    1.41
   3   8   0   12.19    1.42
   3   8   0   11.79    1.36
   3   8   0    8.53    1.32
   3   8   0   14.11    1.27
  -4  -8   0  103.78    7.28
  -4  -8   0  105.77    4.75
  -4  -8   0   96.52    6.59
   4   8   0  103.60    6.77
   4   8   0  104.05    5.84
  -5  -8   0   28.54    2.65
  -5  -8   0   30.87    2.76
   5   8   0   25.17    2.56
   5   8   0   32.35    2.27
  -6  -8   0    7.07    1.39
  -6  -8   0    9.42    1.60
   6   8   0    8.48    1.27
  -7  -8   0  103.13    7.15
  -7  -8   0   75.89    6.40
   7   8   0  103.50    5.79
  -8  -8   0   24.07    2.89
   8   8   0   26.05    2.44
  -9  -8   0    7.10    1.55
  -9  -8   0    6.69    1.86
   9   8   0    6.96    1.52
   9  -9   0   54.38    4.24
   9  -9   0   51.02    3.07
   9  -9   0   51.18    3.24
  -9   9   0   56.59    4.25
  -9   9   0   48.56    6.18
   8  -9   0   63.05    3.63
   8  -9   0   65.35    4.69
   8  -9   0   63.96    3.41
   8  -9   0   61.12    4.68
  -8   9   0   53.32    6.55
  -8   9   0   68.29    4.73
   7  -9   0    2.73    1.01
   7  -9   0    1.80    0.63
   7  -9   0    0.73    0.74
   7  -9   0    2.15    0.77
  -7   9   0    2.02    1.89
  -7   9   0    1.44    0.77
  -7   9   0    1.38    0.86
   6  -9   0   71.77    4.88
   6  -9   0   72.95    3.84
   6  -9   0   73.33    3.55
   6  -9   0   74.23    4.93
  -6   9   0   69.89    5.51
  -6   9   0   73.17    4.89
  -6   9   0   55.72    6.60
  -6   9   0   70.31    4.77
   5  -9   0   27.00    1.65
   5  -9   0   26.20    2.30
   5  -9   0   25.71    2.24
   5  -9   0   27.86    1.85
  -5   9   0   28.25    2.31
  -5   9   0   25.15    2.10
  -5   9   0   20.36    3.68
  -5   9   0   26.75    2.47
   4  -9   0   13.04    1.00
   4  -9   0   10.57    1.11
   4  -9   0   11.33    1.40
   4  -9   0   10.70    1.43
  -4   9   0   12.25    1.55
  -4   9   0    6.60    2.18
  -4   9   0   13.21    1.28
  -4   9   0   12.90    1.51
   3  -9   0   80.94    3.70
   3  -9   0   79.07    5.31
   3  -9   0   75.11    3.99
  -3   9   0   79.41    5.14
  -3   9   0   87.18    5.20
  -3   9   0   71.54    7.18
   2  -9   0   89.82    5.44
   2  -9   0   81.40    4.19
   2  -9   0   85.75    5.87
  -2   9   0   68.10    7.33
  -2   9   0   85.49    5.43
  -2   9   0   91.96    5.45
   1  -9   0    5.91    0.92
   1  -9   0    5.13    0.72
   1  -9   0    5.80    0.99
  -1   9   0    6.04    0.88
  -1   9   0    7.79    1.15
  -1   9   0    6.55    1.86
  -1   9   0    6.93    1.03
   0  -9   0  119.69    5.67
   0  -9   0  120.28    7.37
   0  -9   0  117.46    8.14
   0   9   0  124.34    7.55
   0   9   0  106.40    9.64
   0   9   0  119.06    7.38
   0   9   0  126.46    8.65
  -1  -9   0  153.91    7.10
  -1  -9   0  147.41    9.25
  -1  -9   0  151.27   10.30
   1   9   0  155.41    9.54
   1   9   0  155.70   10.91
   1   9   0  154.70    9.31
   1   9   0  151.02   12.05
  -2  -9   0   17.45    1.65
  -2  -9   0   19.81    1.21
  -2  -9   0   16.32    1.80
   2   9   0   16.28    1.64
   2   9   0   20.39    1.75
   2   9   0   18.27    1.76
  -3  -9   0   64.32    3.07
  -3  -9   0   63.69    4.27
  -3  -9   0   61.23    4.71
   3   9   0   66.31    4.40
   3   9   0   64.51    3.88
   3   9   0   61.54    4.88
   3   9   0   57.64    4.35
  -4  -9   0   98.67    7.51
  -4  -9   0  102.65    6.88
   4   9   0  110.66    7.08
   4   9   0  116.93    6.20
  -5  -9   0    0.30    0.79
  -5  -9   0    0.23    0.67
   5   9   0    0.33    0.61
  -6  -9   0   52.50    4.59
  -6  -9   0   56.39    4.46
   6   9   0   62.44    3.89
  -7  -9   0   21.41    2.75
  -7  -9   0   25.76    2.85
   7   9   0   27.39    2.42
  -8  -9   0    2.56    1.34
  -8  -9   0   -0.56    0.88
   8   9   0    0.53    0.85
  -9  -9   0   67.24    5.67
  -9  -9   0   59.84    4.95
   9   9   0   63.09    4.62
   8 -10   0    0.33    0.68
   8 -10   0    1.36    0.98
   8 -10   0    0.30    0.85
   8 -10   0    1.74    0.86
  -8  10   0   -1.84    1.86
  -8  10   0    0.84    0.91
   7 -10   0   41.45    3.44
   7 -10   0   39.89    3.41
   7 -10   0   44.64    2.77
  -7  10   0   31.92    5.30
  -7  10   0   47.25    3.52
   6 -10   0   81.44    4.19
   6 -10   0   85.07    5.85
   6 -10   0   86.21    4.60
   6 -10   0   88.32    5.86
  -6  10   0   90.17    5.86
   5 -10   0    6.16    1.17
   5 -10   0    4.00    0.98
   5 -10   0    4.42    0.92
   5 -10   0    4.34    0.77
  -5  10   0    4.54    2.16
  -5  10   0    4.76    0.93
  -5  10   0    4.94    1.15
   4 -10   0   15.44    1.74
   4 -10   0   16.74    1.54
   4 -10   0   15.07    1.22
  -4  10   0   13.64    3.17
  -4  10   0   17.86    1.62
  -4  10   0   19.00    1.78
   3 -10   0   94.38    5.95
   3 -10   0  100.91    6.39
   3 -10   0   99.68    6.18
   3 -10   0   89.86    4.61
  -3  10   0   93.05    5.92
  -3  10   0   75.18    6.99
  -3  10   0   94.73    5.92
  -3  10   0   81.05    8.20
   2 -10   0   16.45    1.67
   2 -10   0   18.20    1.35
   2 -10   0   16.97    1.68
  -2  10   0   17.07    1.97
  -2  10   0   17.15    1.54
  -2  10   0   14.99    3.12
  -2  10   0   16.43    1.63
   1 -10   0   21.94    1.93
   1 -10   0   22.79    1.51
   1 -10   0   22.13    2.03
  -1  10   0   12.86    2.83
  -1  10   0   23.55    1.87
  -1  10   0   22.57    1.91
  -1  10   0   22.91    2.09
   0 -10   0   71.55    5.04
   0 -10   0   69.16    3.50
   0 -10   0   69.04    4.57
   0  10   0   68.16    4.61
   0  10   0   67.69    4.57
   0  10   0   62.38    6.26
   0  10   0   70.84    5.19
  -1 -10   0   31.40    2.43
  -1 -10   0   31.96    2.68
  -1 -10   0   29.87    1.79
   1  10   0   29.45    2.57
   1  10   0   30.59    2.42
   1  10   0   31.04    3.59
   1  10   0   28.74    2.39
  -2 -10   0   89.61    6.34
  -2 -10   0   86.44    5.69
  -2 -10   0   89.93    4.27
   2  10   0   86.53    5.77
   2  10   0   86.15    6.55
   2  10   0   88.21    5.84
  -3 -10   0  110.09    6.89
  -3 -10   0  112.68    5.07
  -3 -10   0  105.76    7.61
   3  10   0   93.31    6.91
   3  10   0  114.33    6.26
   3  10   0  105.76    7.03
  -4 -10   0   10.25    1.66
  -4 -10   0    9.44    1.44
   4  10   0    8.97    1.37
  -5 -10   0   44.43    3.70
  -5 -10   0   36.03    3.35
   5  10   0   44.04    3.11
  -6 -10   0   72.58    5.92
  -6 -10   0   78.42    5.66
   6  10   0   78.68    4.95
  -7 -10   0    2.08    1.26
  -7 -10   0    5.64    1.51
   7  10   0    6.74    1.47
  -8 -10   0   15.12    2.46
  -8 -10   0   11.55    2.12
   8  10   0   15.69    2.23
   8 -11   0    1.71    0.95
   8 -11   0    0.88    1.04
   8 -11   0    0.65    0.77
  -8  11   0    0.68    2.20
  -8  11   0    1.25    1.01
   7 -11   0   35.43    3.15
   7 -11   0   40.67    2.59
   7 -11   0   36.52    2.27
  -7  11   0   20.88    4.43
  -7  11   0   36.97    3.16
   6 -11   0    9.51    1.33
   6 -11   0   11.86    1.72
   6 -11   0    9.81    1.16
  -6  11   0    8.51    3.04
  -6  11   0    9.13    1.52
   5 -11   0    3.25    0.74
   5 -11   0    4.16    1.13
   5 -11   0    2.73    0.82
  -5  11   0    3.59    1.06
  -5  11   0    1.34    2.10
   4 -11   0   72.23    4.95
   4 -11   0   67.97    3.76
   4 -11   0   67.78    4.80
  -4  11   0   64.75    7.02
  -4  11   0   73.29    4.82
  -4  11   0   67.07    4.66
   3 -11   0   68.72    3.84
   3 -11   0   73.08    5.21
   3 -11   0   80.52    5.25
   3 -11   0   75.22    4.97
  -3  11   0   73.92    4.94
  -3  11   0   68.56    7.14
  -3  11   0   67.70    4.82
   2 -11   0    1.92    0.64
   2 -11   0    1.78    0.75
   2 -11   0    2.74    0.88
  -2  11   0    1.36    0.62
  -2  11   0    2.40    1.84
  -2  11   0    2.25    0.75
   1 -11   0   91.04    5.80
   1 -11   0   86.37    4.45
   1 -11   0   91.62    6.31
  -1  11   0   89.51    5.80
  -1  11   0   94.84    5.82
  -1  11   0   70.62    7.77
   0 -11   0   42.73    3.39
   0 -11   0   41.06    3.13
   0 -11   0   43.45    2.42
   0  11   0   43.89    3.14
   0  11   0   40.19    3.04
   0  11   0   34.68    4.44
  -1 -11   0   10.29    1.41
  -1 -11   0   10.40    1.03
  -1 -11   0    9.99    1.51
   1  11   0   10.02    1.36
   1  11   0    9.19    1.31
   1  11   0   10.62    1.29
  -2 -11   0   47.96    2.63
  -2 -11   0   46.53    3.95
  -2 -11   0   52.85    3.66
   2  11   0   50.03    3.98
   2  11   0   47.84    3.61
   2  11   0   49.29    3.67
  -3 -11   0    6.90    1.24
  -3 -11   0    8.42    1.51
   3  11   0    8.13    1.38
  -4 -11   0   31.68    2.99
  -4 -11   0   28.83    2.68
   4  11   0   28.69    2.51
  -5 -11   0   46.01    4.05
  -5 -11   0   39.15    3.67
   5  11   0   55.99    3.61
  -6 -11   0    6.13    1.62
  -6 -11   0    8.87    1.76
   6  11   0    5.07    1.32
  -7 -11   0    3.39    1.33
  -7 -11   0    4.08    1.56
   7  11   0    4.83    1.38
  -8 -11   0   22.88    3.22
   7 -12   0   23.53    2.58
   7 -12   0   21.02    2.11
   7 -12   0   24.52    1.85
  -7  12   0   18.99    4.42
  -7  12   0   25.05    2.66
   6 -12   0    9.08    1.64
   6 -12   0    5.53    0.97
   6 -12   0    9.11    1.37
  -6  12   0    5.59    2.80
  -6  12   0    7.52    1.51
   5 -12   0   10.98    1.69
   5 -12   0    9.77    1.62
   5 -12   0   10.53    1.39
  -5  12   0    6.87    2.81
  -5  12   0   10.92    1.61
   4 -12   0   28.90    2.06
   4 -12   0   26.47    2.59
   4 -12   0   23.41    2.48
  -4  12   0   26.36    2.44
  -4  12   0   19.55    4.15
   3 -12   0   -0.48    0.68
   3 -12   0   -0.47    0.83
   3 -12   0    0.31    0.60
  -3  12   0   -0.91    1.68
  -3  12   0   -0.10    0.60
   2 -12   0   42.29    3.39
   2 -12   0   40.00    2.53
   2 -12   0   45.00    3.31
  -2  12   0   39.99    3.08
  -2  12   0   41.48    3.23
  -2  12   0   37.35    4.86
   1 -12   0   49.97    3.86
   1 -12   0   49.55    3.62
   1 -12   0   48.29    2.77
  -1  12   0   48.41    3.49
  -1  12   0   39.66    5.28
  -1  12   0   47.09    3.57
   0 -12   0    1.36    0.62
   0 -12   0    0.56    0.70
   0 -12   0    1.16    0.85
   0  12   0    1.04    0.70
   0  12   0    1.05    0.66
   0  12   0    0.18    1.48
  -1 -12   0   47.95    3.99
  -1 -12   0   50.30    2.78
  -1 -12   0   52.16    3.74
   1  12   0   49.26    3.71
   1  12   0   46.45    3.61
  -2 -12   0   63.02    5.11
  -2 -12   0   69.53    3.46
  -2 -12   0   63.18    4.66
   2  12   0   67.48    4.72
  -3 -12   0    0.00    0.88
  -3 -12   0    0.36    0.71
   3  12   0    0.33    0.84
  -4 -12   0   17.45    2.33
  -4 -12   0   13.35    1.90
   4  12   0   15.04    2.01
  -5 -12   0   21.22    2.76
  -5 -12   0   18.12    2.50
   5  12   0   18.48    2.33
  -6 -12   0    1.08    0.95
  -6 -12   0    0.71    1.16
   6  12   0    1.24    1.05
  -7 -12   0   14.32    2.59
  -7 -12   0   19.29    2.70
   7  12   0   18.62    2.47
   6 -13   0   12.20    1.94
   6 -13   0   13.69    1.67
   6 -13   0   14.78    2.24
  -6  13   0   13.60    1.96
  -6  13   0    7.38    3.10
   5 -13   0   51.89    4.18
   5 -13   0   54.75    4.25
   5 -13   0   52.50    3.31
  -5  13   0   52.72    4.13
   4 -13   0   18.05    2.35
   4 -13   0   13.89    1.57
   4 -13   0   18.98    2.23
  -4  13   0   12.49    1.88
  -4  13   0   21.02    4.16
   3 -13   0   17.29    2.37
   3 -13   0   15.96    1.60
   3 -13   0   12.26    1.81
  -3  13   0   16.68    3.68
  -3  13   0   13.78    1.88
   2 -13   0   51.09    2.94
   2 -13   0   53.54    3.85
  -2  13   0   38.16    5.52
  -2  13   0   46.69    3.70
   1 -13   0    0.56    0.88
   1 -13   0    1.90    0.95
   1 -13   0    0.48    0.68
  -1  13   0    1.68    0.78
  -1  13   0    0.49    1.79
  -1  13   0    1.59    0.73
   0 -13   0   23.93    2.36
   0 -13   0   22.03    1.72
   0 -13   0   21.15    2.36
   0  13   0   19.82    3.87
   0  13   0   21.95    2.21
   0  13   0   20.13    2.04
  -1 -13   0   47.51    4.10
  -1 -13   0   51.06    3.84
  -1 -13   0   48.84    2.82
   1  13   0   47.85    3.69
  -2 -13   0    6.90    1.52
  -2 -13   0    5.59    1.32
   2  13   0    5.83    1.20
  -3 -13   0   12.45    2.10
  -3 -13   0   15.90    2.18
   3  13   0   21.97    2.53
  -4 -13   0   45.57    3.92
  -4 -13   0   47.89    4.28
   4  13   0   49.45    3.83
  -5 -13   0   24.70    2.87
  -5 -13   0   18.88    2.71
   5  13   0   23.66    2.73
   4 -14   0    9.32    1.36
   4 -14   0    7.94    1.74
   4 -14   0   12.66    1.99
  -4  14   0    5.14    2.93
  -4  14   0    9.76    1.75
   3 -14   0   60.60    3.76
   3 -14   0   72.89    5.00
   3 -14   0   70.39    5.19
  -3  14   0   66.28    4.85
  -3  14   0   52.43    6.81
   2 -14   0   33.42    2.38
   2 -14   0   37.59    3.18
  -2  14   0   31.02    5.15
  -2  14   0   31.47    2.97
   1 -14   0    2.31    0.84
   1 -14   0   -0.27    0.79
  -1  14   0   -1.59    1.61
   0 -14   0   33.47    3.24
   0 -14   0   31.88    2.25
   0 -14   0   36.55    3.15
  -1 -14   0   32.44    3.24
  -1 -14   0   32.21    2.21
  -1 -14   0   34.56    3.09
   1  14   0   31.78    2.84
  -2 -14   0    0.04    0.86
  -2 -14   0   -0.10    0.98
   2  14   0    0.48    0.94
  -3 -14   0   34.21    3.23
  -3 -14   0   31.47    3.36
   3  14   0   35.20    3.26
  -4 -14   0   25.17    3.09
  -4 -14   0   30.11    3.21
   4  14   0   24.91    3.13
   1 -15   0   34.01    2.36
   1 -15   0   29.81    3.08
  -1  15   0   29.06    5.22
   0 -15   0   62.89    3.70
   0 -15   0   67.46    5.04
  -1 -15   0    7.18    1.76
  -1 -15   0    8.67    1.84
   3  14  -1   -0.26    1.04
  -3 -14   1    0.03    0.99
  -3 -14   1    0.94    1.19
  -2 -14   1   40.48    3.80
  -2 -14   1   36.98    3.54
  -1 -14   1   26.53    3.00
  -1 -14   1   31.06    3.03
   0 -14   1    0.16    0.88
   0 -14   1    2.46    0.81
  -1  14  -1   34.68    3.21
  -1  14  -1   28.10    5.09
   1 -14   1   39.91    2.53
   1 -14   1   37.26    3.32
  -2  14  -1   49.93    6.21
  -2  14  -1   45.74    3.83
   2 -14   1   47.44    2.99
   2 -14   1   48.78    3.97
  -3  14  -1    1.11    2.42
  -3  14  -1    2.60    1.12
   3 -14   1    2.90    1.19
   3 -14   1    3.28    1.51
   3 -14   1    5.54    1.13
  -4  14  -1   27.01    4.97
   4 -14   1   20.27    1.99
   4 -14   1   24.49    2.74
   4 -14   1   22.47    2.89
   5  13  -1   45.19    3.85
  -5 -13   1   51.24    4.46
  -5 -13   1   39.15    3.90
   4  13  -1    7.23    1.62
  -4 -13   1    8.25    1.67
  -4 -13   1   10.75    2.00
   3  13  -1   17.33    2.37
  -3 -13   1   14.02    2.07
  -3 -13   1   14.82    2.22
  -2 -13   1   77.04    6.05
  -2 -13   1   78.90    5.64
   1  13  -1   28.18    2.57
  -1 -13   1   30.50    2.90
  -1 -13   1   31.12    2.04
  -1 -13   1   31.29    3.04
   0  13  -1    1.68    0.84
   0  13  -1   -0.71    1.78
   0 -13   1    3.01    1.15
   0 -13   1    2.26    1.03
   0 -13   1    2.64    0.78
  -1  13  -1   48.24    6.17
  -1  13  -1   56.68    4.20
   1 -13   1   57.01    4.22
   1 -13   1   54.64    3.18
  -2  13  -1   13.38    1.92
  -2  13  -1   12.19    3.43
   2 -13   1   13.17    1.43
   2 -13   1   14.95    2.05
  -3  13  -1   20.72    2.51
  -3  13  -1   20.12    4.05
   3 -13   1   22.90    1.90
   3 -13   1   23.50    2.49
   3 -13   1   25.86    3.14
  -4  13  -1   43.08    5.77
  -4  13  -1   49.99    3.83
   4 -13   1   47.34    2.99
   4 -13   1   47.51    3.85
   4 -13   1   44.75    4.08
  -5  13  -1   11.13    3.52
  -5  13  -1    8.93    1.57
   5 -13   1   12.04    1.52
   5 -13   1    7.26    1.71
   5 -13   1    6.86    1.54
   6  12  -1   27.42    3.10
  -6 -12   1   33.72    3.28
  -6 -12   1   28.96    3.34
   5  12  -1   19.16    2.40
  -5 -12   1   18.02    2.56
  -5 -12   1   20.57    2.65
   4  12  -1    1.15    1.03
  -4 -12   1    1.57    1.15
  -4 -12   1    1.18    0.96
   3  12  -1   51.67    3.72
  -3 -12   1   45.63    4.07
  -3 -12   1   46.71    3.84
  -2 -12   1   52.69    4.38
  -2 -12   1   54.52    4.12
   1  12  -1    4.22    0.94
   1  12  -1    3.57    0.97
  -1 -12   1    2.36    1.05
  -1 -12   1    3.94    1.12
  -1 -12   1    4.26    0.79
   0  12  -1   56.71    6.56
   0  12  -1   65.56    4.72
   0  12  -1   64.69    4.56
   0 -12   1   66.96    4.73
   0 -12   1   70.70    3.58
   0 -12   1   68.84    5.08
  -1  12  -1   52.91    3.87
  -1  12  -1   51.35    3.74
  -1  12  -1   46.84    5.78
   1 -12   1   52.40    2.95
   1 -12   1   50.81    4.06
   1 -12   1   50.78    3.85
  -2  12  -1    0.24    1.83
  -2  12  -1    0.85    0.68
   2 -12   1    0.06    0.60
   2 -12   1    0.55    0.75
  -3  12  -1   53.90    5.96
  -3  12  -1   50.19    3.66
   3 -12   1   44.19    3.63
   3 -12   1   47.51    4.05
   3 -12   1   44.86    2.84
  -4  12  -1   25.25    4.49
  -4  12  -1   27.07    2.55
   4 -12   1   26.82    2.06
   4 -12   1   28.16    2.64
   4 -12   1   28.45    2.85
  -5  12  -1    9.54    1.55
  -5  12  -1    7.38    3.06
   5 -12   1    9.85    1.32
   5 -12   1    9.68    1.60
   5 -12   1   10.38    1.84
  -6  12  -1   33.38    3.06
  -6  12  -1   39.24    5.67
   6 -12   1   32.90    2.50
   6 -12   1   36.33    3.24
   6 -12   1   32.09    3.10
   7 -12   1   11.15    1.96
   7  11  -1   16.89    2.33
  -7 -11   1   17.75    2.69
  -7 -11   1   18.80    2.67
   6  11  -1   46.48    3.84
  -6 -11   1   52.74    4.31
  -6 -11   1   50.36    4.50
   5  11  -1   15.61    2.07
  -5 -11   1   10.82    1.82
  -5 -11   1   12.06    1.97
   4  11  -1   19.00    2.35
  -4 -11   1   20.28    2.58
  -4 -11   1   17.96    2.34
   3  11  -1   39.19    2.97
   3  11  -1   32.42    3.16
  -3 -11   1   36.01    3.23
  -3 -11   1   35.80    3.03
   2  11  -1    0.05    0.55
   2  11  -1    0.30    0.55
  -2 -11   1    0.80    0.85
  -2 -11   1   -0.25    0.41
  -2 -11   1    0.32    0.73
   1  11  -1   30.83    2.58
   1  11  -1   28.27    2.38
   1  11  -1   29.23    2.70
  -1 -11   1   31.68    1.87
  -1 -11   1   28.01    2.54
  -1 -11   1   26.96    2.64
   0  11  -1   48.05    3.46
   0  11  -1   44.78    3.27
   0  11  -1   37.94    4.85
   0  11  -1   47.38    3.82
   0 -11   1   44.96    3.42
   0 -11   1   47.60    2.60
   0 -11   1   43.33    3.62
  -1  11  -1    0.64    0.62
  -1  11  -1    0.63    0.53
  -1  11  -1    0.86    0.73
  -1  11  -1    0.99    1.46
   1 -11   1    0.50    0.69
   1 -11   1    1.45    0.74
   1 -11   1    1.81    0.63
  -2  11  -1   77.46    5.04
  -2  11  -1   72.48    7.14
  -2  11  -1   71.23    4.86
   2 -11   1   72.94    5.31
   2 -11   1   75.19    3.89
   2 -11   1   72.85    5.00
  -3  11  -1   82.24    7.65
  -3  11  -1   80.61    5.30
   3 -11   1   76.44    4.11
   3 -11   1   74.93    5.27
  -4  11  -1    1.90    0.80
  -4  11  -1    2.12    2.13
   4 -11   1    1.93    1.02
   4 -11   1    2.04    0.96
   4 -11   1    1.43    0.72
  -5  11  -1   18.42    2.14
  -5  11  -1   20.65    3.90
   5 -11   1   17.81    2.29
   5 -11   1   19.33    1.77
   5 -11   1   13.48    1.85
  -6  11  -1   42.39    5.83
  -6  11  -1   50.93    3.90
   6 -11   1   49.31    3.99
   6 -11   1   50.69    3.13
   6 -11   1   51.15    3.93
   6 -11   1   52.56    2.82
  -7  11  -1    1.07    2.32
  -7  11  -1    2.43    1.06
   7 -11   1    2.16    0.80
   7 -11   1    2.40    0.97
   7 -11   1    2.50    1.15
   8  10  -1    2.42    1.11
  -8 -10   1    1.40    1.23
  -8 -10   1    3.42    1.52
   7  10  -1   21.49    2.52
  -7 -10   1   16.10    2.53
  -7 -10   1   29.48    2.95
   6  10  -1   20.88    2.45
  -6 -10   1   18.71    2.47
  -6 -10   1   15.11    2.36
   5  10  -1   21.16    2.25
  -5 -10   1   21.47    2.46
  -5 -10   1   18.37    2.50
   4  10  -1   97.85    5.67
  -4 -10   1   90.48    6.69
  -4 -10   1   84.94    6.13
   3  10  -1   13.22    1.64
   3  10  -1   12.64    1.86
   3  10  -1   13.70    1.64
  -3 -10   1   10.76    1.65
  -3 -10   1   11.04    1.55
   2  10  -1   16.94    1.87
   2  10  -1   18.92    1.78
   2  10  -1   18.51    1.95
  -2 -10   1   18.42    1.98
  -2 -10   1   20.97    1.94
  -2 -10   1   16.37    1.23
   1  10  -1  120.00    8.64
   1  10  -1  126.36    7.50
   1  10  -1   90.29    9.60
   1  10  -1  118.62    7.47
  -1 -10   1  118.26    5.59
  -1 -10   1  120.03    7.41
  -1 -10   1  118.84    8.14
   0  10  -1    3.77    0.92
   0  10  -1    3.71    0.76
   0  10  -1    3.59    0.87
   0  10  -1    2.64    1.63
   0 -10   1    4.47    0.98
   0 -10   1    3.16    0.88
   0 -10   1    2.28    0.59
  -1  10  -1   15.25    1.83
  -1  10  -1   13.49    1.33
  -1  10  -1   11.20    1.43
  -1  10  -1   14.09    2.79
   1 -10   1   14.21    1.55
   1 -10   1   14.84    1.56
   1 -10   1   14.42    1.19
  -2  10  -1   45.78    3.17
  -2  10  -1   34.91    3.75
  -2  10  -1   40.54    2.97
  -2  10  -1   47.75    5.05
   2 -10   1   43.86    3.16
   2 -10   1   43.81    3.27
   2 -10   1   42.60    2.45
  -3  10  -1    9.16    1.10
  -3  10  -1    9.35    1.75
  -3  10  -1    8.41    2.42
  -3  10  -1    9.03    1.29
   3 -10   1    8.17    1.02
   3 -10   1    7.91    1.29
   3 -10   1    9.52    1.22
  -4  10  -1   19.60    1.65
  -4  10  -1   18.55    1.85
  -4  10  -1   21.22    3.61
  -4  10  -1   12.23    2.12
   4 -10   1   19.11    1.95
   4 -10   1   23.01    2.16
   4 -10   1   20.66    1.58
  -5  10  -1   32.87    4.70
  -5  10  -1   44.52    3.31
   5 -10   1   42.96    2.35
   5 -10   1   42.14    2.60
   5 -10   1   45.19    3.44
  -6  10  -1   13.09    3.26
  -6  10  -1   21.56    2.10
   6 -10   1   20.01    2.13
   6 -10   1   16.41    1.63
   6 -10   1   20.08    1.50
  -7  10  -1    3.99    1.14
  -7  10  -1    0.24    1.81
   7 -10   1    3.27    1.13
   7 -10   1    4.90    1.10
   7 -10   1    4.59    0.88
  -8  10  -1   36.38    3.16
  -8  10  -1   24.53    4.80
   8 -10   1   35.81    3.25
   8 -10   1   37.69    2.57
   8 -10   1   35.48    2.31
   8   9  -1   21.90    2.52
  -8  -9   1   12.50    2.26
  -8  -9   1   12.00    2.24
   7   9  -1   28.05    2.53
  -7  -9   1   22.55    2.87
  -7  -9   1   28.40    3.00
   6   9  -1    0.50    0.72
  -6  -9   1    0.49    0.80
  -6  -9   1    0.16    0.95
   5   9  -1   64.73    3.97
  -5  -9   1   54.60    4.38
  -5  -9   1   56.58    4.66
   4   9  -1   20.29    1.87
   4   9  -1   18.95    2.05
  -4  -9   1   18.09    1.99
  -4  -9   1   18.38    2.10
   3   9  -1   14.63    1.93
   3   9  -1   14.70    1.71
  -3  -9   1   16.73    1.88
  -3  -9   1   14.76    0.99
  -3  -9   1   15.27    1.77
   2   9  -1  101.04    6.54
   2   9  -1  100.43    6.53
   2   9  -1  101.41    7.53
  -2  -9   1  100.51    7.10
  -2  -9   1  100.99    6.45
  -2  -9   1  102.47    4.79
   1   9  -1   76.26    4.86
   1   9  -1   73.93    4.82
   1   9  -1   75.09    5.58
   1   9  -1   60.26    6.41
  -1  -9   1   77.05    4.82
  -1  -9   1   72.40    3.58
  -1  -9   1   70.54    5.22
   0   9  -1    0.61    1.26
   0   9  -1    1.07    0.51
   0   9  -1    2.19    0.74
   0   9  -1    1.75    0.59
   0  -9   1    2.15    0.52
   0  -9   1    2.16    0.72
   0  -9   1    1.92    0.65
  -1   9  -1   93.44    5.91
  -1   9  -1   86.26    7.99
  -1   9  -1   95.01    5.93
  -1   9  -1   97.33    7.18
   1  -9   1   93.82    6.43
   1  -9   1   92.21    4.54
   1  -9   1   90.57    5.88
  -2   9  -1   90.08    7.80
  -2   9  -1  102.17    6.43
  -2   9  -1  104.22    8.83
  -2   9  -1  104.50    6.43
   2  -9   1  107.31    6.98
   2  -9   1  102.36    4.98
   2  -9   1  102.98    6.43
  -3   9  -1    1.24    0.81
  -3   9  -1    2.70    0.63
  -3   9  -1    5.25    1.89
  -3   9  -1    3.60    0.74
   3  -9   1    2.82    0.65
   3  -9   1    4.33    0.92
   3  -9   1    4.73    0.77
  -4   9  -1   34.57    2.74
  -4   9  -1   36.99    3.28
  -4   9  -1   36.63    2.60
  -4   9  -1   29.87    4.21
   4  -9   1   41.04    3.00
   4  -9   1   33.31    2.17
   4  -9   1   37.01    2.80
   4  -9   1   37.48    2.00
  -5   9  -1   54.83    3.58
  -5   9  -1   39.36    5.26
  -5   9  -1   52.76    3.74
  -5   9  -1   56.11    4.35
   5  -9   1   49.42    2.94
   5  -9   1   51.46    3.85
   5  -9   1   54.52    2.72
  -6   9  -1    0.65    0.68
  -6   9  -1   -1.19    1.34
  -6   9  -1    0.63    0.71
   6  -9   1    0.52    0.75
   6  -9   1   -0.11    0.46
   6  -9   1   -0.03    0.65
   6  -9   1    0.81    0.64
  -7   9  -1   63.93    7.06
  -7   9  -1   71.72    5.10
  -7   9  -1   75.34    5.89
   7  -9   1   76.76    5.26
   7  -9   1   79.90    5.21
   7  -9   1   71.86    4.04
   7  -9   1   71.78    3.73
  -8   9  -1   32.16    4.91
  -8   9  -1   35.70    3.07
   8  -9   1   34.42    3.17
   8  -9   1   34.30    3.05
   8  -9   1   35.51    2.29
   8  -9   1   37.51    2.52
  -9   9  -1    1.83    1.05
  -9   9  -1   -1.90    1.85
   9  -9   1    1.32    1.03
   9  -9   1    0.72    0.77
   9  -9   1    2.52    0.89
   9   8  -1   26.73    2.99
  -9  -8   1   28.89    3.44
  -9  -8   1   26.14    3.28
   8   8  -1   71.23    4.67
  -8  -8   1   57.32    5.18
  -8  -8   1   75.09    5.79
   7   8  -1    3.78    0.64
   7   8  -1    3.95    1.09
  -7  -8   1    3.70    1.27
  -7  -8   1    3.81    1.39
   6   8  -1   66.58    4.25
  -6  -8   1   68.49    5.01
  -6  -8   1   62.45    5.15
   5   8  -1   86.80    5.99
   5   8  -1   90.05    5.24
  -5  -8   1   86.28    6.02
  -5  -8   1   86.22    6.42
   4   8  -1   17.16    1.91
   4   8  -1   20.92    1.72
   4   8  -1   19.88    1.98
  -4  -8   1   17.79    1.95
  -4  -8   1   14.35    1.86
   3   8  -1   30.37    2.62
   3   8  -1   24.17    2.35
  -3  -8   1   28.41    2.53
  -3  -8   1   31.67    2.41
  -3  -8   1   29.03    1.53
   2   8  -1   60.74    4.87
   2   8  -1   65.80    4.28
   2   8  -1   64.18    4.31
  -2  -8   1   60.52    4.60
  -2  -8   1   66.29    4.25
  -2  -8   1   62.96    3.08
   1   8  -1   32.87    2.28
   1   8  -1   23.36    3.18
   1   8  -1   32.93    2.65
   1   8  -1   29.49    2.31
  -1  -8   1   31.29    2.31
  -1  -8   1   27.90    2.44
  -1  -8   1   29.79    1.67
   0   8  -1   58.38    3.68
   0   8  -1   56.00    3.71
   0   8  -1   42.35    4.99
   0   8  -1   57.36    4.41
   0  -8   1   56.75    4.01
   0  -8   1   53.95    2.80
   0  -8   1   56.80    3.70
  -1   8  -1  104.15    8.82
  -1   8  -1  111.75    9.66
  -1   8  -1  129.93    7.35
  -1   8  -1  127.27    7.40
   1  -8   1  122.81    8.00
   1  -8   1  119.68    7.29
   1  -8   1  113.84    5.61
  -2   8  -1   29.54    3.54
  -2   8  -1   23.32    2.60
  -2   8  -1   27.67    2.07
  -2   8  -1   28.32    1.97
   2  -8   1   25.59    1.62
   2  -8   1   23.86    2.04
   2  -8   1   27.62    2.13
  -3   8  -1   56.18    3.78
  -3   8  -1   56.12    3.70
  -3   8  -1   54.21    5.49
  -3   8  -1   52.30    4.52
   3  -8   1   59.45    3.98
   3  -8   1   56.69    2.98
   3  -8   1   58.69    2.74
  -4   8  -1  230.63   13.76
  -4   8  -1  185.11   17.20
  -4   8  -1  236.74   13.56
  -4   8  -1  242.54   16.18
   4  -8   1  229.40   10.52
   4  -8   1  234.90   13.87
   4  -8   1  225.22    9.81
  -5   8  -1   17.54    1.71
  -5   8  -1   17.59    1.56
  -5   8  -1   20.79    1.95
  -5   8  -1   15.20    2.90
   5  -8   1   16.39    1.77
   5  -8   1   19.98    1.83
   5  -8   1   18.85    1.29
   5  -8   1   15.99    1.39
  -6   8  -1   22.08    1.89
  -6   8  -1   22.38    2.09
  -6   8  -1   24.00    3.60
  -6   8  -1   23.11    2.32
   6  -8   1   24.10    1.73
   6  -8   1   22.44    2.12
   6  -8   1   23.48    2.15
   6  -8   1   23.89    1.58
  -7   8  -1   86.35    6.65
  -7   8  -1   76.82    7.65
  -7   8  -1   85.34    5.71
   7  -8   1   90.92    4.21
   7  -8   1   86.73    5.74
   7  -8   1   84.06    4.49
   7  -8   1   85.69    5.85
  -8   8  -1    9.14    1.45
  -8   8  -1    7.45    2.46
  -8   8  -1    9.48    1.62
   8  -8   1    8.42    1.56
   8  -8   1    6.42    0.95
   8  -8   1    7.39    1.14
   8  -8   1    7.62    1.38
  -9   8  -1   16.19    2.36
  -9   8  -1   20.01    3.73
  -9   8  -1   15.84    2.03
   9  -8   1   16.81    1.66
   9  -8   1   14.88    1.48
   9  -8   1   17.16    2.27
   9   7  -1   44.94    3.74
  -9  -7   1   53.42    4.78
  -9  -7   1   54.10    4.31
   8   7  -1    7.35    1.39
   8   7  -1   10.17    0.99
  -8  -7   1    8.22    1.88
  -8  -7   1    6.52    1.64
   7   7  -1   19.31    1.31
   7   7  -1   21.42    1.99
  -7  -7   1   22.85    2.54
  -7  -7   1   20.52    2.71
   6   7  -1   98.61    5.60
  -6  -7   1   92.34    6.52
  -6  -7   1   91.46    6.89
   5   7  -1   50.18    2.94
   5   7  -1   36.85    3.22
  -5  -7   1   45.12    3.47
  -5  -7   1   38.61    3.43
   4   7  -1   23.75    2.33
   4   7  -1   26.13    2.28
   4   7  -1   23.24    1.85
  -4  -7   1   22.20    2.18
  -4  -7   1   27.06    2.34
   3   7  -1   80.62    6.25
   3   7  -1  105.42    5.57
   3   7  -1   95.02    7.29
  -3  -7   1  102.77    4.53
  -3  -7   1  101.52    6.27
  -3  -7   1  104.32    6.89
   2   7  -1  123.14    7.61
   2   7  -1  125.61    8.90
   2   7  -1  126.42    7.70
  -2  -7   1  120.78    5.62
  -2  -7   1  126.12    7.53
  -2  -7   1  114.56    8.28
   1   7  -1    0.33    0.36
   1   7  -1    0.09    0.33
   1   7  -1    0.18    0.81
   1   7  -1    0.21    0.43
  -1  -7   1    0.04    0.38
  -1  -7   1    0.15    0.44
  -1  -7   1    0.52    0.19
  -1  -7   1    0.34    0.29
   0   7  -1  141.33    8.77
   0   7  -1  155.43   10.41
   0   7  -1  147.91    8.63
   0  -7   1  135.96    6.58
   0  -7   1  144.77    8.60
   0  -7   1  134.95    9.47
  -1   7  -1   93.29    5.53
  -1   7  -1   90.59    5.54
  -1   7  -1   87.10    7.42
   1  -7   1   86.79    4.23
   1  -7   1   84.38    5.47
   1  -7   1   88.56    5.99
  -2   7  -1   15.51    1.18
  -2   7  -1   12.50    2.34
  -2   7  -1   14.30    1.29
  -2   7  -1   11.75    1.57
   2  -7   1   13.82    1.03
   2  -7   1   13.81    1.28
   2  -7   1   14.36    1.27
  -3   7  -1  166.83   11.63
  -3   7  -1  159.34    9.71
  -3   7  -1  161.25    9.86
   3  -7   1  166.01   10.02
   3  -7   1  159.22    7.55
   3  -7   1  160.93    7.04
  -4   7  -1   61.72    5.83
  -4   7  -1   69.95    4.99
  -4   7  -1   61.31    4.22
  -4   7  -1   66.86    4.19
   4  -7   1   66.74    4.38
   4  -7   1   63.03    4.26
   4  -7   1   64.47    3.07
   4  -7   1   63.00    3.33
  -5   7  -1   21.44    2.09
  -5   7  -1   21.76    2.92
  -5   7  -1   24.78    1.95
  -5   7  -1   21.73    1.75
   5  -7   1   21.97    1.95
   5  -7   1   23.86    1.97
   5  -7   1   20.56    1.38
   5  -7   1   22.75    1.55
  -6   7  -1  138.07   11.12
  -6   7  -1  130.46    8.64
  -6   7  -1  137.66    8.59
  -6   7  -1  147.18   10.19
   6  -7   1  141.15    6.73
   6  -7   1  140.75    6.28
   6  -7   1  143.36    8.65
   6  -7   1  135.26    8.75
  -7   7  -1   55.91    3.99
  -7   7  -1   56.79    4.07
  -7   7  -1   56.81    5.56
  -7   7  -1   60.02    4.74
   7  -7   1   58.66    4.19
   7  -7   1   57.62    3.21
   7  -7   1   58.29    3.00
   7  -7   1   56.74    4.09
  -8   7  -1    3.98    1.86
  -8   7  -1    4.50    1.16
  -8   7  -1    5.22    1.11
   8  -7   1    4.84    1.12
   8  -7   1    3.69    0.83
   8  -7   1    5.30    0.91
   8  -7   1    5.33    1.23
  -9   7  -1   32.43    3.21
  -9   7  -1   30.75    2.77
  -9   7  -1   35.59    4.33
   9  -7   1   28.50    2.08
   9  -7   1   29.35    2.05
   9  -7   1   27.89    2.87
 -10   7  -1   17.18    2.21
 -10   7  -1   18.28    3.56
 -10   7  -1   21.94    2.66
  10  -7   1   18.25    1.77
  10  -7   1   18.77    2.48
 -10  -6   1   32.19    3.07
 -10  -6   1   31.40    3.94
   9   6  -1   41.13    3.29
   9   6  -1   42.00    2.37
  -9  -6   1   44.60    4.19
  -9  -6   1   43.18    3.65
   8   6  -1    2.78    0.93
   8   6  -1    2.83    0.59
  -8  -6   1    1.54    1.02
  -8  -6   1    0.97    1.05
   7   6  -1   14.92    1.73
   7   6  -1   15.59    1.09
  -7  -6   1   13.63    2.05
  -7  -6   1   14.82    2.06
   6   6  -1   69.33    4.03
   6   6  -1   64.68    4.43
  -6  -6   1   69.47    5.05
  -6  -6   1   55.22    4.67
   5   6  -1    1.04    0.63
   5   6  -1    0.48    0.49
  -5  -6   1    1.18    0.77
  -5  -6   1    0.37    0.66
   4   6  -1   58.06    4.52
   4   6  -1   56.86    3.41
   4   6  -1   59.88    2.60
   4   6  -1   54.87    4.02
  -4  -6   1   57.97    4.28
  -4  -6   1   50.37    3.97
   3   6  -1  121.77    8.63
   3   6  -1  123.11    6.45
   3   6  -1  106.22    7.39
  -3  -6   1  111.17    7.31
  -3  -6   1  119.58    8.07
  -3  -6   1  125.64    5.37
   2   6  -1   -0.10    0.32
   2   6  -1    0.01    0.31
   2   6  -1    0.07    0.37
  -2  -6   1   -0.01    0.21
  -2  -6   1   -0.28    0.37
  -2  -6   1    0.25    0.35
   1   6  -1  301.81   20.26
   1   6  -1  267.72   21.18
   1   6  -1  296.42   16.93
   1   6  -1  289.09   17.39
  -1  -6   1  301.31   17.42
  -1  -6   1  294.92   16.88
  -1  -6   1  282.16   18.77
  -1  -6   1  281.66   12.95
   0   6  -1  310.33   17.81
   0   6  -1  311.66   18.31
   0   6  -1  320.82   21.49
   0  -6   1  296.40   13.70
   0  -6   1  302.31   17.78
   0  -6   1  296.00   19.75
  -1   6  -1    0.03    0.27
  -1   6  -1    0.03    0.26
  -1   6  -1    0.10    0.54
  -1   6  -1    0.02    0.84
   1  -6   1    0.02    0.31
   1  -6   1    0.38    0.32
   1  -6   1    0.20    0.28
  -2   6  -1  134.36   12.51
  -2   6  -1  169.67   11.78
  -2   6  -1  173.98    9.81
  -2   6  -1  173.08    9.98
   2  -6   1  167.10    7.09
   2  -6   1  166.77    7.59
  -3   6  -1  105.26    9.08
  -3   6  -1  124.22    8.35
  -3   6  -1  119.35    7.06
  -3   6  -1  117.73    7.01
  -3   6  -1  115.54    7.08
   3  -6   1  118.27    7.21
   3  -6   1  116.77    5.09
   3  -6   1  109.67    5.43
   3  -6   1  109.37    7.01
  -4   6  -1    1.69    0.53
  -4   6  -1    1.26    0.50
  -4   6  -1    2.89    1.18
  -4   6  -1    1.18    0.41
   4  -6   1    0.82    0.40
   4  -6   1    1.14    0.51
   4  -6   1    1.31    0.39
   4  -6   1    1.15    0.50
  -5   6  -1   51.74    3.40
  -5   6  -1   47.94    4.51
  -5   6  -1   47.05    3.33
  -5   6  -1   52.22    3.95
   5  -6   1   50.62    3.42
   5  -6   1   49.56    2.68
   5  -6   1   49.18    3.46
   5  -6   1   48.64    2.48
  -6   6  -1   19.31    2.69
  -6   6  -1   17.20    1.65
  -6   6  -1   17.30    1.87
   6  -6   1   17.85    1.25
   6  -6   1   16.89    1.71
   6  -6   1   19.15    1.73
   6  -6   1   17.60    1.35
  -7   6  -1    0.27    0.99
  -7   6  -1    0.13    0.51
   7  -6   1    0.05    0.57
   7  -6   1    0.08    0.46
   7  -6   1   -0.20    0.60
   7  -6   1    0.15    0.48
  -8   6  -1   28.83    2.51
  -8   6  -1   28.62    3.58
   8  -6   1   29.43    2.53
   8  -6   1   28.34    1.86
   8  -6   1   28.33    1.95
   8  -6   1   34.17    2.73
  -9   6  -1   43.03    4.66
  -9   6  -1   37.73    3.19
   9  -6   1   40.47    2.47
   9  -6   1   41.38    3.43
   9  -6   1   38.73    2.39
 -10   6  -1    1.86    0.94
 -10   6  -1    1.74    1.86
  10  -6   1    1.79    0.78
  10  -6   1    3.23    1.23
  10   5  -1   28.31    1.89
 -10  -5   1   29.55    2.77
 -10  -5   1   25.53    3.46
   9   5  -1    3.63    0.71
   9   5  -1    3.33    1.11
  -9  -5   1    4.06    1.17
  -9  -5   1    3.29    1.37
   8   5  -1   22.20    1.45
   8   5  -1   22.87    2.04
  -8  -5   1   21.65    2.57
  -8  -5   1   21.31    2.29
   7   5  -1   82.81    4.87
   7   5  -1   80.53    3.78
  -7  -5   1   78.95    6.06
  -7  -5   1   79.51    5.58
   6   5  -1   43.46    2.84
   6   5  -1   42.45    2.18
   6   5  -1   46.52    3.14
  -6  -5   1   46.53    3.64
  -6  -5   1   37.88    3.36
   5   5  -1   31.38    2.11
   5   5  -1   30.51    2.40
  -5  -5   1   32.36    2.70
  -5  -5   1   28.67    2.63
   4   5  -1  130.83    6.72
   4   5  -1  110.21    7.68
  -4  -5   1  128.21    8.48
  -4  -5   1  127.02    7.86
   3   5  -1   41.28    3.17
   3   5  -1   45.78    2.67
   3   5  -1   46.99    2.08
   3   5  -1   42.71    3.52
  -3  -5   1   44.88    3.35
  -3  -5   1   44.92    3.13
   2   5  -1   32.35    2.40
   2   5  -1   33.38    2.68
  -2  -5   1   32.81    2.53
  -2  -5   1   33.23    1.62
  -2  -5   1   34.35    2.33
   1   5  -1  267.31   20.24
   1   5  -1  287.54   19.40
   1   5  -1  285.68   16.66
   1   5  -1  286.69   16.20
  -1  -5   1  269.34   12.39
  -1  -5   1  264.78   17.97
  -1  -5   1  284.28   16.16
   0   5  -1    4.37    1.14
   0   5  -1    7.03    0.67
   0   5  -1    8.95    1.17
   0   5  -1    7.47    0.73
   0  -5   1    5.29    0.68
   0  -5   1    7.07    0.54
   0  -5   1    6.43    0.72
  -1   5  -1   80.93    7.41
  -1   5  -1   97.89    5.78
  -1   5  -1   98.47    5.72
   1  -5   1   94.91    4.40
   1  -5   1   99.35    5.71
   1  -5   1   92.64    6.24
  -2   5  -1  214.20   12.87
  -2   5  -1  177.55   15.84
  -2   5  -1  232.30   15.10
  -2   5  -1  225.98   12.60
  -2   5  -1  216.59   12.91
   2  -5   1  220.26    9.13
   2  -5   1  219.20   12.60
   2  -5   1  212.32    9.74
  -3   5  -1   25.27    1.84
  -3   5  -1   25.38    1.77
  -3   5  -1   27.21    2.13
  -3   5  -1   27.91    2.72
   3  -5   1   24.87    1.86
   3  -5   1   25.18    1.92
   3  -5   1   24.77    1.34
   3  -5   1   25.47    1.47
  -4   5  -1   36.46    2.48
  -4   5  -1   38.36    3.40
  -4   5  -1   35.52    2.88
   4  -5   1   35.90    2.51
   4  -5   1   36.39    1.83
   4  -5   1   34.96    1.97
   4  -5   1   35.14    2.54
  -5   5  -1  121.66    9.01
  -5   5  -1  111.12    7.04
   5  -5   1  118.16    7.09
   5  -5   1  119.12    5.52
   5  -5   1  109.88    7.18
   5  -5   1  114.28    5.16
  -6   5  -1   29.14    3.00
  -6   5  -1   29.11    2.23
   6  -5   1   27.25    2.30
   6  -5   1   29.19    1.80
   6  -5   1   31.30    2.29
   6  -5   1   28.31    1.67
  -7   5  -1    8.62    1.78
  -7   5  -1    9.79    1.29
   7  -5   1   12.68    1.43
   7  -5   1   12.43    1.57
   7  -5   1    8.97    0.99
   7  -5   1   10.29    1.09
  -8   5  -1   53.39    3.80
  -8   5  -1   54.57    5.09
   8  -5   1   56.56    4.01
   8  -5   1   47.39    2.89
   8  -5   1   57.33    3.83
   8  -5   1   51.95    2.82
  -9   5  -1   13.86    1.75
  -9   5  -1   12.96    2.39
   9  -5   1   12.68    1.30
   9  -5   1   13.19    1.88
 -10   5  -1   15.17    3.00
 -10   5  -1   17.38    2.05
  10  -5   1   17.32    1.62
  10  -5   1   16.87    2.31
 -11   5  -1   47.23    3.76
 -11   5  -1   47.71    5.43
  11  -5   1   43.07    2.77
  11  -5   1   43.66    3.92
  10   4  -1   19.28    1.64
 -10  -4   1   17.21    2.80
 -10  -4   1   20.80    2.22
   9   4  -1   -0.12    0.74
   9   4  -1    0.31    0.46
  -9  -4   1    0.33    1.14
  -9  -4   1    0.72    0.74
   8   4  -1   53.69    3.63
   8   4  -1   56.49    2.83
  -8  -4   1   56.97    4.08
  -8  -4   1   53.16    4.56
   7   4  -1   47.60    3.38
   7   4  -1   46.95    2.48
   7   4  -1   56.64    3.30
  -7  -4   1   52.40    3.72
  -7  -4   1   46.10    4.01
   6   4  -1   11.11    1.20
   6   4  -1   12.25    1.31
   6   4  -1   10.81    0.93
  -6  -4   1   11.50    1.60
  -6  -4   1   17.19    1.88
   5   4  -1  227.38   11.42
   5   4  -1  221.34   12.90
  -5  -4   1  225.69   14.47
  -5  -4   1  194.51   13.09
   4   4  -1  124.59    7.62
   4   4  -1  131.24    6.66
  -4  -4   1  111.97    7.74
  -4  -4   1  128.28    8.45
   3   4  -1    4.23    0.58
   3   4  -1    3.48    0.24
   3   4  -1    4.00    0.73
   3   4  -1    2.64    0.65
  -3  -4   1    3.38    0.75
  -3  -4   1    5.31    0.84
   2   4  -1  208.55    8.22
   2   4  -1  186.67   12.93
   2   4  -1  153.02   10.87
  -2  -4   1  186.14   10.85
  -2  -4   1  178.67   12.03
  -2  -4   1  187.07    8.20
   1   4  -1  248.14   18.35
   1   4  -1  260.96   15.15
   1   4  -1  262.59   17.64
   1   4  -1  246.21   14.71
  -1  -4   1  246.21   16.35
  -1  -4   1  258.15   14.69
  -1  -4   1  250.35   11.26
   0   4  -1    0.26    0.21
   0   4  -1    0.21    0.19
   0   4  -1   -0.09    0.36
   0   4  -1    0.14    0.53
   0  -4   1   -0.05    0.22
   0  -4   1    0.21    0.23
   0  -4   1    0.00    0.18
  -1   4  -1   72.52    4.12
  -1   4  -1   70.56    4.09
  -1   4  -1   52.98    5.29
  -1   4  -1   63.48    4.93
   1  -4   1   68.33    4.44
   1  -4   1   68.63    4.08
   1  -4   1   67.77    3.15
  -2   4  -1   34.46    2.42
  -2   4  -1   33.92    2.89
  -2   4  -1   29.22    2.03
  -2   4  -1   31.16    2.00
  -2   4  -1   29.60    1.94
   2  -4   1   30.94    1.49
   2  -4   1   28.70    1.60
   2  -4   1   30.55    2.05
  -3   4  -1    2.34    0.76
  -3   4  -1    2.80    0.55
  -3   4  -1    2.43    0.47
   3  -4   1    2.89    0.40
   3  -4   1    3.17    0.46
   3  -4   1    2.86    0.54
   3  -4   1    3.85    0.59
   3  -4   1    3.19    0.55
  -4   4  -1  115.25    7.11
  -4   4  -1  126.67    9.03
   4  -4   1  116.18    7.27
   4  -4   1  116.04    5.20
   4  -4   1  118.89    7.14
   4  -4   1  118.75    7.80
   4  -4   1  119.73    5.55
  -5   4  -1   95.86    6.17
  -5   4  -1  103.70    7.84
   5  -4   1  102.51    4.55
   5  -4   1   99.97    6.34
   5  -4   1  105.21    4.85
   5  -4   1  100.58    6.21
  -6   4  -1    7.23    0.99
  -6   4  -1    8.38    1.53
   6  -4   1    8.94    1.10
   6  -4   1    9.44    0.90
   6  -4   1    8.51    1.17
   6  -4   1    9.29    0.86
  -7   4  -1  127.68    9.80
  -7   4  -1  127.04    7.75
   7  -4   1  126.03    7.97
   7  -4   1  130.93    7.75
   7  -4   1  116.48    5.97
   7  -4   1  125.20    5.69
  -8   4  -1  111.19    7.16
  -8   4  -1  119.13    9.20
   8  -4   1  113.47    7.13
   8  -4   1  111.87    5.28
   8  -4   1  108.68    5.51
   8  -4   1  119.25    7.46
  -9   4  -1    0.38    1.16
  -9   4  -1    0.47    0.64
   9  -4   1    0.64    0.56
   9  -4   1    0.83    0.80
 -10   4  -1   47.83    3.62
 -10   4  -1   43.04    4.90
  10  -4   1   47.98    3.85
  10  -4   1   44.68    2.69
 -11   4  -1   27.73    2.68
 -11   4  -1   22.46    3.79
  11  -4   1   31.82    2.17
  11  -4   1   24.68    2.80
  11   3  -1   50.36    2.86
 -11  -3   1   43.09    4.72
 -11  -3   1   52.34    3.95
  10   3  -1    8.92    1.13
 -10  -3   1    9.24    2.13
 -10  -3   1    8.63    1.48
   9   3  -1   47.21    2.47
   9   3  -1   36.97    3.06
  -9  -3   1   45.01    3.38
  -9  -3   1   42.73    3.97
   8   3  -1  146.70    6.76
   8   3  -1  147.04    8.40
  -8  -3   1  152.98   10.61
  -8  -3   1  157.70    9.42
   7   3  -1    8.59    0.85
   7   3  -1    6.66    0.98
   7   3  -1    8.30    1.11
  -7  -3   1    6.93    1.13
  -7  -3   1    7.32    1.38
   6   3  -1   69.42    4.00
   6   3  -1   67.86    4.38
   6   3  -1   66.55    3.20
  -6  -3   1   67.58    4.57
  -6  -3   1   71.09    5.09
   5   3  -1  122.41    5.57
   5   3  -1  127.88    6.85
   5   3  -1  126.24    7.70
  -5  -3   1  127.72    8.70
  -5  -3   1  135.58    7.95
   4   3  -1    0.91    0.38
   4   3  -1    0.64    0.33
  -4  -3   1    1.18    0.55
  -4  -3   1    0.75    0.49
   3   3  -1  127.90    6.42
   3   3  -1  125.15    8.75
   3   3  -1  118.97    7.38
  -3  -3   1  111.70    7.46
  -3  -3   1  125.31    8.16
   2   3  -1  104.57    7.62
   2   3  -1  141.67    5.68
   2   3  -1  126.47    9.01
  -2  -3   1  124.18    7.62
  -2  -3   1  135.66    8.42
   1   3  -1   11.28    0.96
   1   3  -1   11.90    0.93
   1   3  -1   10.63    1.26
   1   3  -1   10.79    1.08
   1   3  -1   12.89    0.66
  -1  -3   1   10.99    1.01
  -1  -3   1   11.39    0.93
  -1  -3   1   12.95    1.03
  -1  -3   1   11.33    0.64
   0   3  -1  260.85   14.66
   0   3  -1  254.09   15.09
   0  -3   1  256.29   14.65
   0  -3   1  251.71   15.08
   0  -3   1  251.18   11.30
   0  -3   1  251.25   16.30
  -1   3  -1   45.55    2.84
  -1   3  -1   38.85    3.77
  -1   3  -1   47.05    2.88
  -1   3  -1   45.98    2.88
  -1   3  -1   49.87    3.47
   1  -3   1   46.63    2.09
   1  -3   1   50.20    2.92
   1  -3   1   50.50    3.44
   1  -3   1   45.06    2.23
   1  -3   1   45.44    3.11
  -2   3  -1  130.30    7.79
  -2   3  -1  125.56    8.04
  -2   3  -1  134.95    7.98
  -2   3  -1  147.35    9.86
  -2   3  -1  138.43    9.33
   2  -3   1  135.51    7.98
   2  -3   1  128.82    5.66
   2  -3   1  124.57    7.78
   2  -3   1  133.24    6.05
  -3   3  -1   39.34    2.62
  -3   3  -1   45.04    3.42
  -3   3  -1   41.55    1.72
   3  -3   1   42.37    2.65
   3  -3   1   42.18    2.71
   3  -3   1   39.03    1.92
   3  -3   1   41.59    2.08
  -4   3  -1  218.08    8.58
  -4   3  -1  210.28   12.82
  -4   3  -1  223.63   15.98
   4  -3   1  229.94   14.17
   4  -3   1  227.44    9.97
   4  -3   1  218.01    9.36
   4  -3   1  215.97   13.10
   4  -3   1  216.78   12.84
  -5   3  -1   16.50    1.42
  -5   3  -1   17.53    1.88
  -5   3  -1   19.67    1.45
   5  -3   1   18.08    1.16
   5  -3   1   16.96    1.08
   5  -3   1   18.43    1.54
   5  -3   1   19.86    1.48
  -6   3  -1   34.77    2.38
  -6   3  -1   29.16    2.23
  -6   3  -1   31.06    2.92
   6  -3   1   31.67    2.38
   6  -3   1   30.93    1.76
   6  -3   1   27.43    1.65
   6  -3   1   32.20    2.27
  -7   3  -1  163.07   12.21
  -7   3  -1  157.34    9.71
  -7   3  -1  169.56   10.69
   7  -3   1  162.91   10.01
   7  -3   1  158.73    7.50
   7  -3   1  164.92    9.70
   7  -3   1  150.46    7.09
  -8   3  -1    1.71    0.68
  -8   3  -1    3.88    1.30
   8  -3   1    3.39    0.68
   8  -3   1    3.25    0.94
   8  -3   1    4.76    0.92
  -9   3  -1   56.93    5.21
  -9   3  -1   54.57    3.90
   9  -3   1   55.93    2.93
   9  -3   1   52.12    4.09
 -10   3  -1   72.01    4.90
 -10   3  -1   73.40    6.55
  10  -3   1   65.56    3.61
  10  -3   1   68.49    5.13
 -11   3  -1    0.38    1.52
 -11   3  -1    1.42    0.87
  11  -3   1    3.30    0.93
  11  -3   1    1.67    1.11
  11   2  -1    6.89    1.08
 -11  -2   1    6.37    1.35
 -11  -2   1    5.92    1.92
 -11  -2   1    9.83    2.70
  10   2  -1   26.79    1.89
 -10  -2   1   28.08    3.36
 -10  -2   1   29.74    2.67
 -10  -2   1   35.27    4.06
   9   2  -1   60.04    2.97
  -9  -2   1   47.38    4.66
  -9  -2   1   58.35    4.04
   8   2  -1   22.87    1.49
   8   2  -1   23.62    1.98
  -8  -2   1   20.52    2.49
  -8  -2   1   24.17    2.09
   7   2  -1   25.13    1.53
   7   2  -1   25.49    2.02
   7   2  -1   26.20    1.99
  -7  -2   1   28.23    2.57
  -7  -2   1   26.97    2.17
   6   2  -1  111.17    7.18
   6   2  -1  119.07    5.28
   6   2  -1  123.48    6.49
  -6  -2   1  116.00    8.20
  -6  -2   1  124.59    7.35
   5   2  -1   72.94    4.07
   5   2  -1   75.21    4.55
   5   2  -1   70.69    3.31
  -5  -2   1   72.08    4.65
  -5  -2   1   72.96    5.19
   4   2  -1    3.05    0.48
   4   2  -1    3.77    0.59
  -4  -2   1    3.14    0.64
  -4  -2   1    2.61    0.60
   3   2  -1   70.94    3.83
   3   2  -1   74.34    4.41
   3   2  -1   72.09    5.27
  -3  -2   1   75.88    4.93
  -3  -2   1   63.60    4.49
   2   2  -1   95.93    6.16
   2   2  -1  108.55    5.34
   2   2  -1  108.23    7.31
  -2  -2   1  113.07    6.82
  -2  -2   1   85.70    6.17
   1   2  -1   40.09    2.87
   1   2  -1   50.03    2.10
   1   2  -1   43.22    3.35
  -1  -2   1   44.31    2.88
  -1  -2   1   45.07    2.88
  -1  -2   1   47.25    3.37
  -1  -2   1   46.82    2.09
  -1  -2   1   47.18    2.85
  -1  -2   1   47.07    3.13
   0   2  -1  458.18   25.98
   0   2  -1  453.60   25.98
   0   2  -1  465.99   28.96
   0   2  -1  474.95   20.08
   0   2  -1  450.68   26.82
   0  -2   1  445.93   26.82
   0  -2   1  442.79   28.95
   0  -2   1  451.82   25.97
   0  -2   1  445.14   20.06
  -1   2  -1   38.73    2.43
  -1   2  -1   40.61    1.77
  -1   2  -1   37.34    2.41
  -1   2  -1   40.63    2.90
  -1   2  -1   41.23    3.18
  -1   2  -1   39.32    1.89
  -1   2  -1   41.33    2.44
  -1   2  -1   39.04    2.42
   1  -2   1   40.68    3.16
   1  -2   1   39.01    1.88
   1  -2   1   42.08    2.44
   1  -2   1   37.92    1.75
   1  -2   1   41.42    2.89
  -2   2  -1  117.18    7.71
  -2   2  -1  103.77    6.38
  -2   2  -1  107.97    6.14
  -2   2  -1  107.75    6.15
   2  -2   1  104.88    6.28
   2  -2   1   88.02    6.75
   2  -2   1  101.78    6.14
   2  -2   1  106.45    4.47
   2  -2   1  107.63    4.78
  -3   2  -1  450.80   32.39
  -3   2  -1  481.93   29.09
  -3   2  -1  457.16   17.67
  -3   2  -1  439.24   26.16
   3  -2   1  451.42   26.18
   3  -2   1  468.57   20.27
   3  -2   1  479.26   29.10
   3  -2   1  430.33   26.67
   3  -2   1  448.14   19.04
  -4   2  -1  147.56   10.06
  -4   2  -1  153.49   11.30
  -4   2  -1  152.32    6.01
  -4   2  -1  149.98    9.07
   4  -2   1  163.15   10.01
   4  -2   1  157.13    9.08
   4  -2   1  153.29    6.64
   4  -2   1  150.96    9.29
   4  -2   1  163.85    7.06
  -5   2  -1   18.99    1.47
  -5   2  -1   16.95    1.65
  -5   2  -1   21.18    1.98
   5  -2   1   18.55    1.11
   5  -2   1   19.47    1.17
   5  -2   1   20.47    1.49
   5  -2   1   20.09    1.59
  -6   2  -1  129.43   10.14
  -6   2  -1  154.05    9.10
  -6   2  -1  155.42   11.40
   6  -2   1  159.71    9.39
   6  -2   1  156.31    9.08
   6  -2   1  160.69    7.04
   6  -2   1  151.71    6.67
  -7   2  -1   23.08    2.51
  -7   2  -1   21.12    2.18
  -7   2  -1   24.02    1.88
   7  -2   1   24.46    1.86
   7  -2   1   22.70    1.42
   7  -2   1   23.48    2.02
   7  -2   1   23.42    1.42
  -8   2  -1    2.35    1.13
  -8   2  -1    2.43    0.73
  -8   2  -1    3.66    1.08
   8  -2   1    3.37    0.98
   8  -2   1    2.99    0.73
   8  -2   1    1.97    0.56
  -9   2  -1   24.41    2.17
  -9   2  -1   24.27    3.01
   9  -2   1   25.26    1.65
   9  -2   1   24.02    2.36
 -10   2  -1    5.09    1.11
 -10   2  -1    5.04    1.77
  10  -2   1    5.28    1.34
  10  -2   1    6.56    0.95
 -11   2  -1    8.10    1.41
 -11   2  -1    8.16    2.32
  11  -2   1    8.09    1.62
  11  -2   1    7.19    1.10
  11   1  -1    1.62    0.70
 -11  -1   1    0.43    1.53
 -11  -1   1    0.80    1.64
 -11  -1   1    0.57    0.80
  10   1  -1   20.84    1.56
 -10  -1   1   22.81    3.36
 -10  -1   1   20.76    2.12
 -10  -1   1   12.66    2.49
   9   1  -1   13.55    1.22
  -9  -1   1   10.07    2.05
  -9  -1   1   12.44    1.60
  -9  -1   1   11.12    1.99
   8   1  -1    3.91    0.80
   8   1  -1    3.44    0.61
  -8  -1   1    4.09    1.28
  -8  -1   1    3.37    0.84
   7   1  -1   41.31    3.03
   7   1  -1   37.49    2.66
   7   1  -1   42.40    2.16
   7   1  -1   39.30    2.83
  -7  -1   1   39.73    3.45
  -7  -1   1   42.34    2.94
   6   1  -1   12.54    0.91
   6   1  -1   15.13    1.36
   6   1  -1   12.92    1.20
   6   1  -1   12.97    1.17
   6   1  -1   11.91    0.65
  -6  -1   1   12.99    1.27
  -6  -1   1   12.69    1.55
   5   1  -1   10.73    0.73
   5   1  -1    9.66    1.01
   5   1  -1    9.46    0.93
   5   1  -1    9.39    0.51
   5   1  -1    9.66    0.89
  -5  -1   1    9.46    0.99
  -5  -1   1    8.71    0.49
  -5  -1   1    8.02    1.18
   4   1  -1   74.10    3.91
   4   1  -1   71.47    4.53
   4   1  -1   71.10    3.22
   4   1  -1   74.93    3.23
   4   1  -1   66.94    4.38
  -4  -1   1   69.65    3.21
  -4  -1   1   72.98    4.47
  -4  -1   1   74.22    5.02
   3   1  -1  258.56   13.40
   3   1  -1  259.34   15.21
  -3  -1   1  271.08   15.29
  -3  -1   1  264.64   17.04
   2   1  -1    9.40    0.63
   2   1  -1    9.12    0.78
   2   1  -1    8.37    0.91
  -2  -1   1   10.05    0.63
  -2  -1   1    9.97    0.89
  -2  -1   1   10.28    0.88
  -2  -1   1    9.70    0.80
   1   1  -1  214.81   13.37
   1   1  -1  172.05   11.17
   1   1  -1  162.72   11.16
  -1  -1   1  220.60   13.38
   0   1  -1  336.69   14.31
   0   1  -1  318.64   18.52
   0   1  -1  314.96   20.64
   0   1  -1  333.57   18.52
   0  -1   1  322.30   18.53
   0  -1   1  324.61   18.52
   0  -1   1  330.66   20.64
   0  -1   1  311.19   19.11
  -1   1  -1    0.20    0.13
  -1   1  -1    0.36    0.22
  -1   1  -1    0.19    0.14
  -1   1  -1    0.18    0.15
  -1   1  -1    0.61    0.31
  -1   1  -1    0.21    0.17
  -1   1  -1    0.09    0.16
   1  -1   1    0.59    0.20
   1  -1   1    0.03    0.15
   1  -1   1    0.19    0.16
   1  -1   1    1.05    0.34
   1  -1   1    0.46    0.17
   1  -1   1    0.52    0.22
   1  -1   1    0.24    0.13
  -2   1  -1  131.31    5.75
  -2   1  -1  124.15    7.40
  -2   1  -1  122.25    7.39
  -2   1  -1  122.37    7.76
  -2   1  -1  129.60    9.20
   2  -1   1  132.73    5.75
   2  -1   1  122.24    7.56
   2  -1   1  128.61    5.40
   2  -1   1  125.18    7.40
   2  -1   1  137.52    8.18
  -3   1  -1  244.53   14.17
  -3   1  -1  250.47   14.18
  -3   1  -1  224.76   15.83
  -3   1  -1  239.49   17.57
   3  -1   1  252.98   10.99
   3  -1   1  263.48   15.76
   3  -1   1  243.50   14.49
   3  -1   1  244.52   10.34
   3  -1   1  250.55   14.18
  -4   1  -1    8.86    0.98
  -4   1  -1    9.06    0.78
  -4   1  -1    9.89    1.07
  -4   1  -1    9.21    0.79
   4  -1   1    9.01    0.62
   4  -1   1    9.56    0.63
   4  -1   1    8.19    0.85
   4  -1   1    8.50    0.77
  -5   1  -1  253.50   14.55
  -5   1  -1  253.51   18.09
  -5   1  -1  231.62   16.33
   5  -1   1  260.15   11.24
   5  -1   1  256.43   14.53
   5  -1   1  248.17   14.91
   5  -1   1  246.48   10.61
  -6   1  -1   44.74    3.85
  -6   1  -1   40.61    3.51
  -6   1  -1   47.61    3.03
   6  -1   1   46.15    2.24
   6  -1   1   46.06    2.98
   6  -1   1   47.72    3.20
  -7   1  -1    1.77    0.79
  -7   1  -1    2.20    0.59
  -7   1  -1    1.26    0.84
   7  -1   1    0.89    0.58
   7  -1   1    2.35    0.47
   7  -1   1    2.26    0.57
  -8   1  -1  100.44    6.28
  -8   1  -1  101.08    8.02
   8  -1   1   99.46    6.21
   8  -1   1  101.88    6.58
   8  -1   1   96.08    4.61
  -9   1  -1   38.76    2.92
  -9   1  -1   37.99    3.92
   9  -1   1   39.85    3.18
   9  -1   1   37.11    2.18
 -10   1  -1    2.84    0.89
 -10   1  -1    1.71    1.41
  10  -1   1    0.93    0.60
  10  -1   1    1.05    0.88
 -11   1  -1    7.74    1.37
 -11   1  -1    6.51    2.00
  11  -1   1    7.65    1.13
  11  -1   1    8.36    1.73
  11   0  -1   23.57    1.82
 -11   0   1   18.18    2.30
 -11   0   1   24.92    3.84
  10   0  -1   27.91    1.95
 -10   0   1   34.30    3.83
 -10   0   1   29.43    3.72
 -10   0   1   25.46    2.54
   9   0  -1    3.54    0.71
   9   0  -1    4.85    1.11
  -9   0   1    2.62    0.83
  -9   0   1    3.88    1.47
  -9   0   1    0.19    1.11
   8   0  -1    1.99    0.56
   8   0  -1    1.52    0.63
   8   0  -1    1.67    0.76
  -8   0   1    1.57    0.67
  -8   0   1    2.24    1.21
  -8   0   1    0.08    0.97
   7   0  -1   72.72    3.56
   7   0  -1   78.47    5.01
   7   0  -1   78.18    4.83
  -7   0   1   75.26    6.16
  -7   0   1   73.36    4.84
  -7   0   1   69.71    5.61
   6   0  -1   14.12    1.26
   6   0  -1   14.55    0.82
   6   0  -1   13.33    1.33
   6   0  -1   12.68    0.95
  -6   0   1   13.31    1.76
  -6   0   1   13.22    1.28
   5   0  -1   39.41    2.72
   5   0  -1   40.37    2.63
   5   0  -1   39.80    1.59
   5   0  -1   37.22    1.94
   5   0  -1   37.26    2.37
   5   0  -1   39.72    1.88
  -5   0   1   38.10    2.64
  -5   0   1   42.01    3.15
   4   0  -1  142.26    8.34
   4   0  -1  137.22    6.08
   4   0  -1  142.32    6.33
   4   0  -1  146.51    7.38
   4   0  -1  138.70    8.52
  -4   0   1  148.90    9.45
  -4   0   1  137.23    6.31
  -4   0   1  137.20    8.35
   3   0  -1   21.88    1.46
   3   0  -1   21.89    1.08
   3   0  -1   21.19    1.50
   3   0  -1   21.94    1.04
   3   0  -1   20.94    1.27
  -3   0   1   22.20    1.74
  -3   0   1   22.44    1.49
  -3   0   1   19.81    1.02
   2   0  -1  290.98   14.51
   2   0  -1  289.13   11.99
   2   0  -1  272.46   16.48
   2   0  -1  294.24   12.67
   2   0  -1  284.60   16.79
  -2   0   1  279.04   16.50
  -2   0   1  275.83   12.67
  -2   0   1  281.96   16.49
  -2   0   1  313.85   18.50
  -2   0   1  290.06   14.49
   1   0  -1  619.16   36.46
   1   0  -1  688.20   40.73
   1   0  -1  657.40   36.46
   1   0  -1  594.71   31.93
   1   0  -1  614.15   43.73
   1   0  -1  617.55   28.01
  -1   0   1  632.33   36.32
  -1   0   1  670.72   40.57
  -1   0   1  617.85   27.99
  -1   0   1  655.23   36.25
  -1   0   1  647.69   43.64
  -1   0   1  619.33   36.91
  -1   0   1  619.88   31.92
   0   0  -1   -0.45    0.05
   0   0  -1   -0.49    0.04
   0   0  -1   -0.49    0.03
   0   0  -1   -0.50    0.03
   0   0  -1   -0.52    0.03
   0   0   1   -0.46    0.05
   0   0   1   -0.53    0.03
   0   0   1   -0.49    0.05
   0   0   1   -0.47    0.04
   0   0   1   -0.52    0.03
  -1   0  -1  225.52   13.60
  -1   0  -1  215.58   11.46
   1   0   1  249.97   13.30
   1   0   1  199.50   13.60
   1   0   1  244.53    9.42
  -2   0  -1  217.36   14.57
  -2   0  -1  237.65   17.12
  -2   0  -1  236.01   13.81
  -2   0  -1  237.63   12.25
  -2   0  -1  245.59   15.41
  -2   0  -1  230.70   13.81
  -2   0  -1  245.39   10.06
  -2   0  -1  251.88   10.70
   2   0   1  254.13   15.41
   2   0   1  242.73   13.81
   2   0   1  240.82   10.06
   2   0   1  248.78   13.81
   2   0   1  250.72   12.26
   2   0   1  237.77   14.13
  -3   0  -1  128.35    7.42
  -3   0  -1  130.42    5.74
  -3   0  -1  130.55    8.30
  -3   0  -1  121.32    9.25
  -3   0  -1  125.87    7.42
   3   0   1  124.84    5.43
   3   0   1  133.36    6.65
   3   0   1  123.19    7.41
   3   0   1  122.36    7.63
   3   0   1  136.77    8.29
  -4   0  -1   71.84    4.24
  -4   0  -1   72.46    4.76
  -4   0  -1   72.51    4.24
  -4   0  -1   65.68    5.32
   4   0   1   67.92    3.11
   4   0   1   70.95    4.21
   4   0   1   70.13    4.41
  -5   0  -1  136.50    8.40
  -5   0  -1  116.99    9.29
  -5   0  -1  127.42    7.44
   5   0   1  120.80    5.44
   5   0   1  122.18    7.40
   5   0   1  127.82    7.70
  -6   0  -1    1.47    0.64
  -6   0  -1    2.14    0.71
  -6   0  -1    1.40    0.43
   6   0   1    1.88    0.39
   6   0   1    1.81    0.45
   6   0   1    1.41    0.57
  -7   0  -1   43.52    2.86
  -7   0  -1   41.45    3.40
  -7   0  -1   40.34    3.72
   7   0   1   39.85    3.02
   7   0   1   41.70    2.12
   7   0   1   41.12    2.79
  -8   0  -1   86.86    6.71
  -8   0  -1   75.73    6.00
  -8   0  -1   82.05    5.17
   8   0   1   75.20    3.78
   8   0   1   81.95    5.45
  -9   0  -1   12.86    1.51
  -9   0  -1    7.85    1.75
  -9   0  -1   13.37    2.14
   9   0   1   12.58    1.77
   9   0   1   12.18    1.14
 -10   0  -1   24.47    3.01
 -10   0  -1   20.05    2.03
  10   0   1   22.64    2.36
  10   0   1   19.14    1.55
 -11   0  -1   81.17    7.16
 -11   0  -1   77.28    5.25
  11   0   1   71.53    5.57
  11   0   1   73.48    3.90
  11  -1  -1   10.08    1.31
 -11   1   1    9.17    2.43
 -11   1   1   10.27    1.68
  10  -1  -1   10.66    1.21
  10  -1  -1   10.96    1.73
 -10   1   1   10.23    1.56
 -10   1   1    9.64    2.25
 -10   1   1    9.00    2.10
   9  -1  -1    0.20    0.47
   9  -1  -1   -0.31    0.62
  -9   1   1    0.09    0.61
  -9   1   1    0.09    1.14
  -9   1   1   -0.55    0.94
   8  -1  -1  160.58    7.13
   8  -1  -1  163.36    9.69
   8  -1  -1  160.34    9.94
  -8   1   1  133.57   11.06
  -8   1   1  163.55   12.24
  -8   1   1  167.82    9.76
   7  -1  -1  104.63    6.54
   7  -1  -1  102.72    4.75
   7  -1  -1  100.68    4.69
   7  -1  -1  106.66    6.38
  -7   1   1  111.66    8.09
  -7   1   1   79.97    7.26
  -7   1   1  104.70    6.40
   6  -1  -1    4.07    0.81
   6  -1  -1    5.28    0.65
   6  -1  -1    4.24    0.48
   6  -1  -1    4.98    0.77
  -6   1   1    5.14    1.21
  -6   1   1    4.86    0.80
  -6   1   1    5.06    1.11
   5  -1  -1  353.80   15.40
   5  -1  -1  343.68   14.61
   5  -1  -1  368.65   20.07
   5  -1  -1  347.00   20.45
  -5   1   1  338.16   20.06
  -5   1   1  313.31   22.57
  -5   1   1  354.48   24.83
   4  -1  -1  325.80   13.60
   4  -1  -1  309.27   18.01
   4  -1  -1  319.14   17.69
   4  -1  -1  308.84   12.88
  -4   1   1  302.09   21.83
  -4   1   1  270.01   19.87
  -4   1   1  300.62   17.68
   3  -1  -1   24.75    1.63
   3  -1  -1   22.48    1.17
   3  -1  -1   25.22    1.62
   3  -1  -1   25.52    1.20
  -3   1   1   19.74    1.92
  -3   1   1   23.22    1.97
  -3   1   1   23.19    1.17
  -3   1   1   24.03    1.62
   2  -1  -1  484.14   28.11
   2  -1  -1  476.20   27.63
   2  -1  -1  477.53   30.94
   2  -1  -1  480.31   20.08
   2  -1  -1  495.65   21.33
  -2   1   1  483.21   21.32
  -2   1   1  485.55   34.08
  -2   1   1  495.91   24.32
  -2   1   1  485.54   27.63
  -2   1   1  467.25   27.63
  -2   1   1  478.62   28.11
   1  -1  -1   37.15    2.23
   1  -1  -1   39.22    1.72
   1  -1  -1   37.56    2.24
   1  -1  -1   38.68    2.24
   1  -1  -1   32.90    2.55
   1  -1  -1   38.12    1.63
  -1   1   1   38.66    2.72
  -1   1   1   36.41    1.62
  -1   1   1   38.13    1.71
  -1   1   1   36.33    2.23
  -1   1   1   36.64    2.65
  -1   1   1   36.72    2.55
  -1   1   1   38.01    2.24
   0  -1  -1   -0.66    0.02
   0  -1  -1   -0.65    0.02
   0  -1  -1   -0.64    0.03
   0  -1  -1   -0.68    0.03
  -1  -1  -1  138.13    8.23
  -1  -1  -1  114.15    8.08
  -1  -1  -1  126.47    8.33
  -1  -1  -1  143.86    7.03
   1   1   1  147.34    5.74
   1   1   1  147.02    8.23
   1   1   1  149.67    8.35
   1   1   1  138.24    7.02
  -2  -1  -1  165.21    9.14
  -2  -1  -1  160.98    9.54
  -2  -1  -1  160.97   10.26
  -2  -1  -1  164.43    6.20
  -2  -1  -1  157.26    9.14
  -2  -1  -1  159.01    6.66
   2   1   1  159.55    6.66
   2   1   1  156.36    9.17
   2   1   1  150.16    8.13
   2   1   1  163.98   10.26
   2   1   1  154.34    9.39
  -3  -1  -1   37.39    2.66
  -3  -1  -1   37.72    2.34
  -3  -1  -1   38.43    1.55
  -3  -1  -1   39.02    1.78
  -3  -1  -1   37.93    2.34
   3   1   1   37.32    2.49
   3   1   1   38.50    2.16
   3   1   1   40.26    2.33
   3   1   1   35.30    1.72
  -4  -1  -1  214.03   13.89
  -4  -1  -1  213.55   12.40
  -4  -1  -1  218.35    9.53
  -4  -1  -1  216.88   12.40
   4   1   1  217.17   11.05
   4   1   1  207.39   12.74
   4   1   1  216.32   12.38
   4   1   1  208.16    9.03
  -5  -1  -1  151.65    8.80
  -5  -1  -1  150.08    8.79
  -5  -1  -1  147.10    9.87
   5   1   1  149.68    7.88
   5   1   1  150.26    8.76
   5   1   1  149.06    6.42
   5   1   1  147.70    9.09
  -6  -1  -1    1.67    0.44
  -6  -1  -1    1.90    0.64
   6   1   1    1.23    0.51
   6   1   1    2.10    0.44
   6   1   1    1.24    0.34
   6   1   1    1.50    0.60
  -7  -1  -1   59.04    5.18
  -7  -1  -1   64.22    4.68
  -7  -1  -1   63.96    4.05
   7   1   1   64.46    4.31
   7   1   1   61.10    2.97
   7   1   1   62.83    3.98
  -8  -1  -1  116.40    6.90
  -8  -1  -1  107.23    8.76
  -8  -1  -1  108.92    7.88
   8   1   1  107.09    5.04
   8   1   1  114.76    7.24
  -9  -1  -1    1.34    1.10
  -9  -1  -1    1.75    1.10
  -9  -1  -1    2.84    0.76
   9   1   1    2.19    0.59
   9   1   1    1.47    0.85
 -10  -1  -1   56.56    3.83
 -10  -1  -1   44.99    4.55
 -10  -1  -1   56.62    5.25
  10   1   1   51.03    2.83
  10   1   1   52.45    4.11
 -11  -1  -1   21.68    2.23
 -11  -1  -1   24.66    3.72
  11   1   1   25.38    1.78
  11   1   1   22.14    2.77
  11  -2  -1   39.38    2.49
  11  -2  -1   33.30    3.22
 -11   2   1   36.01    3.24
 -11   2   1   41.05    4.75
  10  -2  -1    9.32    1.58
  10  -2  -1   10.44    1.27
 -10   2   1    9.34    2.27
 -10   2   1    9.25    1.53
   9  -2  -1   41.09    2.35
   9  -2  -1   42.63    3.23
  -9   2   1   36.94    3.08
  -9   2   1   33.97    3.74
  -9   2   1   43.01    4.23
   8  -2  -1   96.88    4.63
   8  -2  -1  101.39    6.27
   8  -2  -1   97.70    4.67
   8  -2  -1   95.12    6.40
  -8   2   1  101.53    8.00
  -8   2   1   99.67    6.30
  -8   2   1   89.97    7.28
   7  -2  -1    4.20    0.90
   7  -2  -1    4.70    0.68
   7  -2  -1    4.22    0.55
   7  -2  -1    3.80    0.80
  -7   2   1    3.49    0.77
  -7   2   1    3.16    1.05
  -7   2   1    4.55    1.27
   6  -2  -1  201.60   12.00
   6  -2  -1  204.11    9.18
   6  -2  -1  202.59   12.24
   6  -2  -1  199.49    8.77
  -6   2   1  196.47   12.01
  -6   2   1  210.32   14.94
   5  -2  -1  280.46   12.23
   5  -2  -1  266.28   11.59
   5  -2  -1  269.07   16.18
   5  -2  -1  275.14   15.90
  -5   2   1  270.78   15.91
  -5   2   1  272.46   19.68
   4  -2  -1    0.38    0.23
   4  -2  -1    0.58    0.29
   4  -2  -1    0.37    0.09
   4  -2  -1    0.68    0.34
   4  -2  -1    0.34    0.24
  -4   2   1    0.04    0.24
  -4   2   1    0.30    0.48
  -4   2   1    0.44    0.38
   3  -2  -1  206.05   12.00
   3  -2  -1  206.76   11.82
   3  -2  -1  195.43    8.59
   3  -2  -1  206.50    7.90
   3  -2  -1  213.34    9.12
  -3   2   1  207.78   11.83
  -3   2   1  185.12   13.25
  -3   2   1  203.78   14.58
   2  -2  -1  709.22   30.44
   2  -2  -1  699.23   41.89
   2  -2  -1  720.89   28.38
   2  -2  -1  752.63   32.48
   2  -2  -1  697.24   42.98
   2  -2  -1  739.33   51.97
  -2   2   1  790.15   46.99
  -2   2   1  738.17   41.90
  -2   2   1  757.90   51.90
   1  -2  -1   12.79    0.91
   1  -2  -1   15.80    1.08
   1  -2  -1   15.21    1.17
   1  -2  -1   14.08    0.95
   1  -2  -1   12.84    0.94
   1  -2  -1   14.00    0.74
   1  -2  -1   13.40    0.62
   1  -2  -1   12.91    0.68
  -1   2   1   13.72    0.95
  -1   2   1   13.93    0.69
  -1   2   1   13.92    0.74
  -1   2   1   15.57    1.24
   0  -2  -1   81.72    4.55
   0  -2  -1   74.17    4.54
   0  -2  -1   77.97    3.28
   0  -2  -1   77.62    4.72
   0  -2  -1   78.24    3.10
   0  -2  -1   80.29    3.53
   0   2   1   81.15    3.11
   0   2   1   74.74    4.54
   0   2   1   80.31    5.68
   0   2   1   79.96    3.53
   0   2   1   74.35    4.72
   0   2   1   80.38    3.29
   0   2   1   79.10    4.55
   0   2   1   78.45    4.76
  -1  -2  -1  343.58   19.32
  -1  -2  -1  345.63   19.43
  -1  -2  -1  336.49   20.31
  -1  -2  -1  350.11   13.15
  -1  -2  -1  335.14   20.06
  -1  -2  -1  340.53   14.95
   1   2   1  321.23   20.31
   1   2   1  335.95   20.06
   1   2   1  328.16   17.10
   1   2   1  359.29   19.36
   1   2   1  335.33   13.14
   1   2   1  333.65   14.95
  -2  -2  -1   63.03    4.31
  -2  -2  -1   65.37    2.60
  -2  -2  -1   63.60    2.91
   2   2   1   64.90    3.96
   2   2   1   63.88    2.59
   2   2   1   68.49    3.80
   2   2   1   61.66    4.01
   2   2   1   64.26    3.42
   2   2   1   64.46    2.75
  -3  -2  -1  179.81   10.21
  -3  -2  -1  167.56   10.20
  -3  -2  -1  174.14    6.89
  -3  -2  -1  176.97   11.44
   3   2   1  174.80   10.47
   3   2   1  176.40    9.06
   3   2   1  182.38   10.15
   3   2   1  174.32    7.39
   3   2   1  177.78    6.89
  -4  -2  -1  220.92   14.40
  -4  -2  -1  222.30   12.83
  -4  -2  -1  229.59    9.81
  -4  -2  -1  221.95   12.85
   4   2   1  215.33    9.32
   4   2   1  217.88   13.18
   4   2   1  222.90   11.42
   4   2   1  220.38   12.79
  -5  -2  -1    4.64    0.78
  -5  -2  -1    4.32    0.33
  -5  -2  -1    4.40    0.61
  -5  -2  -1    4.05    0.60
   5   2   1    4.67    0.80
   5   2   1    4.46    0.68
   5   2   1    4.88    0.60
   5   2   1    5.08    0.48
  -6  -2  -1  135.83    9.21
  -6  -2  -1  133.60    8.15
  -6  -2  -1  140.62    6.15
   6   2   1  132.87    8.48
   6   2   1  134.87    7.36
   6   2   1  143.59    8.13
   6   2   1  134.97    5.96
  -7  -2  -1  138.90    9.55
  -7  -2  -1  136.00    8.42
   7   2   1  139.31    6.17
   7   2   1  144.36    8.38
   7   2   1  143.16    7.66
   7   2   1  139.13    8.79
  -8  -2  -1   11.71    1.77
  -8  -2  -1   16.03    1.46
   8   2   1   14.46    1.09
   8   2   1   15.63    1.87
   8   2   1   16.73    1.57
  -9  -2  -1   43.76    4.33
  -9  -2  -1   44.33    3.16
  -9  -2  -1   42.59    3.80
   9   2   1   43.06    2.34
   9   2   1   42.85    3.47
 -10  -2  -1   55.46    5.27
 -10  -2  -1   52.58    4.71
 -10  -2  -1   52.47    3.82
  10   2   1   53.92    2.87
 -11  -2  -1    1.42    1.60
 -11  -2  -1    0.72    0.72
  11   2   1    0.59    0.60
  11  -3  -1   16.49    2.24
  11  -3  -1   18.95    1.77
 -11   3   1   13.94    2.96
 -11   3   1   14.44    2.02
  10  -3  -1   27.25    2.01
  10  -3  -1   27.89    2.66
 -10   3   1   29.94    3.72
 -10   3   1   27.84    2.65
   9  -3  -1  120.47    5.89
   9  -3  -1  125.35    8.18
  -9   3   1  128.31   10.27
  -9   3   1  129.62    8.07
   8  -3  -1   57.21    2.98
   8  -3  -1   54.68    3.97
   8  -3  -1   56.21    2.94
   8  -3  -1   56.07    4.07
  -8   3   1   56.09    4.01
  -8   3   1   59.93    5.23
  -8   3   1   60.81    4.67
   7  -3  -1   70.53    3.54
   7  -3  -1   68.40    3.47
   7  -3  -1   72.96    4.83
   7  -3  -1   75.97    4.75
  -7   3   1   68.83    5.39
  -7   3   1   75.54    6.02
  -7   3   1   71.99    4.75
   6  -3  -1   82.57    5.30
   6  -3  -1   84.43    5.22
   6  -3  -1   81.68    3.83
   6  -3  -1   80.44    3.95
  -6   3   1   81.78    5.92
  -6   3   1   84.36    6.56
  -6   3   1   80.24    5.21
   5  -3  -1   11.38    1.15
   5  -3  -1   12.40    1.18
   5  -3  -1   12.32    0.90
   5  -3  -1   14.47    0.91
  -5   3   1   12.01    1.18
  -5   3   1   12.90    1.55
  -5   3   1   15.21    1.48
   4  -3  -1   47.44    2.36
   4  -3  -1   46.84    3.06
   4  -3  -1   43.99    2.24
   4  -3  -1   45.54    3.07
   4  -3  -1   48.78    1.92
  -4   3   1   45.76    3.07
  -4   3   1   48.20    3.84
  -4   3   1   52.43    3.46
   3  -3  -1  151.32    6.84
   3  -3  -1  144.76    8.84
   3  -3  -1  143.22    6.43
   3  -3  -1  143.13    8.94
   3  -3  -1  149.21    5.90
  -3   3   1  168.34    9.86
  -3   3   1  142.95    8.84
  -3   3   1  160.17   10.99
   2  -3  -1    1.26    0.29
   2  -3  -1    1.72    0.29
   2  -3  -1    1.92    0.19
   2  -3  -1    1.48    0.25
   2  -3  -1    1.52    0.28
  -2   3   1    2.28    0.57
  -2   3   1    1.31    0.31
   1  -3  -1   35.39    2.22
   1  -3  -1   34.20    2.21
   1  -3  -1   41.19    2.84
   1  -3  -1   35.01    1.50
   1  -3  -1   35.81    1.60
   1  -3  -1   36.46    1.73
  -1   3   1   35.33    1.61
  -1   3   1   34.44    2.21
  -1   3   1   36.31    1.50
  -1   3   1   34.91    2.30
   0  -3  -1  312.11   14.18
   0  -3  -1  325.54   13.29
   0  -3  -1  319.86   18.33
   0  -3  -1  324.90   12.46
   0  -3  -1  334.54   18.34
   0  -3  -1  328.12   22.16
   0   3   1  314.52   19.16
   0   3   1  310.74   22.74
   0   3   1  339.81   18.34
   0   3   1  313.43   18.97
   0   3   1  316.34   14.18
   0   3   1  324.76   13.29
   0   3   1  296.09   18.36
   0   3   1  308.16   21.96
   0   3   1  329.60   12.48
  -1  -3  -1  326.28   12.34
  -1  -3  -1  316.37   18.11
  -1  -3  -1  320.88   21.76
  -1  -3  -1  306.67   14.00
  -1  -3  -1  329.20   18.11
  -1  -3  -1  315.14   18.99
   1   3   1  326.31   18.12
   1   3   1  319.78   14.00
   1   3   1  309.79   18.80
   1   3   1  291.42   18.98
   1   3   1  319.55   18.11
  -2  -3  -1    5.32    0.62
  -2  -3  -1    5.06    0.51
  -2  -3  -1    5.30    0.38
  -2  -3  -1    5.59    0.33
  -2  -3  -1    5.41    0.49
   2   3   1    5.70    0.60
   2   3   1    5.40    0.48
   2   3   1    5.25    0.33
   2   3   1    4.11    0.60
  -3  -3  -1  367.84   16.33
  -3  -3  -1  371.55   23.82
   3   3   1  378.74   21.24
   3   3   1  358.79   18.82
   3   3   1  373.98   15.41
  -4  -3  -1  111.86    6.53
  -4  -3  -1  107.27    7.30
  -4  -3  -1  108.51    4.84
   4   3   1  103.08    5.77
   4   3   1  112.71    6.41
   4   3   1  109.42    4.68
  -5  -3  -1   17.85    1.58
  -5  -3  -1   22.61    1.57
  -5  -3  -1   22.89    1.86
   5   3   1   20.30    1.47
   5   3   1   20.67    1.47
   5   3   1   20.94    1.11
  -6  -3  -1  116.71    8.03
  -6  -3  -1  114.91    7.08
   6   3   1  113.94    7.37
   6   3   1  117.76    5.16
   6   3   1  122.53    7.03
   6   3   1  118.14    6.41
  -7  -3  -1   16.26    1.39
  -7  -3  -1   14.63    1.70
   7   3   1   15.69    1.30
   7   3   1   14.53    1.40
   7   3   1   14.80    1.02
  -8  -3  -1   44.77    3.08
  -8  -3  -1   43.95    3.63
   8   3   1   43.32    2.96
   8   3   1   42.56    2.26
  -9  -3  -1   95.66    7.36
  -9  -3  -1  100.13    6.37
   9   3   1  101.12    4.69
   9   3   1  104.65    6.03
 -10  -3  -1    2.89    1.55
 -10  -3  -1    3.72    0.91
 -10  -3  -1    5.54    1.59
  10   3   1    3.27    0.70
 -11  -3  -1    6.88    1.26
 -11  -3  -1    5.05    1.86
 -11  -3  -1    6.52    1.86
  11   3   1   10.06    1.14
  11  -4  -1    3.94    1.27
  11  -4  -1    2.89    0.92
 -11   4   1    4.50    1.28
 -11   4   1    2.70    1.91
  10  -4  -1   46.69    2.80
  10  -4  -1   45.17    3.74
 -10   4   1   47.80    3.77
 -10   4   1   48.30    5.16
   9  -4  -1   23.71    2.37
   9  -4  -1   23.66    1.76
   9  -4  -1   24.14    1.64
  -9   4   1   27.03    2.43
  -9   4   1   24.78    3.32
   8  -4  -1   18.70    1.40
   8  -4  -1   22.29    2.04
   8  -4  -1   19.48    1.96
   8  -4  -1   20.56    1.53
  -8   4   1   21.17    2.03
  -8   4   1   20.34    2.79
  -8   4   1   25.76    2.29
   7  -4  -1  110.24    7.03
   7  -4  -1  105.12    5.34
   7  -4  -1  111.18    7.15
   7  -4  -1  110.95    5.16
  -7   4   1  118.66    7.80
  -7   4   1  118.21    8.93
  -7   4   1  111.90    7.06
   6  -4  -1   23.14    1.43
   6  -4  -1   24.07    1.49
   6  -4  -1   23.81    1.97
   6  -4  -1   23.43    1.95
  -6   4   1   23.37    1.97
  -6   4   1   27.03    2.16
  -6   4   1   25.73    2.62
   5  -4  -1    0.16    0.35
   5  -4  -1    0.02    0.35
   5  -4  -1    0.14    0.30
   5  -4  -1    0.58    0.32
  -5   4   1    0.95    0.46
  -5   4   1    0.07    0.58
  -5   4   1    0.02    0.37
   4  -4  -1   52.66    2.65
   4  -4  -1   49.78    3.40
   4  -4  -1   52.11    3.41
   4  -4  -1   51.63    2.49
  -4   4   1   51.90    3.42
  -4   4   1   60.76    4.40
   3  -4  -1   40.87    2.65
   3  -4  -1   39.98    2.05
   3  -4  -1   39.89    1.70
   3  -4  -1   39.24    2.61
   3  -4  -1   40.33    1.93
  -3   4   1   39.65    2.64
  -3   4   1   44.93    3.45
   2  -4  -1    1.93    0.38
   2  -4  -1    2.96    0.44
   2  -4  -1    2.59    0.32
   2  -4  -1    3.06    0.39
   2  -4  -1    3.55    0.31
  -2   4   1    3.80    0.58
  -2   4   1    3.67    0.52
  -2   4   1    4.10    0.91
   1  -4  -1   46.83    2.35
   1  -4  -1   47.22    3.02
   1  -4  -1   49.20    2.05
   1  -4  -1   48.96    2.17
  -1   4   1   54.07    3.50
  -1   4   1   47.44    3.11
  -1   4   1   48.85    3.02
   0  -4  -1   83.79    3.39
   0  -4  -1   80.55    4.94
   0  -4  -1   80.32    3.83
   0  -4  -1   85.20    3.56
   0  -4  -1   90.35    5.86
   0  -4  -1   85.92    4.96
   0   4   1   84.55    4.95
   0   4   1   81.94    3.55
   0   4   1   81.61    5.06
   0   4   1   82.66    5.12
   0   4   1   81.68    5.81
   0   4   1   82.80    6.30
  -1  -4  -1    1.81    0.32
  -1  -4  -1    1.54    0.25
  -1  -4  -1    2.07    0.37
  -1  -4  -1    1.74    0.27
  -1  -4  -1    2.28    0.32
  -1  -4  -1    1.88    0.31
   1   4   1    2.05    0.21
   1   4   1    2.40    0.43
   1   4   1    2.33    0.36
   1   4   1    2.24    0.37
   1   4   1    2.20    0.31
  -2  -4  -1  287.37   12.68
  -2  -4  -1  291.13   16.45
  -2  -4  -1  288.96   11.21
  -2  -4  -1  287.61   18.46
  -2  -4  -1  285.07   16.47
   2   4   1  277.45   16.55
   2   4   1  290.03   17.12
   2   4   1  295.37   12.68
   2   4   1  270.24   14.58
  -3  -4  -1  242.06   15.79
  -3  -4  -1  258.27   14.13
  -3  -4  -1  232.76   14.19
  -3  -4  -1  249.14   10.76
   3   4   1  248.58   14.66
   3   4   1  228.91   14.12
   3   4   1  240.24   12.48
  -4  -4  -1   29.85    2.28
  -4  -4  -1   29.45    1.31
  -4  -4  -1   26.38    2.03
  -4  -4  -1   23.33    2.05
   4   4   1   29.59    1.36
   4   4   1   28.82    1.89
   4   4   1   27.22    1.78
  -5  -4  -1  159.86   11.08
  -5  -4  -1  178.19    9.97
   5   4   1  162.56    9.75
   5   4   1  167.28    7.11
   5   4   1  164.76    8.79
  -6  -4  -1   88.27    5.51
  -6  -4  -1   87.40    6.25
   6   4   1   88.31    4.99
   6   4   1   91.66    3.97
   6   4   1   86.44    5.37
  -7  -4  -1    0.84    0.65
  -7  -4  -1    0.62    0.45
   7   4   1    0.44    0.32
   7   4   1    0.79    0.54
  -8  -4  -1   54.51    3.73
  -8  -4  -1   55.49    4.39
   8   4   1   54.00    2.71
   8   4   1   56.55    3.59
  -9  -4  -1   13.21    1.56
  -9  -4  -1   13.64    2.08
   9   4   1   15.06    1.21
   9   4   1    9.87    1.51
 -10  -4  -1    1.27    1.25
  10   4   1    0.99    0.91
  10   4   1    0.57    0.49
 -11  -4  -1   20.19    2.07
 -11  -4  -1   20.57    2.99
 -11  -4  -1   22.76    3.69
  10  -5  -1   19.39    1.82
  10  -5  -1   16.97    2.26
 -10   5   1   21.11    3.49
 -10   5   1   17.91    2.21
   9  -5  -1    1.60    0.91
   9  -5  -1    2.78    0.67
   9  -5  -1    1.96    0.71
  -9   5   1    3.69    1.80
  -9   5   1    3.02    1.02
   8  -5  -1   10.34    1.45
   8  -5  -1    8.39    0.99
   8  -5  -1    9.65    1.10
   8  -5  -1    6.92    1.26
  -8   5   1    8.15    1.34
  -8   5   1    9.70    2.13
   7  -5  -1   32.32    2.59
   7  -5  -1   30.20    1.91
   7  -5  -1   33.20    1.97
   7  -5  -1   33.79    2.61
  -7   5   1   35.52    2.66
  -7   5   1   32.08    3.50
   6  -5  -1    0.05    0.43
   6  -5  -1    0.22    0.39
   6  -5  -1   -0.18    0.34
   6  -5  -1    0.85    0.51
  -6   5   1    0.12    0.79
  -6   5   1    0.93    0.53
   5  -5  -1   25.71    1.47
   5  -5  -1   27.87    2.02
   5  -5  -1   26.98    1.58
   5  -5  -1   26.09    2.02
  -5   5   1   25.98    2.66
  -5   5   1   23.79    2.00
   4  -5  -1  173.20   10.51
   4  -5  -1  174.10    7.57
   4  -5  -1  176.33    8.07
   4  -5  -1  167.83   10.40
  -4   5   1  185.43   13.11
  -4   5   1  176.41   10.42
   3  -5  -1   41.77    2.05
   3  -5  -1   43.77    2.23
   3  -5  -1   42.73    1.85
   3  -5  -1   43.45    2.85
   3  -5  -1   40.24    2.79
  -3   5   1   44.93    2.96
  -3   5   1   43.75    3.79
  -3   5   1   44.37    2.85
   2  -5  -1  119.27    7.28
   2  -5  -1  120.18    5.22
   2  -5  -1  115.28    4.85
   2  -5  -1  118.07    5.59
   2  -5  -1  121.16    7.21
  -2   5   1  120.85    7.42
  -2   5   1  130.22    8.48
  -2   5   1  122.30    7.21
   1  -5  -1  231.42   13.66
   1  -5  -1  243.83    9.90
   1  -5  -1  239.86    9.28
   1  -5  -1  227.98   10.57
  -1   5   1  248.56   13.68
  -1   5   1  234.95   14.10
  -1   5   1  221.13   16.33
   0  -5  -1   50.87    3.27
   0  -5  -1   42.14    2.17
   0  -5  -1   43.04    2.80
   0  -5  -1   45.37    1.94
   0   5   1   44.48    3.21
   0   5   1   42.60    2.89
   0   5   1   42.26    2.76
   0   5   1   44.76    3.71
   0   5   1   46.91    2.81
  -1  -5  -1  146.73    6.87
  -1  -5  -1  150.32    8.90
  -1  -5  -1  146.09   10.65
  -1  -5  -1  160.58    8.92
  -1  -5  -1  151.77    9.22
  -1  -5  -1  153.19    6.10
   1   5   1  152.54    8.91
   1   5   1  150.64    9.26
   1   5   1  151.18   10.61
   1   5   1  160.18    6.41
   1   5   1  153.44   11.18
  -2  -5  -1   96.97    6.55
  -2  -5  -1   97.13    4.43
  -2  -5  -1  100.00    5.79
  -2  -5  -1   98.66    5.80
   2   5   1   98.76    5.88
   2   5   1   96.68    6.08
   2   5   1   92.33    5.17
  -3  -5  -1    5.83    0.77
  -3  -5  -1    4.73    0.77
  -3  -5  -1    5.31    0.59
  -3  -5  -1    5.38    0.40
   3   5   1    5.69    0.79
   3   5   1    5.49    0.67
   3   5   1    3.37    0.71
   3   5   1    5.72    0.38
  -4  -5  -1  150.93    8.85
  -4  -5  -1  146.01    9.91
  -4  -5  -1  150.88    6.60
   4   5   1  151.79    8.83
   4   5   1  140.44    7.83
  -5  -5  -1   50.59    3.87
  -5  -5  -1   46.66    3.53
   5   5   1   51.73    2.37
   5   5   1   54.87    3.31
   5   5   1   52.33    3.09
  -6  -5  -1    1.58    0.59
  -6  -5  -1    1.09    0.66
   6   5   1    1.78    0.46
   6   5   1    2.01    0.37
   6   5   1    2.28    0.64
  -7  -5  -1   38.80    2.78
  -7  -5  -1   37.06    3.22
   7   5   1   37.26    2.61
   7   5   1   37.91    1.94
  -8  -5  -1   68.05    4.56
  -8  -5  -1   67.99    5.30
   8   5   1   69.35    4.30
   8   5   1   68.98    3.28
  -9  -5  -1   24.84    2.70
  -9  -5  -1   23.04    2.10
   9   5   1   24.88    2.23
   9   5   1   24.63    1.55
 -10  -5  -1    3.91    1.50
 -10  -5  -1    5.95    1.10
  10   5   1    4.77    1.24
 -11  -5  -1   26.64    3.52
 -11  -5  -1   28.25    2.49
  11   5   1   26.98    2.99
  10  -6  -1   17.76    1.71
  10  -6  -1   18.67    2.39
 -10   6   1   17.43    3.46
 -10   6   1   15.29    2.09
   9  -6  -1    2.51    1.02
   9  -6  -1    3.10    0.73
   9  -6  -1    3.50    0.87
  -9   6   1    2.95    1.08
  -9   6   1    2.22    1.68
   8  -6  -1   41.33    2.36
   8  -6  -1   37.17    2.34
   8  -6  -1   40.16    3.18
   8  -6  -1   42.52    3.21
  -8   6   1   40.00    3.20
  -8   6   1   38.00    4.37
   7  -6  -1   41.34    3.07
   7  -6  -1   40.10    2.27
   7  -6  -1   38.99    3.06
   7  -6  -1   38.60    2.33
  -7   6   1   40.68    3.11
  -7   6   1   42.30    4.24
   6  -6  -1    0.61    0.44
   6  -6  -1    0.71    0.54
   6  -6  -1   -0.05    0.49
   6  -6  -1    0.32    0.43
  -6   6   1    0.24    1.00
  -6   6   1    0.26    0.56
   5  -6  -1   56.84    2.99
   5  -6  -1   58.82    2.80
   5  -6  -1   55.74    3.84
   5  -6  -1   57.70    3.84
  -5   6   1   56.40    5.08
  -5   6   1   58.78    3.87
   4  -6  -1   94.67    6.15
   4  -6  -1  100.70    6.16
   4  -6  -1   98.45    4.78
   4  -6  -1  101.68    4.48
  -4   6   1   99.21    7.96
  -4   6   1  101.46    6.16
  -4   6   1   99.56    6.33
   3  -6  -1   28.26    1.69
   3  -6  -1   30.62    2.10
   3  -6  -1   31.05    2.17
   3  -6  -1   29.71    1.54
  -3   6   1   26.04    3.06
  -3   6   1   31.08    2.20
  -3   6   1   31.39    2.36
  -3   6   1   28.71    2.13
   2  -6  -1  298.89   17.96
   2  -6  -1  304.32   13.01
   2  -6  -1  303.15   13.91
  -2   6   1  340.34   21.43
  -2   6   1  299.70   17.95
  -2   6   1  308.50   18.52
   1  -6  -1   79.14    5.01
   1  -6  -1   84.32    3.60
   1  -6  -1   78.62    3.88
   1  -6  -1   81.52    3.41
  -1   6   1   81.77    4.98
  -1   6   1   85.84    5.02
  -1   6   1   83.12    5.14
   0  -6  -1   45.35    3.04
   0  -6  -1   38.29    2.04
   0  -6  -1   40.65    1.84
   0   6   1   42.08    2.65
   0   6   1   38.61    2.52
   0   6   1   40.70    3.59
   0   6   1   40.53    2.72
   0   6   1   40.42    2.98
  -1  -6  -1  415.03   23.66
  -1  -6  -1  399.58   18.27
  -1  -6  -1  379.99   26.41
   1   6   1  422.66   28.32
   1   6   1  421.08   24.53
   1   6   1  429.26   29.47
   1   6   1  408.91   23.66
  -2  -6  -1  115.40    6.68
  -2  -6  -1  113.91    5.11
  -2  -6  -1  104.03    7.49
   2   6   1  111.90    6.98
   2   6   1  111.42    6.73
   2   6   1  112.62    7.94
  -3  -6  -1   40.59    3.07
  -3  -6  -1   38.74    2.69
  -3  -6  -1   39.87    1.94
   3   6   1   43.29    2.88
   3   6   1   38.73    2.42
  -4  -6  -1   73.60    3.09
  -4  -6  -1   63.21    4.43
  -4  -6  -1   71.21    4.87
   4   6   1   60.22    4.32
   4   6   1   63.82    3.81
  -5  -6  -1   22.59    2.37
  -5  -6  -1   29.93    2.60
   5   6   1   29.89    2.06
   5   6   1   31.55    1.50
   5   6   1   34.13    2.22
  -6  -6  -1    2.04    0.82
  -6  -6  -1    2.40    0.79
   6   6   1    2.98    0.44
   6   6   1    3.74    0.81
  -7  -6  -1   52.91    3.59
  -7  -6  -1   47.25    3.98
   7   6   1   49.12    3.24
   7   6   1   47.09    2.38
  -8  -6  -1   28.74    2.84
  -8  -6  -1   28.20    2.36
   8   6   1   26.98    2.31
   8   6   1   28.02    1.60
  -9  -6  -1    4.54    1.45
  -9  -6  -1    6.55    1.16
   9   6   1    4.89    1.19
 -10  -6  -1   37.90    3.97
 -10  -6  -1   40.99    3.20
  10   6   1   47.75    3.45
  10  -7  -1   -1.01    0.81
  10  -7  -1   -0.34    0.67
 -10   7   1   -0.47    0.86
 -10   7   1   -1.08    1.64
   9  -7  -1   36.46    3.20
   9  -7  -1   43.37    2.49
   9  -7  -1   33.71    2.37
  -9   7   1   40.92    3.34
  -9   7   1   37.49    4.71
   8  -7  -1   67.83    4.72
   8  -7  -1   63.57    3.44
   8  -7  -1   65.04    3.58
   8  -7  -1   65.29    4.70
  -8   7   1   68.63    6.43
  -8   7   1   66.47    4.72
   7  -7  -1    2.71    0.80
   7  -7  -1    1.78    0.60
   7  -7  -1    0.02    0.57
   7  -7  -1    1.01    0.77
  -7   7   1    1.47    1.50
   6  -7  -1  131.11    6.77
   6  -7  -1  148.53    8.89
   6  -7  -1  140.68    6.40
   6  -7  -1  144.45    8.81
  -6   7   1  146.01   11.37
  -6   7   1  141.68    8.79
   5  -7  -1  140.32    6.61
   5  -7  -1  133.94    6.16
   5  -7  -1  136.22    8.51
   5  -7  -1  140.29    8.56
  -5   7   1  138.96    8.73
  -5   7   1  143.68    8.53
  -5   7   1  136.06   10.98
   4  -7  -1   10.68    1.11
   4  -7  -1   12.50    1.25
   4  -7  -1   12.70    0.90
   4  -7  -1   10.73    1.04
  -4   7   1    8.52    1.94
  -4   7   1    9.96    1.18
  -4   7   1   10.38    1.14
  -4   7   1    9.22    1.18
   3  -7  -1  142.25    6.82
   3  -7  -1  139.31    6.34
   3  -7  -1  139.22    8.85
   3  -7  -1  144.22    8.79
  -3   7   1  145.76    8.78
  -3   7   1  161.12   10.34
  -3   7   1  147.78    9.00
   2  -7  -1  142.49    6.44
   2  -7  -1  127.49    8.25
   2  -7  -1  139.87    5.97
  -2   7   1  130.07    8.45
  -2   7   1  140.94    9.82
  -2   7   1  146.45    8.29
   1  -7  -1   13.04    0.77
   1  -7  -1   11.54    0.89
   1  -7  -1   10.58    1.08
  -1   7   1   12.06    0.80
  -1   7   1   12.42    1.25
  -1   7   1   11.05    1.93
  -1   7   1   12.74    1.13
  -1   7   1   12.05    1.10
   0  -7  -1   85.73    5.57
   0  -7  -1   90.24    4.33
   0   7   1   99.98    5.63
   0   7   1   92.92    6.51
   0   7   1   90.83    5.77
   0   7   1   91.19    7.31
  -1  -7  -1  139.56    8.27
  -1  -7  -1  130.95    9.24
  -1  -7  -1  132.25    6.36
   1   7   1  138.97    9.76
   1   7   1  144.33    8.60
   1   7   1  141.45    8.28
   1   7   1  145.60   10.56
  -2  -7  -1    7.38    0.89
  -2  -7  -1    8.38    0.66
  -2  -7  -1    8.87    1.17
   2   7   1    8.21    0.90
   2   7   1    7.84    0.94
   2   7   1    9.76    1.12
  -3  -7  -1   68.40    4.33
  -3  -7  -1   73.13    3.22
  -3  -7  -1   64.20    4.85
   3   7   1   59.63    4.41
   3   7   1   71.00    4.56
   3   7   1   68.97    3.89
  -4  -7  -1  144.13   10.37
  -4  -7  -1  164.90    6.95
  -4  -7  -1  148.23    9.39
   4   7   1  156.53    8.27
  -5  -7  -1   21.93    2.09
  -5  -7  -1   22.78    2.15
   5   7   1   22.22    1.71
   5   7   1   19.70    1.78
  -6  -7  -1   23.93    2.53
  -6  -7  -1   32.14    2.79
   6   7   1   29.61    2.22
   6   7   1   34.23    1.60
  -7  -7  -1   94.26    6.06
  -7  -7  -1   88.84    6.64
   7   7   1   89.16    4.06
   7   7   1   86.03    5.29
  -8  -7  -1   16.21    2.27
  -8  -7  -1   17.29    1.86
   8   7   1   16.60    1.88
  -9  -7  -1   36.24    3.66
  -9  -7  -1   36.26    2.96
   9   7   1   36.27    2.99
 -10  -7  -1   23.72    2.35
 -10  -7  -1   26.88    3.24
  10   7   1   28.15    2.95
   9  -8  -1   60.80    3.29
   9  -8  -1   62.21    4.51
   9  -8  -1   53.50    3.31
  -9   8   1   62.63    4.68
  -9   8   1   47.53    6.11
  -9   8   1   59.14    4.48
   8  -8  -1    4.97    0.93
   8  -8  -1    3.65    1.13
   8  -8  -1    2.95    0.78
   8  -8  -1    3.33    1.09
  -8   8   1    3.09    1.18
  -8   8   1    3.46    1.09
  -8   8   1    1.48    1.89
   7  -8  -1   53.93    2.84
   7  -8  -1   54.90    3.87
   7  -8  -1   47.19    2.95
   7  -8  -1   53.66    3.91
  -7   8   1   46.45    5.40
  -7   8   1   55.91    4.35
  -7   8   1   50.90    3.87
  -7   8   1   53.20    3.93
   6  -8  -1   77.31    5.33
   6  -8  -1   84.77    5.37
   6  -8  -1   79.18    3.87
   6  -8  -1   78.60    4.15
  -6   8   1   80.02    5.34
  -6   8   1   78.13    7.25
  -6   8   1   80.52    5.38
  -6   8   1   80.10    6.06
   5  -8  -1    6.99    1.13
   5  -8  -1    7.64    0.83
   5  -8  -1    6.61    0.88
   5  -8  -1    7.34    1.09
  -5   8   1    7.15    1.10
  -5   8   1    8.05    1.12
  -5   8   1    4.63    1.81
  -5   8   1    7.01    1.12
   4  -8  -1  114.44    5.20
   4  -8  -1  116.75    5.61
   4  -8  -1  114.90    7.22
   4  -8  -1  110.28    7.19
  -4   8   1  122.66    8.37
  -4   8   1  115.71    7.32
  -4   8   1  114.29    7.19
   3  -8  -1  174.73    7.65
   3  -8  -1  171.50   10.60
   3  -8  -1  178.48   10.74
   3  -8  -1  172.47    8.22
  -3   8   1  169.50   10.83
  -3   8   1  179.30   10.60
  -3   8   1  190.68   12.56
   2  -8  -1    7.69    0.66
   2  -8  -1    7.48    0.97
   2  -8  -1    5.64    0.68
  -2   8   1    5.61    1.75
  -2   8   1    6.96    0.93
  -2   8   1    3.88    0.91
  -2   8   1    6.55    0.49
  -2   8   1    6.84    0.91
   1  -8  -1   18.75    1.26
  -1   8   1   19.11    1.57
  -1   8   1   20.10    1.70
  -1   8   1   18.26    1.55
  -1   8   1   19.43    2.57
   0  -8  -1   92.23    5.83
   0  -8  -1   92.04    4.51
   0   8   1   94.03    6.75
   0   8   1   96.09    6.03
   0   8   1  100.32    5.87
   0   8   1   95.05    7.69
  -1  -8  -1   53.50    3.96
  -1  -8  -1   52.10    2.71
  -1  -8  -1   52.61    3.52
   1   8   1   54.10    4.02
   1   8   1   58.73    4.79
   1   8   1   54.05    3.53
   1   8   1   55.58    3.68
  -2  -8  -1   11.41    1.13
  -2  -8  -1   11.52    1.34
  -2  -8  -1   11.46    0.85
   2   8   1   12.06    1.23
   2   8   1   11.36    1.24
   2   8   1   11.16    1.15
  -3  -8  -1   83.75    5.31
  -3  -8  -1   87.68    3.98
  -3  -8  -1   80.70    5.96
   3   8   1   92.16    5.62
   3   8   1   83.85    4.79
   3   8   1   76.68    5.43
  -4  -8  -1   27.51    2.52
  -4  -8  -1   29.58    1.49
  -4  -8  -1   26.99    2.28
   4   8   1   30.36    2.08
   4   8   1   27.12    2.41
  -5  -8  -1   15.03    1.88
  -5  -8  -1   17.34    1.90
   5   8   1   16.93    1.53
  -6  -8  -1  164.57   10.85
  -6  -8  -1  139.51    9.84
   6   8   1  151.85    8.59
   6   8   1  164.36    6.76
  -7  -8  -1   38.99    3.41
  -7  -8  -1   29.67    3.00
   7   8   1   39.84    2.77
  -8  -8  -1   43.22    4.03
  -8  -8  -1   45.77    3.62
   8   8   1   45.90    3.34
  -9  -8  -1   66.87    5.83
  -9  -8  -1   68.94    4.99
   9   8   1   78.15    4.92
 -10  -8  -1   11.05    1.71
 -10  -8  -1   13.34    2.48
  10   8   1   13.40    2.06
   9  -9  -1   34.54    2.41
   9  -9  -1   37.05    2.36
   9  -9  -1   32.09    3.09
  -9   9   1   32.84    3.17
  -9   9   1   28.86    4.89
   8  -9  -1    3.86    0.95
   8  -9  -1    3.32    1.14
   8  -9  -1    2.30    1.01
   8  -9  -1    3.34    0.90
  -8   9   1    1.58    1.96
  -8   9   1    2.76    1.11
  -8   9   1    2.76    1.07
   7  -9  -1   53.79    3.97
   7  -9  -1   57.14    4.05
   7  -9  -1   54.81    2.91
   7  -9  -1   54.84    3.12
  -7   9   1   57.48    4.07
  -7   9   1   45.97    3.87
  -7   9   1   47.32    5.70
   6  -9  -1   34.80    1.98
   6  -9  -1   30.46    2.10
   6  -9  -1   31.90    2.70
   6  -9  -1   34.74    2.66
  -6   9   1   29.07    2.56
  -6   9   1   23.48    4.10
  -6   9   1   33.78    2.74
   5  -9  -1    4.91    0.89
   5  -9  -1    5.38    1.10
   5  -9  -1    7.97    0.90
   5  -9  -1    5.72    1.08
  -5   9   1    4.26    1.92
  -5   9   1    5.94    1.01
  -5   9   1    6.84    1.07
  -5   9   1    6.59    1.12
   4  -9  -1   56.84    3.14
   4  -9  -1   57.80    4.03
   4  -9  -1   60.02    4.00
   4  -9  -1   58.42    2.88
  -4   9   1   60.96    4.04
  -4   9   1   60.88    4.56
  -4   9   1   54.07    3.95
   3  -9  -1   29.45    2.19
   3  -9  -1   27.86    1.73
   3  -9  -1   27.25    2.12
   3  -9  -1   27.98    1.51
  -3   9   1   21.27    2.35
  -3   9   1   15.87    3.11
  -3   9   1   27.59    2.10
  -3   9   1   28.64    2.16
   2  -9  -1   10.60    1.28
   2  -9  -1   11.52    1.07
   2  -9  -1   13.09    0.85
  -2   9   1    9.57    1.17
  -2   9   1    8.42    2.20
  -2   9   1   10.28    1.36
  -2   9   1   11.04    1.17
   1  -9  -1  157.21    9.38
   1  -9  -1  151.71    7.26
  -1   9   1  140.66   12.10
  -1   9   1  160.44    9.39
  -1   9   1  153.17    9.61
  -1   9   1  164.74   10.98
   0  -9  -1   60.12    4.45
   0  -9  -1   60.66    4.02
   0  -9  -1   60.41    3.12
   0   9   1   64.20    5.57
   0   9   1   62.31    4.14
   0   9   1   60.94    4.51
   0   9   1   63.14    4.03
  -1  -9  -1    0.52    0.38
  -1  -9  -1    0.88    0.46
  -1  -9  -1    0.89    0.60
   1   9   1    0.73    0.45
   1   9   1    0.57    0.39
   1   9   1   -0.08    0.88
   1   9   1    0.93    0.53
  -2  -9  -1  152.22    9.17
  -2  -9  -1  148.00   10.27
  -2  -9  -1  147.65    7.01
   2   9   1  154.75   10.82
   2   9   1  154.04    9.24
   2   9   1  154.46    9.54
  -3  -9  -1   85.13    5.58
  -3  -9  -1   90.42    4.18
  -3  -9  -1   87.14    6.28
   3   9   1   87.38    5.05
   3   9   1   92.01    5.87
   3   9   1   84.24    5.73
  -4  -9  -1    0.47    0.51
  -4  -9  -1    0.15    0.29
  -4  -9  -1   -0.06    0.63
   4   9   1    1.49    0.69
   4   9   1    0.20    0.50
  -5  -9  -1   52.38    4.44
  -5  -9  -1   68.32    5.00
   5   9   1   71.54    4.06
  -6  -9  -1   37.32    3.37
  -6  -9  -1   43.03    3.61
   6   9   1   39.04    2.90
  -7  -9  -1   17.09    2.29
  -7  -9  -1   13.28    2.12
   7   9   1   19.43    2.05
  -8  -9  -1   42.37    3.73
  -8  -9  -1   44.97    4.18
   8   9   1   48.03    3.50
  -9  -9  -1   23.95    2.49
  -9  -9  -1   21.50    3.01
   9   9   1   22.14    2.57
   8 -10  -1   41.99    2.53
   8 -10  -1   39.45    2.68
   8 -10  -1   43.49    3.46
   8 -10  -1   40.42    3.47
  -8  10   1   44.29    3.57
  -8  10   1   25.46    4.88
   7 -10  -1   30.98    2.04
   7 -10  -1   33.32    2.83
   7 -10  -1   33.10    2.88
   7 -10  -1   30.62    2.24
  -7  10   1   32.27    2.88
  -7  10   1   21.29    4.28
  -7  10   1   30.90    2.69
   6 -10  -1    4.43    0.80
   6 -10  -1    4.40    1.01
   6 -10  -1    3.52    0.88
   6 -10  -1    4.69    1.06
  -6  10   1    2.09    2.04
  -6  10   1    4.11    1.00
  -6  10   1    3.73    1.05
   5 -10  -1   27.45    1.89
   5 -10  -1   25.13    2.31
   5 -10  -1   27.15    1.66
   5 -10  -1   25.13    2.22
  -5  10   1   26.00    2.34
  -5  10   1   21.76    2.11
   4 -10  -1   81.93    4.19
   4 -10  -1   81.51    5.34
   4 -10  -1   81.31    3.82
   4 -10  -1   78.63    5.35
  -4  10   1   81.39    5.34
  -4  10   1   77.30    5.30
   3 -10  -1   16.26    1.13
   3 -10  -1   17.94    1.39
   3 -10  -1   19.33    1.74
   3 -10  -1   15.51    1.66
  -3  10   1   15.19    3.17
  -3  10   1   14.20    1.54
  -3  10   1   15.55    1.65
   2 -10  -1   21.31    1.51
  -2  10   1   20.97    3.48
  -2  10   1   20.90    1.82
  -2  10   1   22.51    1.90
   1 -10  -1   60.92    4.30
   1 -10  -1   67.68    4.76
   1 -10  -1   63.96    3.36
  -1  10   1   68.52    4.81
  -1  10   1   61.85    4.37
  -1  10   1   69.00    4.35
  -1  10   1   60.82    5.98
   0 -10  -1   23.26    1.96
   0 -10  -1   21.26    1.48
   0 -10  -1   22.68    2.11
   0  10   1   23.39    1.96
   0  10   1   24.82    1.95
   0  10   1   22.73    3.02
   0  10   1   23.39    1.95
  -1 -10  -1   98.31    6.19
  -1 -10  -1   93.88    6.87
  -1 -10  -1   97.57    4.74
   1  10   1   98.88    6.20
   1  10   1   95.87    7.09
   1  10   1   99.28    6.39
   1  10   1  104.68    8.24
  -2 -10  -1  147.17    6.67
  -2 -10  -1  136.77    9.74
  -2 -10  -1  138.93    8.71
   2  10   1  142.76    8.79
   2  10   1  146.68    9.07
  -3 -10  -1   -0.36    0.32
  -3 -10  -1    0.17    0.48
  -3 -10  -1    0.20    0.64
   3  10   1    0.09    0.56
   3  10   1    0.91    0.55
   3  10   1    0.45    0.56
  -4 -10  -1   78.96    5.24
  -4 -10  -1   73.39    5.77
   4  10   1   80.91    4.73
  -5 -10  -1  104.95    7.50
  -5 -10  -1   93.83    6.77
   5  10   1  109.38    6.09
  -6 -10  -1   -0.02    0.89
  -6 -10  -1    0.10    0.79
   6  10   1    1.96    0.85
  -7 -10  -1   29.69    3.20
  -7 -10  -1   38.83    3.60
   7  10   1   38.76    2.96
  -8 -10  -1   21.55    2.98
  -8 -10  -1   16.09    2.39
   8  10   1   24.60    2.70
  -9 -10  -1   -0.26    0.76
  -9 -10  -1   -0.32    1.28
   9  10   1    0.92    0.99
   8 -11  -1   18.84    2.33
   8 -11  -1   17.05    1.63
   8 -11  -1   17.36    1.88
  -8  11   1    8.43    3.23
  -8  11   1   16.86    2.20
   7 -11  -1   13.30    1.40
   7 -11  -1   16.02    1.70
   7 -11  -1   14.14    1.88
   7 -11  -1   15.20    2.00
  -7  11   1   10.90    3.34
  -7  11   1   11.52    1.84
   6 -11  -1   16.45    2.05
   6 -11  -1   12.44    1.77
   6 -11  -1   14.14    1.56
   6 -11  -1   12.80    1.31
  -6  11   1    8.70    2.95
  -6  11   1   15.43    1.90
   5 -11  -1   67.07    3.57
   5 -11  -1   66.12    3.21
   5 -11  -1   63.85    4.50
   5 -11  -1   60.48    4.38
  -5  11   1   59.83    4.32
  -5  11   1   64.18    4.47
  -5  11   1   45.80    6.27
   4 -11  -1   44.59    3.41
   4 -11  -1   47.81    2.46
   4 -11  -1   45.80    2.74
  -4  11   1   32.93    5.31
  -4  11   1   47.96    3.38
  -4  11   1   46.93    3.48
   3 -11  -1   17.33    1.57
   3 -11  -1   19.40    1.93
  -3  11   1   19.04    1.86
  -3  11   1   18.35    3.44
  -3  11   1   16.56    1.72
   2 -11  -1  126.99    8.78
   2 -11  -1  130.63    6.25
   2 -11  -1  128.07    8.04
  -2  11   1  121.51   10.68
  -2  11   1  126.90    8.02
  -2  11   1  133.72    8.19
   1 -11  -1   69.42    4.58
   1 -11  -1   66.75    3.54
   1 -11  -1   66.79    4.97
  -1  11   1   69.97    4.57
  -1  11   1   63.67    6.28
  -1  11   1   67.36    4.61
   0 -11  -1   10.85    1.12
   0 -11  -1   12.44    1.67
   0 -11  -1   11.52    1.43
   0  11   1   13.36    1.54
   0  11   1   15.33    2.78
   0  11   1   12.32    1.52
  -1 -11  -1   83.45    5.53
  -1 -11  -1   87.67    4.25
  -1 -11  -1   87.97    6.20
   1  11   1   82.89    5.68
   1  11   1   83.31    5.55
  -2 -11  -1   17.03    1.99
  -2 -11  -1   18.75    1.82
  -2 -11  -1   19.94    1.36
   2  11   1   19.39    1.85
   2  11   1   18.60    1.86
  -3 -11  -1   30.52    2.46
  -3 -11  -1   27.86    1.70
  -3 -11  -1   27.61    2.71
   3  11   1   27.26    2.29
   3  11   1   30.07    2.55
  -4 -11  -1   52.92    3.94
  -4 -11  -1   52.90    4.37
   4  11   1   54.89    3.64
  -5 -11  -1    3.15    1.04
  -5 -11  -1    2.69    1.09
   5  11   1    4.07    1.03
  -6 -11  -1   16.66    2.30
  -6 -11  -1   12.80    2.02
   6  11   1   15.90    1.97
  -7 -11  -1   51.86    4.39
  -7 -11  -1   50.88    4.67
   7  11   1   55.21    3.93
  -8 -11  -1    7.70    1.82
  -8 -11  -1   14.50    2.49
   8  11   1   17.77    2.29
   7 -12  -1    0.53    0.86
   7 -12  -1    1.94    1.07
   7 -12  -1    2.13    0.82
  -7  12   1   -2.37    2.02
  -7  12   1    1.01    1.05
   6 -12  -1   29.38    2.28
   6 -12  -1   26.72    2.57
   6 -12  -1   27.64    1.90
  -6  12   1   32.77    2.85
  -6  12   1   15.29    4.00
   5 -12  -1   54.88    3.14
   5 -12  -1   51.19    3.82
   5 -12  -1   50.15    2.74
  -5  12   1   34.58    5.66
  -5  12   1   52.60    3.91
   4 -12  -1    0.73    0.76
   4 -12  -1    1.56    0.85
  -4  12   1    1.27    0.74
  -4  12   1    0.77    0.69
  -4  12   1    0.05    2.00
   3 -12  -1   63.23    3.64
   3 -12  -1   71.77    4.81
   3 -12  -1   65.64    4.66
   3 -12  -1   65.08    4.90
  -3  12   1   61.90    6.69
  -3  12   1   66.72    4.60
  -3  12   1   67.17    4.64
   2 -12  -1   27.37    2.48
   2 -12  -1   24.49    1.85
   2 -12  -1   27.05    2.43
  -2  12   1   29.69    2.34
  -2  12   1   25.18    2.33
  -2  12   1   26.18    4.10
   1 -12  -1    4.61    0.83
   1 -12  -1    5.87    1.22
   1 -12  -1    7.37    1.29
  -1  12   1    7.26    2.31
  -1  12   1    5.45    1.03
  -1  12   1    6.09    1.12
   0 -12  -1   79.94    4.12
   0 -12  -1   81.37    5.90
   0 -12  -1   85.27    5.40
   0  12   1   85.84    7.50
   0  12   1   70.87    5.26
   0  12   1   79.37    5.43
  -1 -12  -1   52.85    4.39
  -1 -12  -1   57.84    4.03
  -1 -12  -1   54.36    3.03
   1  12   1   57.71    4.11
   1  12   1   57.42    4.02
  -2 -12  -1    1.29    0.54
  -2 -12  -1    0.69    0.66
  -2 -12  -1    0.79    0.81
   2  12   1    0.91    0.70
  -3 -12  -1   23.46    2.61
  -3 -12  -1   25.56    2.37
   3  12   1   28.38    2.47
  -4 -12  -1   27.52    2.67
  -4 -12  -1   30.06    3.04
   4  12   1   33.22    2.63
  -5 -12  -1    1.83    1.12
  -5 -12  -1    2.99    1.08
   5  12   1    3.22    1.07
  -6 -12  -1   14.74    2.35
  -6 -12  -1   19.88    2.64
   6  12   1   25.22    2.70
  -7 -12  -1   22.50    2.89
  -7 -12  -1   16.73    2.60
   6 -13  -1   66.24    3.53
   6 -13  -1   72.15    4.04
  -6  13   1   54.90    7.32
  -6  13   1   67.27    4.99
   5 -13  -1    6.81    1.23
   5 -13  -1    6.73    1.42
   5 -13  -1    4.52    1.23
  -5  13   1    2.36    2.30
   4 -13  -1   15.41    2.11
   4 -13  -1   21.53    2.22
   4 -13  -1   20.48    1.90
  -4  13   1   16.50    3.82
  -4  13   1   21.63    2.20
   3 -13  -1   46.35    3.47
   3 -13  -1   40.27    2.63
   3 -13  -1   41.80    3.44
  -3  13   1   38.47    3.26
  -3  13   1   39.26    3.34
  -3  13   1   34.90    5.26
   2 -13  -1    2.08    0.95
   2 -13  -1    0.96    0.72
   2 -13  -1    2.24    0.91
  -2  13   1    2.02    0.82
  -2  13   1   -1.05    1.61
  -2  13   1    2.18    0.88
   1 -13  -1   24.93    2.34
   1 -13  -1   23.46    2.37
   1 -13  -1   20.78    1.76
  -1  13   1   21.37    2.14
  -1  13   1   28.01    4.22
  -1  13   1   21.45    2.16
   0 -13  -1   28.21    2.59
   0 -13  -1   28.51    2.76
   0 -13  -1   29.43    2.00
   0  13   1   29.28    2.51
   0  13   1   26.95    2.48
   0  13   1   24.56    4.07
  -1 -13  -1    0.09    0.72
  -1 -13  -1    0.76    0.86
  -1 -13  -1    0.55    0.61
   1  13   1    1.02    0.75
  -2 -13  -1   32.27    3.04
  -2 -13  -1   32.11    2.75
  -2 -13  -1   29.77    1.97
   2  13   1   28.89    2.71
  -3 -13  -1   46.44    4.21
  -3 -13  -1   52.66    3.86
   3  13   1   44.22    3.78
   3  13   1   53.53    3.68
  -4 -13  -1   10.53    1.70
  -4 -13  -1    9.96    1.95
   4  13   1    7.68    1.51
  -5 -13  -1    7.57    1.78
  -5 -13  -1    7.65    1.59
   5  13   1    9.55    1.71
  -6 -13  -1   41.79    3.85
  -6 -13  -1   44.50    4.32
   6  13   1   48.49    3.73
   4 -14  -1   37.57    2.62
   4 -14  -1   32.87    3.10
   4 -14  -1   36.43    3.24
  -4  14   1   30.04    5.16
  -4  14   1   33.24    3.08
   3 -14  -1   10.72    1.87
   3 -14  -1    9.91    1.69
   3 -14  -1   11.74    1.48
  -3  14   1   10.10    2.93
  -3  14   1   10.97    1.79
   2 -14  -1    6.39    1.09
   2 -14  -1    5.21    1.34
  -2  14   1    3.84    2.30
  -2  14   1    4.89    1.24
   1 -14  -1   33.73    3.17
   1 -14  -1   35.68    2.32
   1 -14  -1   33.64    3.04
  -1  14   1   31.76    2.83
   0 -14  -1   32.44    3.15
   0 -14  -1   33.74    2.99
   0 -14  -1   31.07    2.24
   0  14   1   34.19    2.87
  -1 -14  -1    0.85    0.68
  -1 -14  -1    0.49    0.82
  -1 -14  -1    0.37    0.91
   1  14   1   -0.50    0.68
  -2 -14  -1   32.17    3.31
  -2 -14  -1   34.84    3.03
   2  14   1   32.77    2.96
   2  14   1   32.53    2.89
  -3 -14  -1   17.07    2.53
  -3 -14  -1   23.05    2.40
   3  14   1   19.18    2.37
  -4 -14  -1    1.58    1.00
  -4 -14  -1    0.50    1.19
   4  14   1    0.15    0.92
  -5 -14  -1   37.93    3.73
  -5 -14  -1   51.07    4.39
   5  14   1   46.00    3.74
   2 -15  -1   24.07    2.04
   2 -15  -1   25.25    2.86
  -2  15   1   24.44    4.50
   1 -15  -1   55.62    3.33
   1 -15  -1   55.53    4.42
  -1  15   1   55.03    6.41
   0 -15  -1    4.42    1.28
   0 -15  -1    3.08    1.31
   0 -15  -1    4.53    1.02
  -1 -15  -1   46.29    3.66
  -1 -15  -1   38.83    3.76
   1  15   1   38.39    3.41
  -2 -15  -1   58.39    4.66
  -2 -15  -1   62.00    5.10
   2  15   1   62.20    4.47
   2  15   1   59.07    4.59
  -3 -15  -1    3.92    1.52
   3  15   1    4.29    1.31
  -2 -14   2   15.51    2.47
  -2 -14   2   15.55    2.54
  -1 -14   2    0.98    1.21
   0 -14   2   18.18    1.76
   0 -14   2   17.33    2.31
  -1  14  -2   17.66    3.97
  -1  14  -2   21.80    2.64
   1 -14   2   18.63    2.50
   1 -14   2   19.66    1.81
  -2  14  -2    0.15    1.98
  -2  14  -2    0.07    0.80
   2 -14   2    0.95    0.82
   2 -14   2   -0.89    0.92
  -3  14  -2   38.46    5.80
   3 -14   2   30.86    3.82
   3 -14   2   36.26    3.37
   3 -14   2   32.43    2.51
   4  13  -2   23.31    3.00
  -4 -13   2   24.73    3.02
  -4 -13   2   14.05    2.28
   3  13  -2   27.56    3.26
  -3 -13   2   32.59    3.29
  -3 -13   2   34.61    3.44
  -2 -13   2   18.92    2.59
  -2 -13   2   18.72    2.46
  -1 -13   2    7.24    1.56
  -1 -13   2    6.31    1.49
   0  13  -2   35.38    3.29
   0  13  -2   40.49    5.77
   0 -13   2   38.72    3.35
   0 -13   2   34.25    3.31
   0 -13   2   37.00    2.39
  -1  13  -2   18.30    2.24
  -1  13  -2   27.55    4.63
   1 -13   2   23.26    2.59
   1 -13   2   16.99    1.69
  -2  13  -2   18.12    2.35
  -2  13  -2   22.62    4.19
   2 -13   2   23.41    2.57
   2 -13   2   17.08    1.74
  -3  13  -2   69.36    6.88
  -3  13  -2   52.43    4.13
   3 -13   2   56.37    4.27
   3 -13   2   43.25    4.55
   3 -13   2   52.59    3.26
  -4  13  -2   -0.21    2.26
  -4  13  -2   -0.39    0.66
   4 -13   2    0.93    1.15
   4 -13   2    1.02    0.86
   4 -13   2    1.90    1.42
  -5  13  -2   25.52    4.87
  -5  13  -2   32.94    3.08
   5 -13   2   35.60    2.51
   5 -13   2   35.14    3.23
   5 -13   2   29.05    3.31
   5  12  -2    2.19    1.24
  -5 -12   2    2.38    1.39
  -5 -12   2    1.72    1.11
   4  12  -2   31.35    3.41
  -4 -12   2   33.41    3.31
  -4 -12   2   28.56    3.08
   3  12  -2   21.55    2.63
  -3 -12   2   25.76    2.81
  -3 -12   2   25.75    2.74
  -2 -12   2    9.58    1.66
  -2 -12   2   10.45    1.75
   1  12  -2   93.77    6.74
  -1 -12   2   98.83    6.72
  -1 -12   2  102.54    7.26
  -1 -12   2  100.34    4.96
   0  12  -2   48.08    5.85
   0  12  -2   51.23    3.99
   0 -12   2   53.06    3.98
   0 -12   2   49.40    2.92
   0 -12   2   51.86    4.13
  -1  12  -2    6.77    1.35
  -1  12  -2    8.46    2.70
   1 -12   2    8.25    1.10
   1 -12   2    8.17    1.53
   1 -12   2    9.20    1.46
  -2  12  -2   96.19    6.43
  -2  12  -2  113.76    9.38
   2 -12   2   90.44    4.90
   2 -12   2   90.44    6.37
  -3  12  -2   40.35    5.06
  -3  12  -2   35.98    3.10
   3 -12   2   37.30    3.23
   3 -12   2   39.88    2.52
  -4  12  -2    9.35    2.92
  -4  12  -2    5.53    1.24
   4 -12   2    8.72    1.56
   4 -12   2    7.23    1.79
   4 -12   2    4.64    1.01
  -5  12  -2   44.64    3.49
  -5  12  -2   39.45    5.75
   5 -12   2   42.51    2.81
   5 -12   2   37.83    3.44
   5 -12   2   40.69    3.73
  -6  12  -2   10.35    1.73
  -6  12  -2    8.08    3.12
   6 -12   2    6.81    1.68
   6 -12   2    9.23    1.75
   6 -12   2    8.53    1.38
   6  11  -2    3.98    1.33
  -6 -11   2    2.78    1.23
  -6 -11   2    2.33    1.36
   5  11  -2   28.98    2.95
  -5 -11   2   19.94    2.61
  -5 -11   2   26.02    2.89
   4  11  -2   66.78    4.62
  -4 -11   2   60.42    4.83
  -4 -11   2   65.07    5.19
   3  11  -2    0.64    0.72
  -3 -11   2    1.28    0.91
  -3 -11   2   -0.25    0.92
   2  11  -2   33.98    3.11
   2  11  -2   29.48    2.84
  -2 -11   2   29.65    2.90
  -2 -11   2   32.60    2.90
   1  11  -2   74.96    5.30
   1  11  -2   79.76    6.08
  -1 -11   2   71.04    5.21
  -1 -11   2   77.77    3.86
  -1 -11   2   72.30    5.59
   0  11  -2    1.52    0.93
   0  11  -2    1.38    0.61
   0  11  -2    1.81    0.87
   0  11  -2    0.69    1.52
   0 -11   2    1.95    0.89
   0 -11   2    0.54    0.78
   0 -11   2    1.17    0.61
  -1  11  -2  115.74    9.70
  -1  11  -2  108.48    8.37
  -1  11  -2  110.79    7.01
   1 -11   2  104.86    5.31
   1 -11   2  102.90    6.92
   1 -11   2  103.26    7.44
  -2  11  -2   82.86    7.19
  -2  11  -2   59.45    5.80
  -2  11  -2   69.46    4.75
   2 -11   2   65.01    4.72
   2 -11   2   68.60    3.66
  -3  11  -2    0.05    0.57
  -3  11  -2    0.35    1.88
   3 -11   2    1.17    0.82
   3 -11   2   -0.05    0.58
  -4  11  -2   66.01    4.72
  -4  11  -2   76.90    7.07
   4 -11   2   68.64    4.79
   4 -11   2   63.62    3.69
   4 -11   2   63.68    5.09
  -5  11  -2   35.03    5.09
  -5  11  -2   33.34    2.88
   5 -11   2   35.23    3.00
   5 -11   2   33.64    3.22
   5 -11   2   32.27    2.32
  -6  11  -2    5.91    2.55
  -6  11  -2    7.79    1.42
   6 -11   2   10.12    1.34
   6 -11   2    6.96    1.61
   6 -11   2    7.15    1.48
  -7  11  -2   24.23    2.52
  -7  11  -2   19.08    4.17
   7 -11   2   24.69    2.69
   7 -11   2   25.02    2.22
   7 -11   2   26.00    2.84
   7  10  -2    4.79    1.33
  -7 -10   2    1.75    1.43
  -7 -10   2    5.21    1.54
   6  10  -2   16.64    2.32
  -6 -10   2   20.18    2.78
  -6 -10   2   22.65    2.68
   5  10  -2   67.90    4.56
  -5 -10   2   69.11    5.33
  -5 -10   2   59.73    4.91
   4  10  -2   12.81    1.87
   4  10  -2   11.42    1.76
  -4 -10   2    8.87    1.63
  -4 -10   2   10.29    1.73
   3  10  -2   14.44    2.07
   3  10  -2   24.68    2.45
  -3 -10   2   22.29    2.27
  -3 -10   2   23.88    2.35
   2  10  -2  126.12    8.90
   2  10  -2  112.79    7.63
  -2 -10   2  112.43    8.21
  -2 -10   2  113.59    5.54
  -2 -10   2  121.37    7.60
   1  10  -2   15.97    1.88
   1  10  -2   15.05    1.90
   1  10  -2   12.31    2.78
  -1 -10   2   15.75    1.80
  -1 -10   2   13.12    1.74
  -1 -10   2   14.27    1.16
   0  10  -2   24.19    2.05
   0  10  -2   28.48    3.64
   0  10  -2   27.26    2.33
   0  10  -2   26.84    2.75
   0 -10   2   25.67    1.67
   0 -10   2   25.84    2.35
   0 -10   2   25.24    2.30
  -1  10  -2   31.75    3.34
  -1  10  -2   42.43    4.53
  -1  10  -2   33.53    2.48
  -1  10  -2   34.84    2.74
   1 -10   2   34.20    2.09
   1 -10   2   32.14    2.70
   1 -10   2   33.95    2.77
  -2  10  -2    7.07    2.42
  -2  10  -2    7.38    1.13
  -2  10  -2    5.99    0.86
  -2  10  -2    5.17    1.49
   2 -10   2    5.84    1.01
   2 -10   2    5.85    0.91
   2 -10   2    5.63    1.06
  -3  10  -2   27.66    4.13
  -3  10  -2   28.10    2.38
  -3  10  -2   30.16    3.15
   3 -10   2   26.35    1.88
   3 -10   2   27.78    2.44
  -4  10  -2   24.45    3.04
  -4  10  -2   33.97    2.65
  -4  10  -2   34.05    4.22
   4 -10   2   33.30    2.70
   4 -10   2   32.22    3.00
   4 -10   2   33.23    2.13
  -5  10  -2    5.49    1.17
  -5  10  -2    3.81    2.03
  -5  10  -2    3.56    1.24
   5 -10   2    4.28    1.27
   5 -10   2    4.29    0.94
   5 -10   2    3.81    1.03
  -6  10  -2   14.50    1.85
  -6  10  -2   11.82    3.11
   6 -10   2   20.01    2.38
   6 -10   2   16.61    2.02
   6 -10   2   15.91    1.63
  -7  10  -2   60.06    4.20
  -7  10  -2   36.83    5.55
   7 -10   2   56.91    3.34
   7 -10   2   56.43    3.02
   7 -10   2   56.87    4.35
   7 -10   2   53.01    4.12
  -8  10  -2   22.27    2.31
  -8  10  -2    9.35    3.26
   8 -10   2   18.68    1.86
   8 -10   2   19.39    2.60
   8 -10   2   18.38    1.65
   8   9  -2   14.89    2.22
  -8  -9   2   17.89    2.77
  -8  -9   2   18.70    2.89
   7   9  -2    0.07    0.70
  -7  -9   2    0.98    1.25
  -7  -9   2    0.64    1.07
   6   9  -2   38.43    3.14
  -6  -9   2   38.07    3.74
  -6  -9   2   46.08    3.77
   5   9  -2   16.18    1.97
  -5  -9   2   10.73    1.80
  -5  -9   2   11.69    1.78
   4   9  -2   19.60    2.34
   4   9  -2   15.29    2.15
   4   9  -2   17.47    2.04
  -4  -9   2   15.08    2.04
  -4  -9   2   13.32    1.98
   3   9  -2   57.40    4.28
   3   9  -2   38.43    3.60
  -3  -9   2   51.40    3.95
  -3  -9   2   48.03    3.69
   2   9  -2   12.68    1.65
   2   9  -2   15.27    1.80
  -2  -9   2   15.71    1.67
  -2  -9   2   11.29    1.61
  -2  -9   2   14.37    1.03
   1   9  -2    6.67    1.08
   1   9  -2    7.01    1.00
   1   9  -2    8.62    1.42
   1   9  -2    5.49    1.95
  -1  -9   2    6.17    1.13
  -1  -9   2    7.14    0.78
  -1  -9   2    8.09    1.27
   0   9  -2   64.22    6.39
   0   9  -2   69.24    4.72
   0   9  -2   68.88    4.58
   0   9  -2   80.31    5.79
   0  -9   2   68.53    5.03
   0  -9   2   68.60    3.52
   0  -9   2   71.55    4.70
  -1   9  -2   56.07    3.72
  -1   9  -2   59.57    3.92
  -1   9  -2   62.73    5.73
  -1   9  -2   50.56    4.81
   1  -9   2   57.42    3.89
   1  -9   2   56.38    4.09
   1  -9   2   52.86    2.93
  -2   9  -2   -0.12    1.14
  -2   9  -2   -0.21    0.80
  -2   9  -2   -0.02    0.33
  -2   9  -2    0.03    0.49
   2  -9   2   -0.86    0.38
   2  -9   2    0.31    0.46
   2  -9   2    0.64    0.61
  -3   9  -2   24.88    1.81
  -3   9  -2   18.50    2.47
  -3   9  -2   22.11    2.02
  -3   9  -2   23.57    3.62
   3  -9   2   24.76    1.94
   3  -9   2   24.36    1.65
   3  -9   2   25.22    2.11
  -4   9  -2   56.44    3.84
  -4   9  -2   46.39    5.40
  -4   9  -2   49.78    4.56
   4  -9   2   56.17    3.89
   4  -9   2   62.21    4.23
   4  -9   2   55.48    3.03
  -5   9  -2    0.31    0.70
  -5   9  -2    0.84    1.60
  -5   9  -2    0.47    0.58
   5  -9   2   -0.08    0.56
   5  -9   2   -0.17    0.74
   5  -9   2   -0.09    0.47
   5  -9   2   -0.06    0.65
  -6   9  -2   37.76    4.72
  -6   9  -2   44.35    3.31
  -6   9  -2   40.01    3.79
   6  -9   2   43.37    2.41
   6  -9   2   45.51    2.69
   6  -9   2   45.03    3.53
  -7   9  -2   39.59    3.19
  -7   9  -2   37.99    3.67
  -7   9  -2   36.96    5.20
   7  -9   2   40.27    2.37
   7  -9   2   41.70    3.45
   7  -9   2   40.82    2.63
  -8   9  -2    6.01    1.27
  -8   9  -2    4.95    2.39
   8  -9   2    5.94    1.55
   8  -9   2    6.96    1.23
   8  -9   2    5.75    1.01
  -9   9  -2   48.62    3.92
  -9   9  -2   45.38    5.86
   9  -9   2   52.55    4.20
   9  -9   2   48.55    2.91
  -9  -8   2   14.59    2.51
  -9  -8   2   17.26    2.75
   8   8  -2    1.11    0.95
  -8  -8   2   -0.97    0.99
  -8  -8   2    0.07    1.27
   7   8  -2   44.34    3.46
   7   8  -2   45.19    2.52
  -7  -8   2   49.56    4.34
  -7  -8   2   49.19    4.21
   6   8  -2   59.03    4.05
  -6  -8   2   54.52    4.82
  -6  -8   2   71.36    4.90
   5   8  -2    2.79    1.04
   5   8  -2    4.32    1.03
  -5  -8   2    2.87    1.10
  -5  -8   2    4.30    1.27
   4   8  -2   21.26    2.32
   4   8  -2   26.68    2.36
   4   8  -2   22.68    1.99
  -4  -8   2   18.94    2.32
  -4  -8   2   20.68    2.22
   3   8  -2   53.65    4.51
   3   8  -2   72.44    5.31
  -3  -8   2   65.57    4.89
  -3  -8   2   71.07    4.61
   2   8  -2    4.07    0.99
   2   8  -2    3.13    0.82
  -2  -8   2    2.77    0.83
  -2  -8   2    4.08    0.90
  -2  -8   2    3.34    0.49
   1   8  -2   41.68    5.10
   1   8  -2   58.13    3.83
   1   8  -2   61.51    3.99
   1   8  -2   62.59    4.71
  -1  -8   2   55.71    4.18
  -1  -8   2   61.68    3.94
  -1  -8   2   55.99    2.85
   0   8  -2   69.99    4.41
   0   8  -2   64.09    4.26
   0   8  -2   69.23    5.39
   0   8  -2   61.82    5.94
   0  -8   2   65.30    4.67
   0  -8   2   65.93    4.34
   0  -8   2   63.60    3.26
  -1   8  -2    0.40    0.35
  -1   8  -2    1.47    0.58
  -1   8  -2    1.47    1.28
  -1   8  -2    1.13    0.89
   1  -8   2    1.12    0.54
   1  -8   2    0.97    0.56
   1  -8   2    1.64    0.47
  -2   8  -2   74.38    4.79
  -2   8  -2   78.40    6.12
  -2   8  -2   80.53    6.94
  -2   8  -2   77.19    4.91
   2  -8   2   75.02    3.79
   2  -8   2   73.31    4.87
   2  -8   2   74.45    5.19
  -3   8  -2  157.24    9.07
  -3   8  -2  121.91   10.81
  -3   8  -2  152.39    9.06
  -3   8  -2  142.79   11.88
   3  -8   2  157.94    9.76
   3  -8   2  153.39    9.06
   3  -8   2  150.19    7.03
  -4   8  -2   13.30    1.40
  -4   8  -2    9.58    2.33
  -4   8  -2   13.43    1.17
  -4   8  -2   14.12    1.70
   4  -8   2   15.03    1.31
   4  -8   2   13.63    1.06
   4  -8   2   10.91    1.41
   4  -8   2   14.17    1.75
  -5   8  -2   41.54    3.09
  -5   8  -2   42.72    2.90
  -5   8  -2   40.83    3.61
  -5   8  -2   37.60    4.48
   5  -8   2   43.89    3.31
   5  -8   2   42.79    2.25
   5  -8   2   44.82    2.52
  -6   8  -2   81.27    5.44
  -6   8  -2   87.31    6.44
  -6   8  -2   75.03    7.27
   6  -8   2   79.50    4.29
   6  -8   2   83.29    3.99
   6  -8   2   85.54    5.69
  -7   8  -2   11.44    2.72
  -7   8  -2   13.47    1.70
  -7   8  -2   13.19    1.94
   7  -8   2   12.65    1.29
   7  -8   2   16.26    2.05
   7  -8   2   15.62    1.56
  -8   8  -2   20.25    2.14
  -8   8  -2   20.08    3.51
  -8   8  -2   18.29    2.38
   8  -8   2   22.34    2.42
   8  -8   2   20.73    1.63
   8  -8   2   19.34    1.88
  -9   8  -2   19.92    3.85
  -9   8  -2   21.89    2.68
  -9   8  -2   22.89    2.39
   9  -8   2   22.86    1.81
   9  -8   2   23.41    2.56
   9   7  -2    7.50    1.61
  -9  -7   2    6.26    1.71
  -9  -7   2    3.93    1.70
   8   7  -2   19.70    1.44
   8   7  -2   22.91    2.47
  -8  -7   2   13.99    2.46
  -8  -7   2   22.62    2.97
   7   7  -2   33.01    2.57
   7   7  -2   26.91    1.75
  -7  -7   2   27.83    3.08
  -7  -7   2   30.64    3.15
   6   7  -2    8.39    1.35
  -6  -7   2   11.03    1.87
  -6  -7   2    8.18    1.60
   5   7  -2   21.83    1.93
   5   7  -2   23.63    2.33
  -5  -7   2   24.64    2.42
  -5  -7   2   21.38    2.33
   4   7  -2  159.64    8.96
   4   7  -2  145.83    7.71
   4   7  -2  133.20   10.18
  -4  -7   2  116.68    8.64
  -4  -7   2  140.17    9.53
   3   7  -2   53.66    4.14
   3   7  -2   45.86    3.63
  -3  -7   2   51.39    3.84
  -3  -7   2   47.58    3.57
   2   7  -2    4.92    0.98
   2   7  -2    7.49    1.22
  -2  -7   2    5.65    0.98
  -2  -7   2    6.15    1.03
  -2  -7   2    6.22    0.59
   1   7  -2  203.12   12.58
   1   7  -2  224.81   14.90
   1   7  -2  214.30   12.42
  -1  -7   2  197.00   13.61
  -1  -7   2  211.54   12.35
  -1  -7   2  195.63    9.37
   0   7  -2   94.61    7.25
   0   7  -2  101.67    5.94
   0   7  -2   90.51    7.81
   0   7  -2   91.07    5.87
   0  -7   2   94.94    5.87
   0  -7   2   89.58    4.45
   0  -7   2   96.25    6.41
  -1   7  -2   15.10    1.33
  -1   7  -2   18.42    2.73
  -1   7  -2   12.22    1.11
  -1   7  -2   15.46    2.07
   1  -7   2   13.39    1.26
   1  -7   2   13.36    0.99
   1  -7   2   12.37    1.29
  -2   7  -2  167.28    9.74
  -2   7  -2  164.45    9.82
  -2   7  -2  168.70   12.74
   2  -7   2  159.88   10.59
   2  -7   2  157.36    9.70
   2  -7   2  156.68    7.51
  -3   7  -2   41.79    2.94
  -3   7  -2   32.24    4.06
  -3   7  -2   45.64    3.60
  -3   7  -2   45.05    2.81
   3  -7   2   42.14    2.33
   3  -7   2   43.10    2.97
   3  -7   2   42.85    2.98
  -4   7  -2   42.69    2.73
  -4   7  -2   33.11    3.99
  -4   7  -2   41.30    3.40
  -4   7  -2   40.93    2.89
   4  -7   2   39.66    2.10
   4  -7   2   41.73    2.82
   4  -7   2   39.69    2.29
   4  -7   2   41.95    3.10
  -5   7  -2  154.10   12.50
  -5   7  -2  165.84   11.58
  -5   7  -2  155.48    9.69
  -5   7  -2  161.43    9.76
   5  -7   2  157.39    7.57
   5  -7   2  162.44    7.08
   5  -7   2  160.38    9.98
  -6   7  -2   28.93    3.34
  -6   7  -2   27.40    2.62
  -6   7  -2   27.49    2.07
  -6   7  -2   26.66    2.27
   6  -7   2   28.40    1.71
   6  -7   2   28.70    1.87
   6  -7   2   26.19    2.37
   6  -7   2   26.75    2.34
  -7   7  -2   25.44    2.54
  -7   7  -2   27.15    3.41
  -7   7  -2   23.52    2.20
   7  -7   2   24.01    2.25
   7  -7   2   26.89    2.42
   7  -7   2   24.55    1.63
   7  -7   2   25.86    1.86
  -8   7  -2   71.27    5.00
  -8   7  -2   78.73    5.99
  -8   7  -2   72.92    6.83
   8  -7   2   74.86    5.09
   8  -7   2   71.23    3.96
   8  -7   2   69.55    5.22
   8  -7   2   71.49    3.69
  -9   7  -2   21.18    2.45
  -9   7  -2   18.06    3.26
  -9   7  -2   18.27    2.15
   9  -7   2   15.56    1.51
   9  -7   2   15.70    2.19
 -10   7  -2   -0.02    1.84
 -10   7  -2    1.04    0.87
 -10   7  -2    1.18    0.99
  10  -7   2    0.88    0.74
  10  -7   2    2.41    1.25
 -10  -6   2   19.32    2.71
 -10  -6   2   23.76    3.40
   9   6  -2    0.98    0.55
   9   6  -2   -0.04    0.83
  -9  -6   2    0.92    1.47
  -9  -6   2   -0.90    0.83
   8   6  -2   31.91    2.61
   8   6  -2   28.56    1.82
  -8  -6   2   35.79    3.44
  -8  -6   2   25.29    3.17
   7   6  -2   42.28    2.19
   7   6  -2   41.46    2.94
  -7  -6   2   31.20    3.43
  -7  -6   2   41.12    3.70
   6   6  -2    4.80    0.98
   6   6  -2    3.14    0.96
  -6  -6   2    2.16    1.00
  -6  -6   2    3.95    1.25
   5   6  -2   45.45    4.04
   5   6  -2   63.31    3.65
  -5  -6   2   58.31    4.49
  -5  -6   2   65.87    4.44
   4   6  -2   70.97    5.62
   4   6  -2   77.26    4.28
   4   6  -2   73.14    5.01
  -4  -6   2   70.53    5.27
  -4  -6   2   69.07    4.95
   3   6  -2    0.02    0.45
   3   6  -2    0.37    0.56
  -3  -6   2    0.66    0.51
  -3  -6   2    0.13    0.49
   2   6  -2  170.53   11.08
   2   6  -2  198.62   13.21
  -2  -6   2  182.28   12.18
  -2  -6   2  184.30   11.03
   1   6  -2  215.02   13.07
   1   6  -2  219.83   12.84
   1   6  -2  227.11   15.43
  -1  -6   2  219.21   12.78
  -1  -6   2  211.21   14.13
  -1  -6   2  206.86    9.73
   0   6  -2    2.23    0.58
   0   6  -2    2.41    1.19
   0   6  -2    2.35    0.47
   0   6  -2    2.82    0.94
   0  -6   2    2.31    0.54
   0  -6   2    2.05    0.41
   0  -6   2    1.59    0.50
  -1   6  -2  155.94    9.47
  -1   6  -2  151.74   11.44
  -1   6  -2  160.90    9.37
  -1   6  -2  168.88   12.17
   1  -6   2  154.66   10.24
   1  -6   2  148.84    7.19
   1  -6   2  159.29    9.34
  -2   6  -2  217.54   12.12
  -2   6  -2  188.33   14.57
  -2   6  -2  182.72   15.38
  -2   6  -2  215.10   12.30
   2  -6   2  208.82   12.09
   2  -6   2  209.61    9.37
   2  -6   2  208.26   13.26
  -3   6  -2    0.62    0.89
  -3   6  -2    0.59    0.30
  -3   6  -2    0.68    0.38
  -3   6  -2    0.79    0.20
  -3   6  -2    0.58    0.47
   3  -6   2    0.28    0.27
   3  -6   2   -0.30    0.29
   3  -6   2    0.60    0.30
   3  -6   2    0.88    0.60
   3  -6   2    0.12    0.41
  -4   6  -2   85.07    7.25
  -4   6  -2   93.14    6.57
  -4   6  -2   84.09    5.49
  -4   6  -2   84.65    5.45
   4  -6   2   87.51    4.01
   4  -6   2   90.94    5.77
   4  -6   2   90.26    5.73
   4  -6   2   88.52    4.33
  -5   6  -2   39.56    3.29
  -5   6  -2   38.35    2.67
  -5   6  -2   38.21    3.82
  -5   6  -2   40.36    2.81
   5  -6   2   39.82    2.26
   5  -6   2   37.51    2.06
   5  -6   2   41.97    2.97
   5  -6   2   39.74    2.86
  -6   6  -2    1.10    0.51
  -6   6  -2    1.76    0.61
  -6   6  -2    2.09    0.76
  -6   6  -2    1.72    1.14
   6  -6   2    1.32    0.51
   6  -6   2    1.94    0.61
   6  -6   2    1.27    0.69
   6  -6   2    2.25    0.75
  -7   6  -2   63.16    4.43
  -7   6  -2   65.11    5.27
  -7   6  -2   67.01    5.91
   7  -6   2   68.57    4.68
   7  -6   2   61.74    3.27
   7  -6   2   68.71    4.50
   7  -6   2   67.49    3.55
  -8   6  -2   25.48    2.67
  -8   6  -2   25.70    3.56
  -8   6  -2   23.76    2.23
   8  -6   2   21.50    1.66
   8  -6   2   27.84    2.31
   8  -6   2   25.86    1.83
   8  -6   2   26.25    2.46
  -9   6  -2   -0.26    0.79
  -9   6  -2    0.03    0.66
  -9   6  -2    1.30    1.46
   9  -6   2    2.10    1.13
   9  -6   2    0.81    0.68
 -10   6  -2   42.84    4.05
 -10   6  -2   41.47    4.87
 -10   6  -2   40.03    3.31
  10  -6   2   37.50    2.48
  10  -6   2   38.50    3.60
  10   5  -2    0.72    0.59
 -10  -5   2    3.10    1.29
 -10  -5   2    1.85    1.52
   9   5  -2   16.45    2.06
   9   5  -2   18.30    1.41
  -9  -5   2   16.16    2.64
  -9  -5   2   20.11    2.60
   8   5  -2   98.33    4.89
   8   5  -2  100.49    6.22
  -8  -5   2  107.95    7.26
  -8  -5   2  115.03    7.99
   7   5  -2   13.38    1.08
   7   5  -2   16.81    1.82
  -7  -5   2   14.55    2.15
  -7  -5   2   13.77    2.12
   6   5  -2   42.58    3.26
   6   5  -2   48.55    2.96
  -6  -5   2   44.57    3.70
  -6  -5   2   37.40    3.49
   5   5  -2  183.53    9.27
   5   5  -2  152.55   10.51
  -5  -5   2  180.87   10.83
  -5  -5   2  172.08   11.66
   4   5  -2   38.90    3.22
   4   5  -2   42.57    3.63
   4   5  -2   47.03    2.77
  -4  -5   2   44.34    3.46
  -4  -5   2   47.86    3.41
   3   5  -2   75.11    5.88
   3   5  -2   83.69    3.59
   3   5  -2   82.78    4.41
   3   5  -2   83.58    5.23
  -3  -5   2   66.48    5.03
  -3  -5   2   76.09    5.50
   2   5  -2   78.63    5.61
   2   5  -2   96.15    6.64
  -2  -5   2   89.94    5.58
  -2  -5   2   90.32    6.11
   1   5  -2    3.57    0.64
   1   5  -2    3.39    1.12
   1   5  -2    6.30    1.05
  -1  -5   2    3.74    0.42
  -1  -5   2    4.38    0.70
  -1  -5   2    3.85    0.63
   0   5  -2   84.49    5.06
   0   5  -2   86.47    5.08
   0   5  -2   69.39    6.18
   0   5  -2   75.94    6.60
   0  -5   2   80.89    5.50
   0  -5   2   82.28    3.83
   0  -5   2   90.89    5.07
  -1   5  -2   79.64    4.68
  -1   5  -2   79.28    6.28
  -1   5  -2   75.74    4.63
   1  -5   2   73.55    4.63
   1  -5   2   72.53    3.57
   1  -5   2   72.30    5.01
  -2   5  -2   16.55    1.57
  -2   5  -2   11.35    1.99
  -2   5  -2   18.31    1.32
  -2   5  -2   16.33    1.14
   2  -5   2   16.12    1.29
   2  -5   2   15.50    1.22
   2  -5   2   14.72    1.00
  -3   5  -2   59.37    5.23
  -3   5  -2   62.29    3.88
  -3   5  -2   63.37    3.95
  -3   5  -2   63.71    4.71
   3  -5   2   63.72    4.12
   3  -5   2   62.65    3.11
   3  -5   2   63.41    4.15
   3  -5   2   60.27    2.87
  -4   5  -2  132.28    8.01
  -4   5  -2  131.86    8.10
  -4   5  -2  140.02   10.28
  -4   5  -2  141.12    9.61
   4  -5   2  127.88    5.84
   4  -5   2  130.65    8.24
   4  -5   2  132.05    8.04
   4  -5   2  132.71    6.27
  -5   5  -2   43.60    2.85
  -5   5  -2   42.81    3.36
  -5   5  -2   38.43    3.77
   5  -5   2   40.80    2.87
   5  -5   2   40.40    2.08
   5  -5   2   39.37    2.26
   5  -5   2   40.52    2.97
  -6   5  -2   16.09    1.78
  -6   5  -2   16.75    1.54
  -6   5  -2   17.16    2.26
   6  -5   2   16.49    1.66
   6  -5   2   18.43    1.32
   6  -5   2   15.56    1.17
   6  -5   2   18.04    1.62
  -7   5  -2   77.88    6.41
  -7   5  -2   77.73    4.90
   7  -5   2   69.68    3.58
   7  -5   2   70.34    5.06
   7  -5   2   75.02    4.90
   7  -5   2   76.58    3.86
  -8   5  -2   22.63    2.04
  -8   5  -2   22.99    2.86
   8  -5   2   22.49    1.56
   8  -5   2   20.46    1.60
   8  -5   2   23.75    2.07
   8  -5   2   21.42    2.21
  -9   5  -2   18.82    2.92
  -9   5  -2   16.68    1.82
   9  -5   2   17.24    1.49
   9  -5   2   15.03    2.07
 -10   5  -2   45.75    5.17
 -10   5  -2   50.52    3.77
  10  -5   2   47.46    2.81
  10  -5   2   51.14    4.08
 -11   5  -2    3.55    1.14
 -11   5  -2    3.09    1.99
  11  -5   2    3.00    1.34
  11  -5   2    1.98    0.90
  10   4  -2    0.74    0.59
 -10  -4   2   -0.19    0.82
 -10  -4   2    0.32    1.39
   9   4  -2   34.52    2.88
   9   4  -2   38.35    2.23
  -9  -4   2   36.65    3.80
  -9  -4   2   40.18    3.41
   8   4  -2   37.07    2.12
   8   4  -2   36.41    2.76
  -8  -4   2   36.83    3.61
  -8  -4   2   41.12    3.34
   7   4  -2   12.40    1.47
   7   4  -2   10.79    1.38
   7   4  -2   10.77    1.00
  -7  -4   2    9.18    1.61
  -7  -4   2    8.23    1.56
   6   4  -2  138.17    7.12
   6   4  -2  125.58    5.72
   6   4  -2  132.12    8.00
  -6  -4   2  132.30    9.00
  -6  -4   2  111.98    8.19
   5   4  -2   75.69    4.76
   5   4  -2   72.21    4.09
  -5  -4   2   71.76    5.24
  -5  -4   2   63.20    4.88
   4   4  -2   31.97    2.88
   4   4  -2   34.34    2.14
   4   4  -2   31.50    2.58
  -4  -4   2   38.47    2.81
  -4  -4   2   33.77    2.76
   3   4  -2  241.86   14.92
   3   4  -2  270.09   11.12
   3   4  -2  249.33   17.66
   3   4  -2  265.15   12.99
  -3  -4   2  251.56   16.42
  -3  -4   2  222.74   14.86
   2   4  -2  115.45    4.74
   2   4  -2  103.87    7.50
  -2  -4   2   92.72    6.30
  -2  -4   2   98.67    6.94
   1   4  -2    1.63    0.45
   1   4  -2    1.42    0.70
   1   4  -2    1.74    0.57
  -1  -4   2    1.93    0.49
  -1  -4   2    1.65    0.26
  -1  -4   2    1.12    0.39
   0   4  -2  163.89   13.22
   0   4  -2  181.51   10.71
   0   4  -2  187.65   10.51
   0  -4   2  179.10    8.05
   0  -4   2  176.69   11.59
   0  -4   2  181.10   10.48
  -1   4  -2   31.55    3.15
  -1   4  -2   33.75    3.50
  -1   4  -2   43.93    2.64
  -1   4  -2   42.38    2.54
   1  -4   2   40.87    2.01
   1  -4   2   41.51    2.61
   1  -4   2   40.60    2.76
   1  -4   2   45.08    2.59
  -2   4  -2    6.60    0.55
  -2   4  -2    6.64    0.51
  -2   4  -2    7.17    0.84
  -2   4  -2    6.55    0.69
  -2   4  -2    5.94    1.19
   2  -4   2    6.24    0.58
   2  -4   2    6.59    0.61
   2  -4   2    6.35    0.51
   2  -4   2    6.17    0.69
  -3   4  -2  120.78    9.16
  -3   4  -2  124.39    8.65
  -3   4  -2  118.28    7.19
  -3   4  -2  117.46    7.28
   3  -4   2  114.70    5.23
   3  -4   2  118.73    5.62
   3  -4   2  119.64    7.43
   3  -4   2  120.87    7.22
   3  -4   2  130.73    7.84
  -4   4  -2   55.83    4.09
  -4   4  -2   56.88    4.49
  -4   4  -2   52.00    3.40
   4  -4   2   50.33    3.53
   4  -4   2   54.34    3.45
   4  -4   2   52.67    2.52
   4  -4   2   50.12    2.69
   4  -4   2   54.42    3.50
  -5   4  -2   35.89    2.53
  -5   4  -2   37.08    3.35
   5  -4   2   37.68    1.89
   5  -4   2   36.67    2.66
   5  -4   2   38.01    2.58
   5  -4   2   37.61    2.48
   5  -4   2   34.04    2.02
  -6   4  -2  117.74    7.34
  -6   4  -2  120.76    9.30
   6  -4   2  119.25    5.40
   6  -4   2  127.04    7.39
   6  -4   2  119.89    5.76
   6  -4   2  117.50    7.57
  -7   4  -2   95.90    7.99
  -7   4  -2   98.86    6.29
   7  -4   2  106.86    6.33
   7  -4   2   96.93    4.63
   7  -4   2  101.68    4.94
   7  -4   2  101.87    6.57
  -8   4  -2    4.72    1.49
  -8   4  -2    4.80    0.96
   8  -4   2    4.85    1.14
   8  -4   2    3.84    0.76
   8  -4   2    5.47    1.01
  -9   4  -2   65.60    5.80
  -9   4  -2   55.02    4.24
   9  -4   2   63.63    3.23
   9  -4   2   65.79    4.65
 -10   4  -2   45.19    3.48
 -10   4  -2   41.90    4.68
  10  -4   2   46.14    3.83
  10  -4   2   47.48    2.66
 -11   4  -2   -0.52    0.71
 -11   4  -2    0.35    1.41
  11  -4   2    0.47    1.06
  11  -4   2    0.89    0.71
  10   3  -2   41.96    2.41
 -10  -3   2   42.02    3.44
 -10  -3   2   30.63    3.93
   9   3  -2   60.14    4.52
   9   3  -2   76.55    3.65
  -9  -3   2   80.84    5.23
  -9  -3   2   67.02    5.79
   8   3  -2    3.07    0.89
   8   3  -2    3.18    0.64
  -8  -3   2    3.36    1.35
  -8  -3   2    3.07    1.03
   7   3  -2   87.76    5.05
   7   3  -2   82.17    4.03
   7   3  -2   86.03    5.56
  -7  -3   2   92.38    5.87
  -7  -3   2   83.69    6.40
   6   3  -2   39.57    2.16
   6   3  -2   43.52    2.75
   6   3  -2   44.80    3.07
  -6  -3   2   45.39    3.34
  -6  -3   2   42.05    3.54
   5   3  -2   -0.17    0.33
   5   3  -2    0.08    0.40
  -5  -3   2    0.27    0.66
  -5  -3   2   -0.12    0.56
   4   3  -2   87.39    6.52
   4   3  -2   89.41    4.76
   4   3  -2   95.29    5.58
  -4  -3   2   91.85    6.13
  -4  -3   2   71.57    5.59
   3   3  -2  125.47    6.33
   3   3  -2  102.76    7.32
   3   3  -2  117.47    8.64
  -3  -3   2  130.52    8.11
  -3  -3   2  122.61    7.47
   2   3  -2   22.55    1.90
   2   3  -2   28.48    1.22
   2   3  -2   23.41    2.08
  -2  -3   2   21.58    1.85
  -2  -3   2   24.95    1.97
   1   3  -2  131.21    5.44
   1   3  -2  111.12    7.20
   1   3  -2  112.27    8.96
   1   3  -2  123.77    8.64
  -1  -3   2  121.45    7.17
  -1  -3   2  119.85    7.92
   0   3  -2  360.18   20.26
   0   3  -2  301.18   25.16
   0   3  -2  361.49   20.82
   0  -3   2  354.01   15.61
   0  -3   2  358.50   20.82
   0  -3   2  361.10   22.51
   0  -3   2  359.82   20.24
  -1   3  -2   17.90    1.17
  -1   3  -2   18.33    1.61
  -1   3  -2   19.08    1.30
  -1   3  -2   15.58    1.86
   1  -3   2   17.95    1.30
   1  -3   2   18.52    1.19
   1  -3   2   17.54    1.28
   1  -3   2   17.95    1.16
   1  -3   2   17.36    1.00
  -2   3  -2  166.48    9.69
  -2   3  -2  179.69   12.22
  -2   3  -2  162.67    9.86
  -2   3  -2  174.21   11.66
  -2   3  -2  161.89   10.02
   2  -3   2  162.95    7.04
   2  -3   2  160.82   10.61
   2  -3   2  163.04    7.52
  -3   3  -2  407.15   27.60
  -3   3  -2  389.28   22.93
  -3   3  -2  409.34   28.51
   3  -3   2  386.01   16.68
   3  -3   2  402.54   22.95
   3  -3   2  393.28   17.79
   3  -3   2  404.83   23.44
  -4   3  -2    4.94    0.64
  -4   3  -2    5.59    1.03
   4  -3   2    4.68    0.53
   4  -3   2    6.64    0.65
   4  -3   2    6.84    0.87
   4  -3   2    4.93    0.67
   4  -3   2    5.43    0.47
  -5   3  -2  120.37    9.03
  -5   3  -2  119.59    4.70
  -5   3  -2  116.52    7.15
   5  -3   2  119.15    7.18
   5  -3   2  121.93    5.61
   5  -3   2  124.60    7.72
   5  -3   2  113.49    5.25
   5  -3   2  116.60    7.39
  -6   3  -2  110.61    6.88
  -6   3  -2  111.26    8.70
   6  -3   2  118.17    6.92
   6  -3   2  112.36    5.08
   6  -3   2  112.03    7.15
   6  -3   2  115.12    5.41
  -7   3  -2    1.02    0.50
  -7   3  -2    0.56    0.71
   7  -3   2    1.58    0.47
   7  -3   2    0.97    0.64
   7  -3   2    2.00    0.59
  -8   3  -2  107.27    6.71
  -8   3  -2  101.53    8.54
   8  -3   2  105.86    4.97
   8  -3   2  112.20    7.08
   8  -3   2  108.15    6.69
  -9   3  -2   58.66    4.12
  -9   3  -2   58.42    5.42
   9  -3   2   63.62    4.50
   9  -3   2   58.57    3.09
 -10   3  -2    0.21    1.21
 -10   3  -2    0.39    0.67
  10  -3   2    1.74    1.03
  10  -3   2    1.29    0.62
 -11   3  -2   34.30    4.23
 -11   3  -2   31.48    2.82
  11  -3   2   35.50    2.25
  11  -3   2   30.74    3.20
  11   2  -2   13.36    1.44
 -11  -2   2   12.83    2.88
 -11  -2   2    9.44    2.30
 -11  -2   2   10.68    1.78
  10   2  -2   36.83    2.30
 -10  -2   2   29.22    3.78
 -10  -2   2   39.30    4.61
 -10  -2   2   41.43    3.30
   9   2  -2    2.42    0.68
  -9  -2   2    2.13    1.31
  -9  -2   2    1.38    0.87
   8   2  -2   56.89    2.86
   8   2  -2   49.38    3.49
  -8  -2   2   63.17    4.11
  -8  -2   2   49.87    4.55
   7   2  -2   80.19    3.86
   7   2  -2   80.97    5.26
   7   2  -2   81.63    4.77
  -7  -2   2   80.99    6.11
  -7  -2   2   84.22    5.46
   6   2  -2   22.64    1.85
   6   2  -2   21.03    1.33
   6   2  -2   24.43    1.71
  -6  -2   2   21.68    2.26
  -6  -2   2   24.62    2.07
   5   2  -2   28.48    1.57
   5   2  -2   29.63    1.93
   5   2  -2   30.31    2.21
  -5  -2   2   32.89    2.43
  -5  -2   2   28.97    2.55
   4   2  -2  112.11    6.73
   4   2  -2  113.53    5.86
  -4  -2   2  110.71    7.53
  -4  -2   2  103.39    6.85
   3   2  -2   36.45    2.91
   3   2  -2   40.94    2.58
   3   2  -2   35.60    2.07
  -3  -2   2   39.91    2.79
  -3  -2   2   29.46    2.56
   2   2  -2    3.34    0.63
   2   2  -2    4.25    0.29
   2   2  -2    4.06    0.66
  -2  -2   2    4.02    0.67
  -2  -2   2    4.57    0.68
   1   2  -2  230.27   15.73
   1   2  -2  219.00   16.18
   1   2  -2  246.17   10.02
  -1  -2   2  222.59   14.53
  -1  -2   2  205.14   13.09
   0   2  -2   88.18    3.85
   0   2  -2   82.98    5.01
   0   2  -2   92.00    5.54
   0   2  -2   71.04    6.30
   0  -2   2   82.32    5.00
   0  -2   2   82.89    5.06
   0  -2   2   87.73    5.53
  -1   2  -2  203.18   11.40
  -1   2  -2  200.86   12.61
  -1   2  -2  193.11   11.64
  -1   2  -2  187.06   14.23
  -1   2  -2  198.91   13.75
   1  -2   2  205.53   12.61
   1  -2   2  195.65   11.39
   1  -2   2  203.17   11.66
   1  -2   2  192.10    8.82
   1  -2   2  191.10   11.85
  -2   2  -2  589.23   38.84
  -2   2  -2  558.41   32.25
  -2   2  -2  525.83   33.77
  -2   2  -2  605.97   39.98
  -2   2  -2  570.93   32.28
   2  -2   2  571.69   24.99
   2  -2   2  545.37   33.79
   2  -2   2  549.88   23.45
   2  -2   2  561.12   32.92
  -3   2  -2  104.59    6.13
  -3   2  -2  106.36    7.70
  -3   2  -2  103.33    6.16
   3  -2   2  100.57    6.30
   3  -2   2  103.32    4.48
   3  -2   2  107.51    4.81
   3  -2   2  100.44    6.13
  -4   2  -2  106.95    8.22
  -4   2  -2  104.99    6.54
  -4   2  -2  114.84    7.13
   4  -2   2  111.65    4.82
   4  -2   2  112.34    6.57
   4  -2   2  112.50    7.12
   4  -2   2  111.97    5.14
   4  -2   2  106.41    6.75
  -5   2  -2  343.40   13.30
  -5   2  -2  333.31   22.03
  -5   2  -2  334.51   24.67
  -5   2  -2  336.85   19.86
   5  -2   2  352.32   21.99
   5  -2   2  333.09   20.34
   5  -2   2  358.56   19.89
   5  -2   2  345.47   14.51
   5  -2   2  354.84   15.43
  -6   2  -2   41.31    3.11
  -6   2  -2   41.76    3.69
  -6   2  -2   43.90    2.86
   6  -2   2   44.16    2.86
   6  -2   2   42.40    2.15
   6  -2   2   43.53    3.06
  -7   2  -2   17.25    1.50
  -7   2  -2   17.42    2.12
  -7   2  -2   16.98    1.67
   7  -2   2   17.64    1.50
   7  -2   2   18.81    1.21
   7  -2   2   18.22    1.74
  -8   2  -2   49.11    4.59
  -8   2  -2   54.29    3.55
   8  -2   2   51.89    3.83
   8  -2   2   50.81    2.64
  -9   2  -2    6.03    1.06
  -9   2  -2    6.43    1.64
   9  -2   2    7.37    1.40
   9  -2   2    6.48    0.86
 -10   2  -2    8.51    2.03
 -10   2  -2   10.25    1.45
  10  -2   2    8.25    1.60
  10  -2   2   12.90    1.27
 -11   2  -2   13.48    2.70
 -11   2  -2   18.77    1.97
  11  -2   2   16.59    2.32
  11  -2   2   17.86    1.61
  11   1  -2   14.22    1.53
 -11  -1   2   15.01    3.17
 -11  -1   2   14.15    2.74
 -11  -1   2   15.05    2.08
  10   1  -2   27.10    1.84
 -10  -1   2   25.48    3.74
 -10  -1   2   24.69    2.49
 -10  -1   2   19.20    3.05
   9   1  -2   -0.26    0.46
  -9  -1   2    0.05    0.64
  -9  -1   2   -0.61    1.12
  -9  -1   2   -0.26    1.14
   8   1  -2   36.44    2.08
   8   1  -2   36.48    2.76
  -8  -1   2   40.02    2.96
  -8  -1   2   31.11    3.40
   7   1  -2   24.51    1.49
   7   1  -2   22.82    1.82
   7   1  -2   23.86    1.96
  -7  -1   2   24.15    2.10
  -7  -1   2   22.54    2.45
   6   1  -2    7.34    0.98
   6   1  -2    8.83    1.00
   6   1  -2    7.60    0.77
  -6  -1   2    5.86    1.19
  -6  -1   2    7.88    1.08
   5   1  -2  101.00    4.73
   5   1  -2  106.32    6.51
   5   1  -2  110.29    4.76
   5   1  -2  112.65    5.76
  -5  -1   2   98.36    7.36
  -5  -1   2  108.64    6.62
   4   1  -2  121.42    5.48
   4   1  -2  128.62    6.62
   4   1  -2  122.63    7.55
   4   1  -2  128.67    5.61
  -4  -1   2  124.83    7.66
  -4  -1   2  130.39    8.54
   3   1  -2    0.82    0.26
   3   1  -2    1.09    0.43
   3   1  -2    0.74    0.13
   3   1  -2    1.19    0.38
  -3  -1   2    0.16    0.34
  -3  -1   2    0.99    0.47
   2   1  -2  448.70   21.98
   2   1  -2  451.00   25.10
   2   1  -2  446.79   30.08
  -2  -1   2  454.45   27.97
  -2  -1   2  376.06   25.11
   1   1  -2   30.22    2.35
   1   1  -2   40.72    2.77
  -1  -1   2   32.67    2.37
  -1  -1   2   38.04    2.76
  -1  -1   2   29.46    2.33
  -1  -1   2   43.61    2.59
   0   1  -2   51.35    3.06
   0   1  -2   56.98    3.08
   0   1  -2   40.24    3.78
   0  -1   2   52.09    3.35
   0  -1   2   55.40    3.08
   0  -1   2   40.31    3.69
   0  -1   2   51.12    3.04
  -1   1  -2  246.85   10.47
  -1   1  -2  239.77   14.39
  -1   1  -2  243.72   14.39
  -1   1  -2  265.40   17.87
  -1   1  -2  237.66   15.06
  -1   1  -2  245.75   17.34
  -1   1  -2  258.02   11.17
  -1   1  -2  271.56   15.99
   1  -1   2  256.72   17.35
   1  -1   2  239.92   15.06
   1  -1   2  270.43   17.92
   1  -1   2  238.20   14.38
   1  -1   2  247.21   14.39
  -2   1  -2  109.94    6.24
  -2   1  -2  109.59    7.79
  -2   1  -2  103.58    6.22
   2  -1   2  107.67    6.40
   2  -1   2  108.70    6.55
   2  -1   2  102.72    4.54
  -3   1  -2   35.23    2.73
  -3   1  -2   34.76    2.12
  -3   1  -2   32.74    2.10
  -3   1  -2   33.50    2.29
   3  -1   2   34.67    2.12
   3  -1   2   33.89    1.58
   3  -1   2   30.59    2.20
  -4   1  -2   66.81    4.18
  -4   1  -2   68.34    5.31
  -4   1  -2   70.32    4.21
  -4   1  -2   67.33    4.67
   4  -1   2   71.44    4.57
   4  -1   2   67.94    4.38
   4  -1   2   72.52    4.21
   4  -1   2   71.68    3.12
  -5   1  -2   51.28    3.31
  -5   1  -2   52.73    4.27
  -5   1  -2   50.20    3.76
   5  -1   2   58.01    3.34
   5  -1   2   51.36    3.51
   5  -1   2   54.75    2.49
  -6   1  -2    2.96    0.81
  -6   1  -2    3.98    0.63
  -6   1  -2    4.89    1.02
   6  -1   2    4.19    0.80
   6  -1   2    3.95    0.52
   6  -1   2    3.60    0.59
  -7   1  -2   51.50    3.41
  -7   1  -2   52.83    4.46
   7  -1   2   52.94    3.38
   7  -1   2   51.35    3.68
   7  -1   2   50.81    2.55
  -8   1  -2   81.81    5.24
  -8   1  -2   81.40    6.75
   8  -1   2   83.40    3.90
   8  -1   2   83.71    5.60
  -9   1  -2   -0.01    0.94
  -9   1  -2   -0.27    0.44
   9  -1   2    0.53    0.78
   9  -1   2    1.89    0.56
 -10   1  -2   15.51    2.69
 -10   1  -2   16.63    1.74
  10  -1   2   18.74    2.35
  10  -1   2   16.46    1.44
 -11   1  -2   24.60    2.34
 -11   1  -2   23.74    3.65
  11  -1   2   24.67    2.74
  11  -1   2   26.70    1.88
  11   0  -2   27.50    1.99
 -11   0   2   24.37    3.89
 -11   0   2   25.80    2.70
  10   0  -2    1.52    0.68
 -10   0   2    0.88    0.89
 -10   0   2    1.86    1.53
 -10   0   2    1.26    1.38
   9   0  -2   12.09    1.19
  -9   0   2   10.35    1.53
  -9   0   2    7.52    1.94
  -9   0   2   11.43    2.30
   8   0  -2   64.38    3.29
   8   0  -2   68.87    4.43
  -8   0   2   68.59    4.52
  -8   0   2   68.30    5.80
  -8   0   2   52.99    5.16
   7   0  -2   21.50    1.37
   7   0  -2   20.93    1.78
   7   0  -2   19.38    1.84
  -7   0   2   16.49    2.31
  -7   0   2   22.07    1.89
   6   0  -2    8.99    0.84
   6   0  -2    8.43    1.16
   6   0  -2    8.44    0.58
   6   0  -2    7.29    0.99
  -6   0   2    9.14    1.17
  -6   0   2   10.92    1.66
   5   0  -2  125.78    6.53
   5   0  -2  120.95    7.52
   5   0  -2  121.49    5.40
   5   0  -2  125.41    5.52
   5   0  -2  120.17    7.38
  -5   0   2  114.79    5.53
  -5   0   2  126.29    8.48
  -5   0   2  124.76    7.45
   4   0  -2   22.54    1.37
   4   0  -2   20.39    1.15
   4   0  -2   22.22    1.06
   4   0  -2   20.17    1.55
   4   0  -2   21.64    1.58
  -4   0   2   20.64    1.61
  -4   0   2   20.31    1.04
  -4   0   2   19.89    1.90
   3   0  -2  160.11    9.48
   3   0  -2  163.34    7.20
   3   0  -2  165.77    8.29
   3   0  -2  162.44    9.63
  -3   0   2  158.09    7.20
  -3   0   2  160.98    9.53
  -3   0   2  161.24   10.71
   2   0  -2  221.88    9.99
   2   0  -2  223.99   11.41
   2   0  -2  222.65   13.06
   2   0  -2  220.57   15.68
  -2   0   2  233.04   13.12
  -2   0   2  231.30   14.69
   1   0  -2  122.03    6.92
   1   0  -2  113.09    6.92
   1   0  -2  116.44    8.25
   1   0  -2  120.35    7.79
  -1   0   2  113.92    6.89
  -1   0   2  117.28    7.77
  -1   0   2  119.53    6.95
  -1   0   2  118.26    8.25
   0   0  -2  292.56   23.20
   0   0  -2  326.24   23.73
   0   0  -2  341.78   21.53
   0   0  -2  341.66   19.31
   0   0  -2  327.05   19.29
   0   0   2  348.65   19.30
   0   0   2  336.22   19.30
   0   0   2  370.73   23.76
   0   0   2  354.55   21.54
   0   0   2  321.96   23.22
  -1   0  -2  406.18   23.29
  -1   0  -2  416.23   24.48
  -1   0  -2  410.78   23.30
  -1   0  -2  431.94   28.21
  -1   0  -2  410.91   28.93
  -1   0  -2  383.93   23.74
  -1   0  -2  405.07   24.08
  -1   0  -2  442.45   26.10
   1   0   2  406.39   23.29
   1   0   2  392.25   24.47
   1   0   2  438.62   28.82
   1   0   2  416.46   28.08
   1   0   2  392.21   23.30
   1   0   2  386.84   23.75
   1   0   2  389.27   24.06
  -2   0  -2   18.27    0.83
  -2   0  -2   17.28    1.44
  -2   0  -2   17.23    1.14
  -2   0  -2   16.55    1.07
  -2   0  -2   17.61    1.18
  -2   0  -2   17.13    1.09
   2   0   2   16.57    1.18
   2   0   2   16.90    0.82
   2   0   2   17.80    1.52
   2   0   2   16.89    1.21
   2   0   2   16.35    1.08
  -3   0  -2   12.88    0.93
  -3   0  -2   12.43    0.85
  -3   0  -2   11.69    1.15
  -3   0  -2   11.64    0.83
   3   0   2   12.93    0.85
   3   0   2   11.87    0.66
   3   0   2   11.48    0.96
  -4   0  -2   64.65    4.96
  -4   0  -2   61.56    3.87
  -4   0  -2   66.62    3.90
  -4   0  -2   64.08    4.33
   4   0   2   65.77    3.88
   4   0   2   65.26    2.89
   4   0   2   64.77    4.10
  -5   0  -2    3.61    0.80
  -5   0  -2    5.70    0.79
  -5   0  -2    3.74    0.54
  -5   0  -2    4.01    0.57
   5   0   2    4.84    0.50
   5   0   2    5.02    0.77
   5   0   2    5.73    0.62
  -6   0  -2   17.47    1.57
  -6   0  -2   14.40    1.22
  -6   0  -2   16.34    1.76
   6   0   2   14.70    0.97
   6   0   2   15.53    1.22
   6   0   2   16.70    1.50
  -7   0  -2   28.26    2.43
  -7   0  -2   28.05    1.98
  -7   0  -2   29.31    2.76
   7   0   2   24.83    1.48
   7   0   2   26.47    2.23
   7   0   2   25.38    1.91
  -8   0  -2    3.66    1.11
  -8   0  -2    3.27    0.69
  -8   0  -2    5.15    1.23
   8   0   2    3.32    0.92
   8   0   2    3.17    0.59
  -9   0  -2   29.93    3.26
  -9   0  -2   31.34    2.32
  -9   0  -2   21.56    2.78
   9   0   2   31.50    1.79
   9   0   2   30.42    2.67
 -10   0  -2   66.93    6.20
 -10   0  -2   70.83    4.66
  10   0   2   68.55    3.48
  10   0   2   66.96    5.03
 -11   0  -2    8.40    2.15
 -11   0  -2   10.89    1.48
  11   0   2    9.42    1.81
  11   0   2   12.08    1.25
  11  -1  -2    5.29    1.01
 -11   1   2    3.90    1.26
 -11   1   2    5.92    2.13
  10  -1  -2    6.01    1.02
 -10   1   2    2.94    1.70
 -10   1   2    2.85    1.66
 -10   1   2    3.53    1.12
   9  -1  -2   67.17    4.75
   9  -1  -2   66.41    3.48
  -9   1   2   64.41    4.70
  -9   1   2   74.53    6.24
  -9   1   2   63.30    5.65
   8  -1  -2   31.71    2.50
   8  -1  -2   29.85    1.88
   8  -1  -2   30.87    2.55
  -8   1   2   29.49    2.53
  -8   1   2   33.84    3.35
  -8   1   2   27.16    3.12
   7  -1  -2   40.67    2.96
   7  -1  -2   40.77    2.20
   7  -1  -2   40.65    2.04
   7  -1  -2   40.74    2.92
  -7   1   2   45.51    3.87
  -7   1   2   39.72    2.96
  -7   1   2   31.95    3.53
   6  -1  -2  138.86    6.05
   6  -1  -2  138.60    8.38
   6  -1  -2  141.09    8.25
   6  -1  -2  140.47    6.19
  -6   1   2  108.73    9.35
  -6   1   2  150.00   10.33
  -6   1   2  128.97    8.24
   5  -1  -2  161.47    9.54
   5  -1  -2  157.27    6.86
   5  -1  -2  167.70    9.41
   5  -1  -2  165.32    7.12
  -5   1   2  131.41   10.65
  -5   1   2  152.21    9.39
  -5   1   2  162.36   11.63
   4  -1  -2   31.53    2.10
   4  -1  -2   31.07    1.55
   4  -1  -2   30.86    2.09
   4  -1  -2   31.99    1.51
  -4   1   2   29.82    2.10
  -4   1   2   23.54    2.49
   3  -1  -2  254.58   14.57
   3  -1  -2  249.26   10.44
   3  -1  -2  242.08   14.34
   3  -1  -2  253.22   11.01
  -3   1   2  251.30   12.53
  -3   1   2  232.71   14.35
   2  -1  -2  108.14    6.30
   2  -1  -2  105.94    7.48
   2  -1  -2  104.12    6.24
   2  -1  -2  106.41    4.77
   2  -1  -2  104.34    4.54
  -2   1   2  108.59    5.39
  -2   1   2  107.43    6.30
  -2   1   2  103.99    4.76
  -2   1   2  104.14    6.25
   1  -1  -2   39.14    2.87
   1  -1  -2   39.59    2.42
   1  -1  -2   31.61    2.78
   1  -1  -2   42.10    1.85
   1  -1  -2   43.32    2.45
  -1   1   2   32.48    2.79
  -1   1   2   40.89    1.85
  -1   1   2   42.38    2.43
  -1   1   2   40.72    2.39
  -1   1   2   40.08    2.43
  -1   1   2   41.39    2.88
   0  -1  -2  130.10    6.73
   0  -1  -2  130.26    7.68
   0  -1  -2  132.87    7.68
   0  -1  -2  144.36    8.62
   0   1   2  125.01    7.67
   0   1   2  128.96    6.73
   0   1   2  146.99    8.64
   0   1   2  129.92    7.68
  -1  -1  -2  129.17    7.63
  -1  -1  -2  134.20    6.65
  -1  -1  -2  133.74    7.76
   1   1   2  125.62    6.64
   1   1   2  130.25    7.76
   1   1   2  134.66    7.44
   1   1   2  125.14    7.63
  -2  -1  -2   73.39    4.27
  -2  -1  -2   75.48    4.27
  -2  -1  -2   75.44    4.52
  -2  -1  -2   75.69    3.15
   2   1   2   72.27    3.14
   2   1   2   72.25    4.52
   2   1   2   75.08    4.26
   2   1   2   74.23    4.62
   2   1   2   76.78    3.90
   2   1   2   70.10    4.46
  -3  -1  -2  337.69   21.22
  -3  -1  -2  322.35   18.94
  -3  -1  -2  333.22   18.95
  -3  -1  -2  337.99   13.83
   3   1   2  343.50   13.82
   3   1   2  319.41   16.85
   3   1   2  324.18   19.43
  -4  -1  -2   44.92    2.73
  -4  -1  -2   46.20    3.11
  -4  -1  -2   44.01    1.80
  -4  -1  -2   44.62    2.72
   4   1   2   44.58    2.56
   4   1   2   45.66    2.71
   4   1   2   42.70    2.93
   4   1   2   44.88    2.03
  -5  -1  -2    0.64    0.25
  -5  -1  -2    0.71    0.25
  -5  -1  -2    0.64    0.36
   5   1   2    0.25    0.34
   5   1   2    0.80    0.26
   5   1   2    0.25    0.22
   5   1   2    0.61    0.39
  -6  -1  -2  180.60   13.74
  -6  -1  -2  195.70   12.31
  -6  -1  -2  181.06   10.92
   6   1   2  183.49    7.99
   6   1   2  188.61   11.36
   6   1   2  188.37   10.89
   6   1   2  188.38    9.87
  -7  -1  -2   87.91    7.34
  -7  -1  -2  101.81    6.60
  -7  -1  -2   90.43    5.73
   7   1   2   95.44    6.11
   7   1   2   88.36    4.22
   7   1   2   98.73    5.70
  -8  -1  -2    3.01    0.68
  -8  -1  -2    4.51    1.08
  -8  -1  -2    3.14    1.15
   8   1   2    3.31    0.59
   8   1   2    3.38    0.93
  -9  -1  -2   78.96    5.05
  -9  -1  -2   76.35    5.95
  -9  -1  -2   76.79    6.65
   9   1   2   77.65    5.46
   9   1   2   79.55    3.75
 -10  -1  -2   26.15    3.13
 -10  -1  -2   24.76    2.15
  10   1   2   25.31    1.68
  10   1   2   23.52    2.52
 -11  -1  -2   11.54    1.50
 -11  -1  -2    7.44    2.08
  11   1   2    9.19    1.77
  11   1   2    9.70    1.15
  11  -2  -2    1.40    0.78
 -11   2   2   -0.04    1.57
 -11   2   2    0.06    0.89
  10  -2  -2   39.63    2.48
  10  -2  -2   39.20    3.28
 -10   2   2   39.95    3.36
 -10   2   2   39.47    4.59
   9  -2  -2   45.42    3.56
   9  -2  -2   45.30    2.63
  -9   2   2   50.74    4.80
  -9   2   2   48.08    3.63
  -9   2   2   44.81    4.42
   8  -2  -2    4.96    1.04
   8  -2  -2    5.72    1.06
   8  -2  -2    4.78    0.68
   8  -2  -2    4.13    0.74
  -8   2   2    7.93    1.81
  -8   2   2    5.53    1.51
  -8   2   2    3.91    0.96
   7  -2  -2  122.66    7.55
   7  -2  -2  120.81    5.65
   7  -2  -2  124.87    5.57
   7  -2  -2  121.89    7.66
  -7   2   2  113.53    7.54
  -7   2   2  120.96    8.82
  -7   2   2  125.94    9.50
   6  -2  -2   74.16    4.82
   6  -2  -2   73.64    4.76
   6  -2  -2   80.17    3.56
   6  -2  -2   72.23    3.53
  -6   2   2   77.04    5.99
  -6   2   2   72.58    4.78
  -6   2   2   69.44    5.65
   5  -2  -2   11.24    1.14
   5  -2  -2   12.53    0.81
   5  -2  -2   11.38    0.86
   5  -2  -2   11.84    1.12
  -5   2   2   12.03    1.80
  -5   2   2   12.08    1.18
  -5   2   2   12.27    1.45
   4  -2  -2  280.93   16.22
   4  -2  -2  289.33   16.47
   4  -2  -2  276.45   11.81
   4  -2  -2  290.94   12.47
  -4   2   2  272.19   16.22
  -4   2   2  245.13   18.28
  -4   2   2  293.77   20.02
   3  -2  -2  199.69   11.98
   3  -2  -2  206.54    9.11
   3  -2  -2  200.50    8.62
   3  -2  -2  204.91   11.85
  -3   2   2  199.30   11.84
  -3   2   2  207.26   14.57
   2  -2  -2   -0.26    0.14
   2  -2  -2    0.10    0.21
   2  -2  -2   -0.13    0.15
   2  -2  -2    0.01    0.15
  -2   2   2   -0.03    0.22
  -2   2   2   -0.08    0.21
  -2   2   2   -0.20    0.34
  -2   2   2    0.12    0.16
  -2   2   2   -0.10    0.19
   1  -2  -2  106.76    6.49
   1  -2  -2  111.90    4.72
   1  -2  -2  108.66    6.49
   1  -2  -2  120.80    7.33
   1  -2  -2  110.66    5.02
   1  -2  -2  110.66    7.91
   1  -2  -2  104.95    6.51
   1  -2  -2  106.90    7.72
  -1   2   2  110.17    7.73
  -1   2   2  106.34    6.51
  -1   2   2  125.24    7.33
  -1   2   2  123.57    7.98
  -1   2   2  109.19    5.01
  -1   2   2  105.32    6.49
   0  -2  -2  421.00   26.16
   0  -2  -2  457.25   25.33
   0  -2  -2  431.67   19.55
   0  -2  -2  435.29   18.33
   0  -2  -2  436.72   25.25
   0   2   2  453.66   19.56
   0   2   2  445.79   22.26
   0   2   2  435.61   31.11
   0   2   2  486.73   30.37
   0   2   2  427.45   25.24
   0   2   2  437.38   25.25
  -1  -2  -2    0.41    0.12
  -1  -2  -2    0.84    0.17
  -1  -2  -2    0.51    0.21
  -1  -2  -2    0.42    0.19
  -1  -2  -2    0.69    0.23
  -1  -2  -2    0.62    0.19
  -1  -2  -2    0.43    0.12
   1   2   2    0.51    0.12
   1   2   2    0.47    0.18
   1   2   2    0.56    0.21
   1   2   2    0.31    0.18
   1   2   2    0.64    0.24
  -2  -2  -2  184.87    7.51
   2   2   2  189.36    7.51
   2   2   2  175.16    9.23
   2   2   2  179.85   10.96
   2   2   2  179.84   10.81
   2   2   2  172.57   10.63
  -3  -2  -2  234.41   15.06
  -3  -2  -2  231.49   13.37
  -3  -2  -2  240.72   13.39
  -3  -2  -2  235.03    9.11
  -3  -2  -2  238.14    9.74
   3   2   2  219.55   13.77
   3   2   2  237.21    9.75
   3   2   2  229.76   11.95
  -4  -2  -2    1.97    0.31
  -4  -2  -2    2.66    0.36
  -4  -2  -2    1.83    0.47
  -4  -2  -2    1.56    0.20
   4   2   2    1.95    0.27
   4   2   2    2.80    0.54
   4   2   2    2.04    0.42
  -5  -2  -2  322.60   20.82
  -5  -2  -2  315.12   18.56
  -5  -2  -2  328.60   18.56
   5   2   2  317.04   13.52
   5   2   2  327.59   16.56
   5   2   2  323.44   18.51
   5   2   2  321.47   19.11
  -6  -2  -2  269.35   16.05
  -6  -2  -2  281.52   16.04
  -6  -2  -2  282.49   18.02
   6   2   2  268.84   11.69
   6   2   2  280.27   14.37
   6   2   2  277.06   15.97
   6   2   2  276.12   16.56
  -7  -2  -2   -0.09    0.29
  -7  -2  -2   -0.51    0.45
   7   2   2    0.58    0.49
   7   2   2    0.04    0.28
   7   2   2    0.00    0.48
   7   2   2    0.22    0.30
  -8  -2  -2  153.66   11.79
  -8  -2  -2  157.76    9.24
  -8  -2  -2  153.44   10.50
   8   2   2  154.03    9.70
   8   2   2  149.20    6.75
  -9  -2  -2  124.51    8.74
  -9  -2  -2  124.84    9.83
  -9  -2  -2  122.55    7.56
   9   2   2  119.86    8.00
   9   2   2  120.64    5.56
 -10  -2  -2    0.89    1.08
 -10  -2  -2    0.07    1.01
 -10  -2  -2    0.55    0.59
  10   2   2    0.81    0.55
  10   2   2    0.60    0.89
 -11  -2  -2   33.70    2.74
 -11  -2  -2   34.53    4.10
  11   2   2   31.56    2.07
  11  -3  -2   29.12    2.18
  11  -3  -2   26.25    2.70
 -11   3   2   25.15    2.75
 -11   3   2   23.76    4.04
  10  -3  -2   99.48    6.84
  10  -3  -2  101.02    5.04
 -10   3   2  103.44    6.85
 -10   3   2   99.73    8.81
   9  -3  -2    7.80    1.09
   9  -3  -2    9.82    1.49
  -9   3   2    6.72    1.27
  -9   3   2    7.69    1.79
  -9   3   2    8.85    2.02
   8  -3  -2   36.20    2.70
   8  -3  -2   31.54    1.87
   8  -3  -2   31.90    2.00
   8  -3  -2   35.98    2.73
  -8   3   2   26.76    3.19
  -8   3   2   36.81    3.67
  -8   3   2   32.53    2.70
   7  -3  -2  127.51    7.92
   7  -3  -2  123.14    5.89
   7  -3  -2  125.88    5.75
   7  -3  -2  133.07    7.86
  -7   3   2  134.52    9.88
  -7   3   2  120.60    7.82
  -7   3   2  116.79    8.95
   6  -3  -2   12.85    0.95
   6  -3  -2   14.70    1.41
   6  -3  -2   14.30    1.34
   6  -3  -2   14.72    1.06
  -6   3   2   13.36    1.90
  -6   3   2   14.37    1.83
  -6   3   2   14.09    1.43
   5  -3  -2   27.47    1.59
   5  -3  -2   28.85    2.13
   5  -3  -2   30.22    1.24
   5  -3  -2   30.03    1.62
   5  -3  -2   30.82    2.19
  -5   3   2   29.74    2.73
  -5   3   2   30.40    2.20
  -5   3   2   28.05    2.63
   4  -3  -2  175.71    7.68
   4  -3  -2  175.17   10.54
   4  -3  -2  179.71    8.10
   4  -3  -2  178.36    6.99
   4  -3  -2  178.21   10.65
  -4   3   2  189.83   11.91
  -4   3   2  185.85   13.03
  -4   3   2  164.63   10.52
   3  -3  -2    0.61    0.22
   3  -3  -2    0.79    0.31
   3  -3  -2    0.91    0.28
   3  -3  -2    1.22    0.29
  -3   3   2    0.76    0.32
  -3   3   2    0.98    0.43
  -3   3   2    1.29    0.48
   2  -3  -2  203.13   12.31
   2  -3  -2  217.28    9.52
   2  -3  -2  203.34    8.94
   2  -3  -2  205.67   12.43
   2  -3  -2  225.61   15.18
  -2   3   2  197.82   14.67
  -2   3   2  233.19   15.23
  -2   3   2  213.18   12.32
   1  -3  -2  263.38   15.15
   1  -3  -2  263.12   11.73
   1  -3  -2  254.77   15.15
   1  -3  -2  282.40   18.66
   1  -3  -2  253.21   10.99
   1  -3  -2  247.24   15.32
  -1   3   2  262.03   15.15
  -1   3   2  285.12   15.77
  -1   3   2  258.32   18.08
   0  -3  -2   60.38    2.52
   0  -3  -2   63.41    3.68
   0  -3  -2   62.76    2.64
   0  -3  -2   61.70    2.87
   0  -3  -2   59.55    3.67
   0   3   2   63.21    4.56
   0   3   2   62.39    3.87
   0   3   2   63.60    3.85
   0   3   2   61.99    2.64
   0   3   2   61.40    3.67
  -1  -3  -2  366.60   24.57
  -1  -3  -2  357.55   19.80
  -1  -3  -2  345.70   15.35
  -1  -3  -2  334.94   13.49
  -1  -3  -2  348.20   19.80
   1   3   2  330.84   20.57
   1   3   2  347.83   15.36
   1   3   2  349.98   20.83
   1   3   2  345.64   19.80
   1   3   2  339.79   17.54
  -2  -3  -2  435.75   19.24
  -2  -3  -2  446.12   24.95
  -2  -3  -2  462.05   25.05
  -2  -3  -2  421.98   16.92
   2   3   2  442.79   24.82
   2   3   2  430.36   25.84
   2   3   2  435.12   18.03
   2   3   2  425.81   22.04
   2   3   2  418.43   26.17
  -3  -3  -2   88.40    3.80
  -3  -3  -2   72.52    4.96
  -3  -3  -2   88.81    3.39
  -3  -3  -2   86.75    5.63
  -3  -3  -2   79.39    4.96
   3   3   2   84.05    4.47
   3   3   2   82.58    5.23
   3   3   2   82.41    5.14
   3   3   2   87.84    3.55
  -4  -3  -2   58.65    3.95
  -4  -3  -2   59.09    3.41
  -4  -3  -2   59.24    2.33
  -4  -3  -2   46.20    3.44
   4   3   2   54.36    3.14
   4   3   2   58.15    3.64
   4   3   2   56.53    2.46
  -5  -3  -2  195.14    8.50
  -5  -3  -2  187.85   12.53
  -5  -3  -2  191.01   11.09
  -5  -3  -2  183.05   11.18
   5   3   2  190.77    9.97
   5   3   2  184.76   11.49
   5   3   2  197.51   11.04
   5   3   2  191.81    8.07
  -6  -3  -2   36.03    2.31
  -6  -3  -2   32.67    2.47
  -6  -3  -2   34.22    2.73
   6   3   2   34.91    1.70
   6   3   2   35.18    2.24
   6   3   2   31.79    2.22
   6   3   2   35.49    2.59
  -7  -3  -2   69.50    4.37
  -7  -3  -2   68.83    5.05
   7   3   2   70.80    4.73
   7   3   2   68.31    3.21
   7   3   2   70.82    4.13
  -8  -3  -2  101.51    7.06
  -8  -3  -2  103.09    6.14
   8   3   2   94.38    4.48
   8   3   2   97.98    6.54
   8   3   2   96.94    5.71
  -9  -3  -2    3.17    1.09
  -9  -3  -2    2.60    0.69
   9   3   2    5.08    1.08
   9   3   2    3.88    0.63
   9   3   2    4.14    1.20
 -10  -3  -2   30.01    2.44
 -10  -3  -2   31.30    3.21
 -10  -3  -2   29.50    3.53
  10   3   2   30.98    1.87
 -11  -3  -2   51.05    3.75
 -11  -3  -2   52.79    5.46
  11   3   2   52.12    2.93
  10  -4  -2    8.68    1.22
  10  -4  -2    7.91    1.53
 -10   4   2    8.79    2.46
 -10   4   2    9.87    1.66
   9  -4  -2   14.86    1.86
   9  -4  -2   17.22    1.59
   9  -4  -2   16.96    1.96
  -9   4   2   11.42    2.37
  -9   4   2   13.29    1.85
   8  -4  -2   57.27    3.11
   8  -4  -2   57.98    4.17
   8  -4  -2   53.94    3.05
   8  -4  -2   57.20    4.18
  -8   4   2   63.48    5.52
  -8   4   2   63.26    4.27
  -8   4   2   65.33    4.84
   7  -4  -2   42.30    3.00
   7  -4  -2   35.48    2.15
   7  -4  -2   39.85    2.94
   7  -4  -2   39.03    2.16
  -7   4   2   42.51    3.44
  -7   4   2   39.21    2.98
  -7   4   2   36.57    3.81
   6  -4  -2    0.56    0.40
   6  -4  -2    0.78    0.38
   6  -4  -2    0.33    0.46
   6  -4  -2    0.47    0.52
  -6   4   2    1.14    0.76
  -6   4   2    0.40    0.71
  -6   4   2    1.01    0.51
   5  -4  -2   76.44    3.73
   5  -4  -2   74.91    4.86
   5  -4  -2   77.33    3.08
   5  -4  -2   74.91    4.85
   5  -4  -2   69.66    3.53
  -5   4   2   76.73    4.89
  -5   4   2   80.88    6.12
  -5   4   2   82.23    5.47
   4  -4  -2  163.08    9.92
   4  -4  -2  165.54    6.58
   4  -4  -2  163.47    7.65
   4  -4  -2  160.40    9.99
   4  -4  -2  160.02    7.22
  -4   4   2  187.84   11.10
  -4   4   2  160.16    9.92
  -4   4   2  177.99   12.35
   3  -4  -2    0.14    0.25
   3  -4  -2    0.32    0.23
   3  -4  -2    0.19    0.14
   3  -4  -2    0.54    0.26
   3  -4  -2    0.16    0.25
  -3   4   2    0.27    0.48
  -3   4   2    0.14    0.28
   2  -4  -2  138.32    5.93
   2  -4  -2  135.49    8.20
   2  -4  -2  141.32    5.50
   2  -4  -2  140.85    8.18
   2  -4  -2  146.02    6.34
  -2   4   2  135.48    8.17
  -2   4   2  132.33   10.21
   1  -4  -2  111.79    5.23
   1  -4  -2  113.19    4.57
   1  -4  -2  112.84    4.87
   1  -4  -2  115.91    6.74
  -1   4   2  118.25    6.74
   0  -4  -2    0.22    0.17
   0  -4  -2    0.10    0.11
   0  -4  -2    0.14    0.19
   0  -4  -2    0.43    0.17
   0  -4  -2   -0.05    0.16
   0   4   2    0.27    0.13
   0   4   2    0.14    0.22
   0   4   2    0.27    0.19
   0   4   2    0.48    0.36
   0   4   2    0.31    0.20
  -1  -4  -2  676.65   36.58
  -1  -4  -2  651.96   43.80
  -1  -4  -2  635.78   24.73
  -1  -4  -2  660.35   36.48
  -1  -4  -2  620.41   28.13
   1   4   2  596.45   32.12
   1   4   2  633.52   26.35
   1   4   2  617.71   37.69
   1   4   2  665.43   36.54
   1   4   2  614.50   38.15
  -2  -4  -2   74.52    3.12
  -2  -4  -2   78.07    4.48
  -2  -4  -2   77.81    3.49
  -2  -4  -2   77.76    4.49
  -2  -4  -2   78.07    5.50
   2   4   2   73.22    4.06
   2   4   2   72.90    4.76
   2   4   2   77.46    4.56
  -3  -4  -2   19.10    0.96
  -3  -4  -2   18.95    1.27
  -3  -4  -2   19.03    1.39
  -3  -4  -2   18.96    0.94
  -3  -4  -2   19.21    1.57
   3   4   2   18.79    1.48
   3   4   2   19.64    1.27
   3   4   2   18.11    0.87
  -4  -4  -2  238.46   14.18
  -4  -4  -2  244.53   14.21
  -4  -4  -2  247.71   15.91
  -4  -4  -2  245.98   10.82
  -4  -4  -2  247.92    9.60
   4   4   2  238.10   12.59
   4   4   2  243.75   10.20
  -5  -4  -2  114.09    6.58
  -5  -4  -2  110.52    4.92
  -5  -4  -2  103.37    7.44
   5   4   2  110.89    5.96
   5   4   2  107.24    4.72
   5   4   2  111.34    6.46
  -6  -4  -2    9.82    0.55
  -6  -4  -2    9.58    1.32
  -6  -4  -2   10.12    0.96
   6   4   2   11.03    0.90
   6   4   2   10.50    0.71
   6   4   2   11.54    1.21
  -7  -4  -2   48.00    3.66
  -7  -4  -2   45.61    3.05
   7   4   2   45.79    2.97
   7   4   2   45.74    2.24
  -8  -4  -2   19.21    2.05
  -8  -4  -2   18.02    1.59
   8   4   2   17.32    1.17
   8   4   2   23.10    1.83
  -9  -4  -2    3.78    0.79
  -9  -4  -2    3.29    1.15
   9   4   2    2.46    0.54
   9   4   2    3.66    0.99
 -10  -4  -2   12.54    1.50
 -10  -4  -2   11.51    2.04
  10   4   2   10.62    1.65
  10   4   2   14.32    1.24
 -11  -4  -2   11.91    1.53
 -11  -4  -2    9.05    2.28
 -11  -4  -2   10.78    2.17
  10  -5  -2    2.35    1.02
  10  -5  -2    4.30    0.96
 -10   5   2    2.92    1.16
 -10   5   2    0.95    1.72
   9  -5  -2   13.07    1.76
   9  -5  -2   12.87    1.74
   9  -5  -2   13.64    1.29
   9  -5  -2   11.17    1.29
  -9   5   2   12.34    2.59
  -9   5   2   12.00    1.76
   8  -5  -2   15.48    1.65
   8  -5  -2   14.50    1.38
   8  -5  -2   14.96    1.83
   8  -5  -2   14.65    1.20
  -8   5   2   15.31    2.60
  -8   5   2   15.57    1.91
   7  -5  -2    6.02    0.80
   7  -5  -2    5.52    1.11
   7  -5  -2    7.41    0.94
   7  -5  -2    6.81    1.10
  -7   5   2    6.47    1.65
  -7   5   2    6.10    1.14
   6  -5  -2   43.64    2.31
   6  -5  -2   44.43    3.16
   6  -5  -2   41.76    3.06
   6  -5  -2   43.46    2.38
  -6   5   2   46.24    4.13
  -6   5   2   43.75    3.16
   5  -5  -2  118.19    5.67
   5  -5  -2  116.71    5.36
   5  -5  -2  116.14    7.37
   5  -5  -2  123.62    7.39
  -5   5   2  128.54    9.31
  -5   5   2  117.59    7.37
   4  -5  -2    5.47    0.66
   4  -5  -2    7.88    0.93
   4  -5  -2    7.38    0.47
   4  -5  -2    6.33    0.80
   4  -5  -2    5.76    0.63
  -4   5   2    5.76    0.82
  -4   5   2    6.60    1.27
   3  -5  -2  130.19    5.11
   3  -5  -2  130.17    5.93
   3  -5  -2  122.78    7.64
   3  -5  -2  128.12    5.55
   3  -5  -2  123.54    7.64
  -3   5   2  128.63    7.65
  -3   5   2  129.26    9.66
   2  -5  -2  326.09   19.27
   2  -5  -2  337.62   14.93
   2  -5  -2  335.08   13.98
   2  -5  -2  318.45   19.50
   2  -5  -2  333.63   13.04
  -2   5   2  330.50   19.26
  -2   5   2  351.75   19.99
   1  -5  -2   55.10    3.47
   1  -5  -2   55.10    2.48
   1  -5  -2   53.77    2.36
   1  -5  -2   57.02    2.72
  -1   5   2   45.22    4.43
  -1   5   2   59.03    3.48
  -1   5   2   56.47    3.61
  -1   5   2   62.43    3.97
   0  -5  -2   95.91    5.69
   0  -5  -2   98.73    4.08
   0  -5  -2   93.04    4.42
   0  -5  -2   97.51    3.91
   0   5   2   92.47    5.91
   0   5   2   94.96    5.68
   0   5   2   96.61    4.13
   0   5   2  100.44    7.18
   0   5   2   93.98    5.86
  -1  -5  -2  162.44    7.47
  -1  -5  -2  166.47   11.49
  -1  -5  -2  166.16    6.62
  -1  -5  -2  169.26    9.64
   1   5   2  165.89    6.93
   1   5   2  173.75    9.64
   1   5   2  161.52   10.05
   1   5   2  161.18   10.06
  -2  -5  -2    2.27    0.36
  -2  -5  -2    2.33    0.37
  -2  -5  -2    1.46    0.27
  -2  -5  -2    1.47    0.26
   2   5   2    2.11    0.40
   2   5   2    2.28    0.19
   2   5   2    1.81    0.43
   2   5   2    1.95    0.37
   2   5   2    2.68    0.47
  -3  -5  -2   38.81    1.86
  -3  -5  -2   39.68    2.43
  -3  -5  -2   37.66    1.74
  -3  -5  -2   41.44    2.53
  -3  -5  -2   38.40    2.89
   3   5   2   38.97    2.69
   3   5   2   36.59    2.28
  -4  -5  -2   59.43    4.26
  -4  -5  -2   61.21    2.54
  -4  -5  -2   59.48    2.73
  -4  -5  -2   62.36    3.67
   4   5   2   59.92    2.59
   4   5   2   56.79    3.37
   4   5   2   57.49    3.62
   4   5   2   55.85    3.95
  -5  -5  -2    0.93    0.52
  -5  -5  -2    1.46    0.43
  -5  -5  -2    0.67    0.41
  -5  -5  -2    0.99    0.18
   5   5   2    1.18    0.32
   5   5   2    0.78    0.22
   5   5   2    0.89    0.41
  -6  -5  -2   70.11    4.33
  -6  -5  -2   68.98    4.99
   6   5   2   65.32    3.97
   6   5   2   68.23    4.16
   6   5   2   67.18    3.06
  -7  -5  -2   65.15    4.95
  -7  -5  -2   64.06    4.22
   7   5   2   68.22    3.06
   7   5   2   66.83    4.01
  -8  -5  -2    6.46    0.96
  -8  -5  -2    4.92    1.19
   8   5   2    5.85    1.07
   8   5   2    7.10    0.71
  -9  -5  -2   11.59    1.38
  -9  -5  -2   11.70    1.93
   9   5   2   12.51    1.05
   9   5   2    9.69    1.49
 -10  -5  -2   46.60    4.22
 -10  -5  -2   45.02    3.33
  10   5   2   48.44    3.55
 -11  -5  -2    9.65    2.09
 -11  -5  -2    9.31    1.36
 -11  -5  -2    8.98    2.27
  10  -6  -2    8.38    1.57
  10  -6  -2   11.32    1.45
 -10   6   2    5.25    2.28
 -10   6   2    7.30    1.55
   9  -6  -2   46.74    2.92
   9  -6  -2   56.05    4.10
   9  -6  -2   52.95    4.01
   9  -6  -2   55.98    3.05
  -9   6   2   53.06    5.56
  -9   6   2   53.23    4.10
   8  -6  -2   25.16    1.76
   8  -6  -2   26.27    2.46
   8  -6  -2   27.12    2.36
   8  -6  -2   26.90    1.79
  -8   6   2   26.58    2.48
  -8   6   2   27.11    3.76
   7  -6  -2    3.43    0.70
   7  -6  -2    3.87    0.93
   7  -6  -2    5.49    1.15
   7  -6  -2    3.56    0.71
  -7   6   2    4.07    0.99
  -7   6   2    4.57    1.65
   6  -6  -2  108.95    5.08
   6  -6  -2  112.24    6.99
   6  -6  -2  114.09    6.97
   6  -6  -2  105.78    5.33
  -6   6   2  111.51    6.99
  -6   6   2  108.97    8.89
   5  -6  -2   39.31    2.17
   5  -6  -2   41.75    2.32
   5  -6  -2   42.41    2.92
   5  -6  -2   42.11    3.01
  -5   6   2   44.94    4.06
  -5   6   2   42.58    3.02
   4  -6  -2   52.54    3.69
   4  -6  -2   57.41    3.64
   4  -6  -2   58.45    2.40
   4  -6  -2   56.39    2.89
   4  -6  -2   57.11    2.69
  -4   6   2   57.57    3.73
  -4   6   2   51.55    4.85
   3  -6  -2  153.46    9.23
   3  -6  -2  154.85    6.19
   3  -6  -2  154.07    6.68
   3  -6  -2  150.23    7.15
   3  -6  -2  151.96    9.25
  -3   6   2  155.41    9.23
  -3   6   2  161.11    9.58
   2  -6  -2   12.25    1.07
   2  -6  -2   15.82    0.81
   2  -6  -2   12.50    0.82
   2  -6  -2   13.50    0.96
  -2   6   2   15.71    1.29
  -2   6   2   14.93    1.16
  -2   6   2   12.67    1.16
   1  -6  -2   77.47    3.16
   1  -6  -2   73.25    4.61
   1  -6  -2   76.76    3.61
   1  -6  -2   78.03    3.30
  -1   6   2   78.36    4.77
  -1   6   2   77.06    4.61
  -1   6   2   75.62    6.00
  -1   6   2   67.46    5.30
   0  -6  -2  161.69   10.29
   0  -6  -2  147.45    8.78
   0  -6  -2  147.32    6.01
   0  -6  -2  150.86    6.31
   0  -6  -2  141.32    6.80
   0   6   2  151.99    8.78
   0   6   2  144.10    9.04
   0   6   2  142.69    9.09
   0   6   2  149.65   11.02
   0   6   2  151.16   10.29
  -1  -6  -2  108.67    7.93
  -1  -6  -2  111.04    5.18
   1   6   2  108.81    6.90
   1   6   2  116.94    6.68
   1   6   2  117.21    7.00
   1   6   2  114.20    4.77
  -2  -6  -2   63.16    4.51
  -2  -6  -2   69.65    3.94
  -2  -6  -2   64.23    3.92
  -2  -6  -2   60.10    3.02
  -2  -6  -2   65.18    2.77
   2   6   2   65.87    2.75
   2   6   2   60.50    3.55
   2   6   2   61.23    4.16
   2   6   2   66.98    3.98
  -3  -6  -2   78.62    3.67
  -3  -6  -2   76.38    5.52
  -3  -6  -2   80.95    3.36
  -3  -6  -2   81.74    4.79
  -3  -6  -2   82.31    4.86
   3   6   2   74.77    4.36
   3   6   2   80.25    5.15
  -4  -6  -2   79.34    3.50
  -4  -6  -2   76.81    4.63
  -4  -6  -2   72.78    4.85
  -4  -6  -2   73.70    5.37
   4   6   2   78.44    5.03
   4   6   2   78.51    4.28
   4   6   2   71.23    4.70
  -5  -6  -2    0.74    0.53
  -5  -6  -2    1.28    0.23
  -5  -6  -2    1.10    0.62
   5   6   2    1.21    0.36
   5   6   2    1.10    0.49
   5   6   2    1.13    0.23
  -6  -6  -2  128.30    7.72
  -6  -6  -2  125.25    8.67
   6   6   2  122.74    6.89
   6   6   2  124.39    5.42
  -7  -6  -2   16.21    1.90
  -7  -6  -2   17.83    1.54
   7   6   2   16.94    1.60
   7   6   2   15.56    1.01
  -8  -6  -2    4.81    1.20
  -8  -6  -2    5.91    0.94
   8   6   2    5.80    1.07
   8   6   2    5.11    0.64
  -9  -6  -2   89.19    6.78
  -9  -6  -2   87.95    5.72
   9   6   2   92.30    5.55
 -10  -6  -2   23.37    2.98
 -10  -6  -2   20.82    1.98
  10   6   2   26.67    2.70
 -11  -6  -2    5.31    1.78
 -11  -6  -2    5.65    1.04
  11   6   2    6.42    1.56
  10  -7  -2   17.04    1.72
 -10   7   2   14.71    2.20
 -10   7   2   15.33    3.41
   9  -7  -2   27.52    2.64
   9  -7  -2   25.16    1.92
   9  -7  -2   25.96    1.85
   9  -7  -2   26.31    2.48
  -9   7   2   26.39    2.59
  -9   7   2   15.11    3.41
   8  -7  -2    1.35    0.79
   8  -7  -2    0.82    0.61
   8  -7  -2    1.71    0.89
   8  -7  -2    0.54    0.55
  -8   7   2    1.76    1.60
  -8   7   2    0.64    0.78
   7  -7  -2  112.82    7.34
   7  -7  -2  116.87    7.35
   7  -7  -2  111.73    5.62
   7  -7  -2  115.51    5.38
  -7   7   2  119.42    7.39
  -7   7   2  108.05    9.47
   6  -7  -2  142.59    8.70
   6  -7  -2  136.01    6.31
   6  -7  -2  142.06    6.71
   6  -7  -2  143.26    8.70
  -6   7   2  142.79    8.71
  -6   7   2  128.98   11.07
   5  -7  -2    7.53    0.88
   5  -7  -2    6.86    1.08
   5  -7  -2    7.75    0.86
   5  -7  -2    7.11    1.02
  -5   7   2    5.85    1.75
  -5   7   2    8.57    1.22
  -5   7   2    7.53    1.23
   4  -7  -2  144.61    6.56
   4  -7  -2  141.55    8.44
   4  -7  -2  139.74    8.42
   4  -7  -2  138.56    6.10
  -4   7   2  115.62   10.70
  -4   7   2  145.16    8.45
  -4   7   2  138.40    8.70
   3  -7  -2   77.32    3.50
   3  -7  -2   75.24    3.23
   3  -7  -2   74.79    3.78
   3  -7  -2   71.20    4.78
   3  -7  -2   75.30    4.86
  -3   7   2   75.48    4.85
  -3   7   2   79.88    5.02
  -3   7   2   82.79    5.53
   2  -7  -2    8.97    0.67
   2  -7  -2   10.50    0.68
   2  -7  -2    8.76    0.85
   2  -7  -2    6.16    0.87
  -2   7   2   12.29    1.02
  -2   7   2    7.65    1.70
  -2   7   2    9.19    1.03
  -2   7   2    9.31    0.97
   1  -7  -2  129.36    5.37
   1  -7  -2  132.22    7.89
   1  -7  -2  131.39    6.13
   1  -7  -2  138.10    5.67
  -1   7   2  129.82    7.87
  -1   7   2  128.49    8.12
  -1   7   2  126.79   10.05
  -1   7   2  130.25    8.01
  -1   7   2  136.68    9.16
   0  -7  -2   29.12    1.97
   0  -7  -2   26.61    1.50
   0  -7  -2   25.07    1.88
   0  -7  -2   25.33    1.34
   0   7   2   28.08    1.98
   0   7   2   26.37    1.88
   0   7   2   25.80    1.76
   0   7   2   25.45    1.96
   0   7   2   27.74    2.62
  -1  -7  -2   38.27    1.79
  -1  -7  -2   40.07    2.51
  -1  -7  -2   37.48    1.94
   1   7   2   37.31    2.65
   1   7   2   35.49    2.44
   1   7   2   36.63    2.47
   1   7   2   40.21    3.32
  -2  -7  -2  152.50   10.28
  -2  -7  -2  156.93    6.28
  -2  -7  -2  155.94    9.10
  -2  -7  -2  148.15    7.01
   2   7   2  164.25    9.16
   2   7   2  145.94    8.11
   2   7   2  155.98    9.54
  -3  -7  -2  111.78    4.87
  -3  -7  -2  114.02    6.41
  -3  -7  -2  102.30    7.23
   3   7   2  101.03    5.73
   3   7   2   98.21    6.51
   3   7   2  104.04    6.73
  -4  -7  -2    2.23    0.69
  -4  -7  -2    3.63    0.40
  -4  -7  -2    3.18    0.70
   4   7   2    2.41    0.60
   4   7   2    3.19    0.68
   4   7   2    4.29    0.85
  -5  -7  -2  142.43   10.23
  -5  -7  -2  157.69    6.78
   5   7   2  152.47    8.99
   5   7   2  156.24    6.42
   5   7   2  140.32    8.10
  -6  -7  -2  111.86    7.80
  -6  -7  -2  102.43    6.98
   6   7   2  115.81    4.81
   6   7   2  108.37    6.19
  -7  -7  -2    6.97    1.38
  -7  -7  -2    8.02    1.23
   7   7   2    9.46    0.78
   7   7   2   11.36    1.42
  -8  -7  -2   40.93    2.93
  -8  -7  -2   37.81    3.52
   8   7   2   37.76    2.86
  -9  -7  -2   42.87    3.98
  -9  -7  -2   45.31    3.25
   9   7   2   44.73    3.35
 -10  -7  -2   -0.44    1.11
 -10  -7  -2    0.44    0.58
  10   7   2    1.26    0.98
   9  -8  -2    3.14    0.85
   9  -8  -2    2.30    0.88
   9  -8  -2    1.84    0.95
   9  -8  -2    3.63    1.24
  -9   8   2    1.80    2.03
   8  -8  -2   25.87    2.44
   8  -8  -2   22.48    2.18
   8  -8  -2   24.22    1.75
   8  -8  -2   19.54    1.68
  -8   8   2   20.92    2.63
  -8   8   2   25.48    2.44
  -8   8   2   14.45    3.22
   7  -8  -2   54.60    3.71
   7  -8  -2   50.48    3.77
   7  -8  -2   51.93    2.88
   7  -8  -2   48.16    2.72
  -7   8   2   42.55    5.15
  -7   8   2   51.06    3.78
  -7   8   2   44.95    3.89
   6  -8  -2    0.24    0.51
   6  -8  -2    0.81    0.54
   6  -8  -2    1.70    0.71
   6  -8  -2    1.01    0.71
  -6   8   2    0.66    0.78
  -6   8   2    0.31    0.63
  -6   8   2   -1.02    1.20
   5  -8  -2   69.38    3.68
   5  -8  -2   67.89    3.41
   5  -8  -2   70.15    4.74
   5  -8  -2   74.62    4.67
  -5   8   2   72.81    5.29
  -5   8   2   52.99    6.18
  -5   8   2   73.22    4.87
  -5   8   2   77.99    4.80
   4  -8  -2   90.14    4.31
   4  -8  -2   93.27    5.93
   4  -8  -2   91.73    5.99
   4  -8  -2   98.03    4.71
  -4   8   2   96.55    6.01
  -4   8   2   97.28    6.83
  -4   8   2   93.38    6.13
   3  -8  -2    1.26    0.36
   3  -8  -2    0.97    0.44
   3  -8  -2    1.64    0.52
   3  -8  -2    1.39    0.53
  -3   8   2    1.51    0.55
  -3   8   2    1.65    1.26
   2  -8  -2   37.20    2.16
   2  -8  -2   40.82    1.87
   2  -8  -2   40.81    1.95
   2  -8  -2   41.27    2.78
  -2   8   2   38.58    2.79
  -2   8   2   32.91    3.85
  -2   8   2   41.29    2.76
   1  -8  -2  143.79    6.04
   1  -8  -2  130.39    6.51
   1  -8  -2  141.18    5.74
   1  -8  -2  134.52    8.41
  -1   8   2  141.39   10.79
  -1   8   2  145.33    8.42
  -1   8   2  140.64    8.68
  -1   8   2  141.95    9.72
  -1   8   2  139.82    8.48
   0  -8  -2   61.61    2.79
   0  -8  -2   61.42    3.13
   0   8   2   61.73    4.16
   0   8   2   66.81    4.49
   0   8   2   67.98    4.03
   0   8   2   58.85    3.90
   0   8   2   63.65    5.26
  -1  -8  -2   40.62    1.90
  -1  -8  -2   37.98    2.64
  -1  -8  -2   37.64    2.05
   1   8   2   41.21    3.58
   1   8   2   40.78    2.83
   1   8   2   38.53    2.63
  -2  -8  -2  147.42    8.92
  -2  -8  -2  144.34   10.07
  -2  -8  -2  154.26    6.90
   2   8   2  150.79    9.36
   2   8   2  152.92    8.98
  -3  -8  -2   20.02    2.02
  -3  -8  -2   22.19    1.73
  -3  -8  -2   24.01    1.30
   3   8   2   21.69    1.85
   3   8   2   23.73    1.95
   3   8   2   21.60    1.63
  -4  -8  -2   52.94    3.57
  -4  -8  -2   53.43    2.54
  -4  -8  -2   50.40    3.99
   4   8   2   52.00    3.75
   4   8   2   51.02    3.17
  -5  -8  -2  100.48    7.66
  -5  -8  -2  127.30    8.57
   5   8   2  131.93    5.26
   5   8   2  125.67    6.80
  -6  -8  -2    6.11    1.26
  -6  -8  -2    8.54    1.44
   6   8   2    9.94    1.24
  -7  -8  -2   90.65    6.04
  -7  -8  -2   94.20    6.81
   7   8   2   88.27    5.41
  -8  -8  -2   52.41    4.56
  -8  -8  -2   55.67    3.91
   8   8   2   54.03    3.72
  -9  -8  -2    5.02    1.54
  -9  -8  -2    3.98    0.93
   9   8   2    7.06    1.42
 -10  -8  -2   20.49    1.99
 -10  -8  -2   22.12    3.09
  10   8   2   20.08    2.52
   9  -9  -2    4.73    0.99
   9  -9  -2    6.90    1.62
   9  -9  -2    7.10    1.16
  -9   9   2    2.48    2.34
  -9   9   2    5.52    1.54
  -9   9   2    4.81    1.36
   8  -9  -2   59.52    4.19
   8  -9  -2   55.63    3.09
   8  -9  -2   55.35    3.22
   8  -9  -2   53.48    4.23
  -8   9   2   60.66    4.32
  -8   9   2   51.71    4.31
  -8   9   2   43.37    5.90
   7  -9  -2   22.09    2.27
   7  -9  -2   22.62    1.64
   7  -9  -2   24.45    2.19
   7  -9  -2   22.84    1.76
  -7   9   2   17.92    2.31
  -7   9   2   18.75    3.59
  -7   9   2   21.06    2.28
   6  -9  -2    4.27    0.73
   6  -9  -2    3.93    0.94
   6  -9  -2    3.60    0.83
   6  -9  -2    5.72    1.22
  -6   9   2    3.60    0.98
  -6   9   2    3.70    1.02
  -6   9   2    3.06    1.79
   5  -9  -2   37.59    2.02
   5  -9  -2   37.42    2.70
   5  -9  -2   36.88    2.84
   5  -9  -2   37.89    2.25
  -5   9   2   21.63    4.07
  -5   9   2   37.28    2.85
  -5   9   2   33.57    2.78
   4  -9  -2    8.57    1.28
   4  -9  -2    8.62    0.86
   4  -9  -2    9.31    1.02
   4  -9  -2    8.96    1.17
  -4   9   2    9.59    1.27
  -4   9   2    8.88    1.26
  -4   9   2    6.49    2.10
  -4   9   2   11.01    1.18
   3  -9  -2    1.65    0.53
   3  -9  -2    1.28    0.41
   3  -9  -2    1.52    0.56
   3  -9  -2    1.63    0.58
  -3   9   2    0.61    1.30
  -3   9   2    2.01    0.64
  -3   9   2    1.42    0.62
  -3   9   2    2.15    0.67
   2  -9  -2   84.71    5.51
   2  -9  -2   88.93    3.93
   2  -9  -2   87.58    4.31
  -2   9   2   87.39    5.33
  -2   9   2   90.44    6.26
  -2   9   2   79.94    7.30
  -2   9   2   82.76    5.47
  -2   9   2   88.68    5.64
   1  -9  -2  121.71    5.76
   1  -9  -2  119.87    7.40
   1  -9  -2  124.54    5.28
  -1   9   2  121.48    7.38
  -1   9   2  118.93    7.60
  -1   9   2  124.46    9.60
  -1   9   2  114.39    7.31
  -1   9   2  122.80    8.42
   0  -9  -2    9.69    0.89
   0  -9  -2   10.85    1.21
   0   9   2   11.49    1.88
   0   9   2    9.56    0.90
   0   9   2    8.76    1.15
   0   9   2    9.84    1.04
  -1  -9  -2  143.14    9.80
  -1  -9  -2  140.44    6.74
  -1  -9  -2  149.93    8.75
   1   9   2  145.39    8.73
   1   9   2  147.02    9.11
  -2  -9  -2  141.50    8.71
  -2  -9  -2  144.67    6.72
  -2  -9  -2  137.73    9.81
   2   9   2  156.38    8.81
   2   9   2  145.10    9.14
  -3  -9  -2    1.09    0.38
  -3  -9  -2    0.91    0.47
  -3  -9  -2    1.25    0.69
   3   9   2    0.88    0.61
   3   9   2    1.15    0.56
   3   9   2    0.67    0.47
  -4  -9  -2   93.65    7.03
  -4  -9  -2  104.59    4.66
  -4  -9  -2   97.88    6.28
   4   9   2  100.29    5.64
   4   9   2   98.09    6.58
  -5  -9  -2   25.96    2.50
  -5  -9  -2   24.98    2.30
   5   9   2   24.18    1.98
  -6  -9  -2   19.48    2.19
  -6  -9  -2   22.21    2.37
   6   9   2   21.29    1.86
  -7  -9  -2   32.01    3.08
  -7  -9  -2   27.99    2.71
   7   9   2   31.62    2.48
  -8  -9  -2    5.26    1.23
  -8  -9  -2    4.67    1.41
   8   9   2    6.76    1.36
  -9  -9  -2   10.43    1.52
  -9  -9  -2    8.42    1.84
   9   9   2   13.25    1.87
   8 -10  -2   14.97    1.55
   8 -10  -2   17.89    1.77
   8 -10  -2   19.98    2.45
  -8  10   2   14.20    2.03
  -8  10   2   10.23    3.20
  -8  10   2   17.42    2.24
   7 -10  -2    0.55    0.69
   7 -10  -2    0.44    0.73
   7 -10  -2    1.15    0.90
   7 -10  -2    1.65    0.67
  -7  10   2   -2.07    1.66
  -7  10   2    0.92    0.92
  -7  10   2    0.98    0.90
   6 -10  -2   68.86    3.83
   6 -10  -2   70.23    4.94
   6 -10  -2   69.20    3.52
   6 -10  -2   75.19    4.85
  -6  10   2   68.37    4.91
  -6  10   2   63.91    4.85
   5 -10  -2   68.38    3.85
   5 -10  -2   75.64    5.00
   5 -10  -2   74.43    3.56
   5 -10  -2   72.46    4.85
  -5  10   2   68.96    4.94
  -5  10   2   71.77    4.96
   4 -10  -2   15.90    1.13
   4 -10  -2   13.16    1.30
   4 -10  -2   15.27    1.49
   4 -10  -2   14.21    1.75
  -4  10   2   13.59    1.53
  -4  10   2   14.39    1.71
  -4  10   2   10.15    2.63
   3 -10  -2   25.97    2.29
   3 -10  -2   29.15    1.89
   3 -10  -2   30.61    2.26
   3 -10  -2   27.45    1.60
  -3  10   2   28.80    2.33
  -3  10   2   27.91    2.30
  -3  10   2   25.12    3.80
   2 -10  -2  109.47    5.31
   2 -10  -2  112.80    4.85
   2 -10  -2  102.27    6.78
  -2  10   2  102.90    8.95
  -2  10   2  112.37    6.80
  -2  10   2  107.21    6.93
   1 -10  -2   14.11    1.14
  -1  10   2   11.07    2.20
  -1  10   2   12.20    1.31
  -1  10   2   14.38    1.46
   0 -10  -2   52.35    3.57
   0 -10  -2   50.25    2.77
   0  10   2   51.37    3.69
   0  10   2   60.25    4.98
   0  10   2   50.95    3.53
  -1 -10  -2  107.62    6.63
  -1 -10  -2  104.07    5.11
  -1 -10  -2  103.35    7.43
   1  10   2  107.43    6.91
   1  10   2  110.12    6.63
  -2 -10  -2    6.40    1.00
  -2 -10  -2    4.18    0.99
  -2 -10  -2    5.90    0.71
   2  10   2    4.34    0.82
   2  10   2    7.23    1.12
  -3 -10  -2   95.78    5.87
  -3 -10  -2   92.67    4.44
  -3 -10  -2   87.63    6.61
   3  10   2   89.46    6.04
   3  10   2   94.36    6.19
   3  10   2   93.70    5.34
  -4 -10  -2   77.07    5.90
  -4 -10  -2   77.33    5.23
  -4 -10  -2   85.20    3.89
   4  10   2   78.34    5.51
   4  10   2   79.18    4.75
  -5 -10  -2    1.09    0.70
  -5 -10  -2    0.85    0.85
   5  10   2    0.54    0.65
  -6 -10  -2   62.04    4.78
  -6 -10  -2   54.69    4.35
   6  10   2   54.84    3.77
  -7 -10  -2   44.72    4.02
   7  10   2   43.70    3.25
  -8 -10  -2    1.56    1.23
  -8 -10  -2    2.24    1.00
   8  10   2    2.28    1.02
  -9 -10  -2    8.16    2.08
  -9 -10  -2   13.32    1.83
   9  10   2   10.94    1.82
   8 -11  -2   13.43    1.64
   8 -11  -2   10.53    1.77
   8 -11  -2   14.58    1.55
  -8  11   2   12.02    1.95
  -8  11   2    9.28    3.24
   7 -11  -2    9.45    1.16
   7 -11  -2    9.32    1.58
   7 -11  -2    9.17    1.29
  -7  11   2    4.09    2.43
  -7  11   2    8.80    1.51
  -7  11   2    7.91    1.56
   6 -11  -2   66.46    3.48
   6 -11  -2   67.86    4.89
   6 -11  -2   67.33    4.74
   6 -11  -2   65.79    3.80
  -6  11   2   65.97    4.77
  -6  11   2   68.49    4.88
   5 -11  -2   16.86    1.78
   5 -11  -2   16.77    1.66
   5 -11  -2   15.28    1.37
   5 -11  -2   16.18    1.98
  -5  11   2   13.56    3.24
  -5  11   2   18.48    2.14
  -5  11   2   18.62    1.89
   4 -11  -2   20.85    1.67
   4 -11  -2   20.24    1.88
   4 -11  -2   21.32    1.40
   4 -11  -2   22.42    2.10
  -4  11   2   18.74    1.94
  -4  11   2   17.77    1.98
  -4  11   2   15.11    3.30
   3 -11  -2  168.51   10.40
   3 -11  -2  171.06   10.45
   3 -11  -2  172.41    8.09
   3 -11  -2  169.10    7.45
  -3  11   2  170.06   10.60
  -3  11   2  152.22   13.43
  -3  11   2  174.95   10.39
   2 -11  -2   48.72    2.71
  -2  11   2   45.55    3.41
  -2  11   2   46.33    3.38
  -2  11   2   48.12    4.96
   1 -11  -2   47.74    2.76
   1 -11  -2   46.90    3.52
  -1  11   2   55.14    5.05
  -1  11   2   51.84    3.63
  -1  11   2   50.63    3.53
   0 -11  -2  140.25    6.97
   0 -11  -2  146.63    9.02
   0 -11  -2  139.62   10.02
   0  11   2  147.47    9.32
   0  11   2  145.78    9.00
   0  11   2  167.90   11.82
  -1 -11  -2    3.47    0.96
  -1 -11  -2    4.42    0.89
  -1 -11  -2    3.37    0.62
   1  11   2    3.29    0.87
   1  11   2    4.39    0.89
  -2 -11  -2   44.57    3.27
  -2 -11  -2   44.36    3.73
  -2 -11  -2   45.47    2.50
   2  11   2   48.43    3.51
   2  11   2   48.23    3.36
  -3 -11  -2   60.31    4.15
  -3 -11  -2   62.61    3.12
  -3 -11  -2   55.38    4.68
   3  11   2   63.69    4.44
   3  11   2   62.24    3.87
  -4 -11  -2    2.99    1.07
  -4 -11  -2    2.56    0.78
   4  11   2    2.61    0.81
   4  11   2    2.97    0.97
  -5 -11  -2   42.10    3.73
  -5 -11  -2   42.79    3.39
   5  11   2   40.79    3.00
  -6 -11  -2   51.34    4.34
  -6 -11  -2   45.21    3.93
   6  11   2   51.15    3.53
  -7 -11  -2   24.74    2.72
  -7 -11  -2   14.07    2.25
   7  11   2   16.95    2.08
  -8 -11  -2    1.98    1.40
  -8 -11  -2    2.11    1.09
   8  11   2    4.11    1.30
   7 -12  -2   33.20    3.11
   7 -12  -2   32.36    2.24
   7 -12  -2   30.45    2.41
  -7  12   2   34.71    3.16
  -7  12   2   24.68    4.83
   6 -12  -2   46.53    3.00
   6 -12  -2   51.30    2.72
   6 -12  -2   46.53    3.79
  -6  12   2   43.78    3.70
  -6  12   2   37.21    5.71
   5 -12  -2    4.80    1.05
   5 -12  -2    2.35    0.92
   5 -12  -2    3.58    1.13
   5 -12  -2    4.03    0.80
  -5  12   2    3.41    1.12
  -5  12   2    2.00    0.88
  -5  12   2    2.07    2.13
   4 -12  -2   49.59    3.65
   4 -12  -2   44.58    2.83
   4 -12  -2   45.33    2.49
   4 -12  -2   45.77    3.45
  -4  12   2   41.63    5.19
  -4  12   2   52.35    3.66
  -4  12   2   42.88    3.48
   3 -12  -2   21.10    2.00
   3 -12  -2   18.61    1.72
  -3  12   2   18.72    1.95
  -3  12   2   19.39    1.98
  -3  12   2   22.17    3.64
   2 -12  -2   24.61    1.75
   2 -12  -2   21.00    2.12
  -2  12   2   22.39    2.11
  -2  12   2   21.45    2.08
  -2  12   2   27.36    3.55
   1 -12  -2  139.78    6.86
   1 -12  -2  138.17    8.84
   1 -12  -2  141.13    9.78
  -1  12   2  150.17   11.64
  -1  12   2  142.51    9.08
  -1  12   2  141.81    8.82
   0 -12  -2   23.57    1.64
   0 -12  -2   23.31    2.31
   0 -12  -2   21.87    2.08
   0  12   2   22.06    2.16
   0  12   2   25.75    3.23
   0  12   2   21.14    1.98
  -1 -12  -2   15.62    1.26
  -1 -12  -2   13.21    1.62
  -1 -12  -2   15.45    1.99
   1  12   2   14.46    1.76
   1  12   2   14.45    1.56
  -2 -12  -2   89.98    4.47
  -2 -12  -2   86.09    6.56
  -2 -12  -2   89.70    5.85
   2  12   2   88.23    5.33
   2  12   2   93.59    6.15
  -3 -12  -2   47.96    4.26
  -3 -12  -2   55.24    2.83
  -3 -12  -2   53.35    3.81
   3  12   2   55.22    4.06
   3  12   2   52.09    3.55
  -4 -12  -2    1.38    0.72
  -4 -12  -2    0.45    0.90
   4  12   2    1.29    0.78
   4  12   2    0.86    0.79
  -5 -12  -2   29.03    3.07
  -5 -12  -2   28.75    2.74
   5  12   2   33.06    2.60
  -6 -12  -2   33.54    3.27
  -6 -12  -2   34.58    3.60
   6  12   2   41.93    3.07
  -7 -12  -2   -0.11    1.03
  -7 -12  -2   -0.02    0.83
   7  12   2    0.18    0.79
   6 -13  -2    0.67    0.68
   6 -13  -2    0.89    0.86
  -6  13   2    0.05    2.21
  -6  13   2    0.96    1.04
   5 -13  -2   42.30    2.53
   5 -13  -2   45.89    2.94
  -5  13   2   45.40    3.64
  -5  13   2   39.89    5.42
   4 -13  -2   37.49    2.46
   4 -13  -2   32.25    2.83
  -4  13   2   34.65    2.98
  -4  13   2   26.71    4.50
  -4  13   2   35.19    2.88
   3 -13  -2    0.77    0.75
   3 -13  -2    1.94    0.98
   3 -13  -2    1.76    0.86
  -3  13   2    0.95    0.79
  -3  13   2    0.15    1.61
  -3  13   2    2.57    0.94
   2 -13  -2   33.43    2.84
   2 -13  -2   30.24    2.18
   2 -13  -2   32.45    2.91
  -2  13   2   35.08    2.81
  -2  13   2   30.24    2.70
  -2  13   2   31.42    4.17
   1 -13  -2   36.88    3.11
   1 -13  -2   33.76    2.87
   1 -13  -2   33.99    2.23
  -1  13   2   32.23    2.75
  -1  13   2   32.28    2.82
  -1  13   2   36.64    4.30
   0 -13  -2    0.83    0.69
   0 -13  -2    0.01    0.57
   0 -13  -2    0.28    0.75
   0  13   2   -0.06    0.71
   0  13   2   -0.11    1.24
  -1 -13  -2   24.31    2.50
  -1 -13  -2   23.76    1.74
  -1 -13  -2   23.77    2.27
   1  13   2   23.83    2.30
  -2 -13  -2   46.90    3.59
  -2 -13  -2   48.36    2.71
  -2 -13  -2   42.99    3.98
   2  13   2   50.70    3.41
   2  13   2   50.76    3.78
  -3 -13  -2   10.42    1.53
  -3 -13  -2    9.41    1.71
   3  13   2    7.59    1.47
   3  13   2   12.18    1.74
  -4 -13  -2   20.63    2.19
  -4 -13  -2   16.79    2.44
   4  13   2   21.26    2.31
   4  13   2   24.34    2.51
  -5 -13  -2   59.50    5.08
  -5 -13  -2   53.62    4.46
   5  13   2   67.29    4.29
  -6 -13  -2    7.79    1.65
  -6 -13  -2    6.01    1.65
   6  13   2    9.26    1.72
   5 -14  -2   33.17    3.29
   5 -14  -2   38.94    2.73
  -5  14   2   28.99    4.97
  -5  14   2   35.27    3.19
   4 -14  -2    3.62    1.26
   4 -14  -2    3.02    1.01
  -4  14   2    3.19    1.08
  -4  14   2    3.22    2.24
   3 -14  -2    6.59    1.19
   3 -14  -2    8.34    1.58
   3 -14  -2    6.29    1.38
  -3  14   2    6.86    1.48
  -3  14   2    5.58    1.27
  -3  14   2    5.70    2.36
   2 -14  -2   54.04    3.26
   2 -14  -2   57.17    4.24
   2 -14  -2   55.62    4.55
  -2  14   2   53.37    4.14
  -2  14   2   56.49    5.98
   1 -14  -2   25.32    2.71
   1 -14  -2   24.95    1.98
   1 -14  -2   28.25    2.67
  -1  14   2   30.37    2.65
  -1  14   2   30.91    4.04
   0 -14  -2    0.50    0.65
   0 -14  -2    0.01    0.72
   0 -14  -2    0.11    0.80
   0  14   2    0.96    0.81
  -1 -14  -2   13.51    1.80
  -1 -14  -2   13.49    2.12
  -1 -14  -2   12.86    1.37
   1  14   2   15.22    1.97
  -2 -14  -2   36.81    3.09
  -2 -14  -2   35.04    3.49
   2  14   2   37.56    3.18
   2  14   2   35.39    2.90
  -3 -14  -2    1.08    0.83
  -3 -14  -2    1.65    1.14
   3  14   2   -0.17    0.83
   3  14   2    0.47    0.85
  -4 -14  -2   27.56    3.17
  -4 -14  -2   31.21    2.84
   4  14   2   28.36    2.72
  -5 -14  -2   10.96    1.94
  -5 -14  -2   14.46    2.46
   5  14   2   13.29    2.04
   3 -15  -2   13.65    1.62
   3 -15  -2   18.11    2.37
  -3  15   2   12.66    3.17
   2 -15  -2   35.31    2.47
   2 -15  -2   34.80    3.18
  -2  15   2   30.90    4.75
   1 -15  -2    1.62    0.81
   1 -15  -2    0.44    0.99
   1 -15  -2    0.31    0.97
  -1  15   2    1.76    1.72
  -1  15   2    0.50    0.83
   0 -15  -2   38.10    3.66
   0 -15  -2   40.19    3.43
   0 -15  -2   41.79    2.64
   0  15   2   38.49    3.35
  -1 -15  -2   55.29    4.22
  -1 -15  -2   57.62    3.20
  -1 -15  -2   52.60    4.57
   1  15   2   49.96    4.16
  -2 -15  -2   -0.02    0.95
  -2 -15  -2    0.04    0.77
   2  15   2    0.93    0.87
   2  15   2    0.27    0.87
  -3 -15  -2   31.22    3.07
  -3 -15  -2   35.76    3.53
   3  15   2   33.39    3.17
   3  15   2   33.09    2.99
   3  13  -3    0.55    1.10
  -3 -13   3    3.43    1.52
  -3 -13   3    2.77    1.28
  -2 -13   3   13.36    2.28
  -2 -13   3    7.37    1.75
  -1 -13   3   44.09    3.86
  -1 -13   3   43.12    3.91
   0  13  -3   11.09    1.98
   0  13  -3   11.77    3.35
   0 -13   3   10.36    1.88
  -1  13  -3   22.64    4.21
  -1  13  -3   17.18    2.46
   1 -13   3   17.90    2.49
  -2  13  -3   36.19    3.36
  -2  13  -3   45.87    5.61
   2 -13   3   35.07    3.42
   2 -13   3   40.16    2.62
  -3  13  -3    0.70    0.79
  -3  13  -3    0.31    2.12
   3 -13   3    0.47    0.82
   3 -13   3   -0.07    1.38
   3 -13   3   -1.13    1.01
  -4  13  -3   33.18    5.13
  -4  13  -3   25.67    2.69
   4 -13   3   18.86    3.09
   4 -13   3   31.94    3.01
   5  12  -3   13.89    2.39
  -5 -12   3   21.58    2.81
  -5 -12   3   16.20    2.55
   4  12  -3   11.89    2.23
  -4 -12   3   11.27    2.10
  -4 -12   3   13.49    2.29
   3  12  -3    4.97    1.45
   3  12  -3    1.67    1.24
  -3 -12   3    5.16    1.53
  -3 -12   3    5.38    1.61
   2  12  -3   73.16    6.33
   2  12  -3   63.88    5.58
  -2 -12   3   76.11    5.77
  -2 -12   3   77.18    5.54
   1  12  -3   25.26    3.01
  -1 -12   3   23.11    2.58
  -1 -12   3   24.95    2.68
   0  12  -3   31.05    4.55
   0  12  -3   27.09    2.68
   0 -12   3   24.08    2.59
   0 -12   3   24.09    2.65
  -1  12  -3   85.43    6.35
  -1  12  -3  114.46    9.25
   1 -12   3   85.29    6.31
   1 -12   3   96.06    4.85
  -2  12  -3   20.97    3.99
  -2  12  -3   15.59    2.12
   2 -12   3   17.83    1.71
   2 -12   3   20.64    2.37
  -3  12  -3   10.92    1.78
  -3  12  -3   12.75    3.04
   3 -12   3   11.69    1.39
   3 -12   3    9.67    1.68
  -4  12  -3   67.45    6.72
  -4  12  -3   57.76    4.44
   4 -12   3   57.51    3.49
   4 -12   3   57.96    4.51
  -5  12  -3    3.55    2.49
  -5  12  -3    2.37    1.03
   5 -12   3    1.83    0.92
   5 -12   3    3.43    1.51
   5 -12   3    3.07    1.20
  -6  12  -3    9.92    1.77
  -6  12  -3   14.78    3.75
   6 -12   3   10.26    1.52
   6 -12   3   10.29    2.16
   6 -12   3   11.83    1.89
   6  11  -3   30.61    3.51
  -6 -11   3   37.57    3.62
  -6 -11   3   36.13    3.82
   5  11  -3   44.92    3.97
  -5 -11   3   51.65    4.41
  -5 -11   3   57.47    4.73
   4  11  -3   -0.70    0.91
   4  11  -3    0.57    0.93
  -4 -11   3    0.11    1.08
  -4 -11   3    0.88    1.06
   3  11  -3   47.89    4.38
   3  11  -3   48.85    4.27
  -3 -11   3   47.39    4.09
  -3 -11   3   40.96    3.84
   2  11  -3   29.44    3.09
   2  11  -3   26.11    2.72
  -2 -11   3   26.32    2.73
  -2 -11   3   28.82    2.86
   1  11  -3    1.95    0.96
   1  11  -3    1.31    1.03
  -1 -11   3    1.23    0.92
  -1 -11   3    0.98    0.88
   0  11  -3   88.03    6.05
   0  11  -3  101.88    8.41
   0  11  -3   83.43    7.15
   0 -11   3   83.97    6.29
   0 -11   3   87.07    5.98
   0 -11   3   85.61    4.44
  -1  11  -3   30.07    3.60
  -1  11  -3   37.78    4.50
  -1  11  -3   33.47    2.90
   1 -11   3   34.41    2.19
   1 -11   3   32.12    2.92
   1 -11   3   35.92    2.90
  -2  11  -3    6.86    1.95
  -2  11  -3   11.75    2.96
  -2  11  -3   10.62    1.63
   2 -11   3    7.92    1.11
   2 -11   3    9.98    1.53
  -3  11  -3   73.58    5.16
  -3  11  -3   83.08    7.59
  -3  11  -3   78.05    6.73
   3 -11   3   70.26    3.99
   3 -11   3   70.47    5.16
  -4  11  -3   55.15    4.35
  -4  11  -3   70.06    6.75
   4 -11   3   62.81    4.50
   4 -11   3   63.95    3.51
   4 -11   3   56.59    4.88
  -5  11  -3    0.68    1.95
  -5  11  -3    0.40    0.72
   5 -11   3    0.33    0.69
   5 -11   3    0.38    1.17
   5 -11   3    0.73    0.97
  -6  11  -3   32.98    3.06
  -6  11  -3   30.62    4.96
   6 -11   3   36.51    2.55
   6 -11   3   42.10    3.63
   6 -11   3   35.92    3.21
  -7  11  -3   28.82    5.04
  -7  11  -3   41.09    3.35
   7 -11   3   39.31    3.65
   7  10  -3   13.27    2.18
  -7 -10   3   18.04    2.58
  -7 -10   3   13.38    2.43
   6  10  -3   49.40    4.16
  -6 -10   3   69.47    4.97
  -6 -10   3   57.78    5.07
   5  10  -3    3.64    1.29
  -5 -10   3    4.36    1.32
  -5 -10   3    5.40    1.44
   4  10  -3   75.59    5.86
   4  10  -3   58.25    4.54
  -4 -10   3   57.41    4.91
  -4 -10   3   73.95    5.42
   3  10  -3   82.50    6.34
   3  10  -3  105.05    7.56
  -3 -10   3   93.79    6.84
  -3 -10   3   88.39    6.37
   2  10  -3   14.05    2.10
   2  10  -3   11.79    1.86
  -2 -10   3   11.08    1.74
  -2 -10   3   16.86    2.14
   1  10  -3   65.60    5.12
   1  10  -3   76.43    7.07
   1  10  -3   80.16    6.23
  -1 -10   3   67.32    5.37
  -1 -10   3   80.93    5.20
   0  10  -3   61.16    4.40
   0  10  -3   73.04    6.39
   0  10  -3   62.11    5.37
   0 -10   3   56.67    4.30
   0 -10   3   55.76    3.17
   0 -10   3   61.30    4.54
  -1  10  -3    3.93    2.01
  -1  10  -3    2.83    1.43
  -1  10  -3    4.69    1.04
   1 -10   3    3.54    0.89
   1 -10   3    3.70    0.74
   1 -10   3    4.70    1.13
  -2  10  -3   14.21    2.35
  -2  10  -3   20.94    3.53
  -2  10  -3   16.10    1.86
   2 -10   3   12.18    1.50
   2 -10   3   11.33    1.55
   2 -10   3   13.23    1.28
  -3  10  -3   56.46    5.67
  -3  10  -3   52.10    3.82
  -3  10  -3   53.72    4.89
   3 -10   3   49.07    2.96
   3 -10   3   53.78    3.89
  -4  10  -3    4.85    1.11
  -4  10  -3    4.50    2.25
  -4  10  -3    4.51    1.43
   4 -10   3    4.60    1.44
   4 -10   3    6.84    1.32
   4 -10   3    7.12    1.06
  -5  10  -3   17.80    2.71
  -5  10  -3   24.74    2.27
  -5  10  -3   20.85    3.89
   5 -10   3   25.29    2.68
   5 -10   3   24.73    2.37
   5 -10   3   23.21    1.84
  -6  10  -3   52.65    3.84
  -6  10  -3   39.99    5.34
  -6  10  -3   43.38    4.47
   6 -10   3   51.17    3.09
   6 -10   3   52.78    3.91
   6 -10   3   58.33    4.30
  -7  10  -3   14.47    1.98
  -7  10  -3   13.57    3.40
   7 -10   3   19.28    2.45
   7 -10   3   15.73    1.74
   7 -10   3   17.82    2.20
  -8  10  -3    7.00    2.87
  -8  10  -3   10.08    1.72
   8 -10   3   10.85    2.10
   8   9  -3    5.59    1.59
  -8  -9   3    3.19    1.83
   7   9  -3   33.51    3.17
  -7  -9   3   36.78    3.96
  -7  -9   3   49.95    4.06
   6   9  -3   16.16    2.27
  -6  -9   3   30.16    2.93
  -6  -9   3   23.91    2.82
   5   9  -3   18.24    2.18
  -5  -9   3   22.53    2.48
  -5  -9   3   17.07    2.26
   4   9  -3   58.89    4.74
   4   9  -3   61.37    4.27
   4   9  -3   49.30    3.72
  -4  -9   3   52.20    4.30
  -4  -9   3   41.34    3.95
   3   9  -3   11.81    1.86
   3   9  -3    9.33    1.63
  -3  -9   3    9.57    1.54
  -3  -9   3   10.15    1.59
   2   9  -3   25.68    2.69
   2   9  -3   21.90    2.26
  -2  -9   3   21.85    2.24
  -2  -9   3   22.96    2.27
   1   9  -3   88.27    6.74
   1   9  -3   80.05    5.56
   1   9  -3   85.70    7.53
  -1  -9   3   82.12    5.51
  -1  -9   3   76.59    5.84
   0   9  -3   55.47    5.35
   0   9  -3   56.92    3.78
   0   9  -3   45.62    4.53
   0  -9   3   48.76    3.78
   0  -9   3   49.01    3.64
   0  -9   3   49.19    2.67
  -1   9  -3    0.66    0.40
  -1   9  -3    0.24    1.01
  -1   9  -3    0.16    1.35
  -1   9  -3    0.86    0.56
   1  -9   3    0.68    0.56
   1  -9   3    0.37    0.61
   1  -9   3    0.09    0.45
  -2   9  -3   80.67    6.64
  -2   9  -3   73.25    5.89
  -2   9  -3   67.67    4.60
   2  -9   3   63.35    4.55
   2  -9   3   64.23    4.74
   2  -9   3   66.09    3.52
  -3   9  -3   60.79    5.64
  -3   9  -3   54.62    3.74
  -3   9  -3   41.44    4.48
   3  -9   3   53.66    3.75
   3  -9   3   53.57    2.90
  -4   9  -3    2.87    1.82
  -4   9  -3    0.52    0.82
  -4   9  -3    2.95    0.84
   4  -9   3    1.91    0.71
   4  -9   3    3.45    1.23
   4  -9   3    2.49    0.85
  -5   9  -3   41.41    5.09
  -5   9  -3   52.30    3.70
  -5   9  -3   47.01    4.37
   5  -9   3   50.68    2.95
   5  -9   3   55.18    3.80
   5  -9   3   54.88    4.10
  -6   9  -3   20.91    2.48
  -6   9  -3   20.86    2.10
  -6   9  -3   16.04    3.40
   6  -9   3   22.60    2.28
   6  -9   3   26.71    2.56
   6  -9   3   22.32    1.79
  -7   9  -3    8.24    1.39
  -7   9  -3    7.73    1.65
  -7   9  -3    4.92    2.13
   7  -9   3   11.20    1.73
   7  -9   3    8.86    1.14
   7  -9   3    9.37    1.26
   7  -9   3    9.65    1.76
  -8   9  -3   41.26    4.12
  -8   9  -3   48.16    3.62
  -8   9  -3   37.35    5.05
   8  -9   3   45.90    3.89
   8  -9   3   45.97    2.66
  -9   9  -3   14.15    2.00
  -9   9  -3   12.32    3.36
   9  -9   3   16.73    1.62
   9  -9   3   15.92    2.51
   8   8  -3   42.39    3.48
  -8  -8   3   40.10    4.14
  -8  -8   3   44.46    4.39
   7   8  -3   33.43    2.89
  -7  -8   3   35.12    3.54
   6   8  -3    1.05    0.79
  -6  -8   3    0.91    1.19
  -6  -8   3    1.18    1.05
   5   8  -3   28.64    3.02
   5   8  -3   28.87    2.46
   5   8  -3   31.04    2.86
  -5  -8   3   29.05    2.84
  -5  -8   3   26.76    2.87
   4   8  -3   50.89    4.29
   4   8  -3   52.62    3.86
   4   8  -3   48.13    3.38
  -4  -8   3   47.68    3.92
  -4  -8   3   38.78    3.62
   3   8  -3    3.69    1.12
   3   8  -3    2.57    0.93
  -3  -8   3    1.33    0.80
  -3  -8   3    3.91    1.04
   2   8  -3   10.31    1.58
   2   8  -3    8.93    1.59
  -2  -8   3   10.51    1.46
  -2  -8   3    7.79    1.26
   1   8  -3   53.97    3.89
   1   8  -3   52.92    5.29
   1   8  -3   57.98    4.74
  -1  -8   3   52.69    3.82
  -1  -8   3   53.72    4.05
   0   8  -3   -0.11    0.83
   0   8  -3    0.86    0.55
   0   8  -3    0.16    1.18
   0  -8   3    0.90    0.57
   0  -8   3   -0.12    0.37
   0  -8   3    0.03    0.51
  -1   8  -3   49.61    4.49
  -1   8  -3   58.79    5.08
  -1   8  -3   50.91    3.50
  -1   8  -3   46.59    3.22
   1  -8   3   48.25    2.62
   1  -8   3   47.47    3.57
   1  -8   3   49.29    3.46
  -2   8  -3  100.14    7.70
  -2   8  -3   93.45    6.01
  -2   8  -3  100.23    6.20
  -2   8  -3  104.04    8.44
   2  -8   3   95.29    4.75
   2  -8   3   96.51    6.16
   2  -8   3   96.19    6.55
  -3   8  -3    2.99    0.55
  -3   8  -3    2.54    0.96
  -3   8  -3    3.18    1.59
  -3   8  -3    3.41    0.83
   3  -8   3    3.00    0.58
   3  -8   3    2.41    0.61
   3  -8   3    3.73    0.87
  -4   8  -3  106.33    8.46
  -4   8  -3   86.36    9.10
  -4   8  -3  121.27    7.08
   4  -8   3  110.60    5.49
   4  -8   3  128.21    7.59
   4  -8   3  118.15    7.09
  -5   8  -3   65.63    7.23
  -5   8  -3   87.20    5.49
  -5   8  -3   81.08    6.51
   5  -8   3   86.96    4.35
   5  -8   3   87.63    5.54
   5  -8   3   90.30    5.87
  -6   8  -3    1.31    0.82
  -6   8  -3   -0.59    1.18
  -6   8  -3    0.96    0.66
   6  -8   3   -0.11    0.53
   6  -8   3    0.92    0.89
   6  -8   3    1.15    0.68
   6  -8   3    0.65    0.78
  -7   8  -3   27.27    2.41
  -7   8  -3   28.19    2.84
  -7   8  -3   24.13    3.74
   7  -8   3   24.22    2.59
   7  -8   3   26.76    2.48
   7  -8   3   27.05    2.02
   7  -8   3   26.74    1.81
  -8   8  -3   26.26    4.12
  -8   8  -3   30.65    3.11
  -8   8  -3   27.60    2.58
   8  -8   3   30.41    2.92
   8  -8   3   27.74    1.96
  -9   8  -3   -0.27    0.92
  -9   8  -3   -0.23    0.72
  -9   8  -3   -0.99    1.47
   9  -8   3    0.09    0.99
   9  -8   3    0.44    0.71
  -9  -7   3    5.74    1.89
  -9  -7   3   10.51    2.49
   8   7  -3   24.61    1.74
   8   7  -3   26.95    2.50
  -8  -7   3   21.17    3.07
  -8  -7   3   22.24    3.05
   7   7  -3   -0.50    0.65
  -7  -7   3    0.10    1.20
  -7  -7   3    1.54    1.25
   6   7  -3   16.03    1.90
  -6  -7   3   24.23    2.74
  -6  -7   3   15.95    2.32
   5   7  -3   58.70    5.26
   5   7  -3   65.90    4.11
   5   7  -3   63.42    4.72
  -5  -7   3   67.27    4.80
  -5  -7   3   63.33    4.96
   4   7  -3   10.39    1.69
   4   7  -3    8.94    1.31
   4   7  -3    9.00    1.44
  -4  -7   3    6.14    1.23
  -4  -7   3    7.11    1.32
   3   7  -3   17.38    1.78
   3   7  -3   13.86    1.82
  -3  -7   3   13.38    1.65
  -3  -7   3   14.42    1.84
   2   7  -3   76.30    5.62
   2   7  -3   96.47    6.80
  -2  -7   3   89.88    5.64
  -2  -7   3   81.04    6.02
   1   7  -3   65.87    5.09
   1   7  -3   60.64    4.13
   1   7  -3   53.11    5.37
  -1  -7   3   62.38    4.09
  -1  -7   3   57.39    4.32
   0   7  -3   13.85    2.23
   0   7  -3   18.70    2.73
   0   7  -3   16.71    1.54
   0  -7   3   14.29    1.05
   0  -7   3   14.92    1.48
   0  -7   3   13.81    1.43
  -1   7  -3   97.97    5.82
  -1   7  -3   85.76    5.64
  -1   7  -3  103.44    7.33
  -1   7  -3  100.03    7.77
   1  -7   3   89.74    6.17
   1  -7   3   84.43    4.38
   1  -7   3   86.29    5.72
  -2   7  -3   33.88    2.43
  -2   7  -3   33.10    2.18
  -2   7  -3   27.52    3.01
  -2   7  -3   32.56    3.59
   2  -7   3   32.50    1.88
   2  -7   3   32.43    2.40
   2  -7   3   34.37    2.45
  -3   7  -3   37.40    4.32
  -3   7  -3   44.55    2.89
  -3   7  -3   42.70    3.82
  -3   7  -3   46.51    3.14
   3  -7   3   44.46    2.46
   3  -7   3   46.58    3.16
   3  -7   3   47.89    3.12
  -4   7  -3  112.42    7.03
  -4   7  -3  115.80    6.93
  -4   7  -3   94.22    9.09
  -4   7  -3  116.85    8.49
   4  -7   3  116.08    7.07
   4  -7   3  111.84    5.50
   4  -7   3  124.09    7.50
  -5   7  -3   10.46    1.54
  -5   7  -3   10.59    1.28
  -5   7  -3    9.65    2.17
   5  -7   3    9.16    1.02
   5  -7   3   10.03    1.49
   5  -7   3    9.79    1.27
   5  -7   3    7.41    0.85
  -6   7  -3   38.27    2.93
  -6   7  -3   31.82    3.99
  -6   7  -3   41.95    3.52
   6  -7   3   41.62    3.24
   6  -7   3   39.37    2.17
   6  -7   3   42.27    2.44
  -7   7  -3   85.47    5.82
  -7   7  -3   93.29    7.01
  -7   7  -3   90.21    7.83
   7  -7   3   91.20    4.31
   7  -7   3   87.79    4.65
   7  -7   3   87.50    6.13
  -8   7  -3   13.79    1.76
  -8   7  -3   14.75    2.92
  -8   7  -3   15.67    2.20
   8  -7   3   15.46    2.17
   8  -7   3   14.80    1.40
  -9   7  -3    6.33    2.26
  -9   7  -3    4.67    1.36
  -9   7  -3    5.28    1.15
   9  -7   3    5.13    1.42
   9  -7   3    4.01    0.92
 -10   7  -3   22.49    4.00
 -10   7  -3   27.33    3.20
 -10   7  -3   30.06    2.71
  10  -7   3   28.48    2.08
  10  -7   3   28.64    3.01
   9   6  -3   27.31    1.91
  -9  -6   3   23.02    3.17
  -9  -6   3   31.95    3.65
   8   6  -3   37.50    2.15
   8   6  -3   30.64    2.74
  -8  -6   3   29.92    3.68
  -8  -6   3   36.72    3.77
   7   6  -3    0.76    0.73
   7   6  -3    0.72    0.51
  -7  -6   3    0.79    1.14
  -7  -6   3   -1.19    0.91
   6   6  -3   27.38    2.24
   6   6  -3   25.54    2.64
  -6  -6   3   33.21    3.03
  -6  -6   3   29.10    2.96
   5   6  -3   49.09    3.28
   5   6  -3   49.81    4.33
   5   6  -3   51.17    3.92
  -5  -6   3   48.45    4.09
  -5  -6   3   53.74    4.03
   4   6  -3    1.49    0.71
   4   6  -3    0.96    0.69
   4   6  -3    1.73    0.63
  -4  -6   3    0.23    0.67
  -4  -6   3    0.84    0.67
   3   6  -3  131.78    9.31
   3   6  -3  132.29    7.99
  -3  -6   3  126.53    8.55
  -3  -6   3  107.61    7.77
   2   6  -3   91.05    6.39
   2   6  -3   67.62    5.24
  -2  -6   3   81.95    5.28
  -2  -6   3   83.28    5.71
   1   6  -3    9.73    1.89
   1   6  -3   11.14    1.72
   1   6  -3    7.31    1.09
  -1  -6   3   10.46    1.15
  -1  -6   3    7.44    1.03
   0   6  -3  367.18   20.67
   0   6  -3  403.96   26.05
   0  -6   3  326.31   21.21
   0  -6   3  355.88   20.61
   0  -6   3  340.04   15.83
   0  -6   3  340.37   22.80
  -1   6  -3  147.58   10.39
  -1   6  -3  154.43   10.99
  -1   6  -3  131.66    8.39
  -1   6  -3  141.73    8.42
   1  -6   3  137.10    8.37
   1  -6   3  128.92    6.42
   1  -6   3  138.23    9.13
  -2   6  -3    2.93    0.90
  -2   6  -3    3.44    0.47
  -2   6  -3    3.31    0.66
  -2   6  -3    4.02    1.29
   2  -6   3    3.91    0.72
   2  -6   3    3.42    0.53
   2  -6   3    4.34    0.59
  -3   6  -3  124.13    8.91
  -3   6  -3  124.53    7.31
  -3   6  -3  120.53    7.36
  -3   6  -3  100.67    9.45
   3  -6   3  124.12    7.38
   3  -6   3  118.70    5.73
   3  -6   3  127.50    7.87
  -4   6  -3   49.98    5.06
  -4   6  -3   58.71    3.82
  -4   6  -3   57.24    3.63
  -4   6  -3   62.04    4.62
   4  -6   3   58.69    3.85
   4  -6   3   58.38    3.04
   4  -6   3   55.35    2.76
   4  -6   3   62.09    4.15
  -5   6  -3    4.74    0.62
  -5   6  -3    5.07    1.02
  -5   6  -3    5.31    1.48
  -5   6  -3    4.59    0.83
   5  -6   3    4.97    1.03
   5  -6   3    4.66    0.80
   5  -6   3    4.27    0.62
  -6   6  -3   24.57    1.86
  -6   6  -3   20.36    2.90
  -6   6  -3   27.08    2.11
  -6   6  -3   26.36    2.49
   6  -6   3   26.84    1.59
   6  -6   3   23.80    1.72
   6  -6   3   25.20    2.27
  -7   6  -3   21.38    2.25
  -7   6  -3   18.39    2.81
  -7   6  -3   18.48    1.84
   7  -6   3   23.31    1.98
   7  -6   3   19.28    1.44
   7  -6   3   20.71    1.62
   7  -6   3   19.18    2.10
  -8   6  -3    2.92    0.86
  -8   6  -3    3.12    1.65
  -8   6  -3    3.76    1.15
   8  -6   3    4.04    0.82
   8  -6   3    2.53    1.08
  -9   6  -3   46.27    4.23
  -9   6  -3   45.77    4.95
  -9   6  -3   45.93    3.49
   9  -6   3   45.49    3.81
   9  -6   3   44.13    2.63
 -10   6  -3   43.14    4.15
 -10   6  -3   42.81    3.37
 -10   6  -3   41.99    4.93
  10  -6   3   39.74    3.72
  10  -6   3   40.80    2.58
   9   5  -3   34.33    2.20
  -9  -5   3   37.47    3.68
  -9  -5   3   37.99    4.01
   8   5  -3    2.77    0.68
   8   5  -3    1.96    0.86
  -8  -5   3    3.04    1.43
  -8  -5   3    2.48    1.24
   7   5  -3   46.81    2.60
   7   5  -3   48.85    3.33
  -7  -5   3   55.96    4.42
  -7  -5   3   42.06    4.03
   6   5  -3  119.00    6.84
   6   5  -3  119.20    7.87
  -6  -5   3  123.97    8.16
  -6  -5   3  123.28    8.70
   5   5  -3   19.99    2.17
   5   5  -3   20.36    1.66
   5   5  -3   15.61    2.11
  -5  -5   3   21.87    2.23
  -5  -5   3   18.70    2.07
   4   5  -3   75.78    4.41
   4   5  -3   78.95    5.26
   4   5  -3   72.91    5.92
  -4  -5   3   76.14    5.24
  -4  -5   3   77.42    5.57
   3   5  -3  205.59   11.56
   3   5  -3  197.37   13.56
  -3  -5   3  156.83   11.32
  -3  -5   3  193.30   12.54
   2   5  -3   11.68    1.58
   2   5  -3    8.45    1.27
  -2  -5   3    9.09    1.20
  -2  -5   3    8.23    1.15
   1   5  -3  115.37    7.10
   1   5  -3  124.29    8.66
   1   5  -3   99.72    8.91
  -1  -5   3  118.08    7.05
  -1  -5   3  115.39    7.71
   0   5  -3  185.49   12.66
   0   5  -3  144.28   12.04
   0   5  -3  168.75    9.91
   0  -5   3  166.30   10.85
   0  -5   3  165.20    9.86
  -1   5  -3    0.66    0.78
  -1   5  -3    0.31    0.21
  -1   5  -3    0.34    0.62
  -1   5  -3    0.45    0.36
   1  -5   3    0.46    0.33
   1  -5   3    0.21    0.33
   1  -5   3    0.09    0.28
   1  -5   3    0.23    0.15
  -2   5  -3  110.69    8.71
  -2   5  -3  123.59    7.22
  -2   5  -3   97.80    9.17
  -2   5  -3  126.66    7.19
   2  -5   3  130.30    7.80
   2  -5   3  120.56    7.19
   2  -5   3  119.09    5.58
  -3   5  -3  154.19   10.63
  -3   5  -3  148.34    8.83
  -3   5  -3  144.27    8.80
  -3   5  -3  140.41   11.24
   3  -5   3  152.88    9.49
   3  -5   3  149.50    9.19
   3  -5   3  145.09    8.80
   3  -5   3  143.01    6.86
  -4   5  -3    5.70    0.83
  -4   5  -3    4.21    1.22
  -4   5  -3    5.88    0.59
  -4   5  -3    6.02    0.99
   4  -5   3    5.72    0.85
   4  -5   3    5.46    0.58
   4  -5   3    5.02    0.68
   4  -5   3    6.34    1.00
  -5   5  -3   42.28    2.82
  -5   5  -3   44.76    2.98
  -5   5  -3   43.49    3.56
  -5   5  -3   43.60    4.03
   5  -5   3   42.77    2.21
   5  -5   3   44.97    3.21
   5  -5   3   41.93    2.40
  -6   5  -3   82.94    7.04
  -6   5  -3   89.88    5.49
  -6   5  -3   87.04    6.57
   6  -5   3   85.15    5.72
   6  -5   3   92.32    5.54
   6  -5   3   83.78    4.34
   6  -5   3   82.00    4.03
  -7   5  -3   28.48    3.15
  -7   5  -3   28.15    2.65
  -7   5  -3   26.87    2.19
   7  -5   3   27.95    2.25
   7  -5   3   25.39    1.67
   7  -5   3   24.46    2.38
  -8   5  -3   21.70    2.37
  -8   5  -3   22.32    2.80
  -8   5  -3   19.65    1.89
   8  -5   3   18.63    2.14
   8  -5   3   21.18    1.51
  -9   5  -3   59.65    5.69
  -9   5  -3   57.34    5.03
  -9   5  -3   56.22    4.11
   9  -5   3   61.05    4.53
   9  -5   3   58.49    3.12
 -10   5  -3    3.49    1.30
 -10   5  -3    1.84    0.89
 -10   5  -3    3.90    1.91
  10  -5   3    4.06    0.88
  10  -5   3    3.39    1.30
  11  -5   3   23.86    2.04
  11  -5   3   22.50    2.92
  10   4  -3   32.11    2.10
 -10  -4   3   33.01    3.34
 -10  -4   3   23.68    3.47
   9   4  -3   11.19    1.22
  -9  -4   3   11.96    2.37
  -9  -4   3   13.29    2.13
   8   4  -3   12.34    1.18
   8   4  -3    7.11    1.28
  -8  -4   3    8.53    1.72
  -8  -4   3    9.46    1.91
   7   4  -3   70.28    4.36
   7   4  -3   77.09    3.54
   7   4  -3   71.36    4.94
  -7  -4   3   62.36    5.19
  -7  -4   3   71.33    5.63
   6   4  -3   13.99    1.74
   6   4  -3   15.09    1.42
  -6  -4   3   12.18    2.00
  -6  -4   3   18.61    2.29
   5   4  -3   46.78    3.65
   5   4  -3   46.90    4.14
   5   4  -3   48.62    3.08
  -5  -4   3   52.77    3.92
  -5  -4   3   57.55    4.11
   4   4  -3  173.67    9.04
   4   4  -3  151.41   10.42
   4   4  -3  167.60   12.31
  -4  -4   3  181.18   10.62
  -4  -4   3  178.45   11.51
   3   4  -3   90.26    3.88
   3   4  -3   84.62    4.70
   3   4  -3   84.57    6.42
   3   4  -3   86.72    5.61
  -3  -4   3   74.52    5.48
  -3  -4   3   86.22    5.98
   2   4  -3   17.09    1.63
   2   4  -3   21.68    1.93
  -2  -4   3   19.43    1.67
  -2  -4   3   14.08    1.54
   1   4  -3   96.83    8.63
   1   4  -3  118.71    8.42
   1   4  -3  109.81    6.92
  -1  -4   3  119.39    7.57
  -1  -4   3  117.73    6.89
   0   4  -3  118.26   10.25
   0   4  -3  146.54   10.71
   0   4  -3  146.54    8.44
   0  -4   3  146.92    8.41
   0  -4   3  145.26    9.26
  -1   4  -3   26.56    2.60
  -1   4  -3   26.23    1.83
  -1   4  -3   24.26    1.64
   1  -4   3   24.32    1.80
   1  -4   3   24.83    1.64
   1  -4   3   25.35    1.40
   1  -4   3   26.33    1.67
   1  -4   3   26.20    1.87
  -2   4  -3   63.15    3.81
  -2   4  -3   65.28    3.94
  -2   4  -3   52.80    5.10
  -2   4  -3   62.90    4.77
   2  -4   3   66.81    4.17
   2  -4   3   64.59    3.91
   2  -4   3   61.26    3.06
   2  -4   3   61.48    3.92
  -3   4  -3   20.01    1.33
  -3   4  -3   21.69    2.23
  -3   4  -3   21.24    1.86
  -3   4  -3   20.29    1.52
   3  -4   3   18.67    1.10
   3  -4   3   19.84    1.52
   3  -4   3   21.25    1.27
   3  -4   3   20.88    1.74
  -4   4  -3   26.18    2.19
  -4   4  -3   24.27    1.65
  -4   4  -3   24.50    1.79
  -4   4  -3   23.85    2.46
   4  -4   3   23.75    1.97
   4  -4   3   23.75    1.48
   4  -4   3   25.11    1.35
  -5   4  -3  236.72   16.55
  -5   4  -3  227.19   13.72
  -5   4  -3  228.65   17.19
   5  -4   3  236.99   10.04
   5  -4   3  228.89   14.12
   5  -4   3  242.08   13.77
   5  -4   3  237.05   10.73
  -6   4  -3   32.40    2.97
  -6   4  -3   31.86    2.45
  -6   4  -3   36.52    3.34
   6  -4   3   36.69    2.72
   6  -4   3   35.81    2.52
   6  -4   3   34.51    1.88
  -7   4  -3   13.25    1.36
  -7   4  -3   11.86    1.99
   7  -4   3   13.81    1.42
   7  -4   3   12.61    1.14
   7  -4   3   14.35    1.81
  -8   4  -3  165.94   10.03
  -8   4  -3  166.78   12.76
   8  -4   3  164.21    7.38
   8  -4   3  162.87   10.45
  -9   4  -3   49.06    3.48
  -9   4  -3   46.82    4.74
   9  -4   3   48.45    3.85
   9  -4   3   46.05    2.62
 -10   4  -3    0.81    1.44
 -10   4  -3    3.13    0.92
  10  -4   3    2.03    1.12
  10  -4   3    2.06    0.72
 -11   4  -3   32.73    2.87
 -11   4  -3   32.42    4.25
  11  -4   3   33.74    2.32
  11  -4   3   35.13    3.38
  10   3  -3   46.05    2.73
 -10  -3   3   40.69    4.51
 -10  -3   3   51.74    4.15
   9   3  -3   -0.51    0.44
  -9  -3   3    0.18    0.92
  -9  -3   3   -0.84    1.17
   8   3  -3   68.59    4.47
   8   3  -3   75.58    3.65
  -8  -3   3   75.95    5.38
  -8  -3   3   70.00    5.83
   7   3  -3   54.42    3.90
   7   3  -3   51.19    3.43
   7   3  -3   52.30    2.78
  -7  -3   3   54.81    4.55
  -7  -3   3   61.56    4.34
   6   3  -3    0.29    0.52
   6   3  -3    0.60    0.47
   6   3  -3   -0.02    0.31
  -6  -3   3    0.46    0.83
  -6  -3   3    0.03    0.68
   5   3  -3   56.14    3.15
   5   3  -3   56.92    3.74
  -5  -3   3   39.49    3.73
  -5  -3   3   54.65    4.12
   4   3  -3   44.54    3.44
   4   3  -3   52.57    2.89
   4   3  -3   44.94    3.92
  -4  -3   3   51.40    3.65
  -4  -3   3   50.92    3.78
   3   3  -3   11.67    1.52
   3   3  -3   16.09    1.14
   3   3  -3   16.74    0.81
   3   3  -3   13.31    1.56
  -3  -3   3   15.50    1.58
  -3  -3   3   15.08    1.52
   2   3  -3  102.39    6.32
   2   3  -3  105.62    7.39
  -2  -3   3  110.13    6.83
  -2  -3   3   81.98    6.17
   1   3  -3   44.75    3.15
   1   3  -3   37.66    3.87
   1   3  -3   52.70    3.89
  -1  -3   3   52.07    3.39
  -1  -3   3   48.77    3.12
   0   3  -3    8.41    0.85
   0   3  -3    8.62    1.35
   0   3  -3   10.78    1.53
   0  -3   3    8.13    0.85
   0  -3   3    8.86    0.85
   0  -3   3    8.03    0.71
  -1   3  -3  131.55    7.93
  -1   3  -3  134.49    8.70
   1  -3   3  136.15    7.99
   1  -3   3  135.58    8.71
   1  -3   3  132.46    7.92
   1  -3   3  134.17    8.14
  -2   3  -3  181.03   10.83
  -2   3  -3  182.34   13.44
  -2   3  -3  181.58   12.90
  -2   3  -3  182.12   10.69
   2  -3   3  178.39   10.68
   2  -3   3  181.61   11.09
   2  -3   3  193.90   11.73
  -3   3  -3   17.20    1.51
  -3   3  -3   15.01    1.19
  -3   3  -3   15.34    1.05
  -3   3  -3   15.52    1.68
   3  -3   3   15.98    0.91
   3  -3   3   16.28    1.03
   3  -3   3   16.89    1.40
   3  -3   3   15.50    1.21
  -4   3  -3  126.05    9.16
  -4   3  -3  121.41    8.74
  -4   3  -3  120.47    7.23
   4  -3   3  124.62    5.70
   4  -3   3  116.22    5.29
   4  -3   3  120.12    7.49
  -5   3  -3  132.94    8.01
  -5   3  -3  135.03   10.11
   5  -3   3  132.09    8.30
   5  -3   3  136.86    8.04
   5  -3   3  134.12    5.89
  -6   3  -3    6.25    1.24
  -6   3  -3    5.71    0.81
   6  -3   3    5.43    0.95
   6  -3   3    7.29    0.92
   6  -3   3    5.83    0.66
  -7   3  -3  101.12    6.32
  -7   3  -3   98.41    8.07
   7  -3   3  106.59    6.34
   7  -3   3  103.55    6.67
   7  -3   3  100.25    4.68
  -8   3  -3   87.25    7.47
  -8   3  -3   93.05    5.83
   8  -3   3   90.58    4.32
   8  -3   3   96.64    6.23
  -9   3  -3    4.75    1.53
  -9   3  -3    4.38    0.89
   9  -3   3    3.09    1.11
   9  -3   3    3.44    0.71
 -10   3  -3   49.21    5.14
 -10   3  -3   54.80    3.85
  10  -3   3   55.73    4.33
  10  -3   3   53.85    2.93
 -11   3  -3   37.15    4.25
 -11   3  -3   36.83    2.96
  11  -3   3   32.97    2.27
  11  -3   3   36.73    3.53
  10   2  -3   -0.71    0.47
 -10  -2   3   -0.41    1.33
 -10  -2   3    0.05    1.41
 -10  -2   3   -0.57    0.84
   9   2  -3   26.92    1.78
  -9  -2   3   29.77    2.75
  -9  -2   3   18.49    2.89
   8   2  -3   53.17    2.85
   8   2  -3   55.14    3.64
   8   2  -3   58.24    4.02
  -8  -2   3   47.31    4.58
  -8  -2   3   57.14    4.21
   7   2  -3   10.01    0.99
   7   2  -3    8.66    1.16
   7   2  -3   10.47    1.41
  -7  -2   3   10.16    1.56
  -7  -2   3    7.41    1.56
   6   2  -3   17.96    1.21
   6   2  -3   20.28    1.77
   6   2  -3   20.34    1.52
  -6  -2   3   17.39    2.01
  -6  -2   3   14.56    1.90
   5   2  -3  157.01    9.23
   5   2  -3  155.06    8.02
  -5  -2   3  145.05    9.38
  -5  -2   3  145.62   10.29
   4   2  -3   22.29    1.87
   4   2  -3   22.13    2.11
   4   2  -3   24.75    1.49
  -4  -2   3   21.99    2.03
  -4  -2   3   18.60    1.96
   3   2  -3   12.30    1.32
   3   2  -3   12.86    1.41
   3   2  -3   14.61    0.97
   3   2  -3   13.95    0.71
  -3  -2   3   14.70    1.43
  -3  -2   3   11.09    1.44
   2   2  -3  183.12   11.32
   2   2  -3  197.55   13.43
  -2  -2   3  198.08   12.46
  -2  -2   3  178.53   11.31
   1   2  -3   15.62    1.72
   1   2  -3   18.49    1.75
   1   2  -3   16.60    1.44
  -1  -2   3   19.72    1.50
  -1  -2   3   17.54    1.42
   0   2  -3  194.77   14.92
   0   2  -3  207.87   12.30
   0   2  -3  221.17   15.33
   0  -2   3  209.51   12.27
   0  -2   3  216.87   13.62
   0  -2   3  213.75   12.54
  -1   2  -3  361.03   29.53
  -1   2  -3  385.43   28.72
  -1   2  -3  445.82   26.49
  -1   2  -3  425.25   23.84
   1  -2   3  435.13   26.50
   1  -2   3  431.28   24.91
   1  -2   3  417.16   23.82
  -2   2  -3   33.46    2.17
  -2   2  -3   31.69    2.07
  -2   2  -3   32.23    2.54
  -2   2  -3   34.54    2.74
   2  -2   3   32.59    2.23
   2  -2   3   31.37    2.11
   2  -2   3   32.16    2.07
   2  -2   3   31.22    2.15
  -3   2  -3  183.37   12.73
  -3   2  -3  192.53   13.18
  -3   2  -3  176.45   10.52
   3  -2   3  175.03    7.67
   3  -2   3  182.73   11.04
   3  -2   3  174.23   10.51
   3  -2   3  183.65   10.84
  -4   2  -3  309.32   22.16
  -4   2  -3  304.03   17.80
   4  -2   3  307.30   17.81
   4  -2   3  303.96   12.99
   4  -2   3  317.71   18.28
  -5   2  -3  118.58    8.85
  -5   2  -3  121.97    7.54
  -5   2  -3  114.27    7.00
   5  -2   3  114.44    7.28
   5  -2   3  117.85    7.01
   5  -2   3  115.22    5.16
  -6   2  -3   69.74    4.45
  -6   2  -3   70.03    4.73
  -6   2  -3   69.42    5.72
   6  -2   3   69.19    4.72
   6  -2   3   73.08    4.47
   6  -2   3   76.97    3.35
  -7   2  -3   58.16    4.93
  -7   2  -3   56.31    3.75
   7  -2   3   55.10    2.82
   7  -2   3   59.52    3.77
   7  -2   3   60.08    4.09
  -8   2  -3   14.30    1.43
  -8   2  -3   16.53    2.21
   8  -2   3   14.67    1.86
   8  -2   3   17.26    1.20
  -9   2  -3    9.34    1.87
  -9   2  -3   13.56    1.46
   9  -2   3   11.81    1.75
   9  -2   3   10.64    1.08
 -10   2  -3   26.37    3.26
 -10   2  -3   28.16    2.31
  10  -2   3   29.57    2.80
  10  -2   3   24.15    1.75
 -11   2  -3    0.37    0.65
 -11   2  -3   -1.10    1.30
  11  -2   3    0.07    1.02
  11  -2   3    0.39    0.61
  10   1  -3    0.58    0.64
 -10  -1   3   -0.29    1.44
 -10  -1   3    0.28    0.89
 -10  -1   3   -0.26    1.39
   9   1  -3   28.75    1.90
  -9  -1   3   32.76    2.86
  -9  -1   3   29.75    3.71
  -9  -1   3   21.92    3.30
   8   1  -3   14.84    1.77
   8   1  -3   13.13    1.23
  -8  -1   3   12.67    1.78
  -8  -1   3   10.47    2.10
   7   1  -3    6.56    0.81
   7   1  -3    6.11    1.05
   7   1  -3    5.38    0.88
  -7  -1   3    5.38    1.14
  -7  -1   3    4.58    1.31
   6   1  -3   68.92    3.42
   6   1  -3   71.48    4.13
   6   1  -3   77.99    4.76
  -6  -1   3   74.58    4.91
  -6  -1   3   67.85    5.43
   5   1  -3   72.64    4.27
   5   1  -3   80.42    3.51
   5   1  -3   81.61    4.99
   5   1  -3   77.14    3.60
  -5  -1   3   79.05    5.13
  -5  -1   3   74.05    5.64
   4   1  -3   31.72    1.87
   4   1  -3   31.11    1.47
   4   1  -3   32.57    2.29
   4   1  -3   29.31    2.64
  -4  -1   3   31.08    2.42
  -4  -1   3   30.90    2.62
   3   1  -3  489.28   25.86
   3   1  -3  438.70   30.92
   3   1  -3  444.59   19.69
   3   1  -3  459.98   22.58
  -3  -1   3  406.12   25.87
  -3  -1   3  437.39   28.79
   2   1  -3  259.85   15.68
   2   1  -3  284.51   13.60
   2   1  -3  275.43   18.71
  -2  -1   3  295.78   17.46
  -2  -1   3  222.42   15.66
   1   1  -3   13.68    1.27
   1   1  -3   16.53    1.49
  -1  -1   3   15.15    1.31
  -1  -1   3   12.73    1.24
   0   1  -3  481.51   25.28
   0   1  -3  456.11   31.16
   0   1  -3  400.62   25.21
   0   1  -3  423.21   30.44
   0  -1   3  464.36   28.10
   0  -1   3  425.49   31.12
   0  -1   3  419.45   25.20
  -1   1  -3  364.28   25.56
  -1   1  -3  390.89   23.02
  -1   1  -3  352.69   24.88
  -1   1  -3  382.20   20.65
  -1   1  -3  358.20   20.63
   1  -1   3  317.94   22.99
   1  -1   3  350.58   20.63
   1  -1   3  361.73   21.62
  -2   1  -3    9.81    0.76
  -2   1  -3    9.55    0.76
  -2   1  -3   10.51    0.79
  -2   1  -3   10.35    1.05
  -2   1  -3   10.33    0.66
  -2   1  -3    9.62    0.98
   2  -1   3    9.77    0.77
   2  -1   3   10.47    0.82
   2  -1   3   11.06    0.90
  -3   1  -3  211.25   11.70
  -3   1  -3  198.94   11.66
  -3   1  -3  203.49   14.54
   3  -1   3  196.78    8.51
   3  -1   3  195.20   11.99
   3  -1   3  205.19   12.30
  -4   1  -3   63.47    4.27
  -4   1  -3   65.96    3.94
  -4   1  -3   65.40    5.01
  -4   1  -3   64.69    3.91
   4  -1   3   63.25    4.13
   4  -1   3   64.89    3.91
   4  -1   3   65.91    2.91
  -5   1  -3   34.16    2.92
  -5   1  -3   33.57    2.22
  -5   1  -3   33.64    2.20
  -5   1  -3   29.12    2.41
   5  -1   3   35.52    2.22
   5  -1   3   36.79    1.70
   5  -1   3   32.81    2.42
  -6   1  -3  110.04    8.60
  -6   1  -3  111.37    6.77
   6  -1   3  116.31    6.78
   6  -1   3  114.10    5.02
   6  -1   3  113.15    7.12
  -7   1  -3   53.76    3.42
  -7   1  -3   49.90    4.47
   7  -1   3   52.22    2.59
   7  -1   3   53.26    3.76
   7  -1   3   53.56    3.41
  -8   1  -3    4.92    1.32
  -8   1  -3    5.24    0.84
   8  -1   3    5.58    1.16
   8  -1   3    6.85    0.78
  -9   1  -3   52.88    5.01
  -9   1  -3   55.37    3.75
   9  -1   3   56.93    2.87
   9  -1   3   56.80    4.19
 -10   1  -3   20.48    1.93
 -10   1  -3   22.51    3.01
  10  -1   3   22.89    1.59
  10  -1   3   22.88    2.47
 -11   1  -3    2.77    0.86
 -11   1  -3    2.08    1.56
  11  -1   3    2.43    1.23
  11  -1   3    2.83    0.78
  10   0  -3   39.44    2.52
 -10   0   3   45.05    3.62
 -10   0   3   41.46    4.72
 -10   0   3   39.15    4.22
   9   0  -3   28.14    1.85
  -9   0   3   26.69    2.59
  -9   0   3   24.15    3.29
  -9   0   3   25.35    3.34
   8   0  -3   10.03    1.33
   8   0  -3    9.62    1.07
  -8   0   3    9.40    1.95
  -8   0   3    6.11    1.69
  -8   0   3   13.89    1.71
   7   0  -3   56.18    2.87
   7   0  -3   57.47    3.90
  -7   0   3   46.83    4.54
  -7   0   3   64.48    4.10
   6   0  -3   91.73    4.26
   6   0  -3   92.77    4.21
   6   0  -3   94.60    5.84
  -6   0   3   99.06    5.97
  -6   0   3   80.96    6.68
   5   0  -3    1.86    0.43
   5   0  -3    1.89    0.48
   5   0  -3    2.24    0.29
   5   0  -3    1.57    0.51
  -5   0   3    1.72    0.58
  -5   0   3    1.05    0.82
   4   0  -3  171.03   10.21
   4   0  -3  163.82    7.40
   4   0  -3  174.79    7.69
   4   0  -3  174.99    8.89
  -4   0   3  166.39   11.55
  -4   0   3  179.82   10.32
   3   0  -3  170.33   12.40
   3   0  -3  184.09    8.99
   3   0  -3  175.94    7.84
   3   0  -3  178.80   10.38
  -3   0   3  175.85   10.45
  -3   0   3  167.82   11.68
   2   0  -3    1.47    0.44
   2   0  -3    2.48    0.27
   2   0  -3    2.60    0.27
   2   0  -3    1.88    0.45
  -2   0   3    1.69    0.44
  -2   0   3    2.92    0.68
   1   0  -3  184.98   10.50
   1   0  -3  202.38   12.58
  -1   0   3  182.12   12.71
  -1   0   3  164.65   10.49
  -1   0   3  159.17   11.69
   0   0  -3  431.11   32.19
   0   0  -3  461.27   26.75
   0   0  -3  474.85   32.90
   0   0  -3  440.08   26.74
   0   0  -3  476.75   29.85
   0   0   3  473.09   29.85
   0   0   3  450.74   26.74
   0   0   3  516.21   32.92
  -1   0  -3    7.58    0.73
  -1   0  -3    8.16    0.83
  -1   0  -3    9.18    0.69
  -1   0  -3    9.37    0.83
  -1   0  -3    8.16    0.66
   1   0   3    9.51    0.88
   1   0   3    8.04    0.70
   1   0   3    9.92    0.78
   1   0   3    8.27    0.65
   1   0   3    8.14    0.59
   1   0   3    8.46    0.70
   1   0   3    8.29    0.68
  -2   0  -3   27.84    2.12
  -2   0  -3   28.04    2.17
  -2   0  -3   27.10    1.70
  -2   0  -3   27.95    1.68
   2   0   3   26.37    1.83
   2   0   3   28.40    1.68
   2   0   3   25.82    1.79
  -3   0  -3  227.47   12.80
  -3   0  -3  225.80   15.94
  -3   0  -3  227.09   13.26
  -3   0  -3  217.25   12.78
  -3   0  -3  222.08   14.23
   3   0   3  216.93    9.33
   3   0   3  219.61   13.15
   3   0   3  223.24   13.54
  -4   0  -3   11.52    0.93
  -4   0  -3   11.14    1.23
  -4   0  -3   12.09    0.88
  -4   0  -3   12.53    0.87
   4   0   3   10.87    1.03
   4   0   3   10.81    0.69
   4   0   3   11.87    0.86
  -5   0  -3   62.83    4.06
  -5   0  -3   56.05    3.60
  -5   0  -3   60.24    3.64
  -5   0  -3   57.56    4.68
   5   0   3   55.41    3.87
   5   0   3   59.25    2.72
   5   0   3   62.50    3.62
  -6   0  -3   79.32    5.11
  -6   0  -3   71.78    5.80
  -6   0  -3   70.33    4.47
   6   0   3   67.23    4.78
   6   0   3   77.53    3.37
   6   0   3   74.25    4.47
  -7   0  -3    2.01    0.76
  -7   0  -3    2.51    0.52
  -7   0  -3    3.42    1.02
   7   0   3    1.57    0.44
   7   0   3    2.83    0.54
   7   0   3    2.02    0.74
  -8   0  -3   48.78    3.23
  -8   0  -3   47.62    4.35
  -8   0  -3   46.69    3.85
   8   0   3   49.97    2.47
   8   0   3   49.15    3.64
  -9   0  -3   60.72    4.13
  -9   0  -3   64.88    5.62
   9   0   3   64.48    4.64
   9   0   3   63.33    3.15
 -10   0  -3    3.37    0.79
 -10   0  -3    1.35    1.21
  10   0   3    2.68    1.08
  10   0   3    2.63    0.64
 -11   0  -3   37.04    2.90
 -11   0  -3   35.66    4.13
  11   0   3   38.14    3.45
  11   0   3   36.43    2.24
  10  -1  -3   22.05    1.87
 -10   1   3   16.72    2.93
 -10   1   3   20.10    3.33
 -10   1   3   18.75    2.38
   9  -1  -3   14.30    1.44
  -9   1   3   13.41    2.37
  -9   1   3   12.80    2.38
  -9   1   3   12.37    1.75
   8  -1  -3   35.24    2.78
   8  -1  -3   34.65    2.10
  -8   1   3   34.38    3.68
  -8   1   3   35.32    2.89
  -8   1   3   35.05    3.63
   7  -1  -3  158.41    7.16
   7  -1  -3  160.73    9.74
   7  -1  -3  164.46    9.64
   7  -1  -3  153.53    7.04
  -7   1   3  161.76    9.71
  -7   1   3  142.89   11.02
  -7   1   3  156.56   12.03
   6  -1  -3   43.72    3.07
   6  -1  -3   44.34    2.27
   6  -1  -3   42.83    2.14
   6  -1  -3   47.02    3.07
  -6   1   3   36.07    3.65
  -6   1   3   42.39    3.11
  -6   1   3   45.71    3.88
   5  -1  -3   32.46    2.34
   5  -1  -3   31.03    1.72
   5  -1  -3   33.21    1.63
   5  -1  -3   34.82    2.32
  -5   1   3   32.10    2.38
  -5   1   3   27.38    2.87
   4  -1  -3  254.35   14.24
   4  -1  -3  253.57   10.85
   4  -1  -3  246.60   14.39
   4  -1  -3  243.89   10.35
  -4   1   3  200.90   16.02
  -4   1   3  254.56   14.28
   3  -1  -3   15.83    1.49
   3  -1  -3   16.29    0.88
   3  -1  -3   16.46    0.93
   3  -1  -3   18.23    1.31
  -3   1   3   13.37    1.62
  -3   1   3   16.38    1.32
  -3   1   3   16.66    0.94
   2  -1  -3   12.12    1.15
   2  -1  -3   12.61    0.70
   2  -1  -3   11.95    1.00
  -2   1   3   16.60    1.46
  -2   1   3   12.82    1.05
   1  -1  -3    9.63    0.63
   1  -1  -3   11.48    1.05
   1  -1  -3   11.90    0.89
   1  -1  -3   11.34    0.88
  -1   1   3   11.32    0.91
  -1   1   3   11.48    0.78
  -1   1   3    9.38    1.12
   0  -1  -3    2.06    0.50
   0  -1  -3    2.68    0.32
   0  -1  -3    1.58    0.27
   0  -1  -3    1.87    0.21
   0  -1  -3    1.83    0.31
   0  -1  -3    1.98    0.39
   0   1   3    1.07    0.40
   0   1   3    1.70    0.24
   0   1   3    1.58    0.39
   0   1   3    1.76    0.30
   0   1   3    1.28    0.27
  -1  -1  -3   87.76    5.26
  -1  -1  -3   87.75    5.35
  -1  -1  -3   94.63    6.29
  -1  -1  -3   91.92    4.63
  -1  -1  -3   89.59    6.38
   1   1   3   84.68    5.27
   1   1   3   89.76    5.50
   1   1   3   89.90    5.37
   1   1   3   86.60    4.60
   1   1   3   82.57    5.19
   1   1   3   94.75    6.29
  -2  -1  -3   38.36    2.20
  -2  -1  -3   38.56    1.65
  -2  -1  -3   36.31    2.84
  -2  -1  -3   37.02    2.34
   2   1   3   36.85    2.35
   2   1   3   35.06    2.34
   2   1   3   36.65    2.22
   2   1   3   37.15    2.08
   2   1   3   36.68    2.45
   2   1   3   37.43    2.18
  -3  -1  -3   15.46    1.18
  -3  -1  -3   15.39    1.40
  -3  -1  -3   15.33    0.98
  -3  -1  -3   15.58    0.98
   3   1   3   15.91    1.22
   3   1   3   14.72    1.04
   3   1   3   14.41    1.15
   3   1   3   16.39    0.99
   3   1   3   15.02    0.77
  -4  -1  -3   37.81    3.12
  -4  -1  -3   37.08    2.67
  -4  -1  -3   38.57    2.34
  -4  -1  -3   41.95    2.36
   4   1   3   37.40    2.58
   4   1   3   36.77    2.26
   4   1   3   38.50    1.77
  -5  -1  -3  154.19    9.25
  -5  -1  -3  164.03    9.28
  -5  -1  -3  152.24   11.68
  -5  -1  -3  157.16   10.40
  -5  -1  -3  154.97    6.23
   5   1   3  153.18    8.39
   5   1   3  160.51    9.67
   5   1   3  164.84    6.82
   5   1   3  170.25    9.28
  -6  -1  -3   86.29    3.36
  -6  -1  -3   83.15    6.62
  -6  -1  -3   82.26    5.12
  -6  -1  -3   85.16    5.11
  -6  -1  -3   86.58    5.80
   6   1   3   83.51    5.48
   6   1   3   90.14    5.09
   6   1   3   81.36    3.80
  -7  -1  -3    2.77    0.96
  -7  -1  -3    1.86    0.45
  -7  -1  -3    1.62    0.63
   7   1   3    3.00    0.50
   7   1   3    2.21    0.70
   7   1   3    1.71    0.42
  -8  -1  -3   90.38    7.36
  -8  -1  -3   96.19    6.54
  -8  -1  -3   90.59    5.61
   8   1   3   87.91    4.17
   8   1   3   90.37    6.08
  -9  -1  -3   21.13    1.76
  -9  -1  -3   22.08    2.62
  -9  -1  -3   20.94    2.37
   9   1   3   20.71    2.19
   9   1   3   21.40    1.38
 -10  -1  -3    7.98    1.13
 -10  -1  -3    6.62    1.77
  10   1   3    8.05    0.95
  10   1   3    7.48    1.48
 -11  -1  -3   40.22    3.10
 -11  -1  -3   40.95    4.46
  11   1   3   41.76    3.72
  11   1   3   43.10    2.42
  10  -2  -3   40.54    2.54
 -10   2   3   40.55    3.48
 -10   2   3   35.62    4.50
 -10   2   3   43.92    4.40
   9  -2  -3    0.58    0.69
   9  -2  -3    0.21    0.57
  -9   2   3    1.09    0.86
  -9   2   3    1.18    1.25
  -9   2   3    0.51    1.35
   8  -2  -3   23.16    2.15
   8  -2  -3   23.59    1.65
   8  -2  -3   22.41    2.10
  -8   2   3   23.91    2.94
  -8   2   3   25.24    2.95
  -8   2   3   23.84    2.26
   7  -2  -3   60.85    4.20
   7  -2  -3   58.31    3.00
   7  -2  -3   58.77    4.15
   7  -2  -3   65.18    3.15
  -7   2   3   63.88    5.36
  -7   2   3   66.14    5.22
  -7   2   3   61.23    4.25
   6  -2  -3    9.25    0.71
   6  -2  -3    7.63    0.82
   6  -2  -3   10.45    1.11
   6  -2  -3    8.44    1.12
  -6   2   3    8.33    1.52
  -6   2   3   11.13    1.32
  -6   2   3    7.39    1.61
   5  -2  -3  100.84    6.41
   5  -2  -3  102.02    4.82
   5  -2  -3  100.44    4.69
   5  -2  -3  102.18    6.44
  -5   2   3  110.53    7.95
  -5   2   3  116.56    7.63
  -5   2   3  100.04    6.43
   4  -2  -3   37.94    1.90
   4  -2  -3   38.44    1.90
   4  -2  -3   37.79    2.52
   4  -2  -3   37.54    2.58
  -4   2   3   36.38    2.59
  -4   2   3   38.61    3.14
  -4   2   3   40.05    3.26
   3  -2  -3    0.75    0.27
   3  -2  -3    0.80    0.27
   3  -2  -3    0.76    0.23
   3  -2  -3    0.50    0.30
  -3   2   3    0.76    0.19
  -3   2   3    0.59    0.58
  -3   2   3    0.74    0.37
  -3   2   3    0.67    0.33
   2  -2  -3  108.89    4.73
   2  -2  -3  102.28    6.16
   2  -2  -3  101.69    7.32
   2  -2  -3  104.83    4.48
   2  -2  -3  105.51    6.14
  -2   2   3  102.24    6.14
  -2   2   3   84.33    6.97
  -2   2   3  111.04    7.47
  -2   2   3  102.52    6.16
  -2   2   3  107.65    5.24
   1  -2  -3   70.78    3.42
   1  -2  -3   74.23    4.44
   1  -2  -3   73.64    4.45
   1  -2  -3   70.58    5.26
  -1   2   3   71.07    4.43
  -1   2   3   71.15    5.27
  -1   2   3   83.86    5.34
  -1   2   3   84.07    5.12
  -1   2   3   72.05    4.37
   0  -2  -3   10.63    0.69
   0  -2  -3    9.24    0.67
   0  -2  -3    8.91    0.56
   0  -2  -3    7.46    0.87
   0  -2  -3    9.14    0.55
   0   2   3   10.07    0.81
   0   2   3    9.28    0.55
   0   2   3    8.55    0.66
   0   2   3    6.94    0.84
  -1  -2  -3  122.79    7.14
  -1  -2  -3  123.81    7.29
  -1  -2  -3  135.69    8.66
  -1  -2  -3  127.15    6.38
  -1  -2  -3  127.83    7.15
   1   2   3  117.13    7.14
   1   2   3  123.05    7.48
   1   2   3  121.51    7.60
   1   2   3  119.35    7.30
   1   2   3  123.07    6.37
  -2  -2  -3   96.88    3.85
   2   2   3   90.34    4.80
   2   2   3   89.77    5.58
   2   2   3   89.18    5.49
  -3  -2  -3    0.00    0.07
  -3  -2  -3    0.06    0.11
  -3  -2  -3    0.08    0.09
  -3  -2  -3   -0.15    0.21
   3   2   3    0.12    0.23
   3   2   3   -0.11    0.22
   3   2   3    0.13    0.12
   3   2   3    0.03    0.24
   3   2   3   -0.22    0.23
  -4  -2  -3  213.19    8.55
  -4  -2  -3  216.49   12.55
  -4  -2  -3  220.38   14.17
  -4  -2  -3  215.81   12.54
   4   2   3  226.69   12.51
   4   2   3  223.99    9.18
   4   2   3  213.78   11.29
  -5  -2  -3  134.46    7.72
  -5  -2  -3  133.82    8.75
  -5  -2  -3  130.73    7.70
  -5  -2  -3  133.27    5.22
   5   2   3  129.78    7.03
   5   2   3  126.46    8.09
   5   2   3  135.45    5.67
  -6  -2  -3   10.34    0.85
  -6  -2  -3    8.61    1.05
  -6  -2  -3    9.27    0.51
  -6  -2  -3    9.63    0.82
   6   2   3    8.67    1.02
   6   2   3   10.80    1.29
   6   2   3    9.41    0.69
  -7  -2  -3  129.74    7.76
  -7  -2  -3  129.08    8.83
  -7  -2  -3  131.96   10.00
   7   2   3  130.35    7.18
   7   2   3  129.59    8.23
   7   2   3  133.06    5.73
  -8  -2  -3   85.73    5.31
  -8  -2  -3   79.95    6.95
  -8  -2  -3   91.58    6.20
   8   2   3   86.64    3.95
   8   2   3   85.50    5.79
  -9  -2  -3    0.59    0.89
  -9  -2  -3    0.87    0.86
  -9  -2  -3    0.19    0.43
   9   2   3    0.03    0.40
   9   2   3    0.59    0.84
 -10  -2  -3   45.68    3.25
 -10  -2  -3   45.33    4.57
  10   2   3   45.99    2.47
  10   2   3   48.22    3.82
 -11  -2  -3   31.38    2.41
 -11  -2  -3   26.15    3.45
  11   2   3   26.26    1.83
  11   2   3   28.32    2.93
  10  -3  -3    3.14    0.82
  10  -3  -3    2.54    1.05
 -10   3   3    1.89    1.05
 -10   3   3    2.38    1.61
   9  -3  -3   28.42    1.95
   9  -3  -3   27.92    2.47
   9  -3  -3   26.29    2.52
  -9   3   3   26.93    2.61
  -9   3   3   27.48    3.45
  -9   3   3   28.95    3.55
   8  -3  -3   79.70    3.85
   8  -3  -3   78.37    5.17
   8  -3  -3   75.44    5.11
   8  -3  -3   71.72    3.76
  -8   3   3   76.48    5.21
  -8   3   3   74.17    6.58
  -8   3   3   76.89    6.15
   7  -3  -3   19.40    1.82
   7  -3  -3   18.17    1.22
   7  -3  -3   19.31    1.39
   7  -3  -3   18.01    1.72
  -7   3   3   18.66    1.87
  -7   3   3   22.43    2.83
  -7   3   3   21.02    2.52
   6  -3  -3   32.90    2.43
   6  -3  -3   32.96    1.33
   6  -3  -3   32.53    1.81
   6  -3  -3   29.73    1.71
   6  -3  -3   29.89    2.31
  -6   3   3   27.96    3.02
  -6   3   3   28.83    2.39
  -6   3   3   31.89    3.04
   5  -3  -3   36.36    2.61
   5  -3  -3   41.24    2.75
   5  -3  -3   36.54    1.98
   5  -3  -3   39.33    2.01
  -5   3   3   39.83    3.38
  -5   3   3   39.44    2.74
  -5   3   3   35.97    3.30
   4  -3  -3    9.44    0.74
   4  -3  -3   10.11    1.01
   4  -3  -3    9.04    0.72
   4  -3  -3    9.60    0.88
  -4   3   3    9.26    1.49
  -4   3   3    9.47    1.19
  -4   3   3   10.04    1.02
   3  -3  -3   73.22    4.52
   3  -3  -3   73.35    3.46
   3  -3  -3   71.14    3.29
   3  -3  -3   72.57    4.46
  -3   3   3   75.70    5.51
  -3   3   3   75.54    5.21
  -3   3   3   70.54    4.51
   2  -3  -3  226.08   13.67
   2  -3  -3  226.64   13.77
   2  -3  -3  236.30   10.56
   2  -3  -3  228.84    9.93
  -2   3   3  228.75   13.67
  -2   3   3  249.52   16.82
  -2   3   3  262.90   15.40
  -2   3   3  228.04   13.77
   1  -3  -3   36.89    2.60
   1  -3  -3   36.11    1.61
   1  -3  -3   35.19    2.11
   1  -3  -3   35.57    2.24
   1  -3  -3   33.90    1.73
   1  -3  -3   35.31    2.55
  -1   3   3   29.71    2.69
  -1   3   3   37.92    2.24
  -1   3   3   35.31    2.55
   0  -3  -3  241.30   14.14
   0  -3  -3  238.23   16.94
   0  -3  -3  242.43   14.13
   0  -3  -3  240.79   10.97
   0  -3  -3  242.34   10.25
   0   3   3  272.91   16.92
   0   3   3  247.02   12.45
   0   3   3  238.11   14.13
   0   3   3  250.38   14.71
  -1  -3  -3  964.15   54.97
  -1  -3  -3  985.89   55.96
  -1  -3  -3 1000.00   66.16
  -1  -3  -3  920.62   42.44
  -1  -3  -3  980.70   54.98
   1   3   3  981.02   54.68
   1   3   3  953.33   48.32
   1   3   3  910.48   57.89
   1   3   3  947.84   56.95
  -2  -3  -3   65.75    2.98
  -2  -3  -3   64.37    3.69
   2   3   3   61.38    3.42
   2   3   3   61.77    3.91
   2   3   3   65.89    4.07
   2   3   3   65.07    4.02
  -3  -3  -3   90.38    3.66
  -3  -3  -3   91.38    5.25
  -3  -3  -3   90.54    5.26
  -3  -3  -3   94.06    3.83
   3   3   3   88.18    4.84
   3   3   3   92.41    3.83
   3   3   3   88.66    5.55
   3   3   3   91.23    5.65
   3   3   3   90.73    5.73
  -4  -3  -3  354.12   13.99
  -4  -3  -3  352.23   20.51
  -4  -3  -3  358.08   23.11
   4   3   3  370.57   20.45
   4   3   3  367.34   14.94
   4   3   3  357.15   21.14
   4   3   3  350.25   18.32
  -5  -3  -3   18.50    0.91
  -5  -3  -3   20.27    1.67
  -5  -3  -3   18.20    1.36
  -5  -3  -3   19.88    1.29
   5   3   3   19.14    0.99
   5   3   3   18.55    1.38
   5   3   3   17.66    1.57
  -6  -3  -3   95.77    5.52
  -6  -3  -3   92.00    3.72
  -6  -3  -3   95.49    5.62
  -6  -3  -3   93.45    6.36
   6   3   3   88.29    5.13
   6   3   3   87.81    5.90
   6   3   3   92.03    4.06
  -7  -3  -3   61.08    3.75
  -7  -3  -3   58.64    4.39
   7   3   3   58.54    2.77
   7   3   3   59.61    4.16
   7   3   3   60.67    3.63
  -8  -3  -3    2.85    0.60
  -8  -3  -3    2.48    0.82
   8   3   3    2.12    0.46
   8   3   3    2.73    0.80
   8   3   3    3.31    0.89
  -9  -3  -3   68.50    6.20
  -9  -3  -3   71.98    4.59
  -9  -3  -3   75.21    5.48
   9   3   3   67.30    3.39
   9   3   3   75.83    5.15
 -10  -3  -3   61.47    5.49
 -10  -3  -3   59.70    4.82
 -10  -3  -3   54.83    3.86
  10   3   3   57.13    4.44
  10   3   3   55.98    2.91
 -11  -3  -3    6.49    1.99
 -11  -3  -3    8.66    1.24
  10  -4  -3   14.05    1.88
  10  -4  -3   17.11    1.60
 -10   4   3   11.05    1.86
 -10   4   3   10.19    2.61
   9  -4  -3   55.04    4.15
   9  -4  -3   56.99    4.25
   9  -4  -3   59.27    3.20
  -9   4   3   58.95    5.03
  -9   4   3   56.10    5.60
  -9   4   3   57.91    4.32
   8  -4  -3   11.27    1.23
   8  -4  -3   11.75    1.07
   8  -4  -3    9.28    1.46
   8  -4  -3   10.58    1.46
  -8   4   3    9.11    1.85
  -8   4   3   10.25    1.49
  -8   4   3    9.21    2.01
   7  -4  -3   25.91    1.67
   7  -4  -3   29.11    2.34
   7  -4  -3   27.80    2.21
   7  -4  -3   25.80    1.62
  -7   4   3   26.38    3.01
  -7   4   3   26.69    2.33
  -7   4   3   26.68    2.79
   6  -4  -3  162.80    9.88
   6  -4  -3  158.39    7.21
   6  -4  -3  166.40    6.39
   6  -4  -3  161.61    9.90
   6  -4  -3  159.69    7.52
  -6   4   3  161.54    9.88
  -6   4   3  159.97   12.26
  -6   4   3  166.78   11.20
   5  -4  -3   61.04    4.09
   5  -4  -3   64.95    2.62
   5  -4  -3   63.56    3.15
   5  -4  -3   65.88    4.20
   5  -4  -3   64.73    3.07
  -5   4   3   67.46    4.83
  -5   4   3   64.55    5.21
  -5   4   3   57.98    4.15
   4  -4  -3   15.34    0.77
   4  -4  -3   14.59    1.00
   4  -4  -3   14.31    1.32
   4  -4  -3   15.48    1.00
   4  -4  -3   14.51    1.20
  -4   4   3   15.99    1.66
  -4   4   3   16.28    1.72
  -4   4   3   15.34    1.37
   3  -4  -3  213.16   12.64
   3  -4  -3  219.76    9.71
   3  -4  -3  209.23    9.13
   3  -4  -3  210.53   12.57
  -3   4   3  216.22   12.58
  -3   4   3  217.08   15.53
   2  -4  -3  253.06   14.12
   2  -4  -3  251.41   10.92
   2  -4  -3  251.22   10.25
   2  -4  -3  246.75   14.19
  -2   4   3  208.05   17.39
  -2   4   3  244.81   14.11
  -2   4   3  242.86   16.77
   1  -4  -3   30.32    2.02
   1  -4  -3   30.01    1.90
   1  -4  -3   32.57    1.60
   1  -4  -3   33.80    2.41
   1  -4  -3   31.13    1.45
  -1   4   3   32.47    2.20
  -1   4   3   25.90    2.50
  -1   4   3   32.40    2.03
  -1   4   3   30.36    2.22
   0  -4  -3  377.23   21.74
   0  -4  -3  377.00   15.76
   0  -4  -3  378.10   16.86
   0  -4  -3  379.06   21.74
   0   4   3  396.86   22.88
   0   4   3  368.84   26.79
   0   4   3  379.21   21.73
   0   4   3  376.26   22.57
  -1  -4  -3  299.12   17.35
  -1  -4  -3  305.66   11.85
  -1  -4  -3  297.45   13.48
  -1  -4  -3  304.28   17.35
  -1  -4  -3  311.90   12.54
   1   4   3  298.85   15.38
   1   4   3  296.49   18.25
   1   4   3  321.37   17.35
   1   4   3  289.64   18.05
  -2  -4  -3   96.56    4.03
  -2  -4  -3  102.20    5.79
  -2  -4  -3   98.56    4.56
   2   4   3  100.78    6.18
   2   4   3   98.48    5.27
   2   4   3  102.80    6.23
  -3  -4  -3  451.81   17.25
  -3  -4  -3  438.44   19.60
  -3  -4  -3  440.95   28.42
  -3  -4  -3  455.10   25.33
  -3  -4  -3  465.71   25.25
   3   4   3  434.19   26.36
   3   4   3  451.01   18.31
   3   4   3  412.46   22.46
   3   4   3  431.07   26.69
   3   4   3  439.29   25.21
  -4  -4  -3  165.43    7.57
  -4  -4  -3  168.84   11.13
  -4  -4  -3  164.65    6.70
  -4  -4  -3  172.30    9.80
  -4  -4  -3  170.88    9.78
   4   4   3  163.74   10.34
   4   4   3  171.86    7.08
   4   4   3  168.91    8.84
   4   4   3  166.22   10.16
   4   4   3  173.08    9.68
  -5  -4  -3   47.28    3.51
  -5  -4  -3   48.42    2.93
  -5  -4  -3   48.40    2.27
  -5  -4  -3   48.57    2.06
  -5  -4  -3   37.71    3.00
   5   4   3   52.22    2.88
   5   4   3   48.60    2.14
   5   4   3   49.09    2.86
   5   4   3   46.28    3.23
  -6  -4  -3  206.93   11.58
  -6  -4  -3  202.61   13.18
   6   4   3  189.63   10.47
   6   4   3  191.94   12.07
   6   4   3  200.39    8.42
  -7  -4  -3   58.11    4.44
  -7  -4  -3   59.75    3.76
   7   4   3   59.94    2.76
   7   4   3   61.49    4.20
   7   4   3   60.47    3.65
  -8  -4  -3    5.33    0.79
  -8  -4  -3    3.62    1.00
   8   4   3    4.80    0.59
   8   4   3    4.60    0.94
   8   4   3    4.85    1.14
  -9  -4  -3   57.01    3.77
  -9  -4  -3   58.67    4.57
   9   4   3   54.60    2.78
   9   4   3   58.48    3.80
 -10  -4  -3   15.63    2.35
 -10  -4  -3   18.96    2.84
 -10  -4  -3   18.89    1.68
 -11  -4  -3    2.63    0.77
 -11  -4  -3    2.33    1.58
  10  -5  -3   14.01    1.54
  10  -5  -3   13.47    2.05
 -10   5   3   10.59    2.80
 -10   5   3   12.99    1.97
   9  -5  -3   23.72    1.83
   9  -5  -3   23.51    2.27
   9  -5  -3   24.17    2.46
  -9   5   3   25.47    3.65
  -9   5   3   24.68    2.53
   8  -5  -3    1.06    0.81
   8  -5  -3    1.23    0.50
   8  -5  -3    1.54    0.64
   8  -5  -3    1.50    0.76
  -8   5   3    0.44    0.74
  -8   5   3    2.75    1.45
   7  -5  -3   76.61    3.76
   7  -5  -3   80.25    5.14
   7  -5  -3   70.82    3.78
   7  -5  -3   74.48    5.00
  -7   5   3   76.25    5.12
  -7   5   3   76.58    6.52
   6  -5  -3   92.43    4.50
   6  -5  -3   92.63    5.94
   6  -5  -3   94.02    4.35
   6  -5  -3   93.03    5.85
   6  -5  -3   92.47    3.74
  -6   5   3   89.64    5.92
  -6   5   3   89.79    7.45
   5  -5  -3    3.65    0.37
   5  -5  -3    2.63    0.66
   5  -5  -3    3.14    0.52
   5  -5  -3    3.25    0.63
   5  -5  -3    3.54    0.59
  -5   5   3    3.90    0.81
  -5   5   3    3.17    1.08
   4  -5  -3  224.94   10.11
   4  -5  -3  221.37   13.09
   4  -5  -3  232.11    8.75
   4  -5  -3  218.21   13.14
   4  -5  -3  216.36    9.51
  -4   5   3  212.15   16.22
  -4   5   3  224.29   13.10
   3  -5  -3  306.45   17.82
   3  -5  -3  317.43   12.01
   3  -5  -3  310.44   17.96
   3  -5  -3  311.85   12.94
   3  -5  -3  317.84   13.79
  -3   5   3  309.78   17.82
  -3   5   3  267.26   22.03
   2  -5  -3    4.47    0.64
   2  -5  -3    4.48    0.45
   2  -5  -3    4.31    0.47
   2  -5  -3    5.12    0.57
   2  -5  -3    4.84    0.42
  -2   5   3    3.08    0.93
  -2   5   3    4.59    0.62
  -2   5   3    4.49    0.52
  -2   5   3    5.25    0.83
   1  -5  -3  365.13   14.47
   1  -5  -3  378.83   16.53
   1  -5  -3  374.48   21.32
   1  -5  -3  369.45   15.45
  -1   5   3  342.76   26.36
  -1   5   3  381.68   22.13
  -1   5   3  378.01   21.32
   0  -5  -3  190.62   11.01
   0  -5  -3  197.62    8.58
   0  -5  -3  185.82   11.00
   0  -5  -3  191.39    7.94
   0  -5  -3  182.32    7.51
   0   5   3  187.81   13.60
   0   5   3  194.47   11.53
   0   5   3  188.95   11.00
   0   5   3  189.32    7.95
   0   5   3  187.31   11.46
  -1  -5  -3   10.91    0.83
  -1  -5  -3   10.78    0.70
  -1  -5  -3   10.48    0.80
  -1  -5  -3    9.98    0.51
  -1  -5  -3   11.89    0.86
  -1  -5  -3   10.60    0.64
   1   5   3   10.53    0.80
   1   5   3   10.34    0.80
   1   5   3    9.45    0.94
   1   5   3   10.60    0.87
   1   5   3   10.67    0.51
  -2  -5  -3  121.35    5.31
  -2  -5  -3  119.05    6.78
  -2  -5  -3  114.17    4.71
  -2  -5  -3  116.29    8.15
  -2  -5  -3  114.75    6.77
   2   5   3  116.12    7.20
   2   5   3  114.30    7.19
   2   5   3  110.19    6.11
   2   5   3  119.41    6.85
  -3  -5  -3   66.57    4.51
  -3  -5  -3   66.19    2.71
  -3  -5  -3   63.98    2.99
  -3  -5  -3   68.38    3.86
  -3  -5  -3   65.90    3.80
   3   5   3   60.68    4.15
   3   5   3   60.37    3.54
   3   5   3   58.27    4.12
  -4  -5  -3   14.90    0.86
  -4  -5  -3   16.83    1.51
  -4  -5  -3   16.12    1.08
  -4  -5  -3   15.58    0.87
   4   5   3   14.79    0.74
   4   5   3   15.61    1.41
   4   5   3   15.58    1.19
  -5  -5  -3  114.82    5.17
  -5  -5  -3  113.80    4.65
  -5  -5  -3  115.06    6.77
  -5  -5  -3  109.76    7.77
  -5  -5  -3  122.40    6.82
   5   5   3  111.64    6.20
   5   5   3  110.39    4.85
  -6  -5  -3   90.80    6.36
  -6  -5  -3   90.54    5.44
  -6  -5  -3   90.90    4.11
   6   5   3   90.89    3.93
   6   5   3   86.58    5.07
  -7  -5  -3    1.94    0.78
  -7  -5  -3    1.99    0.47
   7   5   3    1.93    0.70
   7   5   3    2.12    0.37
  -8  -5  -3   35.55    2.38
  -8  -5  -3   31.12    2.94
   8   5   3   32.70    1.73
   8   5   3   34.49    2.49
  -9  -5  -3  116.88    7.19
  -9  -5  -3  116.02    8.39
   9   5   3  119.18    6.83
 -10  -5  -3   11.45    1.35
 -10  -5  -3    9.16    1.79
  10   5   3   11.10    1.68
 -11  -5  -3   16.00    1.61
 -11  -5  -3   13.40    2.39
 -11  -5  -3   14.61    2.93
  10  -6  -3   38.83    2.54
 -10   6   3   39.44    3.43
 -10   6   3   30.12    4.63
   9  -6  -3   19.77    2.33
   9  -6  -3   17.12    1.63
   9  -6  -3   13.62    1.43
   9  -6  -3   17.79    1.93
  -9   6   3   14.88    3.00
  -9   6   3   15.73    2.05
   8  -6  -3   17.87    1.57
   8  -6  -3   15.31    1.67
   8  -6  -3   13.33    1.28
   8  -6  -3   16.35    2.07
  -8   6   3   17.27    2.01
  -8   6   3   13.17    2.59
   7  -6  -3   77.64    5.49
   7  -6  -3   77.50    4.14
   7  -6  -3   86.12    5.44
   7  -6  -3   85.38    4.07
  -7   6   3   82.71    7.14
  -7   6   3   85.33    5.57
   6  -6  -3   30.73    2.44
   6  -6  -3   35.53    2.69
   6  -6  -3   33.83    1.93
   6  -6  -3   34.76    1.99
  -6   6   3   29.86    3.43
  -6   6   3   33.92    2.66
   5  -6  -3   23.35    1.95
   5  -6  -3   21.50    1.46
   5  -6  -3   22.63    1.75
   5  -6  -3   23.22    1.12
   5  -6  -3   23.31    1.41
  -5   6   3   22.47    1.95
  -5   6   3   18.14    2.52
   4  -6  -3   98.63    4.63
   4  -6  -3   95.10    5.87
   4  -6  -3   96.58    4.33
   4  -6  -3   95.56    5.97
   4  -6  -3   96.80    3.92
  -4   6   3   86.03    7.52
  -4   6   3   96.35    5.97
   3  -6  -3    5.73    0.60
   3  -6  -3    5.53    0.67
   3  -6  -3    3.47    0.56
   3  -6  -3    5.37    0.82
   3  -6  -3    4.41    0.45
  -3   6   3    4.09    0.85
  -3   6   3    4.87    0.75
  -3   6   3    5.39    1.26
   2  -6  -3   85.76    3.70
   2  -6  -3   83.13    4.00
   2  -6  -3   82.28    5.05
   2  -6  -3   85.15    3.46
   2  -6  -3   80.75    5.13
  -2   6   3   78.44    5.11
  -2   6   3   92.19    5.42
  -2   6   3   80.43    5.83
   1  -6  -3  188.86    8.39
   1  -6  -3  183.34    7.78
   1  -6  -3  175.54    7.32
   1  -6  -3  178.62   10.77
  -1   6   3  182.09   13.42
  -1   6   3  191.96   11.21
  -1   6   3  184.81   10.77
   0  -6  -3    1.03    0.26
   0  -6  -3    0.91    0.18
   0  -6  -3    0.95    0.30
   0  -6  -3    0.57    0.29
   0   6   3    1.06    0.29
   0   6   3    0.92    0.48
   0   6   3    0.60    0.27
   0   6   3    0.69    0.36
  -1  -6  -3   67.54    3.03
  -1  -6  -3   70.80    4.34
  -1  -6  -3   75.12    5.07
  -1  -6  -3   69.10    4.35
  -1  -6  -3   74.68    3.43
   1   6   3   73.41    3.08
   1   6   3   75.22    4.35
   1   6   3   71.12    4.53
   1   6   3   70.87    4.60
  -2  -6  -3  227.04   12.62
  -2  -6  -3  221.11   12.61
  -2  -6  -3  215.49    9.79
   2   6   3  205.99   11.24
   2   6   3  210.21   13.26
   2   6   3  214.96   13.22
   2   6   3  226.64   12.63
   2   6   3  219.43    9.04
  -3  -6  -3   18.39    1.01
  -3  -6  -3   18.11    1.28
  -3  -6  -3   19.02    1.64
  -3  -6  -3   16.99    0.98
  -3  -6  -3   19.77    1.25
   3   6   3   13.29    1.32
   3   6   3   18.55    1.54
   3   6   3   17.11    1.40
   3   6   3   19.22    1.31
  -4  -6  -3    7.04    0.55
  -4  -6  -3    9.08    1.25
  -4  -6  -3    8.42    0.69
  -4  -6  -3    7.52    0.96
  -4  -6  -3    7.85    0.67
   4   6   3    7.53    0.42
   4   6   3   10.09    1.04
   4   6   3    6.38    0.97
  -5  -6  -3   57.92    4.22
  -5  -6  -3   67.99    2.87
  -5  -6  -3   69.22    4.87
  -5  -6  -3   69.89    3.10
   5   6   3   70.06    2.89
   5   6   3   60.58    3.81
  -6  -6  -3   35.84    1.72
  -6  -6  -3   35.55    2.42
  -6  -6  -3   36.33    2.97
   6   6   3   34.11    1.65
   6   6   3   33.48    2.36
  -7  -6  -3   13.47    1.16
  -7  -6  -3    9.62    1.54
   7   6   3   12.54    0.81
   7   6   3   15.64    1.61
  -8  -6  -3   43.94    3.00
  -8  -6  -3   44.14    3.75
   8   6   3   46.35    3.10
  -9  -6  -3   10.28    1.81
  -9  -6  -3   14.18    1.33
   9   6   3   12.30    1.64
 -10  -6  -3   24.32    2.02
 -10  -6  -3   23.25    2.78
  10   6   3   24.39    2.57
 -11  -6  -3   41.01    4.14
  11   6   3   44.48    3.54
   9  -7  -3    2.38    0.71
   9  -7  -3    1.54    1.04
   9  -7  -3    1.48    0.77
  -9   7   3    1.42    1.04
  -9   7   3    1.51    1.85
   8  -7  -3   52.03    3.86
   8  -7  -3   55.14    2.99
   8  -7  -3   50.62    2.98
   8  -7  -3   59.83    4.15
  -8   7   3   45.40    5.40
  -8   7   3   54.63    4.08
   7  -7  -3   60.46    3.11
   7  -7  -3   58.65    3.21
   7  -7  -3   66.27    4.35
   7  -7  -3   60.30    4.11
  -7   7   3   48.17    5.47
  -7   7   3   59.28    4.29
   6  -7  -3   18.57    1.35
   6  -7  -3   18.06    1.63
   6  -7  -3   16.94    1.82
   6  -7  -3   18.64    1.40
  -6   7   3   13.89    1.73
  -6   7   3   17.54    2.80
   5  -7  -3   56.38    3.86
   5  -7  -3   56.42    3.70
   5  -7  -3   55.66    2.77
   5  -7  -3   55.52    2.98
   5  -7  -3   59.63    2.43
  -5   7   3   46.83    5.01
  -5   7   3   54.31    3.84
   4  -7  -3   55.75    2.92
   4  -7  -3   55.44    2.70
   4  -7  -3   54.36    3.59
   4  -7  -3   58.63    2.44
   4  -7  -3   55.71    3.76
  -4   7   3   54.65    3.74
  -4   7   3   50.51    4.93
  -4   7   3   55.51    3.99
   3  -7  -3    0.27    0.30
   3  -7  -3    0.99    0.40
   3  -7  -3    0.75    0.30
   3  -7  -3    1.18    0.49
   3  -7  -3    0.63    0.34
  -3   7   3    1.49    0.55
  -3   7   3    1.86    0.65
  -3   7   3    1.73    1.02
   2  -7  -3   89.69    3.75
   2  -7  -3   89.82    3.98
   2  -7  -3   86.16    5.46
   2  -7  -3   83.19    5.52
   2  -7  -3   90.89    4.34
  -2   7   3  105.08    6.32
  -2   7   3   87.57    6.24
  -2   7   3   94.94    5.79
  -2   7   3   72.42    7.00
  -2   7   3   89.84    5.54
   1  -7  -3   24.42    1.48
   1  -7  -3   25.04    1.28
   1  -7  -3   24.73    1.27
   1  -7  -3   25.26    1.85
  -1   7   3   24.58    1.83
  -1   7   3   26.43    2.52
  -1   7   3   26.89    1.82
  -1   7   3   26.48    1.97
   0  -7  -3    7.17    0.47
   0  -7  -3    7.17    0.76
   0  -7  -3    6.83    0.60
   0  -7  -3    7.16    0.70
   0   7   3    5.00    0.79
   0   7   3    7.12    0.74
   0   7   3    8.23    1.20
   0   7   3    5.80    0.62
  -1  -7  -3   93.59    4.32
  -1  -7  -3   88.75    3.83
   1   7   3   91.47    5.50
   1   7   3   93.46    5.70
   1   7   3   89.33    5.80
  -2  -7  -3   73.33    3.15
  -2  -7  -3   77.19    4.47
  -2  -7  -3   70.07    3.47
  -2  -7  -3   76.90    4.47
   2   7   3   76.37    4.48
   2   7   3   71.32    4.65
   2   7   3   69.93    4.06
   2   7   3   71.63    3.10
   2   7   3   72.01    4.78
  -3  -7  -3    0.70    0.32
  -3  -7  -3    0.30    0.25
  -3  -7  -3    0.33    0.27
  -3  -7  -3    0.21    0.48
  -3  -7  -3    0.41    0.23
   3   7   3    1.49    0.47
   3   7   3   -0.07    0.29
   3   7   3    0.35    0.11
   3   7   3    0.35    0.40
  -4  -7  -3  150.16    8.41
  -4  -7  -3  140.07    5.70
  -4  -7  -3  133.15    9.41
  -4  -7  -3  140.96    6.33
   4   7   3  130.58    8.28
   4   7   3  145.86    5.82
   4   7   3  124.48    7.42
   4   7   3  144.42    8.79
  -5  -7  -3   94.96    6.94
  -5  -7  -3   98.56    4.54
   5   7   3   97.15    5.53
   5   7   3  104.09    4.22
   5   7   3   97.75    6.48
  -6  -7  -3    0.55    0.44
  -6  -7  -3    0.20    0.62
   6   7   3    0.36    0.48
   6   7   3   -0.05    0.19
  -7  -7  -3   39.31    3.31
  -7  -7  -3   39.03    2.66
   7   7   3   33.52    2.59
  -8  -7  -3   41.54    2.85
  -8  -7  -3   40.51    3.58
   8   7   3   39.45    2.91
  -9  -7  -3    3.00    0.71
  -9  -7  -3    3.81    1.29
   9   7   3    5.35    1.23
 -10  -7  -3   33.63    2.57
 -10  -7  -3   33.61    3.49
  10   7   3   35.16    2.95
   9  -8  -3   19.61    1.86
   9  -8  -3   26.45    1.94
   9  -8  -3   20.28    2.50
  -9   8   3   18.25    3.72
  -9   8   3   22.30    2.64
   8  -8  -3   36.51    3.09
   8  -8  -3   33.53    2.20
   8  -8  -3   33.76    2.21
  -8   8   3   26.11    4.25
  -8   8   3   36.45    3.11
   7  -8  -3    0.95    0.76
   7  -8  -3   -0.06    0.49
   7  -8  -3    0.52    0.59
   7  -8  -3    1.63    0.75
  -7   8   3    1.02    1.58
  -7   8   3   -0.63    0.98
  -7   8   3    0.79    0.84
   6  -8  -3   54.99    4.13
   6  -8  -3   61.81    3.22
   6  -8  -3   63.29    4.04
   6  -8  -3   57.78    2.99
  -6   8   3   57.44    4.40
  -6   8   3   49.12    5.55
  -6   8   3   59.65    4.19
   5  -8  -3   38.03    2.30
   5  -8  -3   38.19    2.13
   5  -8  -3   41.36    2.81
   5  -8  -3   38.73    2.97
  -5   8   3   33.91    4.06
  -5   8   3   41.72    3.02
  -5   8   3   38.31    3.11
   4  -8  -3    0.93    0.59
   4  -8  -3    0.89    0.44
   4  -8  -3    0.39    0.46
   4  -8  -3    0.64    0.31
  -4   8   3    0.64    0.36
  -4   8   3    0.55    1.17
  -4   8   3    0.96    0.64
  -4   8   3    0.54    0.54
   3  -8  -3  106.10    4.40
   3  -8  -3  106.19    4.72
   3  -8  -3  101.67    6.46
   3  -8  -3  102.15    5.10
   3  -8  -3   96.35    6.52
  -3   8   3  105.92    6.55
  -3   8   3  110.79    6.82
  -3   8   3  111.34    7.47
   2  -8  -3  115.52    5.07
   2  -8  -3  117.50    5.54
   2  -8  -3  115.03    4.79
   2  -8  -3  113.79    7.03
   2  -8  -3  112.40    7.07
  -2   8   3  109.98    9.01
  -2   8   3  119.52    7.34
  -2   8   3  119.48    7.08
   1  -8  -3   56.07    2.90
   1  -8  -3   58.67    2.53
   1  -8  -3   56.42    2.58
   1  -8  -3   52.19    3.64
  -1   8   3   56.71    3.81
  -1   8   3   54.15    3.58
  -1   8   3   60.93    4.79
  -1   8   3   57.55    3.66
   0  -8  -3   34.14    1.56
   0  -8  -3   30.69    1.61
   0  -8  -3   32.96    2.30
   0  -8  -3   31.46    1.82
   0   8   3   33.13    2.42
   0   8   3   32.44    2.18
   0   8   3   35.85    3.04
   0   8   3   32.12    2.26
  -1  -8  -3  132.10    6.21
  -1  -8  -3  141.84    9.35
  -1  -8  -3  133.53    5.52
   1   8   3  133.16    8.37
   1   8   3  127.31    8.21
   1   8   3  134.60    7.97
  -2  -8  -3   55.73    3.49
  -2  -8  -3   54.01    2.50
  -2  -8  -3   51.83    2.71
   2   8   3   58.07    3.52
   2   8   3   55.56    2.38
   2   8   3   56.93    3.79
   2   8   3   50.75    3.54
   2   8   3   56.36    3.22
  -3  -8  -3   31.48    1.56
  -3  -8  -3   29.70    2.53
  -3  -8  -3   28.98    1.60
  -3  -8  -3   31.21    2.10
   3   8   3   29.72    2.36
   3   8   3   27.59    1.97
   3   8   3   29.92    1.32
   3   8   3   29.68    2.21
  -4  -8  -3  113.20    6.85
  -4  -8  -3  108.01    4.68
  -4  -8  -3  113.75    5.15
  -4  -8  -3  110.16    7.76
   4   8   3  107.14    6.13
   4   8   3  107.90    7.20
   4   8   3  116.15    4.70
  -5  -8  -3    2.49    0.84
  -5  -8  -3    1.70    0.34
  -5  -8  -3    1.38    0.62
   5   8   3    2.89    0.71
   5   8   3    2.22    0.75
  -6  -8  -3   73.16    5.30
  -6  -8  -3   65.13    4.66
   6   8   3   69.65    4.20
  -7  -8  -3  132.47    7.72
  -7  -8  -3  122.52    8.79
   7   8   3  114.27    6.97
  -8  -8  -3    0.10    0.81
  -8  -8  -3    0.37    0.49
   8   8   3    0.21    0.67
  -9  -8  -3   34.32    2.73
  -9  -8  -3   40.68    3.71
   9   8   3   43.00    3.10
 -10  -8  -3   39.32    3.89
 -10  -8  -3   36.16    2.88
  10   8   3   47.13    3.43
   9  -9  -3   46.10    3.80
   9  -9  -3   43.31    2.74
   9  -9  -3   35.84    2.66
  -9   9   3   47.24    3.83
  -9   9   3   42.88    4.10
   8  -9  -3   16.42    1.59
   8  -9  -3   16.36    2.10
   8  -9  -3   16.29    1.62
  -8   9   3   10.36    2.97
  -8   9   3   16.61    2.13
  -8   9   3   16.91    2.40
   7  -9  -3   11.64    1.57
   7  -9  -3   10.83    1.74
   7  -9  -3    9.08    1.20
   7  -9  -3   11.55    1.27
  -7   9   3   10.09    2.72
  -7   9   3    9.65    1.64
  -7   9   3    7.51    1.63
   6  -9  -3   61.52    3.43
   6  -9  -3   64.26    4.48
   6  -9  -3   65.63    3.24
   6  -9  -3   63.00    4.28
  -6   9   3   48.58    5.92
  -6   9   3   65.57    4.50
  -6   9   3   62.89    4.60
   5  -9  -3   18.74    1.52
   5  -9  -3   20.35    1.74
   5  -9  -3   20.66    1.39
   5  -9  -3   20.26    1.97
  -5   9   3   14.19    2.86
  -5   9   3   20.14    2.02
  -5   9   3   19.20    1.92
   4  -9  -3    2.61    0.65
   4  -9  -3    3.10    0.83
   4  -9  -3    2.15    0.61
   4  -9  -3    2.74    0.54
  -4   9   3    2.98    0.88
  -4   9   3    1.90    0.73
  -4   9   3    0.60    1.26
   3  -9  -3  127.71    5.95
   3  -9  -3  120.96    5.44
   3  -9  -3  124.84    7.53
   3  -9  -3  117.01    7.58
   3  -9  -3  120.76    5.10
  -3   9   3  131.84    7.63
  -3   9   3  126.10    7.83
  -3   9   3  107.34    9.73
   2  -9  -3   78.06    3.41
   2  -9  -3   80.37    3.58
   2  -9  -3   79.34    3.95
   2  -9  -3   69.53    4.98
  -2   9   3   75.85    5.00
  -2   9   3   80.94    5.20
  -2   9   3   80.38    6.60
  -2   9   3   81.22    4.96
   1  -9  -3   67.74    4.49
   1  -9  -3   75.19    3.18
   1  -9  -3   66.96    3.52
   1  -9  -3   66.53    3.08
  -1   9   3   69.54    4.66
  -1   9   3   69.51    5.81
  -1   9   3   69.49    4.37
  -1   9   3   72.42    4.49
   0  -9  -3  154.60    7.40
   0  -9  -3  162.33    6.54
   0  -9  -3  162.04    9.54
   0   9   3  168.16   12.00
   0   9   3  154.48    9.68
   0   9   3  157.87    9.49
   0   9   3  155.38    9.87
  -1  -9  -3   95.45    5.70
  -1  -9  -3   87.45    3.95
  -1  -9  -3   97.14    4.46
   1   9   3   88.79    5.73
   1   9   3   93.69    5.67
   1   9   3   90.39    5.98
  -2  -9  -3   27.50    2.40
  -2  -9  -3   25.75    1.54
  -2  -9  -3   27.49    1.99
  -2  -9  -3   29.39    1.51
   2   9   3   23.40    2.15
   2   9   3   28.30    2.01
   2   9   3   26.36    1.87
  -3  -9  -3  175.86   10.30
  -3  -9  -3  170.22    7.93
  -3  -9  -3  176.35    7.13
  -3  -9  -3  166.46   11.67
   3   9   3  172.39    9.25
   3   9   3  181.30   10.47
   3   9   3  170.17   10.85
  -4  -9  -3   30.06    2.17
  -4  -9  -3   26.09    2.48
  -4  -9  -3   27.12    1.54
   4   9   3   27.17    2.01
   4   9   3   27.53    2.39
  -5  -9  -3   24.40    2.36
  -5  -9  -3   21.83    2.08
   5   9   3   22.31    2.19
   5   9   3   24.47    1.88
  -6  -9  -3   70.12    5.24
   6   9   3   63.45    4.09
  -7  -9  -3    5.28    1.07
  -7  -9  -3    3.67    1.15
   7   9   3    5.50    1.11
  -8  -9  -3   10.83    1.45
  -8  -9  -3   14.22    2.22
   8   9   3   10.47    1.57
  -9  -9  -3   54.39    4.72
  -9  -9  -3   50.37    3.68
   9   9   3   56.18    3.90
 -10  -9  -3   11.76    2.25
  10   9   3   14.53    2.20
   8 -10  -3    6.91    1.49
   8 -10  -3    3.85    0.89
   8 -10  -3    4.40    0.95
  -8  10   3    3.98    1.46
  -8  10   3    5.75    1.45
  -8  10   3    2.36    2.34
   7 -10  -3   36.12    2.45
   7 -10  -3   39.55    3.24
   7 -10  -3   34.97    2.27
  -7  10   3   24.74    4.55
  -7  10   3   41.86    3.31
  -7  10   3   37.34    3.25
   6 -10  -3   74.91    4.81
   6 -10  -3   69.07    3.83
   6 -10  -3   70.05    3.54
   6 -10  -3   73.74    5.00
  -6  10   3   70.45    4.95
  -6  10   3   56.20    6.58
  -6  10   3   67.54    5.01
   5 -10  -3    2.09    0.91
   5 -10  -3    1.15    0.62
   5 -10  -3    1.57    0.65
   5 -10  -3    0.67    0.50
  -5  10   3    1.13    0.82
  -5  10   3    0.94    0.79
  -5  10   3    1.87    1.61
   4 -10  -3   51.88    3.43
   4 -10  -3   51.37    2.88
   4 -10  -3   50.14    3.62
   4 -10  -3   48.64    2.53
  -4  10   3   42.20    4.89
  -4  10   3   50.80    3.60
  -4  10   3   46.48    3.61
   3 -10  -3  126.81    7.93
   3 -10  -3  125.29    6.18
   3 -10  -3  126.23    7.84
   3 -10  -3  130.03    5.67
  -3  10   3  127.85    8.12
  -3  10   3  112.29   10.12
  -3  10   3  135.57    7.94
   2 -10  -3    0.47    0.46
   2 -10  -3    0.53    0.49
   2 -10  -3    0.38    0.33
  -2  10   3    0.92    1.08
  -2  10   3    0.96    0.54
  -2  10   3    0.73    0.59
   1 -10  -3   74.62    3.83
   1 -10  -3   74.92    3.36
   1 -10  -3   76.72    3.43
   1 -10  -3   71.47    4.88
  -1  10   3   80.95    6.40
  -1  10   3   78.22    4.88
  -1  10   3   72.44    5.03
   0 -10  -3   45.75    2.56
   0 -10  -3   50.35    2.32
   0  10   3   48.03    3.44
   0  10   3   49.01    3.25
   0  10   3   49.95    4.34
   0  10   3   45.35    3.03
  -1 -10  -3   15.75    1.20
  -1 -10  -3   14.90    1.45
  -1 -10  -3   15.75    1.08
   1  10   3   19.01    1.70
   1  10   3   16.59    1.43
  -2 -10  -3  166.04    7.65
  -2 -10  -3  166.43   11.20
  -2 -10  -3  171.93    9.90
   2  10   3  164.12   10.36
   2  10   3  165.98    9.92
   2  10   3  153.91    8.83
  -3 -10  -3   49.81    4.02
  -3 -10  -3   48.87    3.44
  -3 -10  -3   54.54    2.67
   3  10   3   51.91    3.23
   3  10   3   51.64    3.78
  -4 -10  -3    6.67    0.71
  -4 -10  -3    7.61    1.13
  -4 -10  -3    6.97    1.35
   4  10   3    6.48    1.26
   4  10   3    5.81    0.97
  -5 -10  -3  100.08    7.20
  -5 -10  -3   92.15    6.41
   5  10   3   98.62    5.72
   5  10   3  103.62    6.75
  -6 -10  -3   58.93    4.59
  -6 -10  -3   45.46    4.01
   6  10   3   61.29    3.69
  -7 -10  -3    2.37    0.89
  -7 -10  -3    1.22    1.04
   7  10   3    2.30    0.89
  -8 -10  -3   21.80    2.92
  -8 -10  -3   23.62    2.25
   8  10   3   26.24    2.36
  -9 -10  -3   23.91    2.18
  -9 -10  -3   25.46    3.07
   9  10   3   24.54    2.79
   8 -11  -3    2.65    0.90
  -8  11   3    2.28    1.23
   7 -11  -3   34.70    2.19
   7 -11  -3   30.44    3.01
   7 -11  -3   35.93    2.40
  -7  11   3   32.83    3.08
  -7  11   3   34.06    3.13
  -7  11   3   23.86    4.45
   6 -11  -3    2.91    0.77
   6 -11  -3    4.40    1.13
   6 -11  -3    2.89    0.86
  -6  11   3    4.25    1.21
  -6  11   3    3.72    2.13
  -6  11   3    4.92    1.21
   5 -11  -3   23.21    1.64
   5 -11  -3   25.55    2.16
   5 -11  -3   21.77    1.87
   5 -11  -3   27.33    2.46
  -5  11   3   26.26    2.43
  -5  11   3   27.07    2.40
  -5  11   3   19.16    3.55
   4 -11  -3   79.18    4.15
   4 -11  -3   74.20    5.06
   4 -11  -3   79.21    5.29
   4 -11  -3   78.27    3.73
  -4  11   3   78.55    5.25
  -4  11   3   76.21    5.31
  -4  11   3   72.84    7.03
   3 -11  -3    8.65    1.38
   3 -11  -3   12.49    1.33
   3 -11  -3   13.46    1.10
   3 -11  -3   11.59    1.38
  -3  11   3   12.19    1.56
  -3  11   3   11.17    1.51
  -3  11   3   10.69    2.35
   2 -11  -3   85.55    3.90
   2 -11  -3   85.63    4.36
   2 -11  -3   76.30    5.50
  -2  11   3   97.15    7.40
  -2  11   3   80.92    5.65
  -2  11   3   85.40    5.52
   1 -11  -3   99.57    4.93
  -1  11   3  109.69    8.23
  -1  11   3   93.94    6.47
  -1  11   3   95.03    6.24
   0 -11  -3    3.09    0.63
   0 -11  -3    3.76    0.78
   0  11   3    3.56    1.22
   0  11   3    3.25    0.76
   0  11   3    3.07    0.84
  -1 -11  -3   21.47    1.53
  -1 -11  -3   23.92    2.00
  -1 -11  -3   24.47    2.33
   1  11   3   24.87    1.96
   1  11   3   25.31    2.19
  -2 -11  -3   76.01    4.96
  -2 -11  -3   70.80    5.65
  -2 -11  -3   79.66    3.86
   2  11   3   81.95    5.33
   2  11   3   76.04    4.54
  -3 -11  -3    1.33    0.49
  -3 -11  -3    0.77    0.53
  -3 -11  -3    1.94    0.85
   3  11   3    0.58    0.61
   3  11   3    1.12    0.76
  -4 -11  -3   35.16    2.72
  -4 -11  -3   34.29    3.16
   4  11   3   39.98    3.10
   4  11   3   33.68    2.54
  -5 -11  -3   41.79    3.34
  -5 -11  -3   43.49    3.74
   5  11   3   47.50    3.61
   5  11   3   39.54    2.98
  -6 -11  -3    7.16    1.47
  -6 -11  -3    6.57    1.52
   6  11   3    7.84    1.34
  -7 -11  -3   22.38    2.67
  -7 -11  -3   16.09    2.29
   7  11   3   22.56    2.12
  -8 -11  -3   53.64    4.17
  -8 -11  -3   59.56    5.02
   8  11   3   55.21    4.01
   7 -12  -3   28.96    2.90
   7 -12  -3   28.40    2.01
   7 -12  -3   28.28    2.25
  -7  12   3   27.45    2.90
  -7  12   3   24.80    2.73
   6 -12  -3    2.10    1.05
   6 -12  -3    2.54    0.88
   6 -12  -3    1.64    0.70
  -6  12   3    2.88    1.10
  -6  12   3    2.22    1.02
  -6  12   3    4.02    2.34
   5 -12  -3   54.26    3.29
   5 -12  -3   51.87    2.87
   5 -12  -3   52.16    4.11
  -5  12   3   57.65    4.14
  -5  12   3   51.55    4.05
  -5  12   3   54.05    5.83
   4 -12  -3   13.57    1.21
   4 -12  -3   12.88    1.44
   4 -12  -3   13.09    1.88
   4 -12  -3   11.11    1.48
  -4  12   3   13.18    1.80
  -4  12   3   11.80    1.67
  -4  12   3   11.78    2.75
   3 -12  -3   33.56    2.68
   3 -12  -3   30.41    2.11
   3 -12  -3   30.22    2.43
   3 -12  -3   29.03    1.75
  -3  12   3   30.47    3.79
  -3  12   3   27.65    2.53
  -3  12   3   27.57    2.54
   2 -12  -3   72.42    3.88
  -2  12   3   68.67    4.83
  -2  12   3   71.82    4.99
  -2  12   3   75.21    6.53
   1 -12  -3    7.06    1.02
   1 -12  -3   10.28    1.41
  -1  12   3   10.55    1.50
  -1  12   3    8.99    1.30
  -1  12   3    8.47    1.94
   0 -12  -3   13.06    1.31
   0 -12  -3   15.10    1.62
   0  12   3   13.31    1.48
   0  12   3   17.54    2.54
   0  12   3   15.72    1.85
  -1 -12  -3   67.23    5.11
  -1 -12  -3   68.94    4.53
  -1 -12  -3   65.73    3.49
   1  12   3   65.08    4.74
  -2 -12  -3   65.28    4.47
  -2 -12  -3   68.10    3.47
  -2 -12  -3   63.97    5.11
   2  12   3   65.86    4.11
   2  12   3   69.22    4.81
  -3 -12  -3    0.53    0.47
  -3 -12  -3    0.73    0.54
  -3 -12  -3    0.46    0.79
   3  12   3   -0.13    0.64
   3  12   3    1.26    0.70
  -4 -12  -3   37.03    2.90
  -4 -12  -3   35.15    3.35
   4  12   3   38.72    3.22
   4  12   3   35.87    2.71
  -5 -12  -3   44.82    3.49
  -5 -12  -3   43.76    3.91
   5  12   3   40.84    3.10
  -6 -12  -3    0.02    0.88
  -6 -12  -3    0.19    0.73
   6  12   3    1.23    0.84
  -7 -12  -3   30.73    3.24
  -7 -12  -3   44.63    3.97
   7  12   3   38.97    3.08
  -8 -12  -3   20.76    2.59
  -8 -12  -3   20.13    2.84
   8  12   3   23.20    2.66
   6 -13  -3   60.70    3.68
   6 -13  -3   57.10    4.58
   6 -13  -3   59.27    3.26
  -6  13   3   62.89    4.63
  -6  13   3   52.02    6.52
   5 -13  -3   57.14    3.55
   5 -13  -3   61.15    3.19
   5 -13  -3   63.42    4.61
  -5  13   3   53.87    6.31
  -5  13   3   59.26    4.47
  -5  13   3   59.03    4.50
   4 -13  -3   -0.23    0.71
   4 -13  -3    0.88    0.78
   4 -13  -3    0.60    0.53
  -4  13   3   -0.49    1.50
  -4  13   3    0.15    0.75
  -4  13   3    0.01    0.78
   3 -13  -3   40.23    3.09
   3 -13  -3   39.99    2.57
  -3  13   3   39.14    4.49
  -3  13   3   40.02    3.16
  -3  13   3   33.22    3.10
   2 -13  -3   47.60    2.96
   2 -13  -3   51.27    3.81
  -2  13   3   48.02    3.69
  -2  13   3   50.49    3.83
  -2  13   3   52.99    5.23
   1 -13  -3    2.52    0.87
   1 -13  -3    1.36    0.67
  -1  13   3    1.77    0.88
  -1  13   3    1.21    0.66
  -1  13   3    2.65    1.49
   0 -13  -3   24.37    2.51
   0 -13  -3   24.47    2.28
   0 -13  -3   25.45    1.83
   0  13   3   25.25    2.39
  -1 -13  -3   50.39    4.32
  -1 -13  -3   54.09    3.01
  -1 -13  -3   54.48    3.87
   1  13   3   55.03    4.08
  -2 -13  -3    4.77    0.82
  -2 -13  -3    5.56    1.36
  -2 -13  -3    6.47    1.18
   2  13   3    5.46    1.24
   2  13   3    4.38    1.09
  -3 -13  -3   67.14    5.35
  -3 -13  -3   68.25    4.66
   3  13   3   67.78    4.99
   3  13   3   65.98    4.31
  -4 -13  -3   70.51    5.49
  -4 -13  -3   62.58    4.70
   4  13   3   70.04    5.11
   4  13   3   68.45    4.41
  -5 -13  -3    3.70    1.06
  -5 -13  -3    3.06    1.26
   5  13   3    4.33    1.09
  -6 -13  -3   37.63    3.66
  -6 -13  -3   30.59    3.12
  -7 -13  -3   54.77    4.70
  -7 -13  -3   36.81    3.88
   7  13   3   55.94    3.88
   5 -14  -3    1.77    0.71
   5 -14  -3    3.42    1.11
  -5  14   3    1.27    0.95
  -5  14   3    0.26    1.97
   4 -14  -3   17.78    1.84
  -4  14   3   16.14    3.36
  -4  14   3   17.20    2.16
  -4  14   3   17.65    2.27
   3 -14  -3   64.17    3.71
   3 -14  -3   64.61    4.71
  -3  14   3   59.17    4.61
  -3  14   3   69.17    6.47
  -3  14   3   60.62    4.60
   2 -14  -3   22.08    2.43
   2 -14  -3   21.70    2.35
   2 -14  -3   21.29    1.92
  -2  14   3   21.96    2.33
  -2  14   3   22.18    3.46
   1 -14  -3    6.83    1.43
   1 -14  -3    8.71    1.56
   1 -14  -3    6.53    1.07
  -1  14   3    6.56    1.97
  -1  14   3    7.59    1.41
   0 -14  -3   60.61    4.34
   0 -14  -3   63.03    3.39
   0 -14  -3   56.59    4.75
   0  14   3   56.26    4.44
  -1 -14  -3   44.96    3.89
  -1 -14  -3   50.39    3.56
  -1 -14  -3   41.82    2.65
   1  14   3   45.79    3.23
   1  14   3   39.26    3.53
  -2 -14  -3   12.44    1.30
  -2 -14  -3   10.60    1.87
  -2 -14  -3   12.45    1.72
   2  14   3   13.15    1.91
   2  14   3    9.62    1.60
  -3 -14  -3   63.47    5.17
  -3 -14  -3   58.32    4.45
   3  14   3   65.81    4.25
   3  14   3   64.12    4.84
  -4 -14  -3    5.41    1.23
  -4 -14  -3    4.61    1.44
   4  14   3    4.40    1.25
   4  14   3    5.16    1.35
  -5 -14  -3   22.29    2.45
  -5 -14  -3   22.74    3.10
   5  14   3   23.77    2.57
  -6 -14  -3   55.20    5.01
   3 -15  -3   17.37    2.27
   3 -15  -3   16.75    1.85
  -3  15   3   16.72    3.22
   2 -15  -3    0.35    0.76
   2 -15  -3    0.64    0.90
  -2  15   3   -0.05    0.86
  -2  15   3   -0.09    1.49
   1 -15  -3   44.78    3.52
   1 -15  -3   37.89    3.63
   1 -15  -3   37.15    2.61
  -1  15   3   40.72    3.42
   0 -15  -3   47.20    4.22
   0 -15  -3   51.19    3.90
   0 -15  -3   47.54    2.98
   0  15   3   48.58    3.94
  -1 -15  -3    2.90    1.23
  -1 -15  -3    3.25    1.11
  -1 -15  -3    3.49    0.88
   1  15   3    3.63    1.21
   1  15   3    3.85    1.13
  -2 -15  -3   65.00    5.41
  -2 -15  -3   69.71    4.83
   2  15   3   67.73    5.02
   2  15   3   58.84    4.37
  -3 -15  -3   25.61    3.12
  -3 -15  -3   31.27    2.83
   3  15   3   32.10    2.77
   3  15   3   32.70    3.09
  -4 -15  -3    1.06    1.23
  -4 -15  -3    0.97    0.83
   4  15   3    1.35    1.01
   4  15   3    0.42    0.97
  -2 -13   4   37.91    3.77
  -2 -13   4   34.84    3.66
  -1 -13   4    5.49    1.62
   0  13  -4   14.31    2.33
   0  13  -4   18.04    3.67
   0 -13   4   18.79    2.65
  -1  13  -4   28.72    3.05
  -1  13  -4   29.71    4.63
   1 -13   4   27.30    3.02
  -2  13  -4   -0.36    1.97
  -2  13  -4    0.43    0.89
   2 -13   4   -0.84    1.00
  -3  13  -4   52.89    6.01
  -3  13  -4   44.91    3.84
   3 -13   4   44.49    3.89
   3 -13   4   38.87    4.27
   4  12  -4    1.73    1.29
   4  12  -4    1.00    1.16
  -4 -12   4    3.98    1.48
  -4 -12   4    0.55    1.40
   3  12  -4   26.35    3.44
   3  12  -4   43.35    4.25
  -3 -12   4   41.62    3.83
  -3 -12   4   33.93    3.61
   2  12  -4    3.40    1.51
   2  12  -4    3.04    1.38
  -2 -12   4    4.58    1.48
  -2 -12   4    5.67    1.53
   1  12  -4   35.05    3.98
   1  12  -4   27.98    3.19
  -1 -12   4   35.88    3.30
  -1 -12   4   37.15    3.45
   0  12  -4   72.67    6.75
   0  12  -4   56.78    4.74
   0 -12   4   55.89    4.66
  -1  12  -4    7.25    1.60
  -1  12  -4    7.21    2.69
   1 -12   4    5.90    1.47
  -2  12  -4   21.08    2.63
  -2  12  -4   29.52    4.52
   2 -12   4   19.84    2.43
  -3  12  -4   45.59    5.20
  -3  12  -4   36.91    3.34
   3 -12   4   38.08    3.44
  -4  12  -4    4.38    2.28
  -4  12  -4    3.43    1.07
   4 -12   4    3.69    1.41
   4 -12   4    0.31    1.41
  -5  12  -4    8.48    2.98
  -5  12  -4   12.23    1.87
   5 -12   4    6.74    2.04
   5 -12   4   10.51    1.88
   5  11  -4    0.33    0.94
  -5 -11   4   -0.60    0.91
  -5 -11   4    1.03    1.39
   4  11  -4   53.32    4.84
   4  11  -4   38.86    3.64
  -4 -11   4   40.25    4.02
  -4 -11   4   48.13    4.26
   3  11  -4   17.79    2.65
   3  11  -4   21.43    2.99
  -3 -11   4   20.52    2.63
  -3 -11   4   14.51    2.26
   2  11  -4    4.03    1.30
   2  11  -4    4.41    1.57
  -2 -11   4    3.24    1.25
  -2 -11   4    2.85    1.30
   1  11  -4   55.29    5.29
   1  11  -4   52.57    4.39
  -1 -11   4   56.14    4.41
  -1 -11   4   56.61    4.47
   0  11  -4   15.31    2.79
   0  11  -4   17.36    3.45
   0  11  -4   17.98    2.24
   0 -11   4   13.19    1.92
   0 -11   4   18.75    2.02
  -1  11  -4    9.10    2.25
  -1  11  -4   15.07    2.10
  -1  11  -4   15.59    3.10
   1 -11   4   15.14    2.06
  -2  11  -4   55.72    5.75
  -2  11  -4   48.94    3.85
  -2  11  -4   47.93    4.92
   2 -11   4   45.88    3.80
  -3  11  -4   32.63    3.11
  -3  11  -4   51.21    5.16
  -3  11  -4   41.11    4.28
   3 -11   4   37.65    3.29
  -4  11  -4    0.90    0.85
  -4  11  -4    2.64    2.10
   4 -11   4    0.96    1.03
   4 -11   4   -0.18    1.19
  -5  11  -4   19.76    3.76
  -5  11  -4   23.29    2.32
   5 -11   4   19.03    2.93
   5 -11   4   20.27    2.39
  -6  11  -4   41.85    3.41
  -6  11  -4   38.49    5.25
   6 -11   4   36.67    3.88
   6 -11   4   41.00    3.57
   6  10  -4   -0.20    0.83
  -6 -10   4    0.44    1.06
  -6 -10   4   -0.43    1.31
   5  10  -4   59.13    5.35
   5  10  -4   43.61    3.96
  -5 -10   4   62.12    4.96
  -5 -10   4   55.34    4.61
   4  10  -4   64.90    5.42
   4  10  -4   45.25    3.99
  -4 -10   4   51.88    4.48
  -4 -10   4   59.77    4.82
   3  10  -4    2.86    1.31
   3  10  -4    2.61    1.00
  -3 -10   4    2.42    1.19
  -3 -10   4    1.74    1.05
   2  10  -4   49.18    4.44
   2  10  -4   68.99    5.65
  -2 -10   4   59.89    4.73
  -2 -10   4   62.67    4.63
   1  10  -4   90.93    7.79
   1  10  -4  110.47    8.69
   1  10  -4   84.04    6.40
  -1 -10   4  100.03    6.46
  -1 -10   4   89.16    6.72
   0  10  -4    3.24    1.09
   0  10  -4    6.60    2.22
   0  10  -4    2.55    1.45
   0 -10   4    3.87    1.01
   0 -10   4    2.44    0.96
  -1  10  -4    9.15    2.18
  -1  10  -4   14.52    2.96
  -1  10  -4   13.28    1.73
   1 -10   4   11.66    1.65
   1 -10   4   11.09    1.50
  -2  10  -4   83.54    6.69
  -2  10  -4   81.54    7.28
  -2  10  -4   71.81    5.18
   2 -10   4   68.26    5.12
  -3  10  -4    1.58    1.29
  -3  10  -4    1.69    0.73
  -3  10  -4    2.42    1.92
   3 -10   4    1.80    0.93
  -4  10  -4   36.56    2.95
  -4  10  -4   34.16    3.71
  -4  10  -4   39.15    4.57
   4 -10   4   28.37    3.31
   4 -10   4   38.78    3.05
  -5  10  -4   60.13    4.24
  -5  10  -4   47.65    5.82
   5 -10   4   61.41    4.34
   5 -10   4   57.34    4.75
  -6  10  -4    5.97    1.57
  -6  10  -4    2.68    2.14
  -6  10  -4    6.40    1.28
   6 -10   4    7.06    1.49
   6 -10   4    5.91    1.67
  -7  10  -4   34.11    2.92
  -7  10  -4   24.57    4.27
   7 -10   4   33.38    3.46
   7   9  -4    9.90    1.86
  -7  -9   4   12.73    2.17
  -7  -9   4    7.92    2.03
   6   9  -4   12.29    1.91
  -6  -9   4   15.54    2.50
  -6  -9   4   22.39    2.79
   5   9  -4   58.92    5.16
   5   9  -4   45.33    3.79
  -5  -9   4   52.37    4.61
  -5  -9   4   56.64    4.46
   4   9  -4    4.97    1.34
   4   9  -4    6.84    1.78
   4   9  -4    8.16    1.52
  -4  -9   4    6.04    1.46
  -4  -9   4    5.85    1.40
   3   9  -4   24.40    2.51
   3   9  -4   24.98    2.94
  -3  -9   4   21.86    2.68
  -3  -9   4   23.62    2.51
   2   9  -4   68.76    5.44
   2   9  -4   50.71    4.30
  -2  -9   4   59.11    4.38
  -2  -9   4   55.37    4.48
   1   9  -4   25.58    2.52
   1   9  -4   33.59    3.88
   1   9  -4   24.00    3.10
  -1  -9   4   28.80    2.57
  -1  -9   4   25.07    2.45
   0   9  -4    8.04    2.02
   0   9  -4   17.00    3.02
   0   9  -4   12.26    1.68
   0  -9   4   10.18    1.45
   0  -9   4   14.02    1.83
  -1   9  -4  125.61    9.57
  -1   9  -4  107.56    7.18
  -1   9  -4  111.34    8.97
   1  -9   4  103.65    7.56
   1  -9   4  114.58    7.17
  -2   9  -4   81.38    6.87
  -2   9  -4   79.10    6.21
  -2   9  -4   68.15    4.84
   2  -9   4   66.34    4.95
   2  -9   4   67.43    4.80
  -3   9  -4    2.50    1.61
  -3   9  -4    2.45    0.79
  -3   9  -4    2.29    1.24
   3  -9   4    2.61    0.72
   3  -9   4    2.05    0.86
  -4   9  -4   97.02    8.75
  -4   9  -4  100.66    6.53
   4  -9   4  103.65    5.13
   4  -9   4   90.22    6.99
   4  -9   4  109.57    6.62
  -5   9  -4   35.47    3.69
  -5   9  -4   41.56    3.11
  -5   9  -4   32.30    4.46
   5  -9   4   41.41    3.17
   5  -9   4   41.35    3.60
  -6   9  -4    9.76    1.84
  -6   9  -4   11.05    1.51
  -6   9  -4    6.57    2.42
   6  -9   4   10.29    1.62
   6  -9   4   12.82    2.12
  -7   9  -4   73.45    8.02
  -7   9  -4   88.62    5.98
   7  -9   4  100.70    6.57
  -8   9  -4   10.49    3.01
  -8   9  -4   17.54    2.02
  -8   9  -4   13.11    2.22
   8  -9   4   13.26    2.26
  -8  -8   4   22.34    3.40
  -8  -8   4   31.14    3.64
   7   8  -4    3.25    1.16
  -7  -8   4    4.23    1.80
  -7  -8   4    4.37    1.64
   6   8  -4   37.30    3.30
  -6  -8   4   59.21    4.28
  -6  -8   4   43.46    4.19
   5   8  -4   39.61    4.01
   5   8  -4   48.98    3.67
   5   8  -4   31.76    2.91
  -5  -8   4   39.01    3.67
  -5  -8   4   41.34    3.56
   4   8  -4    4.78    1.20
   4   8  -4    7.50    1.68
   4   8  -4    6.25    1.30
  -4  -8   4    4.46    1.21
  -4  -8   4    6.55    1.45
   3   8  -4   38.12    3.13
   3   8  -4   43.42    3.78
  -3  -8   4   27.93    2.94
  -3  -8   4   34.00    3.14
   2   8  -4   47.02    4.10
   2   8  -4   33.46    3.16
  -2  -8   4   40.23    3.33
  -2  -8   4   42.25    3.28
   1   8  -4   -0.14    0.98
   1   8  -4    0.83    0.66
   1   8  -4   -0.03    0.94
  -1  -8   4   -0.11    0.63
  -1  -8   4   -0.06    0.59
   0   8  -4   79.86    5.21
   0   8  -4   86.49    6.96
   0   8  -4   63.73    6.30
   0  -8   4   70.86    5.35
   0  -8   4   83.18    5.17
  -1   8  -4   72.84    5.98
  -1   8  -4   74.51    6.33
  -1   8  -4   72.05    4.72
   1  -8   4   64.94    4.60
   1  -8   4   64.26    4.82
  -2   8  -4    1.62    1.36
  -2   8  -4    1.39    1.08
  -2   8  -4    0.63    0.53
   2  -8   4    0.93    0.52
   2  -8   4    1.20    0.66
  -3   8  -4  150.62   12.04
  -3   8  -4  155.09    9.25
   3  -8   4  145.68    7.14
   3  -8   4  148.95    9.21
  -4   8  -4   84.44    5.34
  -4   8  -4   70.99    6.40
  -4   8  -4   71.47    7.09
   4  -8   4   91.16    5.41
   4  -8   4   78.75    5.80
   4  -8   4   86.54    4.22
  -5   8  -4   -0.42    0.69
  -5   8  -4   -0.55    1.27
  -5   8  -4    0.74    0.59
   5  -8   4    0.41    0.73
   5  -8   4   -0.93    0.81
   5  -8   4    0.75    0.58
  -6   8  -4   38.98    3.04
  -6   8  -4   34.60    4.40
  -6   8  -4   40.11    3.66
   6  -8   4   41.60    3.16
   6  -8   4   36.73    3.40
  -7   8  -4   40.99    3.89
  -7   8  -4   43.18    3.27
  -7   8  -4   34.26    4.49
   7  -8   4   46.07    3.44
   7  -8   4   40.84    3.60
  -8   8  -4    0.71    1.00
  -8   8  -4    0.45    0.73
  -8   8  -4    1.00    1.53
   8  -8   4    2.51    0.80
   8  -8   4   -0.69    0.91
  -9   8  -4   12.43    1.76
  -9   8  -4   13.09    3.06
  -9   8  -4   13.71    2.23
   9  -8   4   12.01    2.16
   9  -8   4   14.45    1.48
   8   7  -4    1.40    0.76
  -8  -7   4    1.95    1.41
  -8  -7   4    0.69    1.56
   7   7  -4    7.43    1.45
  -7  -7   4   10.80    2.12
  -7  -7   4   13.04    2.40
   6   7  -4   20.19    2.29
  -6  -7   4   24.26    3.05
  -6  -7   4   20.11    2.55
   5   7  -4   10.78    1.56
   5   7  -4   11.97    1.80
   5   7  -4   11.49    2.03
  -5  -7   4   11.62    1.89
  -5  -7   4    8.43    1.75
   4   7  -4   26.61    2.37
   4   7  -4   31.24    3.23
   4   7  -4   37.21    2.94
  -4  -7   4   29.79    2.89
  -4  -7   4   29.74    2.79
   3   7  -4  100.15    6.82
   3   7  -4  120.08    8.26
  -3  -7   4  108.67    7.34
  -3  -7   4   83.57    6.65
   2   7  -4   27.57    2.82
   2   7  -4   18.03    2.09
  -2  -7   4   24.84    2.22
  -2  -7   4   23.54    2.19
   1   7  -4   25.20    3.12
   1   7  -4   26.36    2.98
   1   7  -4   22.61    2.23
  -1  -7   4   27.87    2.31
  -1  -7   4   29.05    2.33
   0   7  -4  126.08   10.71
   0   7  -4  156.52   11.33
   0   7  -4  145.65    8.81
   0  -7   4  137.11    9.45
   0  -7   4  144.13    8.73
  -1   7  -4   13.34    1.42
  -1   7  -4   13.87    2.38
  -1   7  -4   14.51    2.22
   1  -7   4   13.33    1.33
   1  -7   4   11.39    1.41
  -2   7  -4   27.72    1.97
  -2   7  -4   33.34    2.39
  -2   7  -4   29.65    3.49
  -2   7  -4   28.33    2.98
   2  -7   4   30.36    2.28
   2  -7   4   31.67    2.37
  -3   7  -4   44.10    4.71
  -3   7  -4   37.93    4.10
  -3   7  -4   52.29    3.47
   3  -7   4   53.93    3.49
   3  -7   4   55.06    3.45
   3  -7   4   50.25    2.71
  -4   7  -4    0.50    0.50
  -4   7  -4    0.21    1.12
  -4   7  -4    0.84    0.73
   4  -7   4   -0.02    0.68
   4  -7   4   -0.16    0.50
   4  -7   4    0.46    0.61
  -5   7  -4   34.41    4.11
  -5   7  -4   41.16    3.55
  -5   7  -4   36.27    2.84
   5  -7   4   42.28    2.98
   5  -7   4   39.25    3.29
  -6   7  -4   28.53    2.70
  -6   7  -4   18.74    3.12
  -6   7  -4   24.97    2.16
   6  -7   4   25.36    2.25
   6  -7   4   25.15    2.54
  -7   7  -4    6.73    1.18
  -7   7  -4    5.53    1.33
  -7   7  -4    4.09    1.78
   7  -7   4    5.52    1.16
   7  -7   4    4.68    0.79
   7  -7   4    5.14    1.43
  -8   7  -4   19.49    2.06
  -8   7  -4   19.91    3.39
  -8   7  -4   19.42    2.48
   8  -7   4   23.58    2.78
   8  -7   4   20.64    1.64
  -9   7  -4   24.21    2.86
  -9   7  -4   17.50    3.28
  -9   7  -4   21.37    2.25
   9  -7   4   26.59    3.16
   9  -7   4   23.70    1.80
 -10   7  -4    6.91    2.53
 -10   7  -4    6.91    1.72
 -10   7  -4    6.91    1.37
  10  -7   4    6.54    1.75
  10  -7   4    7.20    1.17
   9   6  -4   10.81    1.30
  -9  -6   4    7.31    2.15
  -9  -6   4    6.72    1.93
   8   6  -4   -0.10    0.55
  -8  -6   4    0.42    1.41
  -8  -6   4    0.62    1.25
   7   6  -4   17.10    2.07
  -7  -6   4   24.56    3.05
  -7  -6   4   20.27    2.85
   6   6  -4   29.11    2.47
   6   6  -4   31.68    3.06
  -6  -6   4   32.56    3.32
  -6  -6   4   39.75    3.38
   5   6  -4    0.32    0.79
   5   6  -4   -0.09    0.52
   5   6  -4    1.05    0.81
  -5  -6   4    0.02    0.78
  -5  -6   4    0.84    0.87
   4   6  -4   54.58    3.74
   4   6  -4   59.77    5.10
   4   6  -4   70.16    4.56
  -4  -6   4   58.97    4.42
  -4  -6   4   58.49    4.67
   3   6  -4   59.58    4.70
   3   6  -4   57.06    3.99
  -3  -6   4   52.79    4.11
  -3  -6   4   44.18    3.80
   2   6  -4   17.07    1.84
   2   6  -4   23.58    2.47
  -2  -6   4   18.72    1.89
  -2  -6   4   18.85    1.87
   1   6  -4  146.06   11.63
   1   6  -4  179.00   12.23
   1   6  -4  145.67    9.55
  -1  -6   4  156.01   10.40
  -1  -6   4  153.70    9.51
   0   6  -4   98.82    7.47
   0   6  -4   85.78    7.11
   0   6  -4   92.78    5.74
   0  -6   4   76.83    5.50
   0  -6   4   94.18    5.69
   0  -6   4   91.57    6.10
  -1   6  -4   13.16    1.31
  -1   6  -4   12.76    1.92
  -1   6  -4   18.26    2.54
   1  -6   4   12.26    1.28
   1  -6   4   10.66    1.18
   1  -6   4   11.59    0.85
  -2   6  -4  101.54    8.32
  -2   6  -4   98.23    6.19
  -2   6  -4  102.29    6.38
   2  -6   4  109.31    6.82
   2  -6   4  100.74    6.34
  -3   6  -4   33.00    4.08
  -3   6  -4   44.03    2.72
  -3   6  -4   48.05    3.07
  -3   6  -4   37.49    3.65
   3  -6   4   48.46    3.01
   3  -6   4   44.56    3.04
  -4   6  -4    3.40    1.42
  -4   6  -4    4.78    1.01
  -4   6  -4    3.39    0.71
   4  -6   4    3.73    1.05
   4  -6   4    3.54    0.65
   4  -6   4    2.87    0.72
  -5   6  -4   26.03    2.06
  -5   6  -4   25.41    2.51
  -5   6  -4   26.10    3.09
   5  -6   4   26.15    2.40
   5  -6   4   25.14    2.11
  -6   6  -4   12.53    1.74
  -6   6  -4   10.41    2.11
  -6   6  -4   12.76    1.46
   6  -6   4   13.11    1.53
   6  -6   4   12.78    1.87
   6  -6   4   13.16    1.16
  -7   6  -4    9.31    1.57
  -7   6  -4    7.81    1.18
  -7   6  -4    6.07    1.82
   7  -6   4    6.42    0.88
   7  -6   4    7.33    1.51
   7  -6   4    7.80    1.25
  -8   6  -4   45.63    4.92
  -8   6  -4   47.87    3.54
   8  -6   4   47.60    3.93
   8  -6   4   51.19    2.71
  -9   6  -4   14.66    1.85
  -9   6  -4   18.01    2.47
  -9   6  -4   17.26    3.07
   9  -6   4   21.06    2.63
   9  -6   4   14.88    1.46
 -10   6  -4    0.62    0.78
 -10   6  -4   -0.21    0.97
 -10   6  -4   -0.39    1.40
  10  -6   4    0.79    1.17
  10  -6   4    0.10    0.75
   9   5  -4   -0.26    0.54
  -9  -5   4   -1.78    1.10
  -9  -5   4    0.35    1.52
   8   5  -4   43.72    2.54
  -8  -5   4   42.47    4.28
  -8  -5   4   39.98    4.03
   7   5  -4   71.57    3.70
   7   5  -4   68.02    4.49
  -7  -5   4   74.21    5.64
  -7  -5   4   75.15    5.94
   6   5  -4    2.16    0.74
   6   5  -4    2.40    0.97
  -6  -5   4    3.02    1.22
  -6  -5   4    1.61    1.18
   5   5  -4   83.94    6.06
   5   5  -4   91.26    7.05
   5   5  -4   81.21    5.11
  -5  -5   4   86.58    6.55
  -5  -5   4  101.73    6.29
   4   5  -4  168.21    9.70
   4   5  -4  149.42   11.26
   4   5  -4  136.02    8.20
  -4  -5   4  146.69   10.40
  -4  -5   4  162.97    9.65
   3   5  -4    1.83    0.85
   3   5  -4    1.82    0.73
  -3  -5   4    0.95    0.67
  -3  -5   4    0.88    0.73
   2   5  -4   72.19    5.27
   2   5  -4   90.48    6.49
  -2  -5   4   74.40    5.23
  -2  -5   4   84.36    5.71
   1   5  -4   36.41    2.87
   1   5  -4   38.95    3.67
   1   5  -4   43.02    3.90
  -1  -5   4   38.76    2.85
  -1  -5   4   40.39    3.02
   0   5  -4    0.40    0.47
   0   5  -4    0.30    0.88
   0   5  -4    0.78    0.85
   0  -5   4    0.46    0.46
   0  -5   4    0.22    0.45
  -1   5  -4   77.25    5.06
  -1   5  -4   82.84    6.62
  -1   5  -4   74.88    6.26
   1  -5   4   80.51    5.05
   1  -5   4   80.83    4.95
   1  -5   4   83.66    5.44
  -2   5  -4   78.35    4.78
  -2   5  -4   58.70    6.12
   2  -5   4   77.39    4.67
   2  -5   4   84.36    5.07
   2  -5   4   72.31    4.73
  -3   5  -4   -0.04    0.14
  -3   5  -4   -0.20    0.82
  -3   5  -4    0.11    0.50
  -3   5  -4    0.46    0.36
   3  -5   4    0.00    0.37
   3  -5   4    0.53    0.25
   3  -5   4    0.62    0.71
  -4   5  -4   71.06    5.35
  -4   5  -4   66.78    4.37
  -4   5  -4   67.35    5.79
  -4   5  -4   67.97    4.17
   4  -5   4   67.22    4.38
   4  -5   4   73.02    4.79
  -5   5  -4  173.58   10.74
  -5   5  -4  169.80   13.60
  -5   5  -4  176.12   10.79
  -5   5  -4  186.25   13.00
   5  -5   4  181.29    7.86
   5  -5   4  186.45   10.78
   5  -5   4  189.05   11.24
  -6   5  -4   19.39    2.46
  -6   5  -4   17.93    1.96
  -6   5  -4   16.18    1.57
   6  -5   4   16.67    1.63
   6  -5   4   17.12    1.81
   6  -5   4   19.70    1.29
  -7   5  -4   36.22    2.75
  -7   5  -4   33.58    3.70
  -7   5  -4   39.17    3.39
   7  -5   4   37.95    3.12
   7  -5   4   37.52    2.12
  -8   5  -4  126.82    9.71
  -8   5  -4  123.77    8.00
  -8   5  -4  126.95   10.36
   8  -5   4  131.22    5.95
   8  -5   4  134.35    8.52
  -9   5  -4    3.45    1.22
  -9   5  -4    3.92    1.75
  -9   5  -4    4.58    1.04
   9  -5   4    4.65    1.33
   9  -5   4    3.12    0.81
 -10   5  -4   30.85    2.75
 -10   5  -4   33.10    3.53
 -10   5  -4   32.94    4.19
  10  -5   4   35.11    3.34
  10  -5   4   34.64    2.22
   9   4  -4    5.74    0.98
  -9  -4   4    3.99    1.61
  -9  -4   4    7.22    2.13
   8   4  -4   57.33    2.99
  -8  -4   4   46.02    4.44
  -8  -4   4   53.68    4.86
   7   4  -4   17.41    1.44
   7   4  -4   15.15    1.96
   7   4  -4   16.05    1.73
  -7  -4   4   13.36    2.31
  -7  -4   4   10.89    2.02
   6   4  -4   42.26    3.46
   6   4  -4   41.11    2.84
  -6  -4   4   44.62    3.75
  -6  -4   4   43.39    3.82
   5   4  -4  113.99    8.82
   5   4  -4  138.48    7.66
   5   4  -4  145.83   10.54
  -5  -4   4  141.94    9.81
  -5  -4   4  168.01    9.28
   4   4  -4    9.26    1.57
   4   4  -4    9.39    1.14
   4   4  -4   12.18    1.70
  -4  -4   4   12.37    1.67
  -4  -4   4   12.16    1.71
   3   4  -4   74.23    4.77
   3   4  -4   69.29    5.47
  -3  -4   4   67.88    5.01
  -3  -4   4   62.82    4.64
   2   4  -4  175.14   12.20
   2   4  -4  155.21   10.13
  -2  -4   4  167.79   11.10
   1   4  -4   30.23    2.98
   1   4  -4   25.42    2.21
   1   4  -4   27.62    2.84
  -1  -4   4   32.94    2.38
  -1  -4   4   28.36    2.20
   0   4  -4   37.81    3.33
   0   4  -4   33.61    2.46
   0   4  -4   33.70    3.18
   0  -4   4   33.98    2.57
   0  -4   4   32.96    2.42
  -1   4  -4  142.92    8.64
  -1   4  -4  134.73   10.90
   1  -4   4  150.07    9.45
   1  -4   4  145.26    8.81
   1  -4   4  145.88    8.64
   1  -4   4  143.51    8.62
  -2   4  -4   23.07    2.25
  -2   4  -4   17.70    2.38
  -2   4  -4   26.86    1.84
   2  -4   4   24.87    1.67
   2  -4   4   25.86    1.83
   2  -4   4   26.77    1.80
  -3   4  -4   34.80    2.40
  -3   4  -4   37.90    3.00
  -3   4  -4   33.12    3.25
   3  -4   4   35.43    2.72
   3  -4   4   34.27    2.40
   3  -4   4   35.87    2.36
  -4   4  -4  206.59   15.57
  -4   4  -4  205.07   12.37
  -4   4  -4  223.44   14.98
  -4   4  -4  208.19   12.49
   4  -4   4  200.42    9.01
   4  -4   4  220.16   12.86
   4  -4   4  211.47   12.37
  -5   4  -4   51.88    3.49
  -5   4  -4   54.34    4.28
  -5   4  -4   52.70    4.60
   5  -4   4   51.00    2.59
   5  -4   4   56.54    3.84
   5  -4   4   55.25    3.53
  -6   4  -4   59.02    5.14
  -6   4  -4   61.02    4.80
  -6   4  -4   59.82    3.93
   6  -4   4   60.53    2.94
   6  -4   4   59.39    4.23
  -7   4  -4  195.51   13.89
  -7   4  -4  186.06   11.45
  -7   4  -4  187.18   14.48
   7  -4   4  197.50   11.97
   7  -4   4  192.22    8.43
  -8   4  -4   47.97    4.27
  -8   4  -4   45.84    4.60
  -8   4  -4   49.78    3.47
   8  -4   4   52.72    3.89
   8  -4   4   50.22    2.66
  -9   4  -4   17.76    2.82
  -9   4  -4   19.54    2.37
  -9   4  -4   17.06    1.78
   9  -4   4   19.67    1.51
   9  -4   4   18.99    2.49
 -10   4  -4   58.15    4.94
 -10   4  -4   51.10    3.82
 -10   4  -4   53.26    5.37
  10  -4   4   52.31    2.96
  10  -4   4   52.57    4.36
 -11   4  -4   16.97    3.12
 -11   4  -4   16.69    2.62
 -11   4  -4   15.03    1.86
  11  -4   4   15.80    1.58
  11  -4   4   15.87    2.44
  10   3  -4    0.86    0.65
 -10  -3   4    2.02    1.33
 -10  -3   4    1.34    1.57
   9   3  -4   46.66    2.72
  -9  -3   4   41.06    4.46
  -9  -3   4   53.53    4.37
   8   3  -4   67.49    3.35
  -8  -3   4   54.64    5.25
  -8  -3   4   65.52    5.05
   7   3  -4    3.51    0.71
   7   3  -4    3.24    0.81
   7   3  -4    3.48    1.05
  -7  -3   4    1.30    1.09
  -7  -3   4    1.69    1.13
   6   3  -4   43.43    3.25
   6   3  -4   38.45    2.61
  -6  -3   4   43.08    3.65
  -6  -3   4   33.86    3.34
   5   3  -4   35.50    2.94
   5   3  -4   38.31    2.38
   5   3  -4   37.72    3.35
  -5  -3   4   33.51    3.08
  -5  -3   4   36.02    3.20
   4   3  -4    8.43    0.48
   4   3  -4    7.43    0.46
   4   3  -4    8.33    0.95
   4   3  -4    6.45    1.20
   4   3  -4    5.77    1.16
  -4  -3   4    6.98    1.29
  -4  -3   4    6.54    1.24
   3   3  -4  132.59    6.83
   3   3  -4  122.71    8.03
   3   3  -4  127.98    9.44
  -3  -3   4  123.85    8.73
  -3  -3   4  132.81    8.08
   2   3  -4   23.48    2.23
   2   3  -4   20.55    1.87
  -2  -3   4   19.15    1.82
  -2  -3   4   23.04    1.96
   1   3  -4   10.63    1.63
   1   3  -4   11.65    1.37
   1   3  -4   10.44    1.64
  -1  -3   4    9.48    1.20
  -1  -3   4   12.47    1.20
   0   3  -4  263.24   16.89
   0   3  -4  300.71   20.57
   0   3  -4  316.79   21.07
   0  -3   4  294.56   18.73
   0  -3   4  275.65   16.87
  -1   3  -4  219.41   18.63
  -1   3  -4  263.19   15.01
   1  -3   4  265.68   15.22
   1  -3   4  258.97   16.58
   1  -3   4  268.80   15.00
   1  -3   4  264.12   15.58
  -2   3  -4    0.97    0.34
  -2   3  -4    0.30    0.42
  -2   3  -4    0.50    0.52
  -2   3  -4    0.42    0.20
   2  -3   4   -0.01    0.22
   2  -3   4    0.55    0.26
   2  -3   4    0.32    0.30
  -3   3  -4  255.70   14.99
  -3   3  -4  251.42   18.73
  -3   3  -4  264.76   18.12
   3  -3   4  255.55   14.98
   3  -3   4  261.99   15.49
   3  -3   4  258.30   15.65
  -4   3  -4  151.46   11.05
  -4   3  -4  141.32    8.72
  -4   3  -4  149.43   10.60
   4  -3   4  152.98    9.12
   4  -3   4  146.27    6.39
   4  -3   4  145.55    8.73
  -5   3  -4    0.37    0.34
  -5   3  -4    1.09    0.65
  -5   3  -4    0.57    0.46
   5  -3   4    0.29    0.51
   5  -3   4    0.62    0.35
  -6   3  -4   85.27    6.87
  -6   3  -4   83.04    6.50
  -6   3  -4   87.07    5.35
   6  -3   4   91.17    5.71
   6  -3   4   83.59    3.95
  -7   3  -4   40.60    2.88
  -7   3  -4   39.21    3.86
   7  -3   4   43.49    2.91
   7  -3   4   42.14    3.24
   7  -3   4   41.99    2.22
  -8   3  -4   13.42    1.42
  -8   3  -4   13.21    2.15
   8  -3   4   16.33    1.32
   8  -3   4   15.06    1.94
  -9   3  -4   57.81    5.35
  -9   3  -4   52.73    3.89
   9  -3   4   58.64    3.01
   9  -3   4   61.87    4.48
 -10   3  -4   25.82    3.27
 -10   3  -4   24.39    2.20
  10  -3   4   27.62    2.79
  10  -3   4   24.23    1.78
 -11   3  -4    1.72    0.79
 -11   3  -4    1.69    1.47
  11  -3   4    0.21    1.15
  11  -3   4    1.29    0.72
  10   2  -4   24.30    1.82
 -10  -2   4   14.52    2.90
 -10  -2   4   18.26    3.26
 -10  -2   4   23.07    2.85
   9   2  -4   24.45    1.80
  -9  -2   4   28.95    2.97
  -9  -2   4   21.26    3.27
   8   2  -4    0.64    0.73
   8   2  -4    0.82    0.56
  -8  -2   4   -0.65    0.86
  -8  -2   4    0.85    1.23
   7   2  -4   52.32    3.77
   7   2  -4   48.66    2.66
  -7  -2   4   44.42    4.28
  -7  -2   4   55.79    4.13
   6   2  -4   63.34    3.06
   6   2  -4   56.35    3.57
   6   2  -4   64.75    4.32
  -6  -2   4   59.75    4.84
  -6  -2   4   58.99    4.51
   5   2  -4    7.41    1.35
   5   2  -4    8.99    1.28
   5   2  -4    9.87    1.06
  -5  -2   4    9.77    1.60
  -5  -2   4    9.11    1.57
   4   2  -4   45.29    3.39
   4   2  -4   47.75    2.18
   4   2  -4   49.32    2.74
   4   2  -4   45.68    3.87
  -4  -2   4   48.36    3.74
  -4  -2   4   42.69    3.49
   3   2  -4   66.45    5.10
   3   2  -4   55.41    4.34
   3   2  -4   68.12    3.61
  -3  -2   4   66.37    4.78
  -3  -2   4   70.50    4.52
   2   2  -4   79.76    5.90
   2   2  -4   75.58    5.02
  -2  -2   4   74.74    5.00
  -2  -2   4   78.04    5.41
   1   2  -4   45.78    3.80
   1   2  -4   48.97    3.17
   1   2  -4   38.22    3.72
  -1  -2   4   42.21    3.08
  -1  -2   4   54.17    3.39
   0   2  -4  252.83   16.41
   0   2  -4  316.19   20.41
   0   2  -4  296.20   19.97
   0  -2   4  263.60   16.39
   0  -2   4  283.61   18.23
  -1   2  -4   27.16    1.91
  -1   2  -4   21.08    2.31
  -1   2  -4   33.23    2.08
   1  -2   4   28.28    1.71
   1  -2   4   24.42    2.02
   1  -2   4   30.29    1.95
   1  -2   4   29.50    1.92
  -2   2  -4  128.78    9.60
  -2   2  -4  133.02    8.35
  -2   2  -4  126.87    9.27
  -2   2  -4  126.79    7.65
   2  -2   4  131.37    8.42
   2  -2   4  130.06    7.65
   2  -2   4  129.67    7.95
  -3   2  -4  366.88   25.04
  -3   2  -4  368.35   25.78
  -3   2  -4  344.90   20.72
   3  -2   4  372.61   21.30
   3  -2   4  357.49   21.74
   3  -2   4  350.94   20.71
  -4   2  -4   20.71    1.92
  -4   2  -4   18.70    1.75
  -4   2  -4   17.39    1.35
   4  -2   4   19.04    1.60
   4  -2   4   19.09    1.06
   4  -2   4   18.11    1.36
  -5   2  -4  112.62    8.66
  -5   2  -4  111.93    6.83
  -5   2  -4  113.61    8.34
   5  -2   4  120.65    7.20
   5  -2   4  113.26    5.04
  -6   2  -4  124.90    7.56
  -6   2  -4  123.09    9.58
   6  -2   4  128.70    7.55
   6  -2   4  125.43    7.95
   6  -2   4  127.49    5.59
  -7   2  -4    1.03    0.78
  -7   2  -4    0.46    0.41
   7  -2   4    1.12    0.68
   7  -2   4    0.85    0.47
   7  -2   4    0.29    0.38
  -8   2  -4   14.62    2.27
  -8   2  -4   15.12    1.43
   8  -2   4   14.89    1.89
   8  -2   4   17.69    1.26
  -9   2  -4   22.69    2.95
  -9   2  -4   25.57    2.03
   9  -2   4   24.99    1.62
   9  -2   4   23.20    2.45
 -10   2  -4    0.13    0.53
 -10   2  -4    0.36    1.30
  10  -2   4    0.58    0.96
  10  -2   4    0.38    0.57
 -11   2  -4   12.51    2.65
 -11   2  -4   12.11    1.58
  11  -2   4   13.06    2.21
  11  -2   4   11.99    1.30
  10   1  -4   20.90    1.87
 -10  -1   4   15.52    3.16
 -10  -1   4   31.18    3.00
 -10  -1   4   22.62    3.33
   9   1  -4    9.49    1.16
  -9  -1   4    7.96    2.17
  -9  -1   4    3.77    1.75
  -9  -1   4    9.56    1.76
   8   1  -4    3.26    0.95
   8   1  -4    5.34    0.86
  -8  -1   4    2.80    1.41
  -8  -1   4    3.87    1.20
   7   1  -4   62.77    3.23
   7   1  -4   74.22    4.57
  -7  -1   4   51.72    5.06
  -7  -1   4   67.55    4.74
   6   1  -4   11.03    1.07
   6   1  -4   10.38    1.12
   6   1  -4    9.49    1.38
  -6  -1   4   10.67    1.81
  -6  -1   4   10.98    1.61
   5   1  -4   31.68    2.03
   5   1  -4   31.27    2.51
   5   1  -4   33.48    1.56
  -5  -1   4   31.33    2.93
  -5  -1   4   32.19    2.72
   4   1  -4  213.56   10.73
   4   1  -4  198.48   14.79
   4   1  -4  212.86    9.26
   4   1  -4  223.65   12.50
  -4  -1   4  195.74   12.55
  -4  -1   4  201.14   13.89
   3   1  -4  161.47    6.96
   3   1  -4  164.58    8.00
   3   1  -4  152.44    9.39
   3   1  -4  159.07   11.12
  -3  -1   4  131.12    9.39
  -3  -1   4  154.98   10.43
   2   1  -4   72.41    5.00
   2   1  -4   55.23    4.18
  -2  -1   4   64.81    4.63
  -2  -1   4   66.74    4.30
   1   1  -4  182.18   10.55
   1   1  -4  181.76   12.66
  -1  -1   4  165.57   11.60
  -1  -1   4  176.70   10.53
   0   1  -4  337.70   20.00
   0   1  -4  266.38   16.44
   0  -1   4  264.93   16.42
   0  -1   4  265.71   18.26
  -1   1  -4   12.81    1.41
  -1   1  -4   15.34    1.17
  -1   1  -4   14.12    1.48
  -1   1  -4   15.11    1.29
  -1   1  -4   18.35    1.24
   1  -1   4   15.67    1.31
   1  -1   4   16.41    1.18
   1  -1   4   16.98    1.24
  -2   1  -4  166.45    9.87
  -2   1  -4  172.88   12.29
  -2   1  -4  173.76   11.97
  -2   1  -4  171.76    9.88
   2  -1   4  160.46   10.34
   2  -1   4  172.98   10.18
   2  -1   4  169.64    9.87
  -3   1  -4   16.74    1.17
  -3   1  -4   16.80    1.19
  -3   1  -4   18.43    1.61
  -3   1  -4   17.51    1.52
  -3   1  -4   15.77    1.07
   3  -1   4   16.16    1.28
   3  -1   4   16.20    1.17
   3  -1   4   17.12    1.35
  -4   1  -4   43.90    2.67
  -4   1  -4   44.13    3.47
  -4   1  -4   41.49    2.63
  -4   1  -4   41.01    3.29
   4  -1   4   41.41    1.97
   4  -1   4   42.62    2.87
   4  -1   4   40.75    2.86
   4  -1   4   41.03    2.62
  -5   1  -4  116.00    6.57
  -5   1  -4  107.55    8.28
  -5   1  -4  115.02    6.54
  -5   1  -4   99.51    7.13
   5  -1   4  111.81    4.83
   5  -1   4  110.02    6.87
  -6   1  -4   34.49    2.16
  -6   1  -4   30.66    2.89
  -6   1  -4   27.66    2.28
   6  -1   4   31.17    1.66
   6  -1   4   34.03    2.48
   6  -1   4   31.46    2.12
  -7   1  -4   13.15    1.95
  -7   1  -4   12.27    1.16
   7  -1   4   12.95    1.16
   7  -1   4   14.39    1.01
   7  -1   4   13.87    1.66
  -8   1  -4  105.81    8.38
  -8   1  -4  105.54    6.45
   8  -1   4  102.04    4.79
   8  -1   4  106.58    6.95
  -9   1  -4   52.01    3.54
  -9   1  -4   55.11    4.93
   9  -1   4   49.58    2.69
   9  -1   4   53.86    4.05
 -10   1  -4    0.76    0.55
 -10   1  -4    1.22    1.25
  10  -1   4   -0.12    0.53
  10  -1   4    0.98    0.98
 -11   1  -4   35.76    2.88
 -11   1  -4   39.06    4.34
  11  -1   4   38.28    3.60
  11  -1   4   38.44    2.33
  10   0  -4   22.40    1.95
 -10   0   4   18.92    3.44
 -10   0   4   24.93    3.44
 -10   0   4   27.00    2.85
   9   0  -4    1.66    0.63
  -9   0   4   -1.13    1.18
  -9   0   4   -0.29    1.14
  -9   0   4    0.16    0.93
   8   0  -4   40.85    2.32
   8   0  -4   44.71    3.20
  -8   0   4   30.19    3.66
  -8   0   4   41.07    3.35
  -8   0   4   37.55    4.05
   7   0  -4  112.71    7.29
   7   0  -4  109.16    5.30
  -7   0   4  122.99    7.53
   6   0  -4    0.59    0.43
   6   0  -4    1.04    0.25
   6   0  -4    0.79    0.59
  -6   0   4    0.14    0.59
  -6   0   4    0.54    0.91
   5   0  -4   70.96    4.40
   5   0  -4   65.65    3.06
   5   0  -4   63.93    3.64
   5   0  -4   66.70    3.16
  -5   0   4   53.30    4.93
  -5   0   4   74.70    4.57
   4   0  -4  168.22    9.82
   4   0  -4  167.13    7.31
   4   0  -4  170.17    8.42
   4   0  -4  158.68   11.66
  -4   0   4  169.62    9.93
  -4   0   4  139.81   10.97
   3   0  -4    1.59    0.30
   3   0  -4    2.31    0.58
   3   0  -4    1.94    0.27
   3   0  -4    1.68    0.56
  -3   0   4    1.77    0.56
  -3   0   4    1.15    0.67
   2   0  -4  224.31   10.78
   2   0  -4  227.75    9.55
   2   0  -4  214.51   12.56
   2   0  -4  216.16   14.98
  -2   0   4  189.93   13.99
  -2   0   4  199.81   12.58
   1   0  -4  291.86   17.77
   1   0  -4  237.77   14.72
  -1   0   4  234.33   14.74
  -1   0   4  240.53   16.43
  -1   0   4  254.99   17.89
   0   0  -4    5.41    0.75
   0   0  -4    5.66    0.94
   0   0  -4    5.38    0.76
   0   0  -4    5.40    0.78
   0   0   4    5.14    0.77
   0   0   4    4.08    0.75
   0   0   4    4.67    0.69
  -1   0  -4  496.50   34.25
  -1   0  -4  429.43   27.76
  -1   0  -4  458.61   33.44
  -1   0  -4  487.08   27.83
   1   0   4  522.93   31.03
   1   0   4  490.71   29.17
   1   0   4  497.96   28.61
   1   0   4  493.00   34.30
  -2   0  -4   98.49    5.87
  -2   0  -4   98.01    6.40
  -2   0  -4   96.04    5.77
  -2   0  -4  101.88    5.78
  -2   0  -4  100.20    7.05
  -2   0  -4  100.12    7.20
   2   0   4   95.48    5.89
   2   0   4   96.28    5.78
   2   0   4   99.82    5.97
   2   0   4   98.19    6.11
  -3   0  -4   19.09    1.29
  -3   0  -4   20.12    1.31
  -3   0  -4   20.35    1.32
  -3   0  -4   19.73    1.75
  -3   0  -4   20.28    1.71
   3   0   4   20.14    1.30
   3   0   4   18.11    1.47
   3   0   4   20.53    1.48
  -4   0  -4  129.69    7.66
  -4   0  -4  130.81    8.49
  -4   0  -4  136.10    7.69
  -4   0  -4  131.94    9.68
   4   0   4  133.49    7.64
   4   0   4  132.56    8.22
   4   0   4  125.92    5.63
   4   0   4  131.48    8.01
  -5   0  -4   98.52    5.57
  -5   0  -4   96.23    5.59
  -5   0  -4   95.59    6.17
  -5   0  -4   88.62    7.10
   5   0   4   91.63    4.12
   5   0   4   89.46    5.89
  -6   0  -4    0.85    0.31
  -6   0  -4    0.90    0.42
  -6   0  -4    0.97    0.34
  -6   0  -4   -0.14    0.47
   6   0   4    0.66    0.31
   6   0   4    0.52    0.31
   6   0   4    1.20    0.56
  -7   0  -4   38.59    3.06
  -7   0  -4   40.12    3.64
  -7   0  -4   38.72    2.64
   7   0   4   39.58    2.03
   7   0   4   42.46    2.70
   7   0   4   41.26    3.06
  -8   0  -4   78.00    4.99
  -8   0  -4   81.20    6.61
   8   0   4   80.68    3.77
   8   0   4   82.64    5.51
  -9   0  -4    1.20    1.09
  -9   0  -4    0.31    0.43
   9   0   4    0.48    0.44
   9   0   4    0.41    0.81
 -10   0  -4   54.83    5.31
 -10   0  -4   59.21    3.89
  10   0   4   56.51    2.96
  10   0   4   58.43    4.50
 -11   0  -4   66.54    6.19
 -11   0  -4   62.90    4.41
  11   0   4   69.10    5.17
  11   0   4   65.51    3.39
  10  -1  -4    5.90    1.04
 -10   1   4    2.15    1.76
 -10   1   4    4.97    1.45
 -10   1   4    3.22    1.77
   9  -1  -4   22.47    1.74
  -9   1   4   21.65    3.19
  -9   1   4   26.08    2.62
  -9   1   4   23.95    3.19
   8  -1  -4   98.92    6.30
   8  -1  -4   90.33    4.59
  -8   1   4   99.85    7.45
  -8   1   4   90.87    7.90
  -8   1   4   95.62    6.43
   7  -1  -4   17.36    1.83
   7  -1  -4   20.30    1.37
  -7   1   4   21.52    2.77
  -7   1   4   17.86    2.38
  -7   1   4   19.47    2.02
   6  -1  -4   51.01    2.62
   6  -1  -4   50.82    2.48
   6  -1  -4   54.06    3.60
  -6   1   4   53.01    3.69
  -6   1   4   44.80    4.23
   5  -1  -4  186.79    8.23
   5  -1  -4  184.78   10.94
   5  -1  -4  188.01    7.97
  -5   1   4  161.94   12.40
  -5   1   4  187.33   11.03
   4  -1  -4   67.56    3.18
   4  -1  -4   68.53    3.21
   4  -1  -4   68.19    4.39
  -4   1   4   73.17    4.50
  -4   1   4   64.09    5.14
   3  -1  -4   36.01    2.93
   3  -1  -4   36.27    1.80
   3  -1  -4   38.39    2.54
  -3   1   4   37.07    2.58
  -3   1   4   35.71    3.05
   2  -1  -4  220.28   15.65
   2  -1  -4  214.05   10.00
   2  -1  -4  227.62   13.10
  -2   1   4  226.70   14.80
  -2   1   4  230.70   13.14
   1  -1  -4    1.18    0.38
   1  -1  -4    0.71    0.39
  -1   1   4    0.76    0.23
  -1   1   4    0.90    0.34
  -1   1   4    0.78    0.49
   0  -1  -4   77.35    4.90
   0  -1  -4   81.66    5.89
   0  -1  -4   83.52    4.95
   0  -1  -4   83.96    6.03
   0  -1  -4   85.76    4.23
   0   1   4   75.25    5.87
   0   1   4   85.61    5.59
   0   1   4   80.81    4.93
  -1  -1  -4  266.64   16.72
  -1  -1  -4  271.80   16.73
  -1  -1  -4  295.62   20.12
  -1  -1  -4  306.42   20.52
   1   1   4  308.73   17.23
   1   1   4  301.68   16.95
   1   1   4  298.40   17.58
   1   1   4  310.77   20.54
   1   1   4  246.62   16.69
  -2  -1  -4    1.28    0.23
  -2  -1  -4    0.84    0.21
  -2  -1  -4    0.66    0.19
  -2  -1  -4    0.99    0.30
  -2  -1  -4    0.95    0.31
   2   1   4    0.80    0.26
   2   1   4    0.85    0.31
   2   1   4    0.85    0.23
  -3  -1  -4  170.75    9.65
  -3  -1  -4  173.41    9.66
  -3  -1  -4  167.24   12.10
   3   1   4  166.78   10.32
   3   1   4  159.31    9.99
   3   1   4  168.94   10.09
  -4  -1  -4  187.85   10.43
  -4  -1  -4  177.68   10.40
  -4  -1  -4  180.71   11.69
  -4  -1  -4  178.42   13.11
   4   1   4  180.37    7.64
   4   1   4  182.04   11.17
   4   1   4  177.22   10.83
  -5  -1  -4   76.56    5.19
  -5  -1  -4   79.74    4.62
  -5  -1  -4   78.35    4.60
  -5  -1  -4   79.46    6.01
   5   1   4   76.35    3.43
   5   1   4   74.06    4.94
  -6  -1  -4   21.16    1.46
  -6  -1  -4   21.01    1.47
  -6  -1  -4   23.14    2.18
  -6  -1  -4   20.93    1.71
   6   1   4   20.12    1.17
   6   1   4   19.59    1.79
  -7  -1  -4  118.08    7.42
  -7  -1  -4  104.86    8.40
  -7  -1  -4  106.24    6.49
   7   1   4  106.16    6.98
   7   1   4  107.59    4.83
  -8  -1  -4   35.62    2.85
  -8  -1  -4   33.46    3.33
  -8  -1  -4   32.42    2.29
   8   1   4   31.54    2.71
   8   1   4   34.39    1.82
  -9  -1  -4   16.32    1.42
  -9  -1  -4   18.09    2.58
   9   1   4   17.74    2.17
   9   1   4   13.76    1.19
 -10  -1  -4   45.80    4.46
 -10  -1  -4   41.33    2.99
  10   1   4   43.55    2.35
  10   1   4   41.27    3.59
 -11  -1  -4    1.62    1.33
 -11  -1  -4    3.30    0.82
  11   1   4    3.14    0.73
  11   1   4    3.82    1.40
  10  -2  -4    0.62    0.69
 -10   2   4   -0.48    0.92
 -10   2   4   -0.51    1.49
 -10   2   4    0.77    1.46
   9  -2  -4   49.99    3.00
   9  -2  -4   53.86    4.13
  -9   2   4   46.74    5.16
  -9   2   4   59.51    5.12
  -9   2   4   61.05    4.32
   8  -2  -4   15.70    1.50
   8  -2  -4   19.37    1.94
  -8   2   4   21.10    2.93
  -8   2   4   19.41    2.80
  -8   2   4   15.60    2.00
   7  -2  -4   11.58    1.13
   7  -2  -4   12.39    0.88
   7  -2  -4   10.96    1.46
  -7   2   4   13.39    2.10
  -7   2   4   13.65    1.75
  -7   2   4   11.77    2.12
   6  -2  -4   78.25    3.87
   6  -2  -4   79.10    3.87
   6  -2  -4   80.61    5.30
  -6   2   4   83.92    5.38
  -6   2   4   88.07    6.40
  -6   2   4   82.71    6.59
   5  -2  -4   13.18    1.34
   5  -2  -4   13.22    1.21
   5  -2  -4   13.66    0.90
   5  -2  -4   12.85    0.98
  -5   2   4   14.02    1.42
  -5   2   4   14.75    1.68
  -5   2   4   13.76    1.96
   4  -2  -4   14.56    0.92
   4  -2  -4   15.69    1.00
   4  -2  -4   14.25    1.19
   4  -2  -4   14.82    1.35
  -4   2   4   15.83    1.59
  -4   2   4   17.29    2.14
  -4   2   4   14.62    1.38
  -4   2   4   15.50    0.90
   3  -2  -4  130.04    8.19
   3  -2  -4  134.61    5.96
   3  -2  -4  137.33    6.25
   3  -2  -4  132.88    9.77
  -3   2   4  141.94    8.26
  -3   2   4  141.51    9.48
  -3   2   4  143.35    9.99
   2  -2  -4  107.04    7.75
   2  -2  -4  109.15    6.53
   2  -2  -4  109.38    4.99
  -2   2   4  108.99    6.55
  -2   2   4  117.51    7.86
  -2   2   4  112.34    6.48
  -2   2   4   95.41    7.45
   1  -2  -4    0.42    0.31
   1  -2  -4    0.18    0.17
   1  -2  -4    0.70    0.26
  -1   2   4    0.49    0.15
  -1   2   4    0.63    0.15
  -1   2   4    0.77    0.29
  -1   2   4    0.21    0.43
   0  -2  -4   67.41    3.35
   0  -2  -4   68.48    3.91
   0  -2  -4   67.56    3.90
   0  -2  -4   57.24    4.76
   0  -2  -4   65.94    3.07
   0   2   4   65.69    3.80
   0   2   4   53.94    4.74
   0   2   4   66.10    4.13
   0   2   4   65.90    3.89
   0   2   4   67.06    3.35
  -1  -2  -4  187.92   11.20
  -1  -2  -4  196.96   13.76
  -1  -2  -4  199.50   11.21
  -1  -2  -4  188.79   11.34
  -1  -2  -4  197.23   13.52
   1   2   4  187.93   11.36
   1   2   4  193.13    9.90
   1   2   4  201.58   11.87
   1   2   4  198.09   11.64
  -2  -2  -4    0.44    0.24
  -2  -2  -4    0.41    0.18
  -2  -2  -4    0.76    0.14
  -2  -2  -4    0.49    0.18
  -2  -2  -4    0.45    0.24
   2   2   4    0.16    0.20
   2   2   4    0.27    0.22
   2   2   4    0.36    0.25
   2   2   4    0.23    0.23
  -3  -2  -4   51.04    2.96
  -3  -2  -4   52.04    2.96
  -3  -2  -4   54.49    2.24
   3   2   4   49.82    2.85
   3   2   4   47.82    3.25
   3   2   4   48.73    3.23
   3   2   4   52.82    3.38
  -4  -2  -4  136.58    7.74
  -4  -2  -4  140.28    8.84
  -4  -2  -4  140.03    7.75
   4   2   4  129.25    8.14
   4   2   4  126.18    7.08
   4   2   4  132.32    8.42
   4   2   4  135.28    5.70
  -5  -2  -4   14.73    1.03
  -5  -2  -4   16.29    1.35
  -5  -2  -4   15.15    1.64
  -5  -2  -4   15.65    1.05
   5   2   4   16.14    0.85
   5   2   4   14.47    1.36
   5   2   4   14.70    1.22
  -6  -2  -4  180.96   10.75
  -6  -2  -4  183.65   13.69
  -6  -2  -4  187.74    7.30
  -6  -2  -4  184.21   10.78
  -6  -2  -4  188.17   12.18
   6   2   4  186.96   11.32
   6   2   4  179.49    9.82
   6   2   4  192.69    7.93
  -7  -2  -4   59.23    4.21
  -7  -2  -4   58.35    2.38
  -7  -2  -4   56.37    3.58
  -7  -2  -4   63.36    4.94
   7   2   4   53.62    4.02
   7   2   4   58.01    2.73
  -8  -2  -4    7.55    0.86
  -8  -2  -4    8.60    1.29
  -8  -2  -4    8.92    1.68
   8   2   4    8.92    0.82
   8   2   4    9.29    1.39
  -9  -2  -4  112.83    7.73
  -9  -2  -4  104.96    8.71
  -9  -2  -4  106.64    6.58
   9   2   4  107.00    4.91
   9   2   4  109.20    7.23
 -10  -2  -4   23.37    3.04
 -10  -2  -4   24.82    1.92
  10   2   4   22.98    2.52
  10   2   4   22.89    1.53
 -11  -2  -4    2.32    0.71
 -11  -2  -4    1.02    1.30
  11   2   4    3.16    1.32
  11   2   4    2.39    0.68
  10  -3  -4   34.82    2.33
 -10   3   4   32.38    3.18
 -10   3   4   25.46    4.07
 -10   3   4   39.41    4.10
   9  -3  -4   44.28    2.66
   9  -3  -4   45.27    3.58
  -9   3   4   48.35    4.50
  -9   3   4   37.61    4.58
  -9   3   4   47.42    3.73
   8  -3  -4    3.20    0.87
   8  -3  -4    2.62    0.87
   8  -3  -4    2.33    0.70
  -8   3   4    1.04    1.15
  -8   3   4    1.35    1.35
  -8   3   4    1.86    0.97
   7  -3  -4   34.50    2.75
   7  -3  -4   30.13    1.96
   7  -3  -4   33.31    1.88
   7  -3  -4   34.82    2.60
  -7   3   4   40.32    3.70
  -7   3   4   35.95    3.57
  -7   3   4   33.22    2.78
   6  -3  -4   43.34    2.29
   6  -3  -4   43.77    3.19
   6  -3  -4   44.70    3.07
   6  -3  -4   44.40    2.36
  -6   3   4   46.31    4.04
  -6   3   4   41.08    3.19
  -6   3   4   46.35    4.01
   5  -3  -4    1.27    0.40
   5  -3  -4    1.27    0.36
   5  -3  -4    1.41    0.52
   5  -3  -4    1.63    0.49
  -5   3   4    0.74    0.52
  -5   3   4    1.84    1.09
  -5   3   4    1.31    0.68
   4  -3  -4   45.10    2.21
   4  -3  -4   45.02    2.26
   4  -3  -4   44.08    2.90
   4  -3  -4   42.99    3.02
  -4   3   4   47.41    3.68
  -4   3   4   44.18    3.04
  -4   3   4   43.39    3.70
   3  -3  -4   74.11    3.37
   3  -3  -4   75.87    3.54
   3  -3  -4   72.78    4.64
   3  -3  -4   75.19    4.53
  -3   3   4   67.15    5.37
  -3   3   4   79.65    5.61
  -3   3   4   76.51    3.83
  -3   3   4   71.36    4.64
   2  -3  -4   -0.11    0.23
   2  -3  -4    0.27    0.20
   2  -3  -4    0.30    0.27
   2  -3  -4    0.03    0.18
   2  -3  -4    0.09    0.14
  -2   3   4    0.21    0.29
  -2   3   4    0.13    0.27
  -2   3   4    0.07    0.48
  -2   3   4    0.37    0.17
   1  -3  -4  202.93    8.58
   1  -3  -4  205.48   14.11
   1  -3  -4  204.33    9.15
   1  -3  -4  209.71   11.84
  -1   3   4  186.74   14.13
  -1   3   4  206.82   11.83
  -1   3   4  208.91   10.27
   0  -3  -4  122.24    6.86
   0  -3  -4  103.61    8.28
   0  -3  -4  120.98    6.86
   0  -3  -4  114.98    5.34
   0   3   4  116.04    6.84
   0   3   4  117.51    8.25
   0   3   4  126.45    7.23
   0   3   4  117.28    5.99
  -1  -3  -4   37.81    2.27
  -1  -3  -4   40.19    2.76
  -1  -3  -4   37.08    2.27
  -1  -3  -4   35.08    1.85
  -1  -3  -4   38.56    2.27
   1   3   4   37.20    2.06
   1   3   4   35.77    2.50
   1   3   4   37.64    2.47
   1   3   4   36.04    2.29
  -2  -3  -4  124.36    6.97
  -2  -3  -4  123.70    6.97
  -2  -3  -4  124.01    5.08
   2   3   4  121.38    6.33
   2   3   4  121.94    7.41
   2   3   4  116.69    7.23
   2   3   4  117.95    7.51
  -3  -3  -4  160.56    6.45
   3   3   4  154.01    9.53
   3   3   4  154.48    9.37
   3   3   4  152.83    9.21
   3   3   4  147.67    8.01
  -4  -3  -4   20.06    1.17
  -4  -3  -4   21.00    0.96
  -4  -3  -4   15.89    1.21
  -4  -3  -4   19.43    1.60
   4   3   4   20.11    1.54
   4   3   4   19.48    1.52
   4   3   4   18.45    1.33
   4   3   4   21.90    1.61
   4   3   4   20.34    0.93
  -5  -3  -4   48.90    3.37
  -5  -3  -4   47.52    1.98
  -5  -3  -4   48.03    2.84
  -5  -3  -4   44.48    2.76
   5   3   4   44.17    2.76
   5   3   4   47.75    2.09
   5   3   4   43.08    3.14
  -6  -3  -4  102.53    4.20
  -6  -3  -4  103.95    7.09
  -6  -3  -4  104.11    6.12
  -6  -3  -4  101.53    6.19
   6   3   4  107.10    6.02
   6   3   4  105.06    6.62
   6   3   4  102.79    5.75
   6   3   4  106.20    4.54
  -7  -3  -4    1.70    0.27
  -7  -3  -4    1.25    0.34
  -7  -3  -4    1.76    0.64
   7   3   4    1.09    0.66
   7   3   4    1.07    0.33
   7   3   4    1.28    0.59
  -8  -3  -4   48.93    4.59
  -8  -3  -4   53.01    3.97
  -8  -3  -4   51.28    3.28
   8   3   4   52.96    3.37
   8   3   4   52.38    3.84
   8   3   4   50.99    2.49
  -9  -3  -4   72.77    4.44
  -9  -3  -4   69.43    6.09
  -9  -3  -4   73.12    5.35
   9   3   4   69.08    5.03
   9   3   4   66.84    3.32
 -10  -3  -4    0.20    0.43
 -10  -3  -4    0.29    1.00
  10   3   4    0.36    0.44
  10   3   4   -0.45    0.83
 -11  -3  -4   19.36    1.77
 -11  -3  -4   21.55    3.21
  11   3   4   21.66    2.68
  10  -4  -4   17.62    1.71
 -10   4   4   14.62    2.20
   9  -4  -4    2.35    0.88
   9  -4  -4    2.17    0.74
   9  -4  -4    1.95    0.98
  -9   4   4    1.68    1.56
  -9   4   4    3.05    1.14
  -9   4   4    0.23    1.44
   8  -4  -4   19.85    1.51
   8  -4  -4   20.89    1.89
   8  -4  -4   19.85    1.41
   8  -4  -4   19.97    2.06
  -8   4   4   18.21    2.84
  -8   4   4   20.30    2.14
  -8   4   4   17.74    2.67
   7  -4  -4   66.57    3.42
   7  -4  -4   71.53    4.57
   7  -4  -4   69.58    3.47
   7  -4  -4   69.29    4.69
  -7   4   4   67.11    4.71
  -7   4   4   64.42    5.51
  -7   4   4   66.88    5.91
   6  -4  -4   25.79    1.92
   6  -4  -4   23.06    1.11
   6  -4  -4   23.77    1.53
   6  -4  -4   21.40    2.01
   6  -4  -4   23.86    1.47
  -6   4   4   24.53    2.61
  -6   4   4   23.69    2.09
  -6   4   4   24.55    2.65
   5  -4  -4    5.91    0.92
   5  -4  -4    6.02    0.84
   5  -4  -4    6.21    0.68
   5  -4  -4    5.73    0.71
  -5   4   4    4.48    0.82
  -5   4   4    4.42    1.26
  -5   4   4    4.62    1.10
   4  -4  -4  189.07    8.61
   4  -4  -4  192.43   11.21
   4  -4  -4  179.27    8.15
   4  -4  -4  187.73   11.22
  -4   4   4  183.18   11.21
  -4   4   4  202.02   12.75
  -4   4   4  185.94   13.78
   3  -4  -4   92.97    5.49
   3  -4  -4   90.06    4.07
   3  -4  -4   90.95    4.30
   3  -4  -4   88.61    5.60
  -3   4   4   98.67    6.44
  -3   4   4   89.94    5.60
  -3   4   4   86.64    6.82
   2  -4  -4   37.29    1.90
   2  -4  -4   37.30    2.47
   2  -4  -4   36.96    1.77
   2  -4  -4   38.32    2.28
  -2   4   4   35.11    2.96
  -2   4   4   36.26    2.45
   1  -4  -4  157.07   10.30
   1  -4  -4  146.01   10.04
   1  -4  -4  143.68    8.51
   1  -4  -4  144.90    6.16
   1  -4  -4  145.51    8.44
   1  -4  -4  141.45    6.59
  -1   4   4  128.56   10.07
  -1   4   4  156.74    8.99
  -1   4   4  145.10    8.50
  -1   4   4  138.33   10.34
   0  -4  -4   58.31    4.03
   0  -4  -4   53.47    3.42
   0  -4  -4   55.05    2.71
   0  -4  -4   57.40    2.47
   0  -4  -4   53.96    3.44
   0   4   4   61.60    4.00
   0   4   4   54.16    3.74
   0   4   4   59.66    3.70
   0   4   4   56.21    3.43
   0   4   4   55.88    3.00
  -1  -4  -4  141.24    8.22
  -1  -4  -4  136.87    8.21
  -1  -4  -4  146.39    8.35
  -1  -4  -4  142.73    5.93
  -1  -4  -4  135.06    6.44
  -1  -4  -4  142.82   10.24
  -1  -4  -4  149.54    9.85
   1   4   4  141.64    8.20
   1   4   4  141.96    8.72
   1   4   4  141.30    7.32
   1   4   4  140.13    8.64
  -2  -4  -4  318.27   14.73
  -2  -4  -4  333.41   18.88
  -2  -4  -4  333.49   18.88
   2   4   4  322.61   20.00
   2   4   4  328.49   19.75
   2   4   4  330.67   16.83
   2   4   4  345.54   18.85
  -3  -4  -4   32.94    1.95
  -3  -4  -4   32.85    1.49
  -3  -4  -4   36.39    2.00
  -3  -4  -4   32.63    1.69
   3   4   4   33.73    2.25
   3   4   4   31.74    1.99
   3   4   4   32.64    2.33
   3   4   4   31.62    2.31
  -4  -4  -4   84.05    5.66
  -4  -4  -4   84.66    4.77
  -4  -4  -4   83.56    3.40
  -4  -4  -4   83.45    4.77
   4   4   4   80.13    5.16
   4   4   4   82.08    3.49
   4   4   4   80.33    5.33
   4   4   4   80.17    5.27
   4   4   4   82.23    4.53
  -5  -4  -4  281.88   15.93
  -5  -4  -4  264.59   15.99
  -5  -4  -4  285.41   18.12
  -5  -4  -4  281.28   10.94
   5   4   4  274.35   14.39
   5   4   4  286.05   11.62
   5   4   4  271.58   16.56
  -6  -4  -4   65.13    3.98
  -6  -4  -4   66.10    2.80
  -6  -4  -4   67.04    4.78
   6   4   4   67.37    4.46
   6   4   4   67.65    2.96
   6   4   4   66.88    3.89
  -7  -4  -4   12.78    1.01
  -7  -4  -4   14.00    1.51
  -7  -4  -4   12.28    0.74
   7   4   4   12.09    0.81
   7   4   4   12.01    1.53
   7   4   4   14.36    1.47
  -8  -4  -4   77.60    5.43
  -8  -4  -4   74.32    4.52
   8   4   4   70.86    3.35
   8   4   4   72.65    4.43
   8   4   4   71.41    5.06
  -9  -4  -4   24.03    2.90
  -9  -4  -4   25.16    2.48
  -9  -4  -4   24.98    1.84
   9   4   4   24.66    2.38
   9   4   4   22.69    1.42
   9   4   4   25.42    2.18
 -10  -4  -4    4.02    0.75
 -10  -4  -4    4.61    1.33
 -10  -4  -4    3.42    1.50
 -11  -4  -4   28.56    3.81
 -11  -4  -4   32.27    2.40
  10  -5  -4   21.42    1.96
 -10   5   4   15.96    2.24
   9  -5  -4    2.22    1.02
   9  -5  -4    1.43    0.73
  -9   5   4    0.12    0.90
  -9   5   4    1.98    1.59
   8  -5  -4   23.36    1.52
   8  -5  -4   19.98    2.19
   8  -5  -4   25.69    1.72
   8  -5  -4   19.78    1.95
  -8   5   4   22.04    2.87
  -8   5   4   18.74    3.05
  -8   5   4   20.21    2.25
   7  -5  -4   46.42    2.52
   7  -5  -4   45.92    3.39
   7  -5  -4   45.44    2.46
   7  -5  -4   42.79    3.17
  -7   5   4   39.01    4.24
  -7   5   4   45.13    3.41
  -7   5   4   45.59    4.02
   6  -5  -4    1.17    0.45
   6  -5  -4    1.83    0.51
   6  -5  -4    1.47    0.57
   6  -5  -4    1.17    0.64
   6  -5  -4    2.01    0.35
  -6   5   4    1.61    0.72
  -6   5   4    2.65    1.12
  -6   5   4    1.79    1.04
   5  -5  -4  110.08    6.70
   5  -5  -4  109.39    5.20
   5  -5  -4  104.88    6.79
   5  -5  -4  111.20    4.97
   5  -5  -4  114.50    4.42
  -5   5   4  110.73    6.83
  -5   5   4   97.96    8.38
   4  -5  -4  176.67    8.15
   4  -5  -4  178.28   10.55
   4  -5  -4  177.02    7.71
   4  -5  -4  185.38   10.63
   4  -5  -4  186.03    7.06
  -4   5   4  176.60   10.59
  -4   5   4  157.51   13.02
   3  -5  -4    4.81    0.60
   3  -5  -4    4.97    0.59
   3  -5  -4    5.87    0.59
   3  -5  -4    4.30    0.69
  -3   5   4    5.51    0.82
  -3   5   4    4.73    1.05
   2  -5  -4  320.95   14.17
   2  -5  -4  314.93   18.40
   2  -5  -4  313.61   18.31
   2  -5  -4  323.20   13.29
  -2   5   4  310.15   19.10
  -2   5   4  313.12   18.29
  -2   5   4  288.62   22.55
  -2   5   4  336.59   21.82
   1  -5  -4  307.52   12.96
   1  -5  -4  309.86   17.89
   1  -5  -4  318.33   21.92
   1  -5  -4  310.98   13.86
   1  -5  -4  295.22   17.99
  -1   5   4  326.63   18.66
  -1   5   4  292.42   21.96
  -1   5   4  314.80   17.88
   0  -5  -4   11.80    1.37
   0  -5  -4   14.31    1.07
   0  -5  -4   13.69    0.74
   0  -5  -4   14.16    1.09
   0  -5  -4   13.84    0.90
   0   5   4   14.51    1.23
   0   5   4   16.51    1.10
   0   5   4   16.47    1.25
   0   5   4   15.17    0.96
  -1  -5  -4  208.21    8.13
  -1  -5  -4  206.48    8.52
  -1  -5  -4  204.97   11.83
  -1  -5  -4  203.67    9.23
  -1  -5  -4  219.84   14.11
  -1  -5  -4  203.47   11.83
   1   5   4  194.57   12.46
   1   5   4  199.35   11.81
   1   5   4  206.80   10.52
   1   5   4  198.70   12.38
  -2  -5  -4  191.63   11.18
  -2  -5  -4  192.03    7.72
  -2  -5  -4  197.91    8.76
  -2  -5  -4  203.93   11.20
   2   5   4  190.92   10.03
   2   5   4  194.50   11.89
   2   5   4  187.94   11.77
  -3  -5  -4   10.99    0.65
  -3  -5  -4    9.85    0.68
  -3  -5  -4   10.29    0.71
  -3  -5  -4   10.16    0.74
   3   5   4   10.76    1.03
   3   5   4   10.06    0.99
   3   5   4    9.37    0.87
  -4  -5  -4  249.10   16.18
  -4  -5  -4  239.56    9.78
  -4  -5  -4  242.37   11.08
  -4  -5  -4  264.69   14.19
   4   5   4  235.00   15.00
   4   5   4  255.21   10.26
   4   5   4  244.16   15.18
   4   5   4  245.96   12.82
  -5  -5  -4   68.71    4.10
  -5  -5  -4   70.49    3.25
  -5  -5  -4   68.76    2.92
  -5  -5  -4   69.27    4.09
  -5  -5  -4   66.64    4.92
   5   5   4   71.14    2.97
   5   5   4   66.50    4.60
   5   5   4   68.61    3.96
  -6  -5  -4    1.73    0.32
  -6  -5  -4    1.50    0.29
  -6  -5  -4    1.73    0.68
  -6  -5  -4    1.54    0.32
   6   5   4    1.35    0.56
   6   5   4    1.26    0.26
  -7  -5  -4  130.90    7.59
  -7  -5  -4  128.24    8.85
   7   5   4  124.95    7.09
   7   5   4  128.93    5.54
  -8  -5  -4   70.15    4.28
  -8  -5  -4   69.64    5.17
   8   5   4   63.66    4.20
   8   5   4   70.82    3.16
  -9  -5  -4    6.12    0.85
  -9  -5  -4    6.02    1.32
   9   5   4    7.23    1.26
 -10  -5  -4   41.60    2.85
 -10  -5  -4   40.64    3.69
 -10  -5  -4   39.15    4.26
  10   5   4   41.45    3.18
 -11  -5  -4   41.13    4.63
  10  -6  -4    7.62    1.32
 -10   6   4    5.40    1.43
   9  -6  -4   31.92    2.21
   9  -6  -4   34.30    3.10
  -9   6   4   34.90    4.55
  -9   6   4   33.70    3.12
   8  -6  -4  100.77    6.30
   8  -6  -4   90.78    4.56
   8  -6  -4   92.89    6.06
   8  -6  -4   84.65    4.57
  -8   6   4   84.71    7.91
  -8   6   4   96.91    6.29
   7  -6  -4   19.20    2.02
   7  -6  -4   19.46    1.59
   7  -6  -4   19.74    1.75
   7  -6  -4   16.65    1.36
  -7   6   4   18.93    2.87
  -7   6   4   18.48    2.13
   6  -6  -4   45.99    3.17
   6  -6  -4   46.81    3.42
   6  -6  -4   48.81    2.49
   6  -6  -4   47.45    2.55
  -6   6   4   44.12    3.40
  -6   6   4   41.13    4.31
   5  -6  -4  125.81    4.78
   5  -6  -4  114.49    5.32
   5  -6  -4  116.88    7.32
   5  -6  -4  119.49    5.61
   5  -6  -4  114.52    7.16
  -5   6   4  107.04    9.07
  -5   6   4  117.39    7.32
   4  -6  -4    7.34    0.77
   4  -6  -4    8.07    0.63
   4  -6  -4    7.13    1.04
   4  -6  -4    6.55    0.82
   4  -6  -4    8.40    0.89
  -4   6   4    7.93    1.13
  -4   6   4    5.56    1.34
   3  -6  -4  151.41    9.03
   3  -6  -4  159.51    6.13
   3  -6  -4  151.14    7.06
   3  -6  -4  147.90    9.11
   3  -6  -4  151.65    6.61
  -3   6   4  156.67    9.65
  -3   6   4  149.19    9.11
  -3   6   4  146.15   11.34
   2  -6  -4  132.08    6.27
   2  -6  -4  135.51    5.45
   2  -6  -4  134.10    7.98
   2  -6  -4  135.30    5.84
   2  -6  -4  128.46    8.06
  -2   6   4  147.45    8.55
  -2   6   4  132.62    8.06
  -2   6   4  132.53    9.35
   1  -6  -4    0.93    0.38
   1  -6  -4    1.67    0.36
   1  -6  -4    1.54    0.27
   1  -6  -4    1.28    0.28
  -1   6   4    1.38    0.41
  -1   6   4    1.36    0.51
  -1   6   4    1.27    0.52
   0  -6  -4   88.95    4.26
   0  -6  -4   89.37    5.43
   0  -6  -4   91.45    3.75
   0  -6  -4   90.09    3.88
   0   6   4   90.99    5.69
   0   6   4   89.79    6.66
   0   6   4   92.71    5.42
   0   6   4   88.87    5.72
  -1  -6  -4  384.17   21.76
  -1  -6  -4  373.59   21.76
  -1  -6  -4  375.44   14.86
  -1  -6  -4  393.27   15.71
  -1  -6  -4  387.50   16.92
   1   6   4  383.93   21.75
   1   6   4  358.62   22.64
   1   6   4  382.01   19.28
   1   6   4  367.83   22.84
  -2  -6  -4   60.01    3.53
  -2  -6  -4   56.73    2.53
  -2  -6  -4   59.01    2.84
  -2  -6  -4   59.15    4.21
   2   6   4   58.41    3.82
   2   6   4   58.36    3.53
   2   6   4   57.65    3.28
   2   6   4   58.58    3.88
  -3  -6  -4   42.04    1.98
  -3  -6  -4   45.24    2.69
  -3  -6  -4   45.03    2.72
  -3  -6  -4   46.45    2.20
   3   6   4   43.72    3.08
   3   6   4   41.55    2.60
   3   6   4   44.41    3.02
  -4  -6  -4  152.28    6.04
  -4  -6  -4  138.26    8.78
  -4  -6  -4  152.59    6.77
  -4  -6  -4  149.73   10.00
  -4  -6  -4  163.34    8.65
   4   6   4  151.44    9.29
   4   6   4  146.80    8.56
   4   6   4  141.26    9.30
   4   6   4  141.56    7.90
  -5  -6  -4   83.43    4.97
  -5  -6  -4   83.75    3.82
  -5  -6  -4   75.25    3.44
  -5  -6  -4   83.97    5.82
  -5  -6  -4   84.04    4.85
   5   6   4   81.90    3.46
   5   6   4   79.02    4.61
   5   6   4   80.91    5.42
  -6  -6  -4   36.52    2.39
  -6  -6  -4   37.70    1.76
  -6  -6  -4   36.42    3.05
  -6  -6  -4   38.58    1.85
   6   6   4   36.75    2.47
   6   6   4   36.54    1.69
  -7  -6  -4   73.42    4.59
  -7  -6  -4   77.61    5.58
   7   6   4   76.32    3.33
   7   6   4   74.37    4.48
  -8  -6  -4    4.97    1.21
   8   6   4    4.03    0.91
  -9  -6  -4   39.26    3.60
  -9  -6  -4   41.14    2.77
   9   6   4   41.49    3.03
 -10  -6  -4   66.51    5.50
 -10  -6  -4   67.58    4.44
  10   6   4   72.85    4.63
 -11  -6  -4    2.71    1.39
 -11  -6  -4    2.45    1.61
  11   6   4    3.24    1.28
   9  -7  -4   69.00    3.66
   9  -7  -4   63.41    4.89
  -9   7   4   63.26    4.90
   8  -7  -4   18.19    1.52
   8  -7  -4   22.64    2.30
   8  -7  -4   17.43    1.64
  -8   7   4   20.33    2.37
  -8   7   4   21.19    3.33
   7  -7  -4   20.53    1.60
   7  -7  -4   22.01    1.97
   7  -7  -4   23.28    2.31
   7  -7  -4   23.03    1.66
  -7   7   4   22.55    2.26
  -7   7   4   26.68    3.24
   6  -7  -4  172.55   10.79
   6  -7  -4  171.63    8.27
   6  -7  -4  171.93    7.83
   6  -7  -4  179.29   10.69
  -6   7   4  181.13   10.81
  -6   7   4  175.31   13.59
   5  -7  -4   37.16    2.13
   5  -7  -4   39.21    1.84
   5  -7  -4   40.96    2.30
   5  -7  -4   40.64    3.01
   5  -7  -4   40.12    2.74
  -5   7   4   38.07    3.90
  -5   7   4   41.67    3.02
   4  -7  -4    8.07    0.86
   4  -7  -4    7.56    0.79
   4  -7  -4    9.12    0.95
   4  -7  -4    7.37    1.13
   4  -7  -4    9.46    0.72
  -4   7   4    8.30    1.70
  -4   7   4    7.48    1.06
  -4   7   4    7.95    1.39
   3  -7  -4  161.09    9.69
   3  -7  -4  160.04    6.50
   3  -7  -4  163.44    7.52
   3  -7  -4  163.87    7.01
   3  -7  -4  156.16    9.58
  -3   7   4  157.45    9.66
  -3   7   4  164.67   10.17
   2  -7  -4   47.43    2.10
   2  -7  -4   45.62    2.90
   2  -7  -4   46.79    2.44
   2  -7  -4   47.03    2.21
   2  -7  -4   42.88    3.06
  -2   7   4   41.16    3.87
  -2   7   4   50.08    3.36
  -2   7   4   48.31    3.10
  -2   7   4   45.32    3.25
   1  -7  -4   15.13    1.05
   1  -7  -4   14.89    1.25
   1  -7  -4   14.72    0.84
   1  -7  -4   14.72    0.88
  -1   7   4   14.08    1.32
  -1   7   4   14.19    1.22
  -1   7   4   13.64    1.40
  -1   7   4   14.18    1.53
   0  -7  -4   62.05    2.69
   0  -7  -4   62.00    3.06
   0  -7  -4   62.26    3.87
   0  -7  -4   63.80    2.72
   0   7   4   58.08    4.07
   0   7   4   60.10    3.95
   0   7   4   61.82    4.77
   0   7   4   62.21    3.84
  -1  -7  -4   71.60    4.32
  -1  -7  -4   76.24    4.41
  -1  -7  -4   73.03    3.43
  -1  -7  -4   64.92    3.00
   1   7   4   67.68    4.48
   1   7   4   73.33    4.29
   1   7   4   67.95    3.00
   1   7   4   70.80    3.89
   1   7   4   68.60    4.57
  -2  -7  -4   10.81    0.80
  -2  -7  -4   13.53    0.88
  -2  -7  -4   13.06    1.11
  -2  -7  -4   13.81    1.00
   2   7   4   13.22    1.00
   2   7   4   12.24    1.04
   2   7   4   13.06    1.27
   2   7   4   12.42    1.11
  -3  -7  -4  130.10    5.41
  -3  -7  -4  137.66    6.07
  -3  -7  -4  132.52    7.72
  -3  -7  -4  129.12    7.74
   3   7   4  130.29    7.05
   3   7   4  133.02    8.28
   3   7   4  129.12    8.24
  -4  -7  -4  110.76    4.70
  -4  -7  -4  120.79    6.67
  -4  -7  -4  112.16    7.79
  -4  -7  -4  118.03    6.82
  -4  -7  -4  113.05    5.22
   4   7   4  103.35    6.12
   4   7   4  109.65    7.22
  -5  -7  -4   10.25    0.84
  -5  -7  -4   11.85    0.77
  -5  -7  -4    9.59    1.23
  -5  -7  -4   12.95    1.49
   5   7   4   12.09    1.27
   5   7   4   12.53    1.50
  -6  -7  -4   75.43    4.45
  -6  -7  -4   69.99    3.33
  -6  -7  -4   71.06    5.27
  -6  -7  -4   67.14    3.09
   6   7   4   71.05    4.22
  -7  -7  -4   61.44    3.87
  -7  -7  -4   60.80    4.76
   7   7   4   62.77    3.86
  -8  -7  -4    1.93    0.50
  -8  -7  -4    0.95    0.83
   8   7   4    2.61    0.87
  -9  -7  -4   42.14    2.87
  -9  -7  -4   42.47    3.80
   9   7   4   42.42    3.13
 -10  -7  -4    6.34    1.58
  10   7   4    8.30    1.48
 -11  -7  -4    4.48    1.59
  11   7   4    3.72    1.28
   9  -8  -4   26.95    2.77
   9  -8  -4   26.20    2.00
  -9   8   4   20.28    2.58
   8  -8  -4    0.52    0.68
   8  -8  -4    1.26    0.64
   8  -8  -4    1.16    0.96
  -8   8   4    1.17    1.82
  -8   8   4    0.00    0.85
   7  -8  -4   37.47    2.30
   7  -8  -4   36.83    2.35
   7  -8  -4   40.32    3.21
  -7   8   4   39.08    3.20
  -7   8   4   35.27    4.39
   6  -8  -4   27.36    1.78
   6  -8  -4   28.45    2.51
   6  -8  -4   28.93    1.90
   6  -8  -4   29.15    2.22
  -6   8   4   26.91    2.85
  -6   8   4   24.90    2.43
  -6   8   4   28.62    3.50
   5  -8  -4    2.92    0.49
   5  -8  -4    1.59    0.55
   5  -8  -4    2.90    0.62
   5  -8  -4    2.79    0.71
   5  -8  -4    2.29    0.80
  -5   8   4    1.98    1.30
  -5   8   4    2.73    0.84
  -5   8   4    1.27    0.94
   4  -8  -4   85.50    5.22
   4  -8  -4   80.98    5.40
   4  -8  -4   89.31    3.59
   4  -8  -4   83.88    4.21
   4  -8  -4   81.25    3.89
  -4   8   4   86.87    5.43
  -4   8   4   68.63    6.82
  -4   8   4   86.63    5.74
   3  -8  -4   86.68    4.05
   3  -8  -4   90.80    3.80
   3  -8  -4   89.06    5.50
   3  -8  -4   91.11    4.44
   3  -8  -4   85.81    5.66
  -3   8   4   89.75    5.66
  -3   8   4   90.13    5.95
  -3   8   4   82.22    7.15
  -3   8   4   93.54    6.30
   2  -8  -4    2.29    0.40
   2  -8  -4    1.22    0.38
   2  -8  -4    1.80    0.38
   2  -8  -4    1.48    0.50
   2  -8  -4    1.00    0.49
  -2   8   4    2.11    0.70
  -2   8   4    2.58    0.60
   1  -8  -4   40.16    1.90
   1  -8  -4   37.82    2.72
   1  -8  -4   40.39    2.18
   1  -8  -4   40.49    1.90
  -1   8   4   42.56    2.76
  -1   8   4   38.25    2.70
  -1   8   4   39.39    3.42
  -1   8   4   39.06    2.90
   0  -8  -4  161.78    7.51
   0  -8  -4  166.33    6.87
   0  -8  -4  164.13    9.62
   0  -8  -4  157.82    6.59
   0   8   4  156.64   10.02
   0   8   4  158.81    9.92
   0   8   4  164.74    9.59
   0   8   4  164.23   11.90
  -1  -8  -4   21.63    1.34
  -1  -8  -4   22.11    1.65
  -1  -8  -4   22.77    1.23
   1   8   4   22.45    1.82
   1   8   4   22.47    1.53
   1   8   4   22.03    1.63
   1   8   4   21.71    1.59
  -2  -8  -4   77.08    3.58
  -2  -8  -4   68.80    3.19
  -2  -8  -4   70.88    4.50
   2   8   4   74.52    4.88
   2   8   4   74.90    3.09
   2   8   4   73.23    4.13
   2   8   4   72.20    4.72
   2   8   4   74.61    4.50
  -3  -8  -4   54.17    2.47
  -3  -8  -4   52.91    2.67
  -3  -8  -4   55.31    3.39
   3   8   4   55.21    3.78
   3   8   4   54.93    3.51
   3   8   4   50.78    3.59
   3   8   4   53.03    3.19
  -4  -8  -4   -0.28    0.25
  -4  -8  -4    0.65    0.59
  -4  -8  -4    0.01    0.30
  -4  -8  -4    0.09    0.34
   4   8   4    0.16    0.44
   4   8   4    0.34    0.55
  -5  -8  -4   77.35    3.53
  -5  -8  -4   80.08    5.53
  -5  -8  -4   69.68    3.25
   5   8   4   74.66    5.13
   5   8   4   68.75    4.31
  -6  -8  -4   84.09    6.04
  -6  -8  -4   79.98    5.18
   6   8   4   80.46    4.78
  -7  -8  -4    3.78    0.69
  -7  -8  -4    4.21    1.13
   7   8   4    5.15    1.06
  -8  -8  -4   54.69    4.46
  -8  -8  -4   53.01    3.49
   8   8   4   52.72    3.60
  -9  -8  -4   42.55    2.92
  -9  -8  -4   42.95    3.92
   9   8   4   42.85    3.20
 -10  -8  -4    3.76    1.45
  10   8   4    2.42    1.09
   8  -9  -4   16.66    1.58
   8  -9  -4   16.94    2.30
   8  -9  -4   11.07    1.38
  -8   9   4   13.15    2.37
  -8   9   4   16.04    2.15
   7  -9  -4   24.68    1.71
   7  -9  -4   24.34    2.38
   7  -9  -4   20.41    1.85
  -7   9   4   22.54    2.37
  -7   9   4   16.95    2.47
  -7   9   4   15.79    3.25
   6  -9  -4   19.36    2.10
   6  -9  -4   23.06    1.69
   6  -9  -4   19.24    1.48
  -6   9   4   19.79    3.26
  -6   9   4   18.82    2.24
  -6   9   4   18.83    2.32
   5  -9  -4    3.76    0.78
   5  -9  -4    3.24    0.94
   5  -9  -4    3.73    0.77
   5  -9  -4    4.06    0.56
   5  -9  -4    3.70    0.67
  -5   9   4    2.38    1.11
  -5   9   4    2.44    1.51
  -5   9   4    3.75    0.99
   4  -9  -4   33.37    2.68
   4  -9  -4   35.82    2.15
   4  -9  -4   35.39    1.92
   4  -9  -4   34.23    1.73
   4  -9  -4   36.17    2.45
  -4   9   4   34.30    2.69
  -4   9   4   33.33    2.85
  -4   9   4   27.60    3.56
   3  -9  -4   18.77    1.47
   3  -9  -4   20.10    1.61
   3  -9  -4   22.35    1.89
   3  -9  -4   23.63    1.32
   3  -9  -4   19.91    1.22
  -3   9   4   20.71    2.02
  -3   9   4   19.08    2.52
  -3   9   4   22.55    1.88
   2  -9  -4   19.65    1.17
   2  -9  -4   19.49    1.18
   2  -9  -4   18.39    1.51
   2  -9  -4   21.40    1.46
   2  -9  -4   19.75    1.74
  -2   9   4   22.12    1.72
  -2   9   4   20.31    2.33
  -2   9   4   21.03    1.90
  -2   9   4   20.61    1.74
   1  -9  -4  152.46    9.32
   1  -9  -4  153.54    6.37
   1  -9  -4  155.62    6.66
   1  -9  -4  151.74    7.27
  -1   9   4  159.45   11.59
  -1   9   4  156.90    9.30
  -1   9   4  154.69    9.52
  -1   9   4  153.22    9.69
   0  -9  -4   28.03    1.64
   0  -9  -4   24.75    1.96
   0  -9  -4   24.48    1.41
   0  -9  -4   26.99    1.31
   0   9   4   26.69    1.95
   0   9   4   28.86    2.59
   0   9   4   24.05    2.12
   0   9   4   26.55    1.86
  -1  -9  -4   40.08    2.22
  -1  -9  -4   40.36    2.00
   1   9   4   40.71    2.76
   1   9   4   42.23    2.75
   1   9   4   40.32    2.54
   1   9   4   43.01    3.04
  -2  -9  -4  244.71   13.89
  -2  -9  -4  232.21    9.56
  -2  -9  -4  232.59   10.79
   2   9   4  233.64   14.49
   2   9   4  241.31   13.89
   2   9   4  236.66   14.56
   2   9   4  238.78   12.41
  -3  -9  -4   19.01    1.51
  -3  -9  -4   19.71    1.23
  -3  -9  -4   18.16    1.95
  -3  -9  -4   20.07    1.22
   3   9   4   20.59    1.88
   3   9   4   20.03    1.64
   3   9   4   19.42    1.54
  -4  -9  -4   47.69    2.18
  -4  -9  -4   47.25    3.01
  -4  -9  -4   42.69    3.54
  -4  -9  -4   43.16    2.26
   4   9   4   41.90    3.29
   4   9   4   40.75    2.80
  -5  -9  -4   73.12    5.27
  -5  -9  -4   56.17    4.52
  -5  -9  -4   71.20    3.33
   5   9   4   74.51    4.94
   5   9   4   71.01    4.16
  -6  -9  -4    2.39    0.96
  -6  -9  -4    2.47    0.79
   6   9   4    2.73    0.80
  -7  -9  -4   21.54    2.35
  -7  -9  -4   22.47    1.80
   7   9   4   15.77    1.84
  -8  -9  -4   32.87    2.37
  -8  -9  -4   33.09    3.24
   8   9   4   29.87    2.58
  -9  -9  -4    4.27    1.48
   9   9   4    3.88    1.15
 -10  -9  -4   13.18    2.29
  10   9   4   11.27    1.81
   8 -10  -4   24.05    1.95
   8 -10  -4   28.41    2.79
   8 -10  -4   25.90    1.95
  -8  10   4   21.96    3.02
  -8  10   4   24.80    2.72
   7 -10  -4   29.08    2.12
   7 -10  -4   29.81    2.00
   7 -10  -4   29.41    2.84
  -7  10   4   28.82    2.81
  -7  10   4   26.30    2.98
   6 -10  -4   -0.67    0.48
   6 -10  -4    0.77    0.80
   6 -10  -4    0.77    0.66
  -6  10   4    0.37    0.76
  -6  10   4    0.50    1.43
  -6  10   4   -0.21    0.93
   5 -10  -4   83.57    3.92
   5 -10  -4   81.88    5.48
   5 -10  -4   86.93    4.31
  -5  10   4   61.63    6.91
  -5  10   4   79.42    5.43
  -5  10   4   84.76    5.68
   4 -10  -4   60.98    4.29
   4 -10  -4   61.74    2.81
   4 -10  -4   60.30    3.37
   4 -10  -4   62.13    4.04
   4 -10  -4   64.01    3.05
  -4  10   4   62.82    4.46
  -4  10   4   59.66    4.25
  -4  10   4   53.00    5.56
   3 -10  -4    0.15    0.55
   3 -10  -4    0.46    0.39
   3 -10  -4   -0.22    0.46
   3 -10  -4    0.56    0.41
   3 -10  -4    0.39    0.35
  -3  10   4    0.52    0.59
  -3  10   4    2.01    0.75
  -3  10   4    0.66    1.04
   2 -10  -4   66.45    4.50
   2 -10  -4   65.62    4.33
   2 -10  -4   66.94    3.54
   2 -10  -4   63.75    3.05
   2 -10  -4   66.92    3.16
  -2  10   4   68.24    4.48
  -2  10   4   69.52    4.70
  -2  10   4   68.49    4.37
  -2  10   4   72.92    5.78
   1 -10  -4   38.24    2.92
   1 -10  -4   42.94    2.39
   1 -10  -4   37.81    1.99
   1 -10  -4   39.61    2.04
  -1  10   4   45.19    3.81
  -1  10   4   41.68    2.91
  -1  10   4   41.80    2.75
  -1  10   4   44.02    3.14
   0 -10  -4    5.10    0.71
   0 -10  -4    5.00    0.66
   0 -10  -4    6.12    0.93
   0  10   4    6.20    0.67
   0  10   4    4.19    0.73
   0  10   4    5.17    0.96
   0  10   4    5.93    1.22
  -1 -10  -4  113.96    5.35
  -1 -10  -4  114.18    6.83
  -1 -10  -4  106.85    4.73
   1  10   4  112.71    6.79
   1  10   4  114.63    7.20
   1  10   4  107.06    6.10
   1  10   4  107.76    6.92
  -2 -10  -4   39.20    2.69
  -2 -10  -4   40.41    2.15
  -2 -10  -4   37.68    1.97
   2  10   4   40.35    2.71
   2  10   4   39.95    2.56
   2  10   4   35.38    2.64
   2  10   4   39.70    2.98
  -3 -10  -4   29.27    1.74
  -3 -10  -4   31.86    2.78
  -3 -10  -4   31.40    2.23
  -3 -10  -4   28.56    1.65
   3  10   4   31.08    2.18
   3  10   4   31.26    2.57
  -4 -10  -4   79.11    4.88
  -4 -10  -4   79.12    5.71
  -4 -10  -4   76.37    3.70
   4  10   4   78.64    5.31
   4  10   4   65.68    4.40
  -5 -10  -4   73.69    5.57
  -5 -10  -4   68.37    4.87
   5  10   4   76.24    5.23
   5  10   4   73.30    4.41
  -6 -10  -4    0.33    0.62
  -6 -10  -4   -0.39    0.65
   6  10   4   -0.08    0.55
  -7 -10  -4   49.87    4.35
  -7 -10  -4   52.61    3.70
   7  10   4   50.47    3.48
  -8 -10  -4   30.64    2.39
  -8 -10  -4   32.09    3.27
   8  10   4   29.08    2.60
  -9 -10  -4    1.55    1.14
   9  10   4    0.32    0.87
   7 -11  -4    1.91    1.03
   7 -11  -4    4.80    1.04
  -7  11   4    2.40    1.11
  -7  11   4    2.99    1.32
   6 -11  -4   25.95    2.66
   6 -11  -4   25.62    2.04
   6 -11  -4   28.37    1.84
  -6  11   4   27.67    2.76
  -6  11   4   28.47    2.68
  -6  11   4   22.88    3.88
   5 -11  -4   79.33    5.29
   5 -11  -4   78.36    3.72
   5 -11  -4   70.45    4.06
  -5  11   4   74.18    5.36
  -5  11   4   69.34    6.84
  -5  11   4   73.65    5.20
   4 -11  -4    1.75    0.77
   4 -11  -4    1.37    0.51
   4 -11  -4    1.53    0.69
  -4  11   4    1.84    0.85
  -4  11   4    1.41    0.85
  -4  11   4    3.07    1.53
   3 -11  -4   94.59    4.40
   3 -11  -4   93.17    6.02
   3 -11  -4   93.71    4.89
   3 -11  -4   95.61    6.25
  -3  11   4  101.53    6.24
  -3  11   4   92.98    6.40
  -3  11   4   96.27    7.95
   2 -11  -4  103.27    5.20
   2 -11  -4  106.74    6.66
   2 -11  -4  101.06    6.49
   2 -11  -4  109.53    4.70
   2 -11  -4  102.24    4.50
  -2  11   4  101.53    6.85
  -2  11   4  107.72    8.38
  -2  11   4   97.04    6.55
   1 -11  -4    8.93    0.90
   1 -11  -4    8.43    0.76
   1 -11  -4    9.98    1.05
   1 -11  -4   10.49    1.39
  -1  11   4    9.39    1.23
  -1  11   4   10.48    1.79
  -1  11   4    7.75    1.24
   0 -11  -4   68.72    3.15
   0 -11  -4   67.23    3.55
   0  11   4   66.99    4.45
   0  11   4   66.45    4.72
   0  11   4   71.30    5.73
  -1 -11  -4   72.38    3.66
  -1 -11  -4   72.08    4.63
  -1 -11  -4   64.62    3.21
   1  11   4   69.92    4.58
   1  11   4   75.42    4.22
   1  11   4   71.16    4.92
  -2 -11  -4    3.80    1.02
  -2 -11  -4    4.87    0.71
  -2 -11  -4    4.36    0.79
  -2 -11  -4    4.29    0.67
   2  11   4    3.56    0.94
   2  11   4    5.07    0.93
  -3 -11  -4   29.14    2.83
  -3 -11  -4   32.56    2.34
  -3 -11  -4   33.34    1.86
   3  11   4   29.80    2.64
   3  11   4   28.61    2.22
  -4 -11  -4   39.12    2.22
  -4 -11  -4   43.51    3.61
  -4 -11  -4   40.74    2.97
   4  11   4   39.85    2.80
   4  11   4   43.55    3.38
  -5 -11  -4    3.50    1.13
  -5 -11  -4    3.15    0.85
   5  11   4    3.34    1.04
   5  11   4    2.68    0.81
  -6 -11  -4   27.54    2.75
  -6 -11  -4   17.74    2.36
   6  11   4   28.11    2.21
  -7 -11  -4   60.37    4.41
  -7 -11  -4   59.81    5.09
   7  11   4   63.11    4.10
  -8 -11  -4   10.55    2.02
  -8 -11  -4   12.02    1.57
   8  11   4   16.11    2.05
  -9 -11  -4   16.48    2.63
   9  11   4   23.43    2.56
   7 -12  -4    9.46    1.23
   7 -12  -4    6.42    1.41
   7 -12  -4    5.92    1.10
  -7  12   4    4.16    1.35
  -7  12   4    5.55    1.52
   6 -12  -4   60.91    4.54
   6 -12  -4   56.01    3.46
   6 -12  -4   56.20    3.15
  -6  12   4   58.59    4.46
  -6  12   4   56.31    4.46
   5 -12  -4   14.55    1.95
   5 -12  -4   16.72    1.49
   5 -12  -4   20.75    1.92
  -5  12   4   19.04    2.26
  -5  12   4   18.62    3.26
  -5  12   4   17.91    2.18
   4 -12  -4   24.20    1.94
   4 -12  -4   23.36    2.34
   4 -12  -4   21.52    1.56
  -4  12   4   23.54    3.39
  -4  12   4   25.74    2.49
  -4  12   4   24.05    2.34
   3 -12  -4   51.19    3.04
   3 -12  -4   49.58    3.79
   3 -12  -4   52.58    2.63
  -3  12   4   50.47    3.87
  -3  12   4   47.53    3.71
  -3  12   4   54.79    5.04
   2 -12  -4    7.75    1.27
   2 -12  -4    6.81    0.82
   2 -12  -4    9.25    1.17
   2 -12  -4    8.11    1.15
  -2  12   4    8.11    1.39
  -2  12   4    8.64    1.33
  -2  12   4   11.66    2.07
   1 -12  -4   35.38    2.19
  -1  12   4   33.10    2.62
  -1  12   4   34.56    3.53
  -1  12   4   32.09    2.80
   0 -12  -4   97.56    6.44
   0 -12  -4   99.45    5.05
   0  12   4  106.77    6.79
   0  12   4  100.83    6.46
  -1 -12  -4   34.15    2.61
  -1 -12  -4   32.63    2.05
   1  12   4   34.27    2.43
   1  12   4   33.41    2.83
  -2 -12  -4    9.45    1.00
  -2 -12  -4    9.39    1.25
  -2 -12  -4   10.07    1.60
   2  12   4    8.29    1.45
   2  12   4    9.09    1.28
  -3 -12  -4   81.85    6.08
  -3 -12  -4   78.26    4.00
  -3 -12  -4   77.67    5.17
   3  12   4   85.72    5.68
   3  12   4   76.31    4.77
  -4 -12  -4   47.40    3.44
  -4 -12  -4   49.34    4.12
   4  12   4   46.20    3.81
   4  12   4   49.06    3.28
  -5 -12  -4    0.48    0.89
  -5 -12  -4    0.47    0.65
   5  12   4   -0.05    0.78
   5  12   4    1.39    0.76
  -6 -12  -4   43.82    3.94
  -6 -12  -4   31.60    3.26
   6  12   4   52.39    3.26
  -7 -12  -4   17.84    2.39
  -7 -12  -4   24.29    2.85
   7  12   4   26.16    2.32
  -8 -12  -4   11.36    2.28
   8  12   4    8.95    1.64
   6 -13  -4   30.00    1.99
   6 -13  -4   28.01    2.86
   6 -13  -4   23.53    2.30
  -6  13   4   24.71    2.75
  -6  13   4   26.46    2.75
   5 -13  -4    1.78    0.92
   5 -13  -4    0.76    0.85
   5 -13  -4    1.62    0.69
  -5  13   4    1.60    0.96
  -5  13   4    2.77    1.10
   4 -13  -4   43.16    2.89
   4 -13  -4   43.88    2.47
   4 -13  -4   46.97    3.67
  -4  13   4   40.62    3.59
  -4  13   4   45.20    3.58
  -4  13   4   49.75    4.99
   3 -13  -4   37.43    3.03
   3 -13  -4   33.93    1.96
   3 -13  -4   35.96    2.43
  -3  13   4   32.51    3.86
  -3  13   4   33.68    2.88
  -3  13   4   31.45    2.96
   2 -13  -4    1.51    0.73
  -2  13   4    1.30    1.19
  -2  13   4    2.73    1.03
  -2  13   4    2.14    0.83
   1 -13  -4   27.75    2.02
   1 -13  -4   29.96    2.56
  -1  13   4   27.37    2.61
  -1  13   4   31.75    3.42
   0 -13  -4   61.31    3.43
   0 -13  -4   60.20    4.34
   0  13   4   65.21    4.62
  -1 -13  -4    0.07    0.74
  -1 -13  -4    0.41    0.53
  -1 -13  -4   -0.58    0.48
   1  13   4    0.27    0.66
   1  13   4    0.36    0.71
  -2 -13  -4   58.01    4.81
  -2 -13  -4   59.66    3.25
  -2 -13  -4   59.61    4.16
   2  13   4   62.54    4.54
   2  13   4   59.62    3.86
  -3 -13  -4   71.42    4.79
  -3 -13  -4   72.05    5.59
  -3 -13  -4   69.71    3.67
   3  13   4   70.32    4.45
   3  13   4   70.14    5.18
  -4 -13  -4   -0.33    0.80
  -4 -13  -4    0.46    0.58
   4  13   4   -0.03    0.78
   4  13   4    0.13    0.67
  -5 -13  -4   64.67    4.83
  -5 -13  -4   68.43    5.56
   5  13   4   70.36    5.20
  -6 -13  -4   47.07    4.27
  -6 -13  -4   67.25    5.12
   6  13   4   57.42    3.96
  -7 -13  -4    0.72    1.18
  -7 -13  -4   -0.92    0.62
   7  13   4    1.46    0.96
   5 -14  -4   26.44    2.81
   5 -14  -4   24.96    2.29
  -5  14   4   28.63    2.79
  -5  14   4   25.42    2.74
   4 -14  -4   40.30    2.79
  -4  14   4   39.42    3.40
  -4  14   4   39.32    3.42
   3 -14  -4    7.41    1.26
  -3  14   4    6.54    2.02
  -3  14   4    6.77    1.43
   2 -14  -4   21.31    2.34
   2 -14  -4   20.69    1.91
  -2  14   4   21.47    2.35
  -2  14   4   25.23    3.24
   1 -14  -4   92.24    6.05
   1 -14  -4   89.35    4.73
  -1  14   4   82.95    6.15
  -1  14   4   90.28    7.66
   0 -14  -4   18.56    2.24
   0 -14  -4   16.66    1.61
   0 -14  -4   19.28    2.03
   0  14   4   18.14    2.21
  -1 -14  -4   11.80    1.57
  -1 -14  -4    9.23    1.70
  -1 -14  -4    8.52    1.14
   1  14   4    9.72    1.64
   1  14   4    9.45    1.45
  -2 -14  -4   59.16    4.22
  -2 -14  -4   57.52    4.86
  -2 -14  -4   58.48    3.28
   2  14   4   57.69    3.95
   2  14   4   62.10    4.61
  -3 -14  -4    6.07    1.21
  -3 -14  -4    6.14    1.59
   3  14   4    3.30    0.99
   3  14   4    3.62    1.22
  -4 -14  -4   23.54    2.78
  -4 -14  -4   24.44    2.31
   4  14   4   23.67    2.53
   4  14   4   23.82    2.63
  -5 -14  -4   39.28    3.39
  -5 -14  -4   39.17    3.90
   5  14   4   42.80    3.70
  -6 -14  -4    2.12    1.31
  -6 -14  -4    4.55    1.29
   6  14   4    1.09    0.95
   3 -15  -4    0.34    0.97
   3 -15  -4    1.15    0.89
  -3  15   4    0.38    0.94
   2 -15  -4   46.17    3.99
   2 -15  -4   44.09    2.96
   2 -15  -4   40.80    3.63
  -2  15   4   44.28    4.75
  -2  15   4   45.59    3.72
   1 -15  -4   28.94    2.80
   1 -15  -4   27.31    2.98
   1 -15  -4   30.60    2.28
  -1  15   4   29.40    2.90
   0 -15  -4    9.30    1.62
   0 -15  -4    9.31    1.76
   0 -15  -4    9.77    1.31
   0  15   4   11.33    1.82
   0  15   4   10.26    1.59
  -1 -15  -4   81.04    4.45
  -1 -15  -4   86.58    5.79
  -1 -15  -4   85.68    6.52
   1  15   4   83.51    5.29
   1  15   4   81.64    6.03
  -2 -15  -4   16.37    1.56
  -2 -15  -4   17.60    2.50
  -2 -15  -4   14.50    1.88
   2  15   4   14.81    1.98
   2  15   4   18.03    2.36
  -3 -15  -4    1.88    1.17
  -3 -15  -4    1.97    0.89
   3  15   4    2.27    0.97
   3  15   4    1.62    1.04
  -4 -15  -4   35.20    3.69
  -4 -15  -4   34.57    3.06
   4  15   4   36.66    3.40
   1  16   4   11.80    1.94
   2  12  -5   39.18    4.58
  -2 -12   5   40.04    3.85
  -2 -12   5   37.19    3.79
   1  12  -5   45.81    4.39
   1  12  -5   53.16    5.52
  -1 -12   5   59.34    4.65
   0  12  -5    2.93    1.98
   0  12  -5    2.88    1.31
   0 -12   5    3.11    1.33
  -1  12  -5   44.38    4.94
  -1  12  -5   30.27    3.32
   1 -12   5   35.42    3.47
  -2  12  -5   51.69    4.27
  -2  12  -5   56.41    5.94
   2 -12   5   49.21    4.27
  -3  12  -5    3.89    1.31
   3 -12   5    6.21    1.90
   3 -12   5    4.56    1.44
  -4  12  -5   11.68    3.10
  -4  12  -5    7.16    1.53
   4 -12   5   10.89    1.91
   4 -12   5    6.80    2.04
   4  11  -5   17.87    2.51
   4  11  -5   25.41    3.73
  -4 -11   5   18.19    2.73
  -4 -11   5   21.76    2.95
   3  11  -5   12.98    2.61
  -3 -11   5    9.69    1.96
  -3 -11   5   17.63    2.48
   2  11  -5   20.65    3.38
   2  11  -5   16.75    2.57
  -2 -11   5   18.70    2.50
  -2 -11   5   22.20    2.61
   1  11  -5    7.72    1.63
   1  11  -5    9.61    2.40
  -1 -11   5   10.58    1.86
  -1 -11   5    8.98    1.69
   0  11  -5    9.76    1.89
   0  11  -5    8.95    2.38
   0  11  -5   13.48    2.83
   0 -11   5    8.50    1.72
  -1  11  -5   34.79    3.31
  -1  11  -5   43.27    4.89
  -1  11  -5   39.01    4.43
   1 -11   5   34.10    3.31
  -2  11  -5    9.79    2.36
  -2  11  -5    8.81    2.49
  -2  11  -5    6.96    1.51
   2 -11   5    9.09    1.68
  -3  11  -5    3.30    1.71
  -3  11  -5    3.37    1.20
  -3  11  -5    5.03    2.27
   3 -11   5    3.29    1.24
  -4  11  -5   44.82    4.94
  -4  11  -5   32.61    3.09
  -4  11  -5   38.70    4.25
   4 -11   5   30.56    3.60
   4 -11   5   38.80    3.38
  -5  11  -5   37.02    3.17
  -5  11  -5   37.33    4.93
   5 -11   5   26.40    3.69
   5 -11   5   40.53    3.42
  -6  11  -5    0.28    0.81
  -6  11  -5   -1.81    1.86
   6 -11   5   -1.89    1.21
   5  10  -5   24.01    2.81
   5  10  -5   30.68    3.81
  -5 -10   5   30.28    3.48
  -5 -10   5   26.42    3.20
   4  10  -5    3.77    1.65
   4  10  -5    2.60    1.15
  -4 -10   5    3.87    1.33
  -4 -10   5    5.13    1.63
   3  10  -5   41.58    3.55
   3  10  -5   40.13    4.35
  -3 -10   5   30.62    3.39
  -3 -10   5   36.03    3.57
   2  10  -5   28.94    3.75
   2  10  -5   25.58    3.09
  -2 -10   5   28.98    2.93
  -2 -10   5   29.56    3.02
   1  10  -5   -0.70    1.16
   1  10  -5    1.20    0.90
  -1 -10   5    0.46    0.93
  -1 -10   5    1.72    1.14
   0  10  -5   20.66    2.57
   0  10  -5   12.47    2.73
   0  10  -5   18.68    3.36
   0 -10   5   21.78    2.51
   0 -10   5   20.36    2.14
  -1  10  -5   27.43    3.50
  -1  10  -5   23.68    2.58
  -1  10  -5   32.78    3.96
   1 -10   5   25.43    2.61
  -2  10  -5    5.50    1.83
  -2  10  -5    4.15    1.78
  -2  10  -5    3.26    1.03
   2 -10   5    3.68    1.19
  -3  10  -5   36.24    3.89
  -3  10  -5   28.80    2.80
  -3  10  -5   37.94    4.33
   3 -10   5   33.85    2.96
  -4  10  -5   37.11    3.15
  -4  10  -5   37.35    4.04
   4 -10   5   36.93    3.73
   4 -10   5   43.93    3.37
  -5  10  -5    0.67    1.82
  -5  10  -5    0.14    1.03
  -5  10  -5    0.06    0.67
   5 -10   5   -1.36    1.04
   5 -10   5    0.15    0.91
  -6  10  -5   50.32    3.60
  -6  10  -5   31.89    4.04
  -6  10  -5   42.33    5.26
   6 -10   5   46.80    3.71
   6 -10   5   42.70    4.12
  -7  10  -5   70.33    4.86
  -7  10  -5   50.48    6.61
   7 -10   5   69.25    5.54
   6   9  -5   30.56    2.94
  -6  -9   5   39.14    3.63
  -6  -9   5   31.85    3.70
   5   9  -5    2.59    1.04
   5   9  -5    2.63    1.54
  -5  -9   5    3.36    1.43
  -5  -9   5    1.37    1.36
   4   9  -5   14.13    2.60
   4   9  -5   18.32    2.27
   4   9  -5   13.91    2.03
  -4  -9   5   13.90    2.28
  -4  -9   5   10.99    2.04
   3   9  -5   37.43    3.20
   3   9  -5   33.80    3.86
  -3  -9   5   27.48    3.03
  -3  -9   5   31.93    3.22
   2   9  -5    2.10    0.95
   2   9  -5    2.18    1.47
  -2  -9   5    1.80    1.04
  -2  -9   5    2.63    1.12
   1   9  -5   16.15    2.98
   1   9  -5    8.68    2.23
   1   9  -5   10.25    1.76
  -1  -9   5   12.61    1.83
  -1  -9   5   16.05    1.94
   0   9  -5   94.02    8.38
   0   9  -5  102.10    6.84
   0   9  -5  117.54    8.93
   0  -9   5   99.21    7.07
   0  -9   5   94.37    6.68
  -1   9  -5   46.57    4.54
  -1   9  -5   39.63    3.38
  -1   9  -5   47.02    4.78
   1  -9   5   40.99    3.30
   1  -9   5   40.22    3.36
  -2   9  -5   20.86    2.86
  -2   9  -5   18.43    1.96
  -2   9  -5   21.79    3.29
   2  -9   5   14.70    1.96
  -3   9  -5   80.20    5.66
  -3   9  -5   92.40    7.81
  -3   9  -5   81.55    7.03
   3  -9   5   86.97    5.72
  -4   9  -5   35.01    3.85
  -4   9  -5   42.21    3.16
  -4   9  -5   39.56    4.53
   4  -9   5   40.88    3.21
   4  -9   5   38.28    3.66
  -5   9  -5   14.40    1.71
  -5   9  -5    7.23    2.35
  -5   9  -5    7.65    1.78
   5  -9   5   13.40    1.77
   5  -9   5   10.26    2.05
  -6   9  -5   50.53    4.93
  -6   9  -5   40.21    5.40
  -6   9  -5   59.98    4.13
   6  -9   5   58.58    4.74
   6  -9   5   62.10    4.22
  -7   9  -5    4.27    1.43
  -7   9  -5    4.19    1.16
  -7   9  -5    3.38    2.21
   7  -9   5    4.98    1.72
  -8   9  -5   14.39    3.52
  -8   9  -5   23.41    2.36
  -8   9  -5   20.51    2.93
   8  -9   5   20.73    3.07
  -7  -8   5   35.88    4.13
  -7  -8   5   44.62    4.06
   6   8  -5   21.02    2.45
  -6  -8   5   15.91    2.59
  -6  -8   5   23.26    2.77
   5   8  -5    0.57    0.87
   5   8  -5    0.41    0.72
   5   8  -5   -0.06    1.10
  -5  -8   5    0.78    1.08
  -5  -8   5    0.22    1.20
   4   8  -5   38.68    3.34
   4   8  -5   50.33    4.88
   4   8  -5   54.96    4.06
  -4  -8   5   46.97    3.97
  -4  -8   5   50.50    4.21
   3   8  -5   59.93    4.60
   3   8  -5   72.78    5.87
  -3  -8   5   52.73    4.51
  -3  -8   5   60.74    4.84
   2   8  -5    1.95    1.40
   2   8  -5    2.64    1.03
  -2  -8   5    1.22    0.95
  -2  -8   5    1.41    0.98
   1   8  -5   63.46    4.97
   1   8  -5   82.78    6.61
  -1  -8   5   67.34    5.17
  -1  -8   5   70.96    4.99
   0   8  -5  121.68    9.86
   0   8  -5  117.35    7.96
   0   8  -5  142.76   10.32
   0  -8   5  123.28    7.91
   0  -8   5  117.53    8.44
  -1   8  -5   10.98    2.31
  -1   8  -5    9.53    2.03
  -1   8  -5    7.68    1.30
   1  -8   5    7.90    1.33
   1  -8   5    8.12    1.21
  -2   8  -5  146.78    9.82
  -2   8  -5  167.13   12.14
  -2   8  -5  174.41   12.75
   2  -8   5  157.00   10.57
   2  -8   5  156.07    9.81
  -3   8  -5  105.43    8.22
  -3   8  -5   96.09    6.10
  -3   8  -5   79.11    7.36
   3  -8   5   94.87    6.08
  -4   8  -5    5.28    1.80
  -4   8  -5    4.27    1.31
  -4   8  -5    5.37    1.05
   4  -8   5    6.60    1.16
   4  -8   5    2.23    1.26
  -5   8  -5   87.60    7.51
  -5   8  -5  101.99    6.24
  -5   8  -5   73.87    8.06
   5  -8   5  100.14    6.85
   5  -8   5  108.58    6.32
  -6   8  -5   21.69    3.75
  -6   8  -5   35.58    2.68
  -6   8  -5   27.96    3.17
   6  -8   5   32.53    2.73
   6  -8   5   32.76    3.19
  -7   8  -5    0.33    0.92
  -7   8  -5   -0.02    1.43
  -7   8  -5   -0.23    0.63
   7  -8   5    0.51    1.15
  -8   8  -5   19.16    2.76
  -8   8  -5   23.10    2.23
  -8   8  -5   12.51    3.02
   8  -8   5   23.15    3.04
  -9   8  -5    4.22    2.33
  -9   8  -5    6.68    1.75
  -9   8  -5    7.07    1.39
   9  -8   5    8.49    2.10
   8   7  -5   17.66    1.88
  -8  -7   5   20.10    2.91
  -8  -7   5   11.58    2.56
  -7  -7   5   23.97    3.51
  -7  -7   5   34.85    3.51
   6   7  -5    2.62    0.97
  -6  -7   5    2.17    1.44
  -6  -7   5    3.83    1.49
   5   7  -5   62.41    4.51
   5   7  -5   44.35    3.64
   5   7  -5   61.51    5.34
  -5  -7   5   56.51    4.73
  -5  -7   5   53.01    4.39
   4   7  -5  112.59    8.70
   4   7  -5  122.72    7.30
   4   7  -5   82.87    6.10
  -4  -7   5  107.17    7.18
  -4  -7   5  107.01    7.72
   3   7  -5   10.32    1.67
   3   7  -5   12.56    2.27
  -3  -7   5    9.92    1.67
  -3  -7   5   11.07    1.72
   2   7  -5   62.61    5.52
   2   7  -5   57.48    4.38
  -2  -7   5   53.69    4.31
  -2  -7   5   65.15    4.63
   1   7  -5  126.42   11.45
   1   7  -5  145.50    9.49
  -1  -7   5  165.91   10.27
  -1  -7   5  160.95    9.49
   0   7  -5   30.11    3.32
   0   7  -5   27.61    3.29
   0   7  -5   26.51    2.46
   0  -7   5   29.03    2.48
   0  -7   5   29.50    2.46
  -1   7  -5   71.09    5.90
  -1   7  -5   65.29    4.47
  -1   7  -5   66.29    5.64
   1  -7   5   62.09    4.39
   1  -7   5   61.54    4.60
  -2   7  -5   83.65    6.96
  -2   7  -5   78.92    5.22
  -2   7  -5   70.08    6.39
   2  -7   5   84.30    5.46
   2  -7   5   77.45    5.18
  -3   7  -5   -0.07    1.12
  -3   7  -5    0.95    0.57
  -3   7  -5   -0.16    0.71
   3  -7   5    0.85    0.64
  -4   7  -5   40.35    2.84
  -4   7  -5   36.66    3.53
  -4   7  -5   31.33    3.97
   4  -7   5   42.11    2.92
   4  -7   5   33.13    3.22
  -5   7  -5   54.18    4.59
  -5   7  -5   53.21    3.69
  -5   7  -5   42.15    4.92
   5  -7   5   53.85    4.23
   5  -7   5   56.25    3.76
  -6   7  -5    0.18    0.74
  -6   7  -5    0.79    0.59
  -6   7  -5   -1.86    1.09
   6  -7   5    0.08    0.69
   6  -7   5   -1.31    0.90
  -7   7  -5   30.63    2.61
  -7   7  -5   31.34    3.20
  -7   7  -5   27.62    4.07
   7  -7   5   33.88    3.13
  -8   7  -5   58.37    4.09
  -8   7  -5   52.14    5.68
  -8   7  -5   53.38    4.93
   8  -7   5   55.88    4.60
  -9   7  -5   10.70    1.61
  -9   7  -5   13.55    2.18
  -9   7  -5    8.96    2.48
   9  -7   5   11.22    1.30
   9  -7   5   11.86    2.19
   8   6  -5   45.22    2.83
  -8  -6   5   43.05    4.55
  -8  -6   5   44.24    4.34
  -7  -6   5   39.18    3.73
  -7  -6   5   29.56    3.65
   6   6  -5    1.66    0.83
   6   6  -5    1.57    1.02
  -6  -6   5    1.22    1.24
  -6  -6   5    3.30    1.43
   5   6  -5   82.32    5.43
   5   6  -5   72.25    6.22
   5   6  -5   57.69    4.33
  -5  -6   5   70.92    5.67
  -5  -6   5   79.76    5.40
   4   6  -5   23.93    2.38
   4   6  -5   18.68    1.87
   4   6  -5   24.07    2.86
  -4  -6   5   23.25    2.44
  -4  -6   5   23.76    2.52
   3   6  -5   30.83    3.30
   3   6  -5   31.53    2.69
  -3  -6   5   24.89    2.54
  -3  -6   5   29.70    2.75
   2   6  -5   75.88    5.68
   2   6  -5   93.29    7.18
  -2  -6   5   76.51    5.67
  -2  -6   5   95.74    6.22
   1   6  -5   33.84    3.24
   1   6  -5   22.92    3.29
   1   6  -5   24.04    2.33
  -1  -6   5   28.57    2.45
  -1  -6   5   26.96    2.36
   0   6  -5   66.28    5.36
   0   6  -5   52.36    4.09
   0   6  -5   69.22    5.44
   0  -6   5   58.18    3.88
   0  -6   5   55.49    4.07
   0  -6   5   60.72    4.34
  -1   6  -5  124.23    9.43
  -1   6  -5  132.76    9.84
  -1   6  -5  119.84    7.67
   1  -6   5  121.15    7.54
   1  -6   5  124.41    8.25
   1  -6   5  116.93    7.60
  -2   6  -5    9.95    1.84
  -2   6  -5   15.36    2.39
  -2   6  -5   15.02    1.47
   2  -6   5   15.11    1.09
   2  -6   5   14.92    1.36
   2  -6   5   15.37    1.50
  -3   6  -5    3.18    1.03
  -3   6  -5    2.76    1.28
  -3   6  -5    5.31    0.88
   3  -6   5    5.22    0.90
   3  -6   5    4.48    0.61
  -4   6  -5   41.96    2.83
  -4   6  -5   32.52    3.81
  -4   6  -5   38.63    3.52
   4  -6   5   39.12    3.28
   4  -6   5   39.91    2.84
  -5   6  -5   18.42    1.72
  -5   6  -5   16.70    2.78
  -5   6  -5   20.84    2.21
   5  -6   5   17.67    2.24
   5  -6   5   20.18    1.81
  -6   6  -5    6.32    1.05
  -6   6  -5    7.83    1.50
  -6   6  -5    6.00    1.79
   6  -6   5    6.22    1.09
   6  -6   5    4.63    1.31
  -7   6  -5   34.30    2.73
  -7   6  -5   35.52    3.41
  -7   6  -5   35.47    3.99
   7  -6   5   34.16    3.20
  -8   6  -5   20.53    2.45
  -8   6  -5   18.09    3.05
  -8   6  -5   19.60    1.94
   8  -6   5   16.41    2.39
   8  -6   5   19.66    1.65
  -9   6  -5    5.21    2.13
  -9   6  -5    7.31    1.30
  -9   6  -5    6.05    1.61
   9  -6   5    5.77    1.04
   9  -6   5    6.32    1.72
 -10   6  -5   64.72    4.77
 -10   6  -5   64.97    5.91
  10  -6   5   67.78    5.43
  10  -6   5   72.99    3.73
   9   5  -5   20.07    1.92
  -9  -5   5   20.57    3.27
  -9  -5   5   17.31    3.02
   8   5  -5   38.25    2.54
  -8  -5   5   37.24    4.16
  -8  -5   5   40.03    4.04
  -7  -5   5   -0.43    1.21
  -7  -5   5   -0.30    1.09
   6   5  -5   50.26    3.60
   6   5  -5   57.99    4.52
  -6  -5   5   53.66    4.82
  -6  -5   5   69.18    4.84
   5   5  -5   79.91    6.52
   5   5  -5   62.38    4.54
   5   5  -5   80.00    5.60
  -5  -5   5   81.85    6.03
  -5  -5   5   88.41    5.73
   4   5  -5    0.22    0.79
   4   5  -5    1.01    0.61
   4   5  -5    0.26    0.72
  -4  -5   5    0.27    0.76
  -4  -5   5    0.28    0.84
   3   5  -5   48.68    3.66
   3   5  -5   50.92    4.43
  -3  -5   5   40.66    3.54
  -3  -5   5   50.24    3.87
   2   5  -5   24.44    2.26
   2   5  -5   27.42    2.95
  -2  -5   5   30.02    2.43
  -2  -5   5   20.54    2.18
   1   5  -5    7.59    1.27
   1   5  -5    6.49    1.62
   1   5  -5   11.40    1.93
  -1  -5   5    9.31    1.29
  -1  -5   5    5.72    1.05
   0   5  -5   54.57    4.68
   0   5  -5   57.66    4.69
   0   5  -5   45.29    3.57
   0  -5   5   49.56    3.57
   0  -5   5   53.38    3.82
  -1   5  -5   14.63    2.12
  -1   5  -5   18.78    2.54
  -1   5  -5   15.83    1.51
   1  -5   5   15.14    1.52
   1  -5   5   16.43    1.49
   1  -5   5   16.01    1.26
  -2   5  -5   10.78    1.26
  -2   5  -5    9.37    1.87
  -2   5  -5    7.11    1.44
   2  -5   5   10.20    1.03
   2  -5   5   10.01    0.85
   2  -5   5   10.41    1.20
  -3   5  -5   60.51    5.87
  -3   5  -5   73.74    5.58
  -3   5  -5   77.42    4.55
   3  -5   5   60.78    4.61
   3  -5   5   78.04    4.54
   3  -5   5   80.65    4.47
   3  -5   5   57.28    4.77
  -4   5  -5   61.62    4.87
  -4   5  -5   58.10    5.25
  -4   5  -5   60.00    3.93
   4  -5   5   60.85    4.39
   4  -5   5   59.17    3.93
  -5   5  -5    9.81    1.50
  -5   5  -5    7.33    1.63
  -5   5  -5    8.49    1.11
   5  -5   5    7.44    1.34
   5  -5   5    8.44    1.16
  -6   5  -5   61.21    4.97
  -6   5  -5   57.83    5.42
  -6   5  -5   56.02    4.02
   6  -5   5   65.78    4.56
   6  -5   5   63.85    4.09
  -7   5  -5   67.61    4.72
  -7   5  -5   75.01    5.84
  -7   5  -5   71.93    6.34
   7  -5   5   71.67    3.56
   7  -5   5   73.83    5.22
  -8   5  -5    7.37    1.19
  -8   5  -5    5.98    1.76
  -8   5  -5    5.91    1.39
   8  -5   5    6.16    1.48
   8  -5   5    6.67    0.94
  -9   5  -5   37.87    3.62
  -9   5  -5   34.82    2.84
  -9   5  -5   33.46    4.02
   9  -5   5   36.69    3.40
   9  -5   5   34.55    2.21
 -10   5  -5   28.02    3.34
 -10   5  -5   28.89    2.60
 -10   5  -5   31.21    4.11
  10  -5   5   31.58    3.25
  10  -5   5   34.01    2.15
   9   4  -5   26.21    1.92
  -9  -4   5   17.40    3.16
  -9  -4   5   16.52    2.82
   8   4  -5    3.42    0.92
  -8  -4   5    1.26    1.59
  -8  -4   5    4.09    1.64
   7   4  -5   25.33    2.69
   7   4  -5   25.14    1.84
  -7  -4   5   23.98    3.01
  -7  -4   5   25.65    2.99
   6   4  -5   26.40    2.17
   6   4  -5   29.38    2.89
  -6  -4   5   31.00    3.20
  -6  -4   5   36.55    3.27
   5   4  -5    0.08    0.45
   5   4  -5    0.20    0.73
   5   4  -5    0.43    0.81
  -5  -4   5   -0.28    0.88
  -5  -4   5   -0.50    0.80
   4   4  -5   34.66    2.54
   4   4  -5   41.80    3.79
   4   4  -5   42.71    3.32
  -4  -4   5   38.92    3.44
  -4  -4   5   45.17    3.38
   3   4  -5   76.75    5.08
   3   4  -5   77.60    6.05
  -3  -4   5   69.50    5.38
  -3  -4   5   69.22    4.99
   2   4  -5   20.00    2.38
   2   4  -5   19.76    1.87
  -2  -4   5   18.25    1.84
  -2  -4   5   17.30    1.86
   1   4  -5    7.21    1.18
   1   4  -5   11.40    1.80
   1   4  -5    6.15    1.52
  -1  -4   5    9.34    1.22
  -1  -4   5    6.97    1.12
   0   4  -5  189.88   13.08
   0   4  -5  190.87   13.32
   0   4  -5  157.47   10.61
   0  -4   5  181.87   11.69
   0  -4   5  166.18   10.59
  -1   4  -5   24.15    1.90
  -1   4  -5   20.95    2.39
  -1   4  -5   24.67    2.62
   1  -4   5   22.20    1.86
   1  -4   5   24.75    1.76
   1  -4   5   24.21    1.92
  -2   4  -5   17.84    1.48
  -2   4  -5   15.01    1.85
  -2   4  -5   14.10    1.99
   2  -4   5   18.71    1.51
   2  -4   5   20.52    1.35
   2  -4   5   16.16    1.41
  -3   4  -5  108.88    8.32
  -3   4  -5  104.99    8.73
  -3   4  -5  120.69    6.87
   3  -4   5   99.13    7.18
   3  -4   5  119.27    6.85
   3  -4   5  117.37    7.00
  -4   4  -5   45.88    4.24
  -4   4  -5   48.48    3.16
  -4   4  -5   47.89    3.91
   4  -4   5   46.44    3.14
   4  -4   5   48.57    3.55
  -5   4  -5  109.07    8.74
  -5   4  -5  111.54    6.80
  -5   4  -5  111.49    8.29
   5  -4   5  109.22    6.79
   5  -4   5  115.59    7.28
  -6   4  -5  151.86   11.04
  -6   4  -5  148.91   11.55
  -6   4  -5  144.64    9.07
   6  -4   5  147.17    6.67
   6  -4   5  150.97    9.06
   6  -4   5  161.24    9.63
  -7   4  -5   10.96    1.33
  -7   4  -5   14.30    2.28
  -7   4  -5   12.57    1.77
   7  -4   5   11.26    1.11
   7  -4   5   12.40    1.82
  -8   4  -5   41.14    4.22
  -8   4  -5   43.70    3.10
  -8   4  -5   44.87    3.90
   8  -4   5   41.27    3.54
   8  -4   5   39.98    2.36
  -9   4  -5   75.30    5.22
  -9   4  -5   84.12    6.57
  -9   4  -5   74.75    6.94
   9  -4   5   82.28    3.99
   9  -4   5   81.47    5.85
 -10   4  -5    7.60    1.27
 -10   4  -5    6.46    1.96
 -10   4  -5    7.68    1.75
  10  -4   5    6.73    1.76
  10  -4   5    8.09    1.14
 -11   4  -5   10.00    1.49
 -11   4  -5   10.51    2.66
 -11   4  -5    9.23    2.08
  11  -4   5   12.36    2.27
  11  -4   5    9.30    1.27
   9   3  -5   18.76    1.73
  -9  -3   5   15.92    2.62
  -9  -3   5   12.25    2.68
   8   3  -5    5.88    1.02
  -8  -3   5    5.84    1.85
  -8  -3   5    5.35    1.71
   7   3  -5   60.42    4.38
   7   3  -5   55.45    3.01
  -7  -3   5   55.10    4.59
  -7  -3   5   47.15    4.71
   6   3  -5   13.09    1.93
   6   3  -5   11.18    1.29
  -6  -3   5    9.10    1.78
  -6  -3   5    9.10    1.72
   5   3  -5    0.38    0.69
   5   3  -5    1.98    0.93
   5   3  -5    1.68    0.56
  -5  -3   5    1.03    0.91
  -5  -3   5    1.05    0.92
   4   3  -5   69.63    4.31
   4   3  -5   74.26    5.30
   4   3  -5   77.28    3.57
   4   3  -5   79.63    6.19
  -4  -3   5   86.66    5.45
  -4  -3   5   76.31    5.74
   3   3  -5   30.47    2.49
   3   3  -5   28.21    2.84
  -3  -3   5   29.28    2.49
  -3  -3   5   26.21    2.53
   2   3  -5   14.04    1.66
   2   3  -5   11.54    1.90
  -2  -3   5   12.29    1.56
  -2  -3   5   10.40    1.38
   1   3  -5  130.92   10.75
   1   3  -5  159.66    8.94
  -1  -3   5  143.32    8.83
   0   3  -5  227.56   15.11
   0   3  -5  177.39   12.09
   0   3  -5  224.83   14.85
   0  -3   5  205.28   13.38
   0  -3   5  188.81   12.08
  -1   3  -5   11.38    1.67
  -1   3  -5   10.45    1.59
  -1   3  -5   11.99    1.15
   1  -3   5   10.07    1.06
   1  -3   5   11.09    1.13
   1  -3   5   12.47    0.84
   1  -3   5   13.88    1.21
  -2   3  -5  245.69   14.33
  -2   3  -5  198.96   15.74
  -2   3  -5  241.91   13.08
  -2   3  -5  182.94   16.18
   2  -3   5  232.37   13.05
   2  -3   5  242.46   13.55
   2  -3   5  207.01   14.34
  -3   3  -5  285.69   16.21
  -3   3  -5  272.67   20.24
  -3   3  -5  283.43   19.62
   3  -3   5  282.10   16.20
   3  -3   5  280.76   16.90
   3  -3   5  264.29   16.74
  -4   3  -5    6.51    1.27
  -4   3  -5    3.98    0.84
  -4   3  -5    3.98    0.65
   4  -3   5    4.83    0.95
   4  -3   5    4.12    0.70
   4  -3   5    4.86    0.69
  -5   3  -5  109.37    8.71
  -5   3  -5  116.51    8.36
  -5   3  -5  107.82    6.81
   5  -3   5  118.93    7.30
   5  -3   5  112.90    5.03
   5  -3   5  112.77    6.81
  -6   3  -5   69.88    4.53
  -6   3  -5   76.17    5.64
  -6   3  -5   71.89    5.92
   6  -3   5   73.61    4.97
   6  -3   5   68.57    3.38
   6  -3   5   70.72    4.51
  -7   3  -5   12.70    1.23
  -7   3  -5   11.11    1.87
  -7   3  -5   12.03    1.72
   7  -3   5   10.48    0.99
   7  -3   5    9.04    1.48
  -8   3  -5   76.07    6.31
  -8   3  -5   78.34    5.10
  -8   3  -5   76.26    6.72
   8  -3   5   81.54    5.64
   8  -3   5   85.06    3.89
  -9   3  -5   13.75    2.49
  -9   3  -5   14.50    2.20
  -9   3  -5   15.39    1.57
   9  -3   5   18.16    1.47
   9  -3   5   17.97    2.36
 -10   3  -5    4.02    0.93
 -10   3  -5    3.78    1.31
 -10   3  -5    4.19    1.79
  10  -3   5    4.24    0.85
  10  -3   5    3.77    1.42
 -11   3  -5   37.50    3.99
 -11   3  -5   38.53    3.01
 -11   3  -5   36.49    4.36
  11  -3   5   36.60    2.36
  11  -3   5   41.76    3.82
   9   2  -5    2.56    0.80
  -9  -2   5    2.86    1.46
  -9  -2   5    1.03    1.55
   8   2  -5   39.25    2.35
   8   2  -5   43.82    3.40
  -8  -2   5   29.02    3.70
  -8  -2   5   34.82    3.61
   7   2  -5   60.51    4.10
   7   2  -5   52.04    2.79
  -7  -2   5   49.53    4.22
  -7  -2   5   39.42    4.34
   6   2  -5    0.93    0.84
  -6  -2   5    0.61    1.02
  -6  -2   5    0.46    0.92
   5   2  -5   56.05    3.44
   5   2  -5   63.06    4.39
   5   2  -5   62.69    5.01
  -5  -2   5   58.08    4.48
  -5  -2   5   59.77    4.79
   4   2  -5  138.55    5.96
   4   2  -5  141.57    9.84
   4   2  -5  126.96    6.97
   4   2  -5  113.72    8.24
  -4  -2   5  136.98    8.45
  -4  -2   5  127.71    9.13
   3   2  -5   29.78    2.61
   3   2  -5   32.57    3.03
   3   2  -5   34.43    2.02
  -3  -2   5   28.60    2.77
  -3  -2   5   39.20    2.80
   2   2  -5  112.90    8.47
   2   2  -5  120.41    7.13
  -2  -2   5  116.47    7.09
  -2  -2   5  100.44    7.67
   1   2  -5  241.48   13.65
   1   2  -5  255.00   16.76
   1   2  -5  189.20   16.34
  -1  -2   5  216.08   13.55
  -1  -2   5  241.76   15.05
   0   2  -5    4.64    1.05
   0   2  -5    2.37    0.61
   0   2  -5    4.56    0.98
   0  -2   5    2.91    0.66
   0  -2   5    2.11    0.58
  -1   2  -5  256.61   13.90
  -1   2  -5  209.14   17.11
   1  -2   5  259.50   14.01
   1  -2   5  205.62   15.30
   1  -2   5  234.05   14.46
   1  -2   5  252.76   13.86
  -2   2  -5  194.09   11.62
  -2   2  -5  216.85   12.83
  -2   2  -5  176.90   14.43
  -2   2  -5  186.02   14.05
   2  -2   5  214.07   12.87
   2  -2   5  198.79   12.11
   2  -2   5  197.41   11.61
  -3   2  -5    4.23    0.89
  -3   2  -5    3.93    0.79
  -3   2  -5    4.07    0.57
   3  -2   5    3.75    0.61
   3  -2   5    2.62    0.69
   3  -2   5    3.05    0.55
  -4   2  -5  149.85   10.71
  -4   2  -5  135.91    8.50
  -4   2  -5  139.10    8.46
  -4   2  -5  143.68   10.33
   4  -2   5  143.68    8.46
   4  -2   5  150.91    8.91
   4  -2   5  144.54    8.94
  -5   2  -5  210.79   12.64
  -5   2  -5  224.29   15.39
  -5   2  -5  216.44   15.88
   5  -2   5  211.74   12.62
   5  -2   5  224.94   13.18
   5  -2   5  212.01    9.26
  -6   2  -5    0.32    0.59
  -6   2  -5    0.57    0.36
  -6   2  -5    0.84    0.52
   6  -2   5    0.22    0.37
   6  -2   5    0.32    0.40
   6  -2   5    0.39    0.59
  -7   2  -5   22.09    1.74
  -7   2  -5   21.46    2.27
  -7   2  -5   21.56    2.45
   7  -2   5   23.39    2.12
   7  -2   5   22.51    1.40
  -8   2  -5   49.00    4.49
  -8   2  -5   46.24    3.24
   8  -2   5   48.34    3.75
   8  -2   5   48.39    2.52
  -9   2  -5    7.15    1.79
  -9   2  -5    8.26    1.13
   9  -2   5    9.02    1.02
   9  -2   5    8.59    1.73
 -10   2  -5   24.26    2.01
 -10   2  -5   20.58    3.13
  10  -2   5   20.67    2.76
  10  -2   5   23.00    1.65
 -11   2  -5   19.48    1.90
 -11   2  -5   17.51    3.06
  11  -2   5   18.10    2.58
  11  -2   5   21.73    1.67
  10   1  -5    7.63    1.23
 -10  -1   5    9.84    2.14
 -10  -1   5    7.98    2.24
 -10  -1   5    9.10    2.53
   9   1  -5    4.21    0.88
  -9  -1   5    3.59    1.60
  -9  -1   5    3.51    1.53
  -9  -1   5    5.03    1.85
   8   1  -5   21.16    1.59
   8   1  -5   22.60    2.28
  -8  -1   5   18.00    2.42
  -8  -1   5   14.99    2.71
   7   1  -5   21.68    2.14
   7   1  -5   18.52    1.42
  -7  -1   5   14.77    2.28
  -7  -1   5   14.86    2.48
   6   1  -5   17.60    1.89
   6   1  -5   15.97    1.24
  -6  -1   5   14.01    2.23
  -6  -1   5   17.84    2.28
   5   1  -5  124.44    9.20
   5   1  -5  131.06    5.56
   5   1  -5  115.98    6.52
   5   1  -5  138.51    7.92
  -5  -1   5  120.23    7.96
  -5  -1   5  104.25    8.62
   4   1  -5   68.44    3.75
   4   1  -5   72.80    3.21
   4   1  -5   69.25    4.68
   4   1  -5   73.57    5.46
  -4  -1   5   59.60    4.71
  -4  -1   5   62.78    5.14
   3   1  -5   69.54    4.89
   3   1  -5   77.69    3.50
   3   1  -5   76.29    3.97
   3   1  -5   77.34    5.77
  -3  -1   5   73.55    4.99
  -3  -1   5   65.91    5.33
   2   1  -5  410.82   24.20
   2   1  -5  444.36   29.05
  -2  -1   5  356.90   26.80
  -2  -1   5  447.08   24.26
   1   1  -5   71.50    4.15
   1   1  -5   51.63    4.85
  -1  -1   5   70.98    4.13
  -1  -1   5   53.98    4.37
   0   1  -5   39.47    2.79
   0   1  -5   49.90    3.57
   0  -1   5   37.09    2.75
   0  -1   5   38.75    3.03
  -1   1  -5  213.28   17.67
  -1   1  -5  258.69   14.40
   1  -1   5  251.70   14.37
   1  -1   5  261.68   15.09
  -2   1  -5    2.10    0.42
  -2   1  -5    1.55    0.52
  -2   1  -5    2.77    0.50
  -2   1  -5    2.46    0.61
   2  -1   5    2.36    0.48
   2  -1   5    1.90    0.41
   2  -1   5    1.46    0.50
  -3   1  -5   35.53    2.22
  -3   1  -5   31.79    2.17
  -3   1  -5   33.54    2.31
  -3   1  -5   34.25    2.76
  -3   1  -5   33.30    2.82
   3  -1   5   34.76    2.20
   3  -1   5   33.23    2.41
   3  -1   5   31.92    2.32
  -4   1  -5   97.43    5.56
  -4   1  -5   92.92    7.01
  -4   1  -5   93.62    6.80
  -4   1  -5   88.72    5.55
  -4   1  -5   89.05    5.50
   4  -1   5   90.95    5.89
   4  -1   5   95.58    5.86
   4  -1   5   91.05    5.50
  -5   1  -5    1.58    0.65
  -5   1  -5    2.39    0.67
  -5   1  -5    2.08    0.41
  -5   1  -5    1.95    0.45
   5  -1   5    2.09    0.62
   5  -1   5    1.83    0.41
  -6   1  -5   35.81    3.20
  -6   1  -5   32.31    2.29
   6  -1   5   34.72    1.79
   6  -1   5   38.01    2.74
   6  -1   5   33.14    2.26
  -7   1  -5   79.17    6.55
  -7   1  -5   83.00    5.04
   7  -1   5   80.99    5.49
   7  -1   5   81.40    3.78
  -8   1  -5   50.67    3.33
  -8   1  -5   49.09    4.51
   8  -1   5   49.13    2.57
   8  -1   5   51.55    3.85
  -9   1  -5    8.30    1.84
  -9   1  -5    9.77    1.20
   9  -1   5   10.99    1.07
   9  -1   5   10.59    1.78
 -10   1  -5   49.22    4.79
 -10   1  -5   46.49    3.35
  10  -1   5   47.34    4.03
  10  -1   5   51.20    2.66
 -11   1  -5   37.36    2.85
 -11   1  -5   39.39    4.39
  11  -1   5   35.73    3.57
  11  -1   5   38.54    2.32
  10   0  -5    3.89    0.92
 -10   0   5    1.81    1.73
 -10   0   5    2.67    1.48
   9   0  -5   32.87    2.16
  -9   0   5   25.25    3.61
  -9   0   5   35.81    3.38
  -9   0   5   30.29    3.81
   8   0  -5   64.27    4.46
   8   0  -5   59.48    3.20
  -8   0   5   67.51    4.79
  -8   0   5   54.29    5.46
  -8   0   5   51.20    5.07
   7   0  -5    0.23    0.49
   7   0  -5    1.17    0.75
  -7   0   5    0.05    0.81
  -7   0   5    0.30    1.15
   6   0  -5   74.61    3.75
   6   0  -5   85.54    5.31
  -6   0   5   65.80    5.90
  -6   0   5   84.70    5.50
   5   0  -5   66.44    3.21
   5   0  -5   65.47    4.63
   5   0  -5   66.24    3.32
   5   0  -5   71.80    3.77
  -5   0   5   73.31    4.86
   4   0  -5    1.21    0.28
   4   0  -5    1.34    0.61
   4   0  -5    0.98    0.61
   4   0  -5    1.06    0.32
  -4   0   5    0.95    0.80
  -4   0   5    0.92    0.69
   3   0  -5  134.57    9.37
   3   0  -5  132.23    5.85
   3   0  -5  128.94    6.59
   3   0  -5  129.75    7.92
  -3   0   5  111.73    7.91
   2   0  -5   94.33    6.13
   2   0  -5   78.05    5.11
  -2   0   5   72.09    5.11
  -2   0   5   74.26    5.67
   1   0  -5   22.66    1.86
   1   0  -5   23.57    2.29
  -1   0   5   23.70    2.08
  -1   0   5   24.11    1.91
   0   0  -5  196.84   13.87
   0   0  -5  178.63   11.38
   0   0  -5  186.60   13.76
   0   0   5  192.44   12.70
   0   0   5  187.43   11.39
   0   0   5  212.18   13.93
  -1   0  -5   87.62    5.49
  -1   0  -5   81.12    5.42
  -1   0  -5   92.88    6.63
  -1   0  -5   83.83    6.55
   1   0   5   90.60    5.46
   1   0   5   93.94    5.46
   1   0   5   91.26    6.09
   1   0   5   93.87    5.75
  -2   0  -5    0.06    0.21
  -2   0  -5    0.13    0.30
  -2   0  -5    0.23    0.32
  -2   0  -5    0.04    0.22
  -2   0  -5    0.06    0.21
   2   0   5   -0.22    0.25
   2   0   5    0.09    0.16
   2   0   5    0.10    0.24
   2   0   5   -0.16    0.29
  -3   0  -5   89.38    5.50
  -3   0  -5   91.90    5.42
  -3   0  -5   93.13    6.83
  -3   0  -5   92.83    5.98
  -3   0  -5   92.16    6.67
   3   0   5   94.20    5.69
   3   0   5   91.07    5.42
   3   0   5   88.19    5.79
  -4   0  -5  143.43   10.40
  -4   0  -5  134.98    8.22
  -4   0  -5  141.36    8.26
  -4   0  -5  139.01   10.09
  -4   0  -5  142.70    9.11
   4   0   5  147.24    8.23
   4   0   5  141.27    8.62
   4   0   5  139.48    8.82
  -5   0  -5    0.12    0.23
  -5   0  -5   -0.03    0.20
  -5   0  -5    0.10    0.47
  -5   0  -5    0.28    0.23
   5   0   5    0.44    0.26
   5   0   5    0.23    0.25
   5   0   5    0.47    0.45
   5   0   5    0.45    0.46
  -6   0  -5   95.65    5.82
  -6   0  -5  100.67    6.47
  -6   0  -5  102.37    7.58
   6   0   5   93.67    5.76
   6   0   5   96.37    4.34
   6   0   5   96.74    6.27
  -7   0  -5   36.94    3.00
  -7   0  -5   41.60    3.68
  -7   0  -5   41.81    2.67
   7   0   5   40.85    3.12
   7   0   5   41.60    2.06
  -8   0  -5    0.80    0.89
  -8   0  -5    0.45    0.38
   8   0   5    0.55    0.45
   8   0   5    1.31    0.79
  -9   0  -5  108.79    8.69
  -9   0  -5  105.02    6.54
   9   0   5  107.06    7.23
   9   0   5  106.67    4.91
 -10   0  -5   51.85    5.11
 -10   0  -5   52.92    3.60
  10   0   5   52.44    2.78
  10   0   5   56.86    4.37
 -11   0  -5    4.14    0.89
 -11   0  -5    5.08    1.80
  11   0   5    6.28    0.94
  11   0   5    5.13    1.61
  10  -1  -5   10.61    1.44
 -10   1   5    9.61    1.94
 -10   1   5   10.83    2.45
   9  -1  -5   63.57    3.42
  -9   1   5   59.48    5.49
  -9   1   5   53.85    5.72
  -9   1   5   69.25    4.99
   8  -1  -5    2.91    0.93
   8  -1  -5    2.61    0.74
  -8   1   5    2.94    1.38
  -8   1   5    3.07    1.53
  -8   1   5    1.54    1.09
   7  -1  -5   87.05    5.55
   7  -1  -5   78.17    3.98
  -7   1   5   82.90    6.47
  -7   1   5   82.26    5.67
  -7   1   5   76.12    6.76
   6  -1  -5  146.89    6.79
   6  -1  -5  155.24    9.37
   6  -1  -5  151.90    6.89
  -6   1   5  146.01   10.67
  -6   1   5  153.23    9.50
   5  -1  -5   16.05    1.17
   5  -1  -5   18.50    1.08
   5  -1  -5   20.11    1.78
  -5   1   5   20.73    1.94
  -5   1   5   15.54    2.24
   4  -1  -5  112.18    5.19
   4  -1  -5  110.73    8.31
   4  -1  -5  113.81    7.04
  -4   1   5  110.44    8.03
  -4   1   5  117.89    7.16
   3  -1  -5  113.22    8.34
   3  -1  -5  120.26    7.09
   3  -1  -5  116.15    5.26
  -3   1   5  115.49    7.14
  -3   1   5  106.79    8.00
   2  -1  -5    7.39    1.07
   2  -1  -5    7.49    0.57
   2  -1  -5    6.97    0.95
  -2   1   5    9.02    1.33
  -2   1   5    5.86    0.95
   1  -1  -5   68.94    5.11
   1  -1  -5   62.58    4.21
  -1   1   5   75.44    4.89
  -1   1   5   60.41    4.22
   0  -1  -5   33.78    2.45
   0  -1  -5   34.65    1.99
   0  -1  -5   41.59    3.09
   0  -1  -5   41.90    2.81
   0  -1  -5   31.58    2.40
   0   1   5   39.21    2.79
   0   1   5   30.49    2.42
   0   1   5   34.72    2.80
  -1  -1  -5    3.40    0.65
  -1  -1  -5    3.66    0.59
  -1  -1  -5    3.74    0.51
  -1  -1  -5    3.44    0.57
   1   1   5    4.01    0.59
   1   1   5    4.27    0.62
   1   1   5    4.03    0.68
   1   1   5    3.96    0.52
   1   1   5    3.96    0.51
  -2  -1  -5   85.88    5.82
  -2  -1  -5  108.11    5.88
  -2  -1  -5  102.72    7.11
  -2  -1  -5   99.09    7.19
  -2  -1  -5   99.27    5.95
   2   1   5  101.32    5.99
   2   1   5  100.50    5.97
   2   1   5   96.50    6.19
   2   1   5   95.12    5.86
  -3  -1  -5  214.55   12.23
  -3  -1  -5  221.78   14.90
  -3  -1  -5  209.98   15.24
   3   1   5  206.80   13.00
   3   1   5  209.99   12.61
   3   1   5  210.81   12.70
  -4  -1  -5   48.94    2.95
  -4  -1  -5   51.42    2.98
  -4  -1  -5   51.39    3.93
   4   1   5   47.04    3.34
   4   1   5   46.81    3.24
  -5  -1  -5   87.49    5.11
  -5  -1  -5   85.35    5.08
  -5  -1  -5   85.14    6.62
  -5  -1  -5   85.35    5.74
   5   1   5   89.21    5.66
   5   1   5   87.88    3.80
   5   1   5   83.70    5.49
  -6  -1  -5  243.74   15.74
  -6  -1  -5  245.63   17.74
  -6  -1  -5  244.57   14.04
   6   1   5  235.44   14.65
   6   1   5  244.92   10.31
  -7  -1  -5   41.05    2.92
  -7  -1  -5   37.22    3.49
  -7  -1  -5   39.96    1.65
  -7  -1  -5   37.16    2.48
   7   1   5   36.75    2.91
   7   1   5   36.90    1.94
  -8  -1  -5   31.42    3.14
  -8  -1  -5   32.32    2.16
   8   1   5   30.27    1.70
   8   1   5   29.05    2.61
  -9  -1  -5   80.06    5.11
  -9  -1  -5   87.72    7.01
   9   1   5   79.71    3.87
   9   1   5   84.22    5.82
 -10  -1  -5    0.33    0.46
 -10  -1  -5    0.00    0.96
  10   1   5    0.09    0.96
  10   1   5    0.79    0.54
 -11  -1  -5   23.92    3.13
 -11  -1  -5   21.60    1.87
  11   1   5   21.92    1.60
  11   1   5   18.92    2.56
  10  -2  -5   51.65    3.13
 -10   2   5   54.48    4.51
 -10   2   5   50.80    5.16
   9  -2  -5   18.74    1.71
   9  -2  -5   18.82    2.25
  -9   2   5   22.08    3.17
  -9   2   5   17.74    2.94
  -9   2   5   21.98    2.59
   8  -2  -5    9.28    1.43
   8  -2  -5    5.83    0.94
  -8   2   5    8.90    2.05
  -8   2   5    8.54    1.51
  -8   2   5    8.90    1.91
   7  -2  -5   66.09    4.81
   7  -2  -5   69.50    3.54
  -7   2   5   65.15    5.95
  -7   2   5   77.68    5.92
  -7   2   5   74.97    5.02
   6  -2  -5   15.61    1.20
   6  -2  -5   15.87    1.65
   6  -2  -5   14.20    1.00
  -6   2   5   18.48    2.53
  -6   2   5   15.39    1.84
  -6   2   5   14.13    2.05
   5  -2  -5   47.93    3.56
   5  -2  -5   49.95    2.61
   5  -2  -5   50.93    2.57
  -5   2   5   52.21    4.33
  -5   2   5   59.51    4.53
  -5   2   5   54.08    3.72
   4  -2  -5  126.14    5.96
   4  -2  -5  134.00    8.24
   4  -2  -5  134.93    6.20
  -4   2   5  134.03    8.31
  -4   2   5  136.78    9.99
  -4   2   5  146.89    9.59
   3  -2  -5   36.64    2.65
   3  -2  -5   34.63    3.04
   3  -2  -5   36.93    1.92
  -3   2   5   46.22    3.37
  -3   2   5   40.15    2.74
   2  -2  -5   24.59    2.13
   2  -2  -5   24.01    1.35
   2  -2  -5   26.21    1.87
  -2   2   5   25.56    1.91
  -2   2   5   26.70    2.38
   1  -2  -5  225.46   14.97
   1  -2  -5  224.32   12.45
   1  -2  -5  217.47    9.60
  -1   2   5  188.62   14.00
  -1   2   5  181.46   14.99
  -1   2   5  225.98   12.43
  -1   2   5  225.21   12.47
   0  -2  -5  108.22    6.54
   0  -2  -5  115.14    6.58
   0  -2  -5  115.09    5.66
   0  -2  -5  109.00    8.00
   0   2   5  117.37    6.57
   0   2   5   94.91    6.80
  -1  -2  -5    2.40    0.36
  -1  -2  -5    2.72    0.53
  -1  -2  -5    1.64    0.35
  -1  -2  -5    2.35    0.41
   1   2   5    2.93    0.41
   1   2   5    1.96    0.31
   1   2   5    2.62    0.57
   1   2   5    2.79    0.46
  -2  -2  -5  181.22   12.03
  -2  -2  -5  184.05   12.05
  -2  -2  -5  228.21   14.58
  -2  -2  -5  220.17   14.86
   2   2   5  216.37   12.49
   2   2   5  214.80   12.76
   2   2   5  217.90   10.70
   2   2   5  205.36   12.27
  -3  -2  -5  151.16   10.54
  -3  -2  -5  134.96    8.38
  -3  -2  -5  150.67   10.28
   3   2   5  144.26    8.70
   3   2   5  144.30    7.60
   3   2   5  141.83    9.01
   3   2   5  151.06    8.82
  -4  -2  -5   26.12    1.58
  -4  -2  -5   25.84    1.58
  -4  -2  -5   26.95    2.29
   4   2   5   25.98    1.99
   4   2   5   25.25    1.90
   4   2   5   26.82    1.89
   4   2   5   24.22    1.69
  -5  -2  -5  199.25   12.85
  -5  -2  -5  200.82   14.41
  -5  -2  -5  196.10   11.33
  -5  -2  -5  198.57   11.35
   5   2   5  200.66   12.28
   5   2   5  195.43    8.34
   5   2   5  189.54   11.88
   5   2   5  197.22   10.36
  -6  -2  -5   71.31    6.00
  -6  -2  -5   79.36    5.25
  -6  -2  -5   80.20    4.54
  -6  -2  -5   74.28    4.54
   6   2   5   74.14    3.40
   6   2   5   77.76    5.03
  -7  -2  -5   44.11    3.72
  -7  -2  -5   40.49    1.75
  -7  -2  -5   41.26    2.59
  -7  -2  -5   41.43    3.09
   7   2   5   37.74    3.05
   7   2   5   39.83    2.00
  -8  -2  -5  101.45    7.12
  -8  -2  -5  103.84    6.16
  -8  -2  -5  107.18    8.21
   8   2   5   97.81    6.76
   8   2   5  103.12    4.61
  -9  -2  -5   49.23    4.66
  -9  -2  -5   48.03    3.22
   9   2   5   55.16    3.98
   9   2   5   49.11    2.50
 -10  -2  -5    5.00    1.57
 -10  -2  -5    5.53    0.86
  10   2   5    5.90    0.79
  10   2   5    7.48    1.56
 -11  -2  -5   23.09    1.86
 -11  -2  -5   22.14    3.27
  11   2   5   19.65    2.65
  10  -3  -5   20.51    1.94
 -10   3   5   26.45    3.62
 -10   3   5   22.99    2.92
   9  -3  -5   -0.07    0.57
   9  -3  -5    0.13    0.75
  -9   3   5   -0.29    0.91
  -9   3   5   -1.99    1.29
   8  -3  -5   29.72    2.72
   8  -3  -5   32.60    2.07
  -8   3   5   31.53    2.89
  -8   3   5   34.88    3.74
  -8   3   5   27.14    3.46
   7  -3  -5   50.57    3.66
   7  -3  -5   49.38    2.67
   7  -3  -5   44.73    2.52
  -7   3   5   56.19    4.65
  -7   3   5   48.56    3.72
  -7   3   5   46.62    4.49
   6  -3  -5    0.56    0.61
   6  -3  -5    0.08    0.37
   6  -3  -5    1.08    0.37
  -6   3   5    0.02    0.56
  -6   3   5    0.62    1.17
  -6   3   5    0.97    0.83
   5  -3  -5   16.91    1.13
   5  -3  -5   14.68    1.54
   5  -3  -5   15.32    1.05
  -5   3   5   17.99    1.68
  -5   3   5   18.63    2.45
  -5   3   5   15.26    1.84
   4  -3  -5   60.97    4.05
   4  -3  -5   59.37    3.00
   4  -3  -5   59.99    2.94
  -4   3   5   62.62    4.86
  -4   3   5   61.56    4.83
  -4   3   5   64.63    4.11
   3  -3  -5    0.30    0.38
   3  -3  -5    0.13    0.25
   3  -3  -5   -0.10    0.25
   3  -3  -5   -0.15    0.30
  -3   3   5    0.34    0.41
  -3   3   5    0.07    0.78
  -3   3   5    0.33    0.38
   2  -3  -5  101.41    7.32
   2  -3  -5  102.70    4.75
   2  -3  -5  103.49    6.21
   2  -3  -5  104.17    4.50
  -2   3   5   96.39    7.13
  -2   3   5  104.76    6.05
  -2   3   5  104.67    6.22
  -2   3   5   99.25    7.37
   1  -3  -5  200.43    9.47
   1  -3  -5  213.58   14.68
   1  -3  -5  211.44   12.26
  -1   3   5  214.73   12.26
   0  -3  -5    0.67    0.42
   0  -3  -5    1.10    0.22
   0  -3  -5    0.73    0.25
   0  -3  -5    0.74    0.27
   0  -3  -5    0.66    0.25
   0   3   5    0.64    0.19
   0   3   5    0.79    0.41
   0   3   5    0.95    0.29
  -1  -3  -5  286.74   16.54
  -1  -3  -5  275.90   19.94
  -1  -3  -5  292.95   20.31
  -1  -3  -5  281.94   16.74
  -1  -3  -5  281.90   16.53
   1   3   5  297.25   17.23
   1   3   5  290.06   16.51
   1   3   5  286.92   16.76
   1   3   5  289.12   14.61
   1   3   5  296.10   17.55
  -2  -3  -5  326.36   19.65
  -2  -3  -5  340.76   19.63
  -2  -3  -5  375.77   23.79
   2   3   5  343.75   20.49
   2   3   5  336.28   17.46
   2   3   5  349.74   19.59
   2   3   5  336.46   20.08
   2   3   5  339.72   20.81
  -3  -3  -5    6.21    0.37
   3   3   5    5.48    0.71
   3   3   5    5.75    0.69
   3   3   5    4.34    0.59
   3   3   5    5.44    0.77
   4   3   5  151.16    9.25
   4   3   5  144.77    7.77
   4   3   5  148.19    9.05
   4   3   5  145.23    8.91
  -5  -3  -5   79.99    5.33
  -5  -3  -5   79.05    4.52
  -5  -3  -5   78.13    4.48
   5   3   5   74.58    3.36
   5   3   5   77.95    4.98
   5   3   5   75.45    4.34
   5   3   5   76.56    5.14
  -6  -3  -5    5.66    0.50
  -6  -3  -5    5.83    0.89
  -6  -3  -5    6.26    1.23
  -6  -3  -5    5.28    0.54
  -6  -3  -5    5.40    0.47
   6   3   5    5.24    0.79
   6   3   5    5.94    1.01
   6   3   5    5.23    0.49
  -7  -3  -5   38.40    1.64
  -7  -3  -5   37.62    2.31
  -7  -3  -5   36.93    3.43
  -7  -3  -5   37.16    2.88
   7   3   5   33.40    2.46
   7   3   5   37.01    1.80
   7   3   5   33.99    2.81
  -8  -3  -5   23.13    2.55
  -8  -3  -5   20.60    1.99
  -8  -3  -5   20.47    1.48
   8   3   5   21.13    1.22
   8   3   5   19.55    2.03
  -9  -3  -5   -0.08    0.82
  -9  -3  -5    0.85    0.38
  -9  -3  -5    0.33    0.67
   9   3   5    1.24    0.44
   9   3   5    1.59    0.92
 -10  -3  -5   35.77    3.81
 -10  -3  -5   32.43    2.34
  10   3   5   32.77    3.10
  10   3   5   34.11    1.91
 -11  -3  -5   25.76    3.35
  11   3   5   20.78    2.67
  10  -4  -5    1.66    0.81
 -10   4   5    1.49    1.23
 -10   4   5   -0.05    1.70
   9  -4  -5   21.92    1.94
   9  -4  -5   19.31    2.39
  -9   4   5   20.88    2.59
  -9   4   5   19.28    3.16
   8  -4  -5   27.85    1.85
   8  -4  -5   24.63    2.41
  -8   4   5   22.35    3.23
  -8   4   5   24.04    3.16
  -8   4   5   23.82    2.52
   7  -4  -5    6.94    0.83
   7  -4  -5    6.24    1.03
   7  -4  -5    6.11    1.28
   7  -4  -5    6.60    0.93
  -7   4   5    6.13    1.58
  -7   4   5   11.06    2.16
  -7   4   5    6.75    1.33
   6  -4  -5   27.39    2.40
   6  -4  -5   27.94    1.76
   6  -4  -5   30.83    2.19
   6  -4  -5   29.90    1.72
  -6   4   5   26.50    2.42
  -6   4   5   29.22    2.98
  -6   4   5   29.07    3.13
   5  -4  -5   82.57    3.89
   5  -4  -5   81.11    3.99
   5  -4  -5   81.18    5.32
   5  -4  -5   83.59    5.14
  -5   4   5   90.62    5.42
  -5   4   5   77.19    6.45
  -5   4   5   78.93    6.27
   4  -4  -5   48.98    2.46
   4  -4  -5   52.47    3.17
   4  -4  -5   49.21    2.53
   4  -4  -5   52.60    3.42
  -4   4   5   47.66    3.38
  -4   4   5   46.30    4.03
  -4   4   5   46.32    4.02
  -4   4   5   50.27    2.59
   3  -4  -5   13.20    0.87
   3  -4  -5   12.23    0.93
   3  -4  -5   12.03    1.18
   3  -4  -5   12.59    0.90
  -3   4   5   12.29    1.33
  -3   4   5   13.16    1.74
  -3   4   5   12.81    0.71
  -3   4   5   10.53    1.18
   2  -4  -5   94.21    6.10
   2  -4  -5   98.35    7.16
   2  -4  -5   98.31    4.71
   2  -4  -5   99.44    4.43
  -2   4   5  114.78    7.36
  -2   4   5   95.18    6.10
  -2   4   5  101.51    5.11
   1  -4  -5   61.77    2.76
   1  -4  -5   62.16    2.98
   1  -4  -5   61.25    4.44
   1  -4  -5   61.96    3.83
  -1   4   5   60.79    3.82
  -1   4   5   62.12    3.19
  -1   4   5   60.71    4.39
  -1   4   5   61.21    4.17
   0  -4  -5   12.95    1.30
   0  -4  -5   15.43    1.09
   0  -4  -5   14.87    1.13
   0  -4  -5   14.23    0.90
   0  -4  -5   13.37    1.07
   0   4   5   14.58    1.08
   0   4   5   16.84    1.36
   0   4   5   13.45    0.89
   0   4   5   16.33    1.30
  -1  -4  -5  221.42   12.75
  -1  -4  -5  215.39   15.34
  -1  -4  -5  222.77   12.75
  -1  -4  -5  219.98    9.98
  -1  -4  -5  225.31   12.89
  -1  -4  -5  213.52   15.75
   1   4   5  226.31   12.73
   1   4   5  220.28   13.35
   1   4   5  219.12   11.29
   1   4   5  225.39   13.55
  -2  -4  -5    7.24    0.61
  -2  -4  -5    7.71    0.56
  -2  -4  -5    8.23    0.79
  -2  -4  -5    7.80    0.57
   2   4   5    8.09    0.68
   2   4   5    7.21    0.79
   2   4   5    7.15    0.68
   2   4   5    7.58    0.51
   2   4   5    6.86    0.79
  -3  -4  -5  115.49    4.72
   3   4   5  112.57    5.98
   3   4   5  110.37    6.82
   3   4   5  109.65    7.09
   3   4   5  114.36    7.01
  -4  -4  -5  212.99    8.57
   4   4   5  203.33   12.49
   4   4   5  197.83   12.26
   4   4   5  202.76   10.68
   4   4   5  207.40   12.70
  -5  -4  -5   11.66    0.70
  -5  -4  -5   12.66    1.24
   5   4   5   11.41    1.07
   5   4   5   11.52    0.63
   5   4   5   10.60    1.20
   5   4   5   12.28    1.26
   5   4   5   10.31    1.15
  -6  -4  -5   25.92    1.55
  -6  -4  -5   26.13    1.22
  -6  -4  -5   21.57    1.62
  -6  -4  -5   24.71    2.13
   6   4   5   24.44    1.82
   6   4   5   25.57    1.23
   6   4   5   26.80    2.09
  -7  -4  -5   90.39    5.49
  -7  -4  -5   94.10    3.85
  -7  -4  -5   90.61    6.51
   7   4   5   94.86    6.14
   7   4   5   98.16    5.37
   7   4   5   94.00    4.10
  -8  -4  -5   16.94    2.12
  -8  -4  -5   14.13    1.68
  -8  -4  -5   16.24    1.17
   8   4   5   16.13    0.98
   8   4   5   12.80    1.52
   8   4   5   15.65    1.89
  -9  -4  -5    5.26    1.44
  -9  -4  -5    3.45    0.59
  -9  -4  -5    5.14    1.16
   9   4   5    5.15    0.62
   9   4   5    4.38    1.16
   9   4   5    4.30    1.07
 -10  -4  -5   30.04    3.49
 -10  -4  -5   30.72    2.17
  10   4   5   30.58    2.93
 -11  -4  -5    8.73    2.14
  11   4   5   11.03    1.96
   9  -5  -5   19.10    2.39
   9  -5  -5   16.21    1.62
  -9   5   5   14.95    2.14
   8  -5  -5   27.24    1.88
   8  -5  -5   26.98    2.56
  -8   5   5   27.88    3.41
  -8   5   5   23.84    2.56
  -8   5   5   22.49    3.25
   7  -5  -5    1.50    0.84
   7  -5  -5    1.74    0.63
   7  -5  -5    1.71    0.58
   7  -5  -5    0.65    0.49
  -7   5   5    1.10    1.29
  -7   5   5    1.28    0.79
  -7   5   5    1.82    1.22
   6  -5  -5   84.61    4.22
   6  -5  -5   84.40    5.42
   6  -5  -5   84.88    4.12
   6  -5  -5   89.07    5.68
  -6   5   5   82.29    5.65
  -6   5   5   89.67    6.63
  -6   5   5   83.73    6.96
   5  -5  -5   43.18    2.86
   5  -5  -5   43.14    2.28
   5  -5  -5   41.46    2.30
   5  -5  -5   41.61    3.10
  -5   5   5   41.46    3.79
  -5   5   5   43.71    3.15
   4  -5  -5    7.06    0.80
   4  -5  -5    7.27    0.74
   4  -5  -5    8.07    1.13
   4  -5  -5    6.65    0.77
  -4   5   5    6.01    0.99
  -4   5   5    6.77    1.21
   3  -5  -5  244.86   14.29
   3  -5  -5  233.54   14.32
   3  -5  -5  236.81   11.05
   3  -5  -5  240.64   10.40
  -3   5   5  261.53   17.59
  -3   5   5  242.25   14.33
   2  -5  -5  136.37    7.72
   2  -5  -5  132.91    6.10
   2  -5  -5  134.12    5.71
   2  -5  -5  131.63    7.88
  -2   5   5  117.61    8.32
  -2   5   5  131.62    7.87
   1  -5  -5    7.40    0.64
   1  -5  -5    6.16    0.64
   1  -5  -5    6.60    0.51
   1  -5  -5    6.76    0.73
   1  -5  -5    6.43    0.62
  -1   5   5    6.73    1.06
  -1   5   5    5.64    0.66
  -1   5   5    6.52    0.53
  -1   5   5    5.72    0.72
  -1   5   5    7.07    0.79
   0  -5  -5  189.36   11.09
   0  -5  -5  188.39   11.08
   0  -5  -5  192.63   11.07
   0  -5  -5  192.77    8.02
   0  -5  -5  178.56   13.57
   0  -5  -5  186.61    8.64
   0  -5  -5  197.67   13.15
   0   5   5  197.42   11.08
   0   5   5  190.18    9.73
   0   5   5  195.03   11.66
   0   5   5  183.28   11.81
  -1  -5  -5   70.61    4.05
  -1  -5  -5   64.94    3.22
  -1  -5  -5   65.85    4.79
  -1  -5  -5   55.79    5.05
  -1  -5  -5   69.44    4.03
  -1  -5  -5   67.18    4.03
  -1  -5  -5   70.07    2.88
   1   5   5   70.15    3.63
   1   5   5   70.16    4.02
   1   5   5   66.81    4.36
   1   5   5   67.83    4.36
  -2  -5  -5    9.32    0.65
  -2  -5  -5    7.37    0.60
  -2  -5  -5    7.72    0.62
  -2  -5  -5    8.52    0.79
   2   5   5    8.54    0.74
   2   5   5    7.85    0.83
   2   5   5    8.09    0.90
  -3  -5  -5  107.72    4.97
  -3  -5  -5  107.40    6.17
   3   5   5  106.03    5.73
   3   5   5  104.60    6.77
   3   5   5  108.48    6.73
  -4  -5  -5   40.59    1.83
  -4  -5  -5   39.88    2.05
   4   5   5   40.27    2.76
   4   5   5   39.86    2.46
   4   5   5   40.30    2.88
   4   5   5   40.14    2.84
  -5  -5  -5   18.92    1.12
  -5  -5  -5   19.98    1.76
  -5  -5  -5   17.74    1.00
   5   5   5   19.10    1.62
   5   5   5   19.54    1.69
   5   5   5   19.21    1.67
   5   5   5   16.07    1.40
  -6  -5  -5   87.68    4.27
  -6  -5  -5   91.25    6.37
  -6  -5  -5   89.00    5.27
  -6  -5  -5   91.80    3.79
   6   5   5   94.31    5.16
   6   5   5   89.90    3.89
   6   5   5   93.29    5.89
  -7  -5  -5   82.10    3.99
  -7  -5  -5   83.98    3.54
  -7  -5  -5   86.90    6.05
  -7  -5  -5   83.23    4.97
   7   5   5   86.06    3.70
   7   5   5   87.12    4.94
   7   5   5   81.54    5.60
  -8  -5  -5    0.47    0.66
  -8  -5  -5    0.61    0.27
   8   5   5    0.85    0.71
   8   5   5    0.84    0.68
  -9  -5  -5   79.13    4.72
  -9  -5  -5   74.83    5.79
   9   5   5   76.91    4.80
 -10  -5  -5   68.00    5.51
 -10  -5  -5   71.55    6.42
  10   5   5   71.83    4.64
 -11  -5  -5   -0.20    1.21
   9  -6  -5   72.14    3.79
   9  -6  -5   66.39    5.06
  -9   6   5   66.19    5.14
   8  -6  -5    1.70    0.61
   8  -6  -5    2.02    0.74
   8  -6  -5    2.32    1.00
  -8   6   5    1.68    1.00
   7  -6  -5   38.20    2.13
   7  -6  -5   29.96    2.77
   7  -6  -5   30.22    1.98
  -7   6   5   32.86    3.63
  -7   6   5   30.94    2.80
   6  -6  -5  135.75    8.52
   6  -6  -5  129.13    6.45
   6  -6  -5  132.51    6.19
   6  -6  -5  139.17    8.33
  -6   6   5  130.81    8.50
  -6   6   5  144.28   10.62
   5  -6  -5    2.15    0.36
   5  -6  -5    1.53    0.66
   5  -6  -5    3.00    0.59
   5  -6  -5    1.99    0.52
   5  -6  -5    2.00    0.57
  -5   6   5    1.40    0.69
  -5   6   5    2.43    1.03
   4  -6  -5  100.81    4.14
   4  -6  -5  100.43    4.84
   4  -6  -5   97.72    6.08
   4  -6  -5   96.56    4.56
   4  -6  -5   97.90    6.29
  -4   6   5  106.23    7.78
  -4   6   5   99.46    6.29
   3  -6  -5   94.74    5.84
   3  -6  -5   94.31    3.88
   3  -6  -5   92.42    4.50
   3  -6  -5   92.77    4.22
   3  -6  -5   96.40    5.61
  -3   6   5   92.55    7.12
  -3   6   5   86.10    6.22
  -3   6   5   92.79    5.81
   2  -6  -5    1.25    0.27
   2  -6  -5    1.16    0.44
   2  -6  -5    1.92    0.36
   2  -6  -5    1.12    0.40
  -2   6   5    1.05    0.60
  -2   6   5    0.68    0.52
  -2   6   5    1.26    0.36
  -2   6   5    4.94    0.75
   1  -6  -5  238.67   14.56
   1  -6  -5  252.44   10.55
   1  -6  -5  246.95   14.58
   1  -6  -5  239.49   11.31
  -1   6   5  261.95   17.21
  -1   6   5  260.02   14.58
  -1   6   5  255.90   15.28
  -1   6   5  244.20   17.78
   0  -6  -5  188.75   11.30
   0  -6  -5  194.49    8.15
   0  -6  -5  183.54    8.80
   0   6   5  193.94    9.95
   0   6   5  197.47   11.86
   0   6   5  189.55   11.28
   0   6   5  206.19   12.00
  -1  -6  -5    7.06    0.68
  -1  -6  -5    6.61    0.65
  -1  -6  -5    6.18    0.66
  -1  -6  -5    8.43    0.68
  -1  -6  -5    6.74    0.65
  -1  -6  -5    7.33    0.41
   1   6   5    9.16    1.04
   1   6   5    6.89    0.69
   1   6   5    7.75    0.66
   1   6   5    7.43    0.89
  -2  -6  -5  230.12   13.24
  -2  -6  -5  236.61   13.26
  -2  -6  -5  242.02   15.90
  -2  -6  -5  228.18    9.15
  -2  -6  -5  224.98   10.37
   2   6   5  223.61   14.04
   2   6   5  222.61   13.93
   2   6   5  227.02   11.85
  -3  -6  -5  169.02    6.78
  -3  -6  -5  170.43    7.66
  -3  -6  -5  167.91    9.70
  -3  -6  -5  172.09    9.70
   3   6   5  165.17   10.36
   3   6   5  168.82    8.83
   3   6   5  162.00   10.43
  -4  -6  -5   48.97    2.82
  -4  -6  -5   49.39    2.37
  -4  -6  -5   47.76    2.14
  -4  -6  -5   43.10    2.93
   4   6   5   48.38    3.34
   4   6   5   46.55    3.34
   4   6   5   48.65    2.85
  -5  -6  -5   24.99    1.35
  -5  -6  -5   23.86    2.16
  -5  -6  -5   24.76    1.50
  -5  -6  -5   23.52    1.53
  -5  -6  -5   24.09    1.26
   5   6   5   23.83    2.01
   5   6   5   23.36    1.75
   5   6   5   25.35    2.09
  -6  -6  -5  139.45    5.80
  -6  -6  -5  139.91    9.68
  -6  -6  -5  142.28    8.23
  -6  -6  -5  140.74    6.50
   6   6   5  144.07    7.75
   6   6   5  144.83    5.97
  -7  -6  -5   13.00    1.73
  -7  -6  -5   11.75    0.88
  -7  -6  -5   11.02    0.81
   7   6   5    9.54    1.25
  -8  -6  -5   42.69    2.71
  -8  -6  -5   41.90    3.57
   8   6   5   45.22    3.03
  -9  -6  -5   86.52    6.42
   9   6   5   85.17    5.26
 -10  -6  -5    1.95    1.05
  10   6   5   -0.13    0.75
 -11  -6  -5   50.07    5.23
   9  -7  -5    4.00    0.94
   9  -7  -5    4.68    1.39
  -9   7   5    0.55    0.99
   8  -7  -5   25.21    1.87
   8  -7  -5   24.29    2.54
   8  -7  -5   23.05    1.75
  -8   7   5   26.16    2.62
   7  -7  -5   89.53    4.54
   7  -7  -5   93.14    6.28
   7  -7  -5   90.46    4.71
  -7   7   5   91.56    6.27
  -7   7   5  101.25    8.02
   6  -7  -5   22.25    1.56
   6  -7  -5   22.71    1.63
   6  -7  -5   22.22    2.19
  -6   7   5   24.71    2.96
  -6   7   5   21.14    2.18
   5  -7  -5   39.91    2.85
   5  -7  -5   45.68    3.23
   5  -7  -5   43.40    1.98
   5  -7  -5   41.87    2.29
   5  -7  -5   40.42    2.40
  -5   7   5   41.99    3.18
  -5   7   5   44.64    4.09
   4  -7  -5  100.45    4.58
   4  -7  -5  101.78    4.88
   4  -7  -5  100.22    6.33
   4  -7  -5   98.49    6.07
   4  -7  -5   99.60    4.16
  -4   7   5   89.61    6.73
  -4   7   5  101.59    6.32
  -4   7   5  102.30    7.85
   3  -7  -5   82.06    3.68
   3  -7  -5   87.57    5.30
   3  -7  -5   89.27    4.00
   3  -7  -5   84.48    4.29
   3  -7  -5   88.50    5.55
  -3   7   5   88.42    5.97
  -3   7   5   91.17    5.55
   2  -7  -5   41.11    2.16
   2  -7  -5   37.12    2.68
   2  -7  -5   38.34    1.91
   2  -7  -5   42.12    1.84
   2  -7  -5   36.07    2.41
  -2   7   5   37.94    3.22
  -2   7   5   40.50    3.04
  -2   7   5   38.22    2.68
   1  -7  -5  161.75    6.88
   1  -7  -5  163.41    7.46
   1  -7  -5  159.02    9.46
   1  -7  -5  156.20    6.51
   1  -7  -5  155.34    9.55
  -1   7   5  164.79   10.07
  -1   7   5  165.69    9.55
  -1   7   5  159.09   11.63
   0  -7  -5   48.85    2.22
   0  -7  -5   46.60    2.52
   0  -7  -5   48.40    2.23
   0  -7  -5   47.52    3.17
   0   7   5   50.54    2.81
   0   7   5   49.91    3.46
   0   7   5   53.37    3.38
   0   7   5   50.31    3.16
  -1  -7  -5   37.62    2.12
  -1  -7  -5   41.68    1.79
  -1  -7  -5   41.49    2.61
  -1  -7  -5   40.25    1.90
  -1  -7  -5   42.19    2.64
   1   7   5   39.94    2.59
   1   7   5   39.51    2.77
   1   7   5   42.26    2.40
   1   7   5   40.19    2.90
  -2  -7  -5  272.88   15.60
  -2  -7  -5  275.49   18.65
  -2  -7  -5  275.68   15.62
  -2  -7  -5  275.06   12.20
  -2  -7  -5  259.51   10.74
   2   7   5  266.89   16.39
   2   7   5  271.13   13.94
   2   7   5  269.29   15.57
   2   7   5  264.24   16.48
  -3  -7  -5   66.36    3.86
  -3  -7  -5   64.15    3.84
  -3  -7  -5   65.01    3.12
  -3  -7  -5   59.80    2.79
   3   7   5   62.50    3.66
   3   7   5   64.17    4.26
   3   7   5   64.98    4.33
  -4  -7  -5   30.49    1.63
  -4  -7  -5   29.91    1.89
  -4  -7  -5   31.38    2.02
  -4  -7  -5   27.32    1.50
   4   7   5   32.23    2.06
   4   7   5   29.26    2.29
   4   7   5   29.80    2.39
  -5  -7  -5  216.11    8.60
  -5  -7  -5  191.67   12.42
  -5  -7  -5  223.35   14.26
  -5  -7  -5  220.02    9.66
   5   7   5  214.77   11.28
   5   7   5  217.19   13.24
  -6  -7  -5   51.11    2.54
  -6  -7  -5   54.04    4.07
  -6  -7  -5   50.77    3.17
  -6  -7  -5   50.58    2.37
   6   7   5   52.95    3.28
  -7  -7  -5   11.15    1.62
  -7  -7  -5    7.34    0.72
  -7  -7  -5    7.61    0.73
   7   7   5    9.54    1.28
  -8  -7  -5   83.61    6.20
  -8  -7  -5   82.33    5.01
   8   7   5   83.63    5.03
  -9  -7  -5   10.50    1.79
   9   7   5   16.71    1.88
 -10  -7  -5   19.57    2.65
  10   7   5   21.18    2.37
 -11  -7  -5   25.58    2.92
 -11  -7  -5   19.54    3.24
   9  -8  -5    0.96    0.78
   9  -8  -5    0.66    0.97
  -9   8   5    1.10    1.08
   8  -8  -5   26.19    1.94
   8  -8  -5   27.05    2.76
   8  -8  -5   30.48    2.07
  -8   8   5   29.50    2.85
   7  -8  -5   13.29    1.35
   7  -8  -5   13.86    1.84
   7  -8  -5   13.24    1.35
  -7   8   5   14.82    2.02
   6  -8  -5    3.70    0.74
   6  -8  -5    5.11    0.86
   6  -8  -5    4.02    1.02
  -6   8   5    4.51    1.12
  -6   8   5    4.54    1.67
  -6   8   5    2.06    1.39
   5  -8  -5   79.79    3.79
   5  -8  -5   76.83    5.24
   5  -8  -5   76.30    4.01
   5  -8  -5   84.25    3.40
  -5   8   5   79.18    5.24
  -5   8   5   72.98    5.64
  -5   8   5   73.06    6.54
   4  -8  -5   48.42    3.13
   4  -8  -5   50.10    3.48
   4  -8  -5   50.31    2.70
   4  -8  -5   50.54    2.49
   4  -8  -5   50.36    2.24
  -4   8   5   37.38    4.15
  -4   8   5   49.75    3.82
  -4   8   5   45.56    3.41
   3  -8  -5    3.82    0.77
   3  -8  -5    4.57    0.61
   3  -8  -5    4.42    0.60
   3  -8  -5    3.69    0.65
   3  -8  -5    4.39    0.55
  -3   8   5    2.70    0.71
  -3   8   5    2.56    0.98
  -3   8   5    4.52    1.10
   2  -8  -5   70.44    3.74
   2  -8  -5   69.59    4.76
   2  -8  -5   73.45    4.55
   2  -8  -5   74.95    3.25
   2  -8  -5   79.89    3.43
  -2   8   5   73.75    5.80
  -2   8   5   81.88    5.19
  -2   8   5   73.03    4.76
   1  -8  -5  202.85    8.60
   1  -8  -5  204.33   11.98
   1  -8  -5  194.19    8.15
   1  -8  -5  195.22    9.31
  -1   8   5  195.04   14.63
  -1   8   5  218.53   12.59
  -1   8   5  200.93   11.94
  -1   8   5  206.40   12.53
   0  -8  -5    6.30    0.73
   0  -8  -5    7.87    0.52
   0  -8  -5    5.96    0.83
   0  -8  -5    7.08    0.66
   0   8   5    7.29    1.09
   0   8   5    7.14    0.90
   0   8   5    6.25    0.80
   0   8   5    7.57    0.83
  -1  -8  -5   48.19    2.33
  -1  -8  -5   52.29    3.31
  -1  -8  -5   53.69    2.67
  -1  -8  -5   54.19    2.25
   1   8   5   51.11    3.25
   1   8   5   51.69    2.99
   1   8   5   48.67    3.41
   1   8   5   50.64    3.58
  -2  -8  -5  101.62    4.81
  -2  -8  -5   99.91    4.28
   2   8   5  104.15    5.53
   2   8   5   97.73    6.41
   2   8   5  101.22    6.52
   2   8   5  102.36    6.04
  -3  -8  -5    1.05    0.35
  -3  -8  -5    0.94    0.32
  -3  -8  -5    0.75    0.34
   3   8   5    0.66    0.48
   3   8   5    0.92    0.47
   3   8   5    0.57    0.55
  -4  -8  -5   64.80    3.00
  -4  -8  -5   69.56    3.31
  -4  -8  -5   76.99    4.24
  -4  -8  -5   68.97    5.03
   4   8   5   66.21    4.55
   4   8   5   61.98    3.92
   4   8   5   62.92    4.62
  -5  -8  -5   53.49    2.57
  -5  -8  -5   56.16    4.34
  -5  -8  -5   57.76    2.78
   5   8   5   55.60    3.44
   5   8   5   57.34    4.07
  -6  -8  -5    6.19    0.77
  -6  -8  -5    6.94    1.37
  -6  -8  -5    4.57    0.62
  -6  -8  -5    5.34    0.58
   6   8   5    6.83    1.26
   6   8   5    4.84    0.94
  -7  -8  -5  138.07    9.49
  -7  -8  -5  134.89    7.96
   7   8   5  130.52    7.54
  -8  -8  -5   38.14    3.47
   8   8   5   39.59    2.88
  -9  -8  -5    1.18    0.97
   9   8   5    1.25    0.88
 -10  -8  -5   32.07    3.40
  10   8   5   34.15    2.90
   8  -9  -5   46.42    2.67
   8  -9  -5   36.31    2.55
   8  -9  -5   46.14    3.70
  -8   9   5   33.30    4.03
  -8   9   5   45.57    3.70
   7  -9  -5   11.22    1.34
   7  -9  -5   12.52    1.94
   7  -9  -5   13.57    1.40
  -7   9   5   10.93    2.23
  -7   9   5   11.16    1.79
   6  -9  -5    9.23    1.17
   6  -9  -5    7.59    1.00
   6  -9  -5    6.41    1.28
  -6   9   5    6.91    1.67
  -6   9   5    5.90    1.92
  -6   9   5    8.41    1.50
   5  -9  -5   59.35    4.19
   5  -9  -5   59.45    3.24
   5  -9  -5   63.78    2.68
   5  -9  -5   57.12    2.97
  -5   9   5   62.27    4.21
  -5   9   5   45.66    5.11
  -5   9   5   54.60    4.48
   4  -9  -5   16.73    1.37
   4  -9  -5   14.77    1.65
   4  -9  -5   16.56    1.20
   4  -9  -5   16.12    1.06
  -4   9   5   16.12    1.70
  -4   9   5   14.47    2.29
  -4   9   5   15.63    2.05
   3  -9  -5   11.08    0.97
   3  -9  -5   12.05    1.45
   3  -9  -5   11.01    0.99
   3  -9  -5   11.23    0.92
   3  -9  -5   11.30    1.19
  -3   9   5   10.61    1.71
  -3   9   5    9.35    1.52
  -3   9   5    9.94    1.30
   2  -9  -5  107.59    5.43
   2  -9  -5  116.58    4.98
   2  -9  -5  113.35    6.97
   2  -9  -5  113.40    4.74
   2  -9  -5  110.23    6.76
  -2   9   5  110.32    8.49
  -2   9   5  110.17    6.92
  -2   9   5  108.34    7.25
  -2   9   5  115.78    7.35
   1  -9  -5    8.73    1.09
   1  -9  -5    9.45    0.85
   1  -9  -5    8.90    0.96
   1  -9  -5    9.48    0.71
  -1   9   5   10.19    1.07
  -1   9   5   10.09    1.32
  -1   9   5   11.11    1.25
  -1   9   5   10.43    1.36
   0  -9  -5   58.82    3.85
   0  -9  -5   62.76    2.66
   0  -9  -5   56.85    2.69
   0  -9  -5   57.65    3.06
   0   9   5   59.07    3.80
   0   9   5   60.20    4.13
   0   9   5   57.22    3.87
  -1  -9  -5  100.48    6.15
  -1  -9  -5   97.92    4.30
  -1  -9  -5  101.50    4.85
   1   9   5   97.92    6.52
   1   9   5  103.70    5.53
   1   9   5  100.98    6.36
   1   9   5  100.68    6.10
  -2  -9  -5   24.03    1.51
  -2  -9  -5   24.75    1.38
   2   9   5   26.59    1.80
   2   9   5   25.37    2.15
   2   9   5   25.41    1.80
   2   9   5   24.33    1.91
  -3  -9  -5   56.10    3.65
  -3  -9  -5   57.47    2.69
  -3  -9  -5   61.84    2.97
   3   9   5   56.57    3.48
   3   9   5   58.49    3.94
   3   9   5   59.27    4.13
  -4  -9  -5   63.30    2.98
  -4  -9  -5   67.69    4.17
  -4  -9  -5   68.08    5.00
  -4  -9  -5   64.80    3.26
   4   9   5   64.35    4.62
   4   9   5   67.42    3.94
  -5  -9  -5    7.73    0.81
  -5  -9  -5    9.34    0.77
  -5  -9  -5    6.74    1.08
  -5  -9  -5   10.07    1.58
   5   9   5    8.39    1.32
   5   9   5   10.22    1.27
  -6  -9  -5   24.71    2.56
  -6  -9  -5   26.93    2.07
  -6  -9  -5   27.47    1.51
   6   9   5   27.58    2.11
   6   9   5   24.13    2.41
  -7  -9  -5   35.77    2.52
  -7  -9  -5   40.26    3.45
   7   9   5   37.34    2.74
  -8  -9  -5    1.22    0.98
   8   9   5    1.08    0.81
  -9  -9  -5   14.88    2.34
   9   9   5   17.84    2.06
 -10  -9  -5   35.81    3.75
  10   9   5   38.46    3.17
   8 -10  -5   12.91    2.14
   8 -10  -5   11.36    1.47
   8 -10  -5   13.75    1.49
  -8  10   5   10.60    2.25
  -8  10   5   10.12    1.81
   7 -10  -5    1.14    0.72
   7 -10  -5    0.57    0.67
   7 -10  -5    0.46    0.89
  -7  10   5   -0.01    1.31
  -7  10   5    1.88    1.01
   6 -10  -5   81.51    4.14
   6 -10  -5   83.33    4.47
   6 -10  -5   86.70    5.83
  -6  10   5   83.28    5.77
  -6  10   5   81.38    6.11
   5 -10  -5   67.36    3.28
   5 -10  -5   67.69    4.61
   5 -10  -5   63.99    2.92
   5 -10  -5   63.58    3.55
  -5  10   5   64.48    4.85
  -5  10   5   64.55    4.55
  -5  10   5   52.00    5.62
   4 -10  -5    1.92    0.50
   4 -10  -5    1.70    0.69
   4 -10  -5    1.93    0.84
   4 -10  -5    0.76    0.48
  -4  10   5    0.41    1.11
  -4  10   5    2.23    1.01
  -4  10   5    1.44    0.72
   3 -10  -5   75.66    5.29
   3 -10  -5   80.66    3.78
   3 -10  -5   82.25    3.58
   3 -10  -5   81.87    4.21
  -3  10   5   78.30    5.28
  -3  10   5   81.48    5.61
  -3  10   5   82.32    6.57
   2 -10  -5   47.06    2.70
   2 -10  -5   45.64    3.09
   2 -10  -5   46.20    3.35
   2 -10  -5   48.39    2.31
   2 -10  -5   47.82    2.33
  -2  10   5   50.51    3.36
  -2  10   5   46.03    3.32
  -2  10   5   45.54    4.08
  -2  10   5   47.27    3.59
   1 -10  -5    8.87    0.89
   1 -10  -5    9.92    0.74
   1 -10  -5   11.50    1.14
   1 -10  -5    9.67    1.25
  -1  10   5   10.16    1.01
  -1  10   5    8.80    1.30
  -1  10   5    9.30    1.15
  -1  10   5    9.76    1.51
   0 -10  -5   89.18    3.88
   0 -10  -5   89.45    5.59
   0 -10  -5   89.88    4.41
   0 -10  -5   87.98    3.89
   0  10   5   87.23    5.89
   0  10   5   87.35    5.62
   0  10   5   87.40    5.52
  -1 -10  -5    6.22    0.75
  -1 -10  -5    7.37    0.88
   1  10   5    8.14    0.87
   1  10   5    5.64    1.02
   1  10   5    7.19    0.90
   1  10   5    8.66    1.05
  -2 -10  -5   34.80    2.50
  -2 -10  -5   33.78    2.04
  -2 -10  -5   39.01    1.91
   2  10   5   37.76    2.43
   2  10   5   37.85    2.88
   2  10   5   35.04    2.57
  -3 -10  -5  109.99    5.05
  -3 -10  -5   99.38    6.36
  -3 -10  -5  105.93    4.55
   3  10   5  108.20    6.93
   3  10   5  109.70    5.90
   3  10   5   98.04    6.69
  -4 -10  -5   44.62    2.14
  -4 -10  -5   42.59    2.24
  -4 -10  -5   38.15    3.46
  -4 -10  -5   40.15    2.82
   4  10   5   42.48    2.77
   4  10   5   40.54    3.25
  -5 -10  -5    5.02    0.71
  -5 -10  -5    6.65    1.28
  -5 -10  -5    6.40    1.13
  -5 -10  -5    6.42    0.70
   5  10   5    5.07    1.02
   5  10   5    6.76    1.31
  -6 -10  -5   48.48    4.11
  -6 -10  -5   70.33    5.05
   6  10   5   62.62    4.64
   6  10   5   71.04    4.02
  -7 -10  -5   52.20    4.41
  -7 -10  -5   50.38    3.48
   7  10   5   53.62    3.56
  -8 -10  -5    1.18    1.06
   8  10   5    0.93    0.82
  -9 -10  -5   14.52    2.33
   9  10   5   16.62    2.09
   7 -11  -5   16.90    2.30
   7 -11  -5   19.06    1.71
   7 -11  -5   18.20    1.87
  -7  11   5   17.45    2.24
  -7  11   5   17.86    2.49
   6 -11  -5   30.62    2.01
   6 -11  -5   32.81    2.27
   6 -11  -5   33.34    2.98
  -6  11   5   25.13    2.78
  -6  11   5   33.95    3.27
   5 -11  -5    0.83    0.74
   5 -11  -5    2.51    0.81
   5 -11  -5    2.84    0.70
  -5  11   5    1.85    0.90
  -5  11   5    2.27    1.15
   4 -11  -5   60.70    3.06
   4 -11  -5   61.20    2.87
   4 -11  -5   61.87    4.40
   4 -11  -5   59.59    3.44
  -4  11   5   61.24    4.58
  -4  11   5   63.38    4.38
  -4  11   5   56.18    5.41
   3 -11  -5   70.82    3.23
   3 -11  -5   69.51    3.33
   3 -11  -5   66.04    3.74
   3 -11  -5   68.36    4.78
  -3  11   5   68.35    4.99
  -3  11   5   70.60    4.75
  -3  11   5   71.44    5.90
   2 -11  -5    0.69    0.45
   2 -11  -5    0.22    0.50
   2 -11  -5    0.54    0.55
   2 -11  -5    0.50    0.36
  -2  11   5    1.06    0.87
  -2  11   5    1.75    0.88
  -2  11   5    0.95    0.62
   1 -11  -5  103.64    4.56
   1 -11  -5  102.67    5.14
   1 -11  -5  102.24    4.48
   1 -11  -5   96.28    6.48
  -1  11   5  103.70    8.00
  -1  11   5  102.71    6.45
  -1  11   5  105.65    6.84
   0 -11  -5   89.08    5.68
   0 -11  -5   87.17    4.47
   0 -11  -5   85.55    3.94
   0  11   5   94.67    5.63
   0  11   5   87.74    5.63
   0  11   5   86.36    5.96
  -1 -11  -5    2.01    0.51
  -1 -11  -5    3.23    0.66
   1  11   5    2.84    0.59
   1  11   5    3.85    0.80
   1  11   5    2.72    0.82
  -2 -11  -5   49.33    2.42
  -2 -11  -5   45.55    2.61
  -2 -11  -5   47.27    3.26
   2  11   5   49.00    3.08
   2  11   5   51.47    3.71
   2  11   5   47.86    3.30
  -3 -11  -5   74.52    3.49
  -3 -11  -5   77.36    4.86
  -3 -11  -5   78.07    5.79
  -3 -11  -5   76.06    3.83
   3  11   5   72.83    4.50
   3  11   5   79.38    5.37
  -4 -11  -5    1.81    0.56
  -4 -11  -5    0.73    0.44
  -4 -11  -5    1.34    0.83
  -4 -11  -5    1.43    0.48
   4  11   5    1.60    0.67
   4  11   5    1.14    0.79
  -5 -11  -5   45.25    3.24
  -5 -11  -5   45.70    3.81
   5  11   5   41.43    3.51
   5  11   5   39.41    2.95
  -6 -11  -5   64.13    5.05
   6  11   5   57.64    3.94
   6  11   5   62.43    4.71
  -7 -11  -5    0.53    0.50
  -7 -11  -5    1.50    1.08
   7  11   5    1.37    0.84
  -8 -11  -5   33.76    3.52
   8  11   5   35.11    2.87
  -9 -11  -5   43.91    4.27
   9  11   5   43.83    3.51
   6 -12  -5    6.32    1.01
   6 -12  -5    6.09    1.39
   6 -12  -5    8.95    1.37
  -6  12   5    5.08    1.40
  -6  12   5    5.75    1.56
   5 -12  -5   26.36    2.08
   5 -12  -5   24.15    1.70
   5 -12  -5   24.73    2.56
  -5  12   5   26.61    2.59
  -5  12   5   26.74    2.75
   4 -12  -5   32.68    1.99
   4 -12  -5   33.23    2.95
   4 -12  -5   36.79    2.42
  -4  12   5   37.48    3.16
  -4  12   5   30.15    2.85
  -4  12   5   37.67    3.98
   3 -12  -5    0.59    0.45
   3 -12  -5    0.48    0.62
   3 -12  -5    0.86    0.51
   3 -12  -5    0.20    0.64
  -3  12   5    0.21    0.67
  -3  12   5    0.48    0.83
  -3  12   5    1.16    1.10
   2 -12  -5   43.19    2.24
   2 -12  -5   41.88    2.21
   2 -12  -5   42.57    2.63
   2 -12  -5   45.59    3.32
  -2  12   5   44.08    3.49
  -2  12   5   42.06    4.02
  -2  12   5   40.35    3.18
   1 -12  -5   67.85    3.28
   1 -12  -5   71.62    3.80
   1 -12  -5   71.63    4.79
  -1  12   5   68.96    4.98
  -1  12   5   71.28    5.87
  -1  12   5   69.69    4.69
   0 -12  -5   14.33    1.43
   0 -12  -5   16.40    1.32
   0  12   5   12.91    1.83
  -1 -12  -5   21.00    1.38
  -1 -12  -5   18.62    1.51
  -1 -12  -5   20.67    1.82
   1  12   5   18.11    1.71
   1  12   5   20.22    2.09
  -2 -12  -5   88.52    5.61
  -2 -12  -5   91.02    4.45
  -2 -12  -5   87.89    3.99
   2  12   5   82.78    6.02
   2  12   5   88.90    5.16
  -3 -12  -5   60.02    4.10
  -3 -12  -5   63.86    4.96
  -3 -12  -5   61.90    3.26
  -3 -12  -5   58.41    2.98
   3  12   5   65.78    4.63
   3  12   5   61.52    3.88
  -4 -12  -5    5.07    0.90
  -4 -12  -5    4.73    0.73
  -4 -12  -5    4.77    1.30
   4  12   5    5.01    1.24
   4  12   5    6.30    1.13
  -5 -12  -5   57.06    4.10
  -5 -12  -5   58.20    4.80
   5  12   5   61.63    4.55
   5  12   5   53.34    3.75
  -6 -12  -5   17.43    2.54
   6  12   5   16.36    1.94
   6  12   5   16.21    2.31
  -7 -12  -5    9.77    1.57
  -7 -12  -5    8.49    1.95
   7  12   5    9.31    1.52
  -8 -12  -5   51.67    4.68
   8  12   5   48.79    3.75
   6 -13  -5    7.10    1.30
   6 -13  -5    4.89    0.96
   6 -13  -5    4.66    1.27
  -6  13   5    4.77    1.45
  -6  13   5    5.26    1.44
   5 -13  -5   62.61    3.28
   5 -13  -5   62.67    4.74
   5 -13  -5   63.32    3.73
  -5  13   5   61.54    4.67
  -5  13   5   58.62    4.80
   4 -13  -5   27.16    2.17
   4 -13  -5   27.83    1.78
   4 -13  -5   26.21    2.62
  -4  13   5   23.69    2.67
  -4  13   5   28.13    2.61
   3 -13  -5    0.90    0.73
   3 -13  -5    1.98    0.86
  -3  13   5    1.79    1.26
  -3  13   5    0.98    0.93
  -3  13   5    1.73    0.82
   2 -13  -5   34.19    2.33
   2 -13  -5   32.85    2.82
  -2  13   5   30.84    2.92
  -2  13   5   34.48    3.55
   1 -13  -5   52.67    3.04
  -1  13   5   48.02    3.94
  -1  13   5   53.24    4.71
   0 -13  -5   -0.05    0.55
   0 -13  -5    0.33    0.60
   0  13   5   -0.54    0.59
   0  13   5    1.02    0.80
  -1 -13  -5   30.85    2.51
  -1 -13  -5   28.70    2.00
   1  13   5   30.95    2.39
   1  13   5   32.60    2.84
  -2 -13  -5   44.76    3.22
  -2 -13  -5   43.94    3.87
  -2 -13  -5   44.49    2.60
   2  13   5   45.69    3.63
   2  13   5   41.58    3.04
  -3 -13  -5    1.66    1.00
  -3 -13  -5    3.55    0.71
  -3 -13  -5    1.85    0.66
   3  13   5    3.47    1.10
   3  13   5    3.54    0.96
  -4 -13  -5   77.74    5.91
  -4 -13  -5   70.00    4.92
   4  13   5   70.34    4.60
   4  13   5   78.68    5.50
  -5 -13  -5   37.88    3.81
  -5 -13  -5   39.19    3.26
   5  13   5   47.20    3.76
   5  13   5   43.21    3.10
  -6 -13  -5    0.56    0.97
  -6 -13  -5    1.36    0.84
   6  13   5    2.09    0.91
  -7 -13  -5   52.03    4.80
   7  13   5   53.93    3.85
   4 -14  -5    3.96    1.27
   4 -14  -5    6.37    1.27
  -4  14   5    5.05    1.39
   3 -14  -5   23.90    2.41
   3 -14  -5   19.15    1.94
  -3  14   5   20.09    2.50
   2 -14  -5   89.84    4.79
  -2  14   5   81.48    6.15
  -2  14   5   92.27    7.48
   1 -14  -5   15.43    1.60
   1 -14  -5   10.89    1.64
  -1  14   5    9.50    1.68
   0 -14  -5   18.06    2.01
   0 -14  -5   21.32    1.83
   0  14   5   17.69    2.21
   0  14   5   18.93    1.98
  -1 -14  -5   61.09    5.12
  -1 -14  -5   64.60    3.54
  -1 -14  -5   70.42    4.53
   1  14   5   59.57    4.07
   1  14   5   60.08    4.75
  -2 -14  -5    7.58    1.30
  -2 -14  -5    9.07    1.79
  -2 -14  -5    8.95    1.15
   2  14   5   10.61    1.54
   2  14   5    8.87    1.63
  -3 -14  -5   39.95    3.04
  -3 -14  -5   37.59    2.38
  -3 -14  -5   36.98    3.65
   3  14   5   39.96    2.95
   3  14   5   39.86    3.47
  -4 -14  -5   31.93    3.23
  -4 -14  -5   28.84    2.57
   4  14   5   31.97    2.58
   4  14   5   29.88    3.00
  -5 -14  -5    0.49    0.72
  -5 -14  -5    0.86    1.00
   5  14   5    0.41    0.74
   5  14   5   -0.05    0.85
  -6 -14  -5   21.31    2.80
  -6 -14  -5   32.56    3.40
   6  14   5   33.98    2.73
   3 -15  -5   33.37    2.45
  -3  15   5   26.30    2.87
   2 -15  -5   21.34    2.41
   2 -15  -5   23.03    2.15
  -2  15   5   17.45    2.40
   1 -15  -5   18.20    1.76
   1 -15  -5   16.66    2.12
  -1  15   5   14.72    2.15
   0 -15  -5   94.17    6.18
   0 -15  -5   92.07    6.95
   0 -15  -5   87.76    4.85
   0  15   5   91.41    5.54
   0  15   5   85.77    6.41
  -1 -15  -5   18.21    1.79
  -1 -15  -5   17.49    2.53
  -1 -15  -5   20.98    2.14
   1  15   5   20.26    2.24
   1  15   5   21.55    2.54
  -2 -15  -5   17.19    2.55
  -2 -15  -5   10.76    1.34
  -2 -15  -5   14.50    1.86
   2  15   5   14.58    2.12
   2  15   5   16.07    1.91
  -3 -15  -5   67.54    4.81
  -3 -15  -5   64.25    5.61
   3  15   5   68.65    4.53
   3  15   5   73.83    5.34
  -4 -15  -5   31.19    3.28
  -4 -15  -5   27.30    2.59
   4  15   5   28.26    2.57
   4  15   5   28.64    3.02
   0 -16  -5   20.85    2.85
   0 -16  -5   22.12    2.02
   0 -16  -5   18.40    2.40
   0  16   5   20.67    2.37
   0  16   5   17.86    2.50
  -1 -16  -5    2.33    0.85
  -1 -16  -5    1.38    0.91
  -1 -16  -5    2.01    1.21
   1  16   5    2.74    1.22
   1  16   5    0.77    1.02
   0  12  -6   28.47    4.43
   0  12  -6   39.00    3.68
   0 -12   6   33.64    3.60
  -1  12  -6   41.26    3.97
  -1  12  -6   50.57    5.53
   1 -12   6   39.88    3.98
  -2  12  -6    0.72    1.02
  -2  12  -6    3.06    2.16
   2 -12   6    0.72    1.23
  -3  12  -6   14.03    3.09
   3 -12   6   11.78    2.18
   3 -12   6    9.92    1.94
   3  11  -6   19.73    3.61
  -3 -11   6   21.64    2.89
  -3 -11   6   19.95    2.86
   2  11  -6    3.75    2.04
   2  11  -6    4.15    1.47
  -2 -11   6    4.87    1.66
  -2 -11   6    5.07    1.62
   1  11  -6    3.77    1.95
   1  11  -6    5.58    1.54
  -1 -11   6    4.91    1.65
   0  11  -6   37.06    4.69
   0  11  -6   32.47    3.58
   0  11  -6   52.11    5.15
   0 -11   6   37.97    3.72
  -1  11  -6    1.87    1.18
  -1  11  -6    0.06    1.56
  -1  11  -6    0.13    1.61
   1 -11   6    2.68    1.21
  -2  11  -6    7.71    2.50
  -2  11  -6    4.04    1.39
  -2  11  -6    7.27    2.23
   2 -11   6    4.52    1.42
  -3  11  -6   39.46    3.57
  -3  11  -6   43.87    4.71
  -3  11  -6   43.86    4.98
   3 -11   6   38.36    3.60
  -4  11  -6   21.21    3.72
  -4  11  -6   20.28    2.53
  -4  11  -6   20.28    3.25
   4 -11   6   23.97    3.31
   4 -11   6   28.65    3.01
  -5  11  -6    2.17    1.08
  -5  11  -6    3.10    2.25
   5 -11   6    3.50    1.76
   5 -11   6    1.85    1.34
   4  10  -6   23.17    3.91
   4  10  -6   29.79    2.82
  -4 -10   6   27.03    3.33
  -4 -10   6   31.80    3.34
   3  10  -6   27.06    4.24
   3  10  -6   29.29    3.09
  -3 -10   6   29.11    3.16
  -3 -10   6   27.12    3.31
   2  10  -6   -1.41    1.36
   2  10  -6    0.85    0.98
  -2 -10   6    0.80    1.13
  -2 -10   6    0.60    1.09
   1  10  -6   31.08    3.60
   1  10  -6   26.38    4.08
  -1 -10   6   33.91    3.11
  -1 -10   6   30.66    3.22
   0  10  -6   44.68    4.78
   0  10  -6   38.85    3.71
   0  10  -6   45.27    4.91
   0 -10   6   39.79    3.65
  -1  10  -6    3.18    1.87
  -1  10  -6    3.87    1.21
  -1  10  -6    5.44    1.97
   1 -10   6    2.54    1.14
  -2  10  -6   21.38    3.49
  -2  10  -6   23.08    2.62
  -2  10  -6   20.71    3.21
   2 -10   6   20.17    2.37
  -3  10  -6   35.64    4.24
  -3  10  -6   31.43    3.84
  -3  10  -6   31.52    2.94
   3 -10   6   31.56    3.00
  -4  10  -6    0.35    0.74
  -4  10  -6    0.24    1.21
  -4  10  -6    1.88    1.91
   4 -10   6   -0.61    0.96
   4 -10   6    0.60    1.29
  -5  10  -6   32.16    4.03
  -5  10  -6   41.12    5.05
  -5  10  -6   45.40    3.46
   5 -10   6   44.24    3.56
   5 -10   6   33.99    3.94
  -6  10  -6   12.07    2.35
  -6  10  -6   18.21    2.20
  -6  10  -6   17.40    3.57
   6 -10   6   16.54    2.78
   5   9  -6    9.09    2.43
   5   9  -6   11.45    1.84
  -5  -9   6   10.78    1.94
  -5  -9   6    8.60    2.08
   4   9  -6   19.04    2.48
   4   9  -6   21.36    3.62
   4   9  -6   14.81    2.05
  -4  -9   6   15.76    2.38
  -4  -9   6   16.39    2.55
   3   9  -6    4.77    1.97
   3   9  -6    4.74    1.32
  -3  -9   6    3.24    1.33
  -3  -9   6    3.76    1.48
   2   9  -6   11.07    2.66
   2   9  -6    9.29    1.78
  -2  -9   6   13.64    2.03
  -2  -9   6   12.31    2.07
   1   9  -6   57.25    5.83
   1   9  -6   50.91    4.49
  -1  -9   6   65.28    4.69
  -1  -9   6   59.47    4.64
   0   9  -6   22.63    3.35
   0   9  -6   20.43    2.54
   0   9  -6   16.56    2.98
   0  -9   6   13.69    1.97
   0  -9   6   16.29    1.99
  -1   9  -6   29.04    2.89
  -1   9  -6   32.95    3.94
  -1   9  -6   35.82    3.96
   1  -9   6   32.20    2.92
  -2   9  -6   72.04    6.79
  -2   9  -6   83.90    6.65
  -2   9  -6   69.61    5.23
   2  -9   6   72.32    5.21
  -3   9  -6   28.52    3.30
  -3   9  -6   29.20    3.81
  -3   9  -6   25.63    2.49
   3  -9   6   26.06    2.60
  -4   9  -6   13.71    1.80
  -4   9  -6   12.71    2.25
  -4   9  -6   15.91    2.94
   4  -9   6   15.66    1.91
   4  -9   6   13.59    2.28
  -5   9  -6   43.60    5.10
  -5   9  -6   54.04    3.66
  -5   9  -6   32.46    4.14
   5  -9   6   56.53    3.79
   5  -9   6   38.52    4.02
  -6   9  -6    0.62    1.78
  -6   9  -6    2.07    0.91
  -6   9  -6    0.42    1.04
   6  -9   6   -1.18    1.20
  -7   9  -6    7.23    2.59
  -7   9  -6   14.57    1.86
  -7   9  -6   12.74    2.26
   7  -9   6    7.67    2.11
  -6  -8   6    2.66    1.65
  -6  -8   6    8.29    1.88
   5   8  -6   33.41    2.86
   5   8  -6   34.78    4.35
   5   8  -6   36.49    3.35
  -5  -8   6   36.97    3.50
  -5  -8   6   30.03    3.62
   4   8  -6   41.16    4.69
   4   8  -6   43.97    3.26
   4   8  -6   43.27    3.68
  -4  -8   6   38.41    3.87
  -4  -8   6   42.27    3.80
   3   8  -6   -0.39    1.27
   3   8  -6    0.04    0.76
  -3  -8   6    0.25    0.96
  -3  -8   6    0.50    1.08
   2   8  -6   49.93    5.32
   2   8  -6   56.58    4.29
  -2  -8   6   57.60    4.42
  -2  -8   6   47.30    4.17
   1   8  -6   44.21    4.42
   1   8  -6   33.61    3.29
   1   8  -6   39.14    4.35
  -1  -8   6   40.59    3.39
  -1  -8   6   37.99    3.36
   0   8  -6   21.16    3.11
   0   8  -6   17.79    2.82
   0   8  -6   15.99    2.15
   0  -8   6   15.77    1.89
   0  -8   6   15.06    1.97
  -1   8  -6  104.42    6.94
  -1   8  -6  109.75    8.81
  -1   8  -6  107.23    8.55
   1  -8   6  100.71    6.82
   1  -8   6   99.54    7.20
  -2   8  -6   37.94    4.11
  -2   8  -6   39.75    4.00
  -2   8  -6   38.67    3.11
   2  -8   6   35.23    3.03
  -3   8  -6   20.11    2.73
  -3   8  -6   24.53    3.55
  -3   8  -6   21.55    2.14
   3  -8   6   23.71    2.23
  -4   8  -6  104.76    9.32
  -4   8  -6  115.63    7.19
   4  -8   6  104.50    7.68
   4  -8   6  116.09    7.19
  -5   8  -6   31.92    4.27
  -5   8  -6   35.14    3.72
  -5   8  -6   41.54    3.06
   5  -8   6   29.82    3.46
   5  -8   6   45.07    3.19
  -6   8  -6    1.33    1.52
  -6   8  -6    4.57    1.45
  -6   8  -6    4.57    1.07
   6  -8   6    4.22    1.64
  -7   8  -6   24.07    4.13
  -7   8  -6   29.94    3.40
  -7   8  -6   32.02    2.73
   7  -8   6   31.27    3.43
  -8   8  -6   24.71    2.44
  -8   8  -6   23.83    3.05
  -8   8  -6   19.40    3.63
   8  -8   6   25.95    3.51
  -7  -7   6    0.01    1.42
  -7  -7   6    1.50    1.36
  -6  -7   6   16.64    2.62
   5   7  -6   65.67    4.40
   5   7  -6   68.67    6.41
   5   7  -6   77.00    5.30
  -5  -7   6   62.39    5.54
  -5  -7   6   64.89    5.17
   4   7  -6   -0.17    0.65
   4   7  -6   -0.31    1.15
   4   7  -6    1.13    0.82
  -4  -7   6   -0.08    1.07
  -4  -7   6    1.26    1.13
   3   7  -6   88.80    8.23
   3   7  -6  106.93    6.78
  -3  -7   6  102.09    7.25
  -3  -7   6   92.43    6.68
   2   7  -6   93.86    8.89
   2   7  -6  109.63    7.34
  -2  -7   6  128.08    7.94
  -2  -7   6  102.81    7.27
   1   7  -6    0.35    1.20
   1   7  -6   -1.06    1.00
   1   7  -6   -0.34    0.57
  -1  -7   6    0.89    0.87
  -1  -7   6    0.48    0.80
   0   7  -6   98.23    7.41
   0   7  -6  129.53    9.38
   0   7  -6  125.30    9.45
   0  -7   6  111.98    7.42
   0  -7   6  113.12    7.95
  -1   7  -6   71.75    5.72
  -1   7  -6   65.17    5.74
  -1   7  -6   58.71    4.47
   1  -7   6   59.91    4.61
   1  -7   6   64.52    4.48
  -2   7  -6    0.60    1.02
  -2   7  -6    0.26    0.57
  -2   7  -6    1.19    1.18
   2  -7   6   -0.46    0.62
   2  -7   6   -0.21    0.55
  -3   7  -6   29.12    3.51
  -3   7  -6   40.72    2.97
  -3   7  -6   39.80    4.16
   3  -7   6   42.70    3.00
  -4   7  -6   44.23    3.05
  -4   7  -6   37.54    4.15
  -4   7  -6   31.48    3.61
   4  -7   6   35.76    3.45
   4  -7   6   44.66    3.08
  -5   7  -6    3.22    0.84
  -5   7  -6    1.21    1.49
  -5   7  -6    1.69    1.05
   5  -7   6    1.29    1.20
   5  -7   6    2.11    0.86
  -6   7  -6   35.49    2.78
  -6   7  -6   35.80    3.52
  -6   7  -6   28.29    3.85
   6  -7   6   40.41    3.00
   6  -7   6   28.81    3.27
  -7   7  -6   52.97    5.60
  -7   7  -6   53.51    5.00
  -7   7  -6   60.89    4.13
   7  -7   6   57.06    4.74
  -8   7  -6    6.11    2.24
  -8   7  -6    4.50    1.52
  -8   7  -6    5.08    1.14
   8  -7   6    3.81    1.62
  -9   7  -6   32.45    3.82
  -9   7  -6   35.52    3.06
  -9   7  -6   37.71    4.75
   9  -7   6   40.37    3.96
  -7  -6   6    9.67    2.11
  -7  -6   6    6.90    2.13
   6   6  -6   56.93    5.83
   6   6  -6   67.48    5.03
  -6  -6   6   54.95    5.26
  -6  -6   6   68.63    5.13
   5   6  -6   20.26    3.11
   5   6  -6   22.60    2.57
   5   6  -6   18.12    2.01
  -5  -6   6   21.11    2.57
  -5  -6   6   11.05    2.15
   4   6  -6   30.90    2.62
   4   6  -6   23.93    3.49
   4   6  -6   17.88    2.04
  -4  -6   6   19.01    2.60
  -4  -6   6   23.84    2.52
   3   6  -6   95.80    6.22
   3   6  -6   87.26    7.61
  -3  -6   6   89.53    6.63
  -3  -6   6   85.28    6.13
   2   6  -6    9.44    2.27
   2   6  -6   14.21    1.89
  -2  -6   6   10.40    1.67
  -2  -6   6   12.36    1.72
   1   6  -6   50.33    4.43
   1   6  -6   68.19    5.85
   1   6  -6   80.82    5.95
  -1  -6   6   68.75    4.87
  -1  -6   6   56.38    4.48
   0   6  -6  115.63    8.35
   0   6  -6  145.36   10.53
   0   6  -6  147.05   10.44
   0  -6   6  123.33    8.32
   0  -6   6  134.64    8.31
   0  -6   6  133.26    9.06
  -1   6  -6   15.71    2.30
  -1   6  -6   16.28    2.49
  -1   6  -6   13.74    1.69
   1  -6   6   13.05    1.50
   1  -6   6   13.96    1.69
  -2   6  -6   10.30    1.38
  -2   6  -6    8.54    1.89
  -2   6  -6    7.60    1.59
   2  -6   6    8.22    1.24
   2  -6   6    7.33    1.06
  -3   6  -6   95.66    6.03
  -3   6  -6   86.05    7.73
   3  -6   6   98.22    6.01
  -4   6  -6   14.65    2.64
  -4   6  -6   22.91    1.86
  -4   6  -6   19.76    2.41
   4  -6   6   18.81    2.46
   4  -6   6   22.29    1.91
  -5   6  -6    8.38    1.18
  -5   6  -6    7.92    1.57
  -5   6  -6    6.03    1.75
   5  -6   6    8.76    1.22
   5  -6   6    6.21    1.58
  -6   6  -6   50.40    5.04
  -6   6  -6   49.86    3.58
  -6   6  -6   54.49    4.51
   6  -6   6   47.58    3.57
   6  -6   6   48.89    4.18
  -7   6  -6    9.63    1.39
  -7   6  -6    9.89    1.77
  -7   6  -6    5.19    2.02
   7  -6   6   10.80    2.10
  -8   6  -6   20.82    2.65
  -8   6  -6   21.19    3.39
  -8   6  -6   20.10    2.05
   8  -6   6   24.72    3.17
  -9   6  -6   52.89    5.88
  -9   6  -6   59.32    4.31
  -9   6  -6   59.92    5.38
   9  -6   6   68.48    5.20
  10  -6   6   11.92    2.43
   8   5  -6    2.49    0.95
  -8  -5   6    6.23    1.87
  -8  -5   6    1.66    1.65
  -7  -5   6  100.19    6.77
  -7  -5   6   76.30    6.96
   6   5  -6   46.76    4.72
   6   5  -6   44.49    3.97
  -6  -5   6   42.38    4.30
  -6  -5   6   50.89    4.16
   5   5  -6    2.99    1.46
   5   5  -6    3.29    1.18
   5   5  -6    1.20    0.67
  -5  -5   6    2.31    1.09
  -5  -5   6    1.28    1.22
   4   5  -6   85.62    7.00
   4   5  -6   97.73    5.89
   4   5  -6   66.87    4.71
  -4  -5   6   89.86    5.80
  -4  -5   6   72.41    6.10
   3   5  -6   48.55    4.79
   3   5  -6   54.94    3.91
  -3  -5   6   47.80    4.09
  -3  -5   6   49.19    3.83
   2   5  -6    0.84    1.18
   2   5  -6    2.55    0.83
  -2  -5   6    1.81    0.91
  -2  -5   6    2.18    0.90
   1   5  -6   19.47    2.81
   1   5  -6   25.52    2.65
   1   5  -6   16.25    1.92
  -1  -5   6   23.26    2.17
  -1  -5   6   20.98    2.07
   0   5  -6   18.78    2.34
   0   5  -6   15.77    1.73
   0   5  -6   20.38    2.49
   0  -5   6   17.79    1.52
   0  -5   6   16.92    1.80
   0  -5   6   17.25    1.80
  -1   5  -6    0.60    0.51
  -1   5  -6    2.50    1.01
  -1   5  -6    0.34    0.81
   1  -5   6    0.69    0.62
   1  -5   6    0.33    0.45
   1  -5   6    0.32    0.60
  -2   5  -6   55.58    3.60
  -2   5  -6   52.96    4.70
   2  -5   6   42.12    3.58
   2  -5   6   57.17    3.40
   2  -5   6   50.18    3.54
  -3   5  -6   72.28    4.57
  -3   5  -6   54.84    5.47
  -3   5  -6   55.42    5.81
   3  -5   6   75.49    4.57
   3  -5   6   67.31    4.91
   3  -5   6   73.01    4.47
   3  -5   6   78.52    4.67
  -4   5  -6   -0.80    0.84
  -4   5  -6    0.20    0.39
  -4   5  -6    0.00    0.65
   4  -5   6   -0.57    0.72
   4  -5   6    0.36    0.55
  -5   5  -6  102.84    6.41
  -5   5  -6  100.41    8.37
  -5   5  -6  103.22    7.88
   5  -5   6  101.50    6.99
   5  -5   6  102.91    6.40
  -6   5  -6   86.90    5.58
  -6   5  -6   83.90    6.84
  -6   5  -6   83.32    7.35
   6  -5   6   92.81    6.25
   6  -5   6   88.81    5.58
  -7   5  -6    2.09    0.98
  -7   5  -6    3.37    0.83
  -7   5  -6    1.86    1.43
   7  -5   6    1.80    1.20
  -8   5  -6   48.27    3.50
  -8   5  -6   44.36    4.86
  -8   5  -6   49.47    4.40
   8  -5   6   49.90    4.19
  -9   5  -6   31.75    3.45
  -9   5  -6   29.12    3.98
  -9   5  -6   32.79    2.71
   9  -5   6   32.88    3.37
   9  -5   6   36.23    2.19
 -10   5  -6    3.25    0.99
 -10   5  -6    0.91    1.62
 -10   5  -6    3.63    1.46
  10  -5   6    4.49    1.69
  10  -5   6    3.49    0.91
   8   4  -6   18.83    1.79
  -8  -4   6   14.79    2.57
  -8  -4   6    8.24    2.25
   7   4  -6   36.09    2.41
   7   4  -6   29.36    3.26
  -7  -4   6   43.92    3.84
  -7  -4   6   28.54    3.63
   6   4  -6    2.22    1.11
   6   4  -6    1.07    1.12
  -6  -4   6    1.51    1.16
  -6  -4   6    1.41    1.34
   5   4  -6   43.58    3.62
   5   4  -6   41.43    2.76
   5   4  -6   42.22    4.21
  -5  -4   6   37.02    3.79
  -5  -4   6   45.82    3.68
   4   4  -6   37.18    3.65
   4   4  -6   26.14    2.20
   4   4  -6   35.20    2.98
  -4  -4   6   42.09    3.14
  -4  -4   6   32.47    3.16
   3   4  -6    6.65    1.26
   3   4  -6    6.88    1.74
  -3  -4   6    5.75    1.21
  -3  -4   6    2.89    1.03
   2   4  -6   28.41    3.56
   2   4  -6   39.84    2.97
  -2  -4   6   38.75    3.16
  -2  -4   6   37.81    2.95
   1   4  -6   44.52    3.68
   1   4  -6   62.79    4.95
  -1  -4   6   57.35    4.09
  -1  -4   6   48.41    3.72
   0   4  -6   33.29    3.17
   0   4  -6   33.68    3.06
   0   4  -6   26.61    2.36
   0  -4   6   26.91    2.36
   0  -4   6   28.99    2.49
  -1   4  -6   21.91    2.39
  -1   4  -6   23.38    1.89
  -1   4  -6   23.61    2.43
   1  -4   6   18.98    1.80
   1  -4   6   22.24    1.87
   1  -4   6   18.95    1.67
  -2   4  -6   67.40    6.04
  -2   4  -6   83.94    4.84
   2  -4   6   64.22    4.98
   2  -4   6   82.20    4.80
  -3   4  -6   32.13    3.60
  -3   4  -6   36.17    3.46
  -3   4  -6   40.51    2.80
   3  -4   6   28.87    2.99
   3  -4   6   48.13    2.81
   3  -4   6   40.82    2.73
   3  -4   6   43.47    2.83
  -4   4  -6   76.92    6.65
  -4   4  -6   81.10    5.11
  -4   4  -6   83.59    6.33
   4  -4   6   81.97    5.11
   4  -4   6   84.04    5.24
   4  -4   6   76.61    5.55
  -5   4  -6  129.27   10.19
  -5   4  -6  135.22    9.75
  -5   4  -6  122.67    7.92
   5  -4   6  133.18    8.54
   5  -4   6  134.77    7.95
  -6   4  -6    2.76    1.19
  -6   4  -6    1.87    0.82
  -6   4  -6    3.26    0.71
   6  -4   6    2.28    1.04
   6  -4   6    1.43    0.62
  -7   4  -6   43.28    3.05
  -7   4  -6   43.05    4.26
  -7   4  -6   42.03    3.82
   7  -4   6   41.57    3.59
  -8   4  -6   98.13    8.17
  -8   4  -6  100.35    6.20
  -8   4  -6   92.67    7.59
   8  -4   6   95.36    4.62
   8  -4   6   96.79    6.82
  -9   4  -6    2.93    1.24
  -9   4  -6    2.83    0.84
  -9   4  -6    1.83    1.49
   9  -4   6    3.26    0.79
   9  -4   6    1.98    1.27
 -10   4  -6    8.64    1.36
 -10   4  -6    7.10    1.73
 -10   4  -6    6.84    2.20
  10  -4   6    7.16    1.83
  10  -4   6    8.77    1.15
   9   3  -6    5.05    1.13
  -9  -3   6    3.33    1.91
  -9  -3   6    1.96    1.67
   8   3  -6   36.76    2.33
  -8  -3   6   22.59    3.32
  -8  -3   6   25.41    3.32
   7   3  -6   14.77    2.16
   7   3  -6   11.46    1.37
  -7  -3   6   13.20    2.25
  -7  -3   6    9.25    2.23
   6   3  -6    2.40    1.14
  -6  -3   6    1.55    1.29
  -6  -3   6    2.10    1.20
   5   3  -6   15.43    2.06
   5   3  -6   17.79    2.44
   5   3  -6   14.81    1.31
  -5  -3   6    9.49    1.83
  -5  -3   6   12.75    1.92
   4   3  -6   25.98    2.50
   4   3  -6   25.23    1.44
   4   3  -6   24.20    1.82
   4   3  -6   29.02    3.02
  -4  -3   6   34.34    2.73
  -4  -3   6   22.74    2.64
   3   3  -6   32.25    2.61
   3   3  -6   29.93    3.13
  -3  -3   6   23.15    2.56
  -3  -3   6   30.63    2.58
   2   3  -6  126.65    7.45
  -2  -3   6  115.41    7.37
  -2  -3   6  106.09    8.03
   1   3  -6   42.09    3.34
   1   3  -6   33.51    2.63
   1   3  -6   32.01    3.35
  -1  -3   6   32.95    2.80
  -1  -3   6   27.33    2.52
   0   3  -6   28.72    2.43
   0   3  -6   35.28    3.21
   0   3  -6   40.40    3.18
   0  -3   6   27.92    2.40
   0  -3   6   30.29    2.57
  -1   3  -6  302.47   22.06
  -1   3  -6  338.94   22.65
  -1   3  -6  326.39   18.31
   1  -3   6  331.95   18.27
   1  -3   6  261.56   18.93
  -2   3  -6  138.30    8.30
   2  -3   6  135.34    9.01
   2  -3   6  137.21    8.27
   2  -3   6  136.59    8.53
  -3   3  -6   22.81    2.55
  -3   3  -6   27.36    1.80
  -3   3  -6   27.26    2.47
  -3   3  -6   26.45    1.95
   3  -3   6   18.94    2.14
   3  -3   6   27.01    1.94
   3  -3   6   27.06    1.96
  -4   3  -6  158.99   11.37
  -4   3  -6  157.79    9.31
  -4   3  -6  149.87   11.74
   4  -3   6  156.54    9.72
   4  -3   6  152.92    9.80
   4  -3   6  159.10    9.30
  -5   3  -6   28.18    2.08
  -5   3  -6   30.51    2.97
  -5   3  -6   29.99    2.70
   5  -3   6   28.38    2.54
   5  -3   6   27.50    2.09
  -6   3  -6    7.22    1.27
  -6   3  -6    6.81    1.46
  -6   3  -6    8.13    0.99
   6  -3   6    7.18    1.37
   6  -3   6    7.97    0.99
  -7   3  -6   40.27    4.14
  -7   3  -6   42.89    3.04
  -7   3  -6   44.09    3.85
   7  -3   6   47.85    3.64
   7  -3   6   45.29    2.35
  -8   3  -6    8.15    1.86
  -8   3  -6    9.20    1.63
  -8   3  -6    9.23    1.21
   8  -3   6    6.77    1.50
   8  -3   6   10.34    1.04
  -9   3  -6   10.83    2.22
  -9   3  -6   13.51    1.47
  -9   3  -6   13.33    2.09
   9  -3   6   15.40    2.28
   9  -3   6   14.31    1.29
 -10   3  -6   32.95    3.91
 -10   3  -6   33.82    2.67
  10  -3   6   34.49    3.44
  10  -3   6   32.31    2.12
 -11   3  -6   19.32    3.37
 -11   3  -6   17.09    2.71
 -11   3  -6   21.76    2.02
  11  -3   6   17.49    2.73
  11  -3   6   21.57    1.79
   9   2  -6   16.30    1.71
  -9  -2   6   14.23    2.56
  -9  -2   6   10.30    2.45
   8   2  -6    9.72    1.29
   8   2  -6   10.30    1.89
  -8  -2   6    8.43    2.28
  -8  -2   6    4.50    1.75
   7   2  -6    0.55    0.86
   7   2  -6    0.88    0.65
  -7  -2   6   -1.05    1.24
  -7  -2   6   -0.80    0.95
   6   2  -6   39.73    3.36
  -6  -2   6   44.93    3.67
  -6  -2   6   30.19    3.53
   5   2  -6   59.28    4.86
   5   2  -6   76.15    5.83
  -5  -2   6   59.30    5.28
  -5  -2   6   80.66    5.24
   4   2  -6    1.76    0.48
   4   2  -6    2.89    0.42
   4   2  -6    2.01    0.90
   4   2  -6    2.45    0.99
  -4  -2   6    0.68    0.86
  -4  -2   6    2.83    1.02
   3   2  -6   67.31    5.20
   3   2  -6   54.78    3.41
   3   2  -6   65.44    4.39
  -3  -2   6   53.96    4.61
  -3  -2   6   65.57    4.37
   2   2  -6  196.68   15.54
   2   2  -6  240.33   13.03
  -2  -2   6  185.20   14.20
  -2  -2   6  238.14   12.99
   1   2  -6    1.25    0.86
   1   2  -6   -0.01    0.43
   1   2  -6    0.07    0.60
  -1  -2   6    0.02    0.58
  -1  -2   6    0.77    0.56
   0   2  -6  111.56    6.94
   0  -2   6  107.68    7.56
   0  -2   6  114.84    6.92
  -1   2  -6  183.96   12.64
  -1   2  -6  177.84   10.24
  -1   2  -6  151.01   12.29
   1  -2   6  176.45   10.20
   1  -2   6  185.66   11.27
   1  -2   6  148.06   10.56
  -2   2  -6    3.98    0.68
  -2   2  -6    3.60    0.89
  -2   2  -6    3.85    0.94
   2  -2   6    3.34    0.65
   2  -2   6    3.75    0.70
   2  -2   6    4.63    0.74
  -3   2  -6  238.12   13.67
  -3   2  -6  226.11   17.01
  -3   2  -6  249.92   15.00
  -3   2  -6  232.91   16.57
   3  -2   6  216.78   14.12
   3  -2   6  233.01   13.66
   3  -2   6  233.12   14.30
  -4   2  -6  121.57    8.88
  -4   2  -6  118.75    7.23
  -4   2  -6  122.83    9.19
   4  -2   6  122.53    7.24
   4  -2   6  118.62    7.62
   4  -2   6  120.82    7.69
  -5   2  -6    4.71    0.99
  -5   2  -6    3.91    0.63
  -5   2  -6    4.85    1.15
   5  -2   6    4.74    0.69
   5  -2   6    4.57    0.84
   5  -2   6    4.02    0.97
  -6   2  -6   80.41    6.35
  -6   2  -6   78.29    6.62
  -6   2  -6   81.31    5.11
   6  -2   6   82.90    5.08
   6  -2   6   92.90    5.73
  -7   2  -6   37.75    3.73
  -7   2  -6   41.53    3.56
  -7   2  -6   38.50    2.73
   7  -2   6   44.50    3.34
   7  -2   6   38.69    2.13
  -8   2  -6    4.66    1.22
  -8   2  -6    3.83    0.75
  -8   2  -6    4.21    1.40
   8  -2   6    4.64    0.72
   8  -2   6    5.52    1.36
  -9   2  -6   35.68    3.83
  -9   2  -6   36.99    2.69
  -9   2  -6   35.94    3.55
   9  -2   6   34.72    2.15
   9  -2   6   39.71    3.42
 -10   2  -6   22.04    2.78
 -10   2  -6   21.74    3.30
 -10   2  -6   23.54    2.03
  10  -2   6   25.29    3.06
  10  -2   6   25.16    1.70
 -11   2  -6    0.37    0.57
 -11   2  -6    0.01    1.24
 -11   2  -6    0.15    1.01
  11  -2   6    0.39    0.65
  11  -2   6    0.91    1.28
   9   1  -6   26.54    1.99
  -9  -1   6   24.13    3.45
  -9  -1   6   17.88    2.80
   8   1  -6    6.90    1.55
   8   1  -6    7.02    1.12
  -8  -1   6    4.79    1.72
  -8  -1   6    7.11    2.06
   7   1  -6   21.78    1.60
   7   1  -6   21.02    2.46
  -7  -1   6   15.09    2.60
  -7  -1   6   13.99    2.28
   6   1  -6   99.52    5.97
   6   1  -6   92.52    4.20
  -6  -1   6   65.28    6.24
  -6  -1   6   74.90    5.89
   5   1  -6   14.91    2.06
   5   1  -6   11.15    1.62
  -5  -1   6    7.69    1.76
  -5  -1   6   13.41    2.00
   4   1  -6   61.40    3.67
   4   1  -6   60.11    4.68
   4   1  -6   72.14    5.56
   4   1  -6   74.39    3.25
  -4  -1   6   67.73    4.84
   3   1  -6  313.63   13.92
   3   1  -6  337.67   22.08
   3   1  -6  284.92   18.36
   3   1  -6  291.91   15.76
  -3  -1   6  320.64   18.47
   2   1  -6   34.32    2.52
   2   1  -6   32.58    3.01
  -2  -1   6   32.64    2.51
  -2  -1   6   22.53    2.48
   1   1  -6   67.28    4.13
   1   1  -6   55.33    4.95
  -1  -1   6   68.25    4.12
  -1  -1   6   51.27    4.36
   0   1  -6  166.89   10.97
   0   1  -6  128.43    8.92
   0   1  -6  167.54   10.98
   0  -1   6  138.22    8.93
   0  -1   6  141.73    9.90
  -1   1  -6   57.73    4.38
  -1   1  -6   48.58    4.31
  -1   1  -6   54.79    3.59
   1  -1   6   56.97    3.59
   1  -1   6   54.25    3.73
  -2   1  -6   68.34    5.29
  -2   1  -6   73.07    4.29
  -2   1  -6   68.57    5.22
   2  -1   6   66.91    4.25
   2  -1   6   55.84    4.37
   2  -1   6   74.42    4.48
  -3   1  -6   47.31    3.30
  -3   1  -6   47.95    3.82
  -3   1  -6   47.73    3.07
  -3   1  -6   48.50    3.91
   3  -1   6   47.88    3.25
   3  -1   6   47.95    3.33
   3  -1   6   46.84    3.06
  -4   1  -6    0.98    0.27
  -4   1  -6    0.85    0.56
  -4   1  -6    1.00    0.52
  -4   1  -6    0.71    0.31
  -4   1  -6    0.69    0.16
  -4   1  -6    0.61    0.30
   4  -1   6    0.29    0.40
   4  -1   6    0.46    0.49
   4  -1   6    0.77    0.37
  -5   1  -6   38.44    3.28
  -5   1  -6   36.08    2.41
  -5   1  -6   34.34    3.08
   5  -1   6   35.78    2.69
   5  -1   6   38.83    2.85
   5  -1   6   37.96    2.42
  -6   1  -6  105.03    6.25
  -6   1  -6  100.14    7.74
  -6   1  -6  105.07    8.08
   6  -1   6  104.34    6.78
   6  -1   6  102.36    4.64
   6  -1   6  105.62    6.22
  -7   1  -6   20.76    1.63
  -7   1  -6   21.41    2.40
  -7   1  -6   20.70    2.23
   7  -1   6   22.28    2.10
   7  -1   6   22.49    1.35
  -8   1  -6   27.03    2.93
  -8   1  -6   25.19    2.57
  -8   1  -6   23.73    1.89
   8  -1   6   26.44    1.57
   8  -1   6   22.80    2.44
  -9   1  -6  113.24    9.24
  -9   1  -6  111.91    6.99
   9  -1   6  119.97    7.79
   9  -1   6  111.89    5.25
 -10   1  -6   25.62    3.22
 -10   1  -6   25.98    2.08
  10  -1   6   27.05    2.88
  10  -1   6   23.63    1.72
 -11   1  -6    4.92    0.96
 -11   1  -6    3.63    1.61
  11  -1   6    5.05    1.53
  11  -1   6    3.96    0.88
   9   0  -6   44.93    2.77
  -9   0   6   47.83    4.24
  -9   0   6   36.87    4.29
   8   0  -6    0.55    0.62
   8   0  -6    0.49    0.89
  -8   0   6    1.49    1.26
  -8   0   6    0.56    1.41
  -8   0   6   -0.16    1.12
   7   0  -6  126.85    7.70
   7   0  -6  122.29    5.53
  -7   0   6  108.66    7.78
  -7   0   6   98.63    8.43
   6   0  -6   63.86    3.24
   6   0  -6   65.30    4.57
  -6   0   6   54.75    5.03
  -6   0   6   61.55    4.71
   5   0  -6    2.00    0.38
   5   0  -6    2.05    0.88
   5   0  -6    2.03    0.88
  -5   0   6    0.69    0.91
  -5   0   6    1.04    1.05
   4   0  -6  131.69    5.57
   4   0  -6  126.04    6.25
   4   0  -6  122.10    7.69
   4   0  -6  130.27    9.07
  -4   0   6   98.78    8.42
  -4   0   6  105.29    7.68
   3   0  -6   31.22    1.74
   3   0  -6   34.92    2.96
   3   0  -6   34.18    1.70
   3   0  -6   29.61    2.51
  -3   0   6   26.39    2.54
  -3   0   6   26.56    2.71
   2   0  -6   20.49    2.17
   2   0  -6   17.28    1.76
  -2   0   6   20.57    2.04
  -2   0   6   20.22    1.88
   1   0  -6  121.87    7.45
   1   0  -6   99.01    8.87
  -1   0   6  127.49    8.27
  -1   0   6  132.06    7.50
   0   0  -6   36.92    2.65
   0   0  -6   39.75    3.30
   0   0  -6   37.47    3.03
   0   0   6   36.35    2.92
   0   0   6   36.24    2.65
  -1   0  -6    6.60    0.92
  -1   0  -6    5.29    1.01
  -1   0  -6    7.26    0.92
   1   0   6    6.38    0.71
   1   0   6    8.06    0.95
   1   0   6    5.98    0.94
   1   0   6    9.24    1.08
  -2   0  -6   99.63    7.42
  -2   0  -6  102.93    7.51
  -2   0  -6   87.76    6.07
  -2   0  -6  113.12    6.19
   2   0   6  103.52    6.10
   2   0   6   97.03    6.27
   2   0   6  104.12    6.45
  -3   0  -6  126.91    7.79
  -3   0  -6  132.20    9.62
  -3   0  -6  138.85    9.46
  -3   0  -6  129.84    7.72
  -3   0  -6  134.30    7.72
   3   0   6  119.76    7.70
   3   0   6  137.97    8.05
   3   0   6  128.07    8.18
  -4   0  -6    0.46    0.43
  -4   0  -6    0.89    0.29
  -4   0  -6    0.92    0.48
  -4   0  -6    0.48    0.27
  -4   0  -6    0.83    0.26
   4   0   6    0.91    0.52
   4   0   6    0.84    0.47
   4   0   6    0.38    0.29
  -5   0  -6   57.80    3.77
  -5   0  -6   63.23    4.12
  -5   0  -6   60.42    4.80
  -5   0  -6   62.79    3.83
  -5   0  -6   67.00    5.03
   5   0   6   62.41    3.78
   5   0   6   62.55    4.21
   5   0   6   61.80    4.22
  -6   0  -6   98.43    7.49
  -6   0  -6  102.84    6.59
  -6   0  -6   99.30    5.97
  -6   0  -6   99.81    7.77
   6   0   6  100.55    4.46
   6   0   6   98.56    6.49
  -7   0  -6   -0.09    0.66
  -7   0  -6    0.07    0.27
   7   0   6    0.11    0.35
   7   0   6    0.17    0.64
  -8   0  -6   92.59    5.61
  -8   0  -6   91.89    7.45
   8   0   6   91.32    6.26
   8   0   6   90.22    4.23
  -9   0  -6   59.64    5.35
  -9   0  -6   56.67    3.78
   9   0   6   59.32    4.51
   9   0   6   58.71    2.94
 -10   0  -6   10.21    1.23
 -10   0  -6   13.36    2.39
  10   0   6   10.39    1.08
  10   0   6    9.96    1.84
 -11   0  -6   59.63    3.92
 -11   0  -6   62.50    5.79
  11   0   6   51.85    4.72
  11   0   6   56.33    3.06
   9  -1  -6    1.11    0.70
  -9   1   6    0.50    1.20
  -9   1   6    0.62    1.53
   8  -1  -6   65.84    4.79
   8  -1  -6   60.02    3.41
  -8   1   6   68.21    5.09
  -8   1   6   59.99    5.49
  -8   1   6   62.53    5.78
   7  -1  -6   76.78    3.93
   7  -1  -6   83.10    5.53
  -7   1   6   69.50    6.48
  -7   1   6   82.18    5.72
  -7   1   6   79.88    6.34
   6  -1  -6    0.22    0.43
   6  -1  -6    0.56    0.74
  -6   1   6    1.25    1.23
  -6   1   6    1.27    0.96
   5  -1  -6   63.34    3.00
   5  -1  -6   58.05    3.09
   5  -1  -6   65.26    4.37
  -5   1   6   58.08    4.43
  -5   1   6   61.23    5.00
   4  -1  -6  110.40    8.34
   4  -1  -6  115.44    7.14
   4  -1  -6  111.05    5.19
  -4   1   6  106.08    7.18
  -4   1   6  116.17    8.09
   3  -1  -6    4.71    0.98
   3  -1  -6    4.29    0.51
   3  -1  -6    5.56    0.99
  -3   1   6    4.51    0.99
  -3   1   6    5.22    1.30
   2  -1  -6   61.43    4.67
   2  -1  -6   55.77    3.92
   2  -1  -6   59.41    2.90
  -2   1   6   53.32    3.93
  -2   1   6   60.72    4.47
   1  -1  -6   59.45    3.88
   1  -1  -6   50.69    4.60
  -1   1   6   56.88    4.32
  -1   1   6   55.89    3.87
  -1   1   6   68.73    4.45
   0  -1  -6    1.40    0.65
   0  -1  -6    0.57    0.37
   0  -1  -6    0.50    0.39
   0   1   6    0.34    0.56
   0   1   6    0.39    0.42
   0   1   6    0.89    0.37
  -1  -1  -6  119.86    6.55
  -1  -1  -6  102.55    7.78
   1   1   6   98.70    6.56
   1   1   6   91.11    6.82
   1   1   6  111.51    6.50
   1   1   6  120.72    6.55
  -2  -1  -6  264.53   18.47
  -2  -1  -6  264.51   18.80
  -2  -1  -6  239.92   15.32
   2   1   6  281.67   15.34
   2   1   6  268.79   15.72
   2   1   6  267.38   15.58
   2   1   6  258.09   16.12
  -3  -1  -6    0.44    0.22
  -3  -1  -6    0.40    0.34
  -3  -1  -6    0.38    0.35
  -3  -1  -6    0.09    0.20
   3   1   6    0.62    0.41
   3   1   6    0.07    0.33
   3   1   6    0.51    0.28
  -4  -1  -6  126.35    9.27
  -4  -1  -6  128.35    7.52
  -4  -1  -6  127.77    9.51
  -4  -1  -6  131.92    7.53
   4   1   6  128.97    8.13
   4   1   6  128.95    7.92
  -5  -1  -6  219.46   12.85
  -5  -1  -6  225.20   16.22
  -5  -1  -6  221.67   12.87
  -5  -1  -6  213.44   15.75
  -5  -1  -6  222.38   14.39
   5   1   6  221.04   13.44
   5   1   6  215.66   13.80
   5   1   6  241.43   12.87
  -6  -1  -6   43.69    3.75
  -6  -1  -6   42.93    3.05
  -6  -1  -6   41.93    2.68
   6   1   6   43.46    2.08
   6   1   6   44.45    3.18
  -7  -1  -6   74.98    4.99
  -7  -1  -6   73.33    4.38
  -7  -1  -6   73.66    5.93
   7   1   6   66.18    4.91
   7   1   6   70.44    3.32
  -8  -1  -6   82.17    6.65
  -8  -1  -6   80.63    4.90
   8   1   6   77.80    3.71
   8   1   6   80.02    5.56
  -9  -1  -6    2.43    0.57
  -9  -1  -6    1.98    1.17
   9   1   6    2.57    1.12
   9   1   6    3.33    0.63
 -10  -1  -6   25.78    1.96
 -10  -1  -6   26.41    3.18
  10   1   6   25.14    2.75
  10   1   6   25.08    1.64
 -11  -1  -6   29.44    3.63
 -11  -1  -6   26.31    2.07
  11   1   6   23.65    1.73
  11   1   6   27.88    3.03
   9  -2  -6   13.80    1.50
   9  -2  -6   12.92    1.94
  -9   2   6   15.25    2.67
  -9   2   6   12.52    2.07
   8  -2  -6   30.94    2.89
   8  -2  -6   29.05    2.06
  -8   2   6   32.93    3.17
  -8   2   6   32.24    3.61
   7  -2  -6    2.75    0.72
   7  -2  -6    2.37    0.93
  -7   2   6    2.29    0.99
  -7   2   6    1.75    1.09
  -7   2   6    3.44    1.52
   6  -2  -6   34.03    2.77
   6  -2  -6   33.45    1.79
   6  -2  -6   31.29    1.93
  -6   2   6   25.88    3.02
  -6   2   6   36.79    3.46
  -6   2   6   33.38    2.89
   5  -2  -6   39.41    2.97
   5  -2  -6   37.47    2.00
   5  -2  -6   39.15    2.10
  -5   2   6   40.68    3.10
  -5   2   6   35.00    3.34
  -5   2   6   36.69    3.56
   4  -2  -6   12.32    0.90
   4  -2  -6   14.09    1.03
   4  -2  -6   13.56    1.45
   4  -2  -6   12.77    1.55
  -4   2   6   10.97    1.77
  -4   2   6   13.29    1.63
   3  -2  -6   51.45    3.51
   3  -2  -6   49.19    2.53
   3  -2  -6   48.74    4.04
  -3   2   6   56.40    4.22
  -3   2   6   50.51    3.57
   2  -2  -6  176.32   12.78
   2  -2  -6  172.83   10.70
   2  -2  -6  172.59    8.17
  -2   2   6  178.18   10.75
  -2   2   6  198.04   12.22
   1  -2  -6  129.09    8.13
   1  -2  -6  130.98    6.27
   1  -2  -6  121.51    9.76
  -1   2   6  155.80    9.60
  -1   2   6  134.86    9.25
  -1   2   6  131.13    8.15
   0  -2  -6    7.14    0.56
   0  -2  -6    7.07    0.89
   0  -2  -6    7.35    1.18
   0   2   6    6.58    0.95
   0   2   6    6.55    1.10
   0   2   6    8.59    0.94
  -1  -2  -6  374.51   24.79
  -1  -2  -6  337.23   20.28
  -1  -2  -6  294.33   20.22
   1   2   6  318.18   21.38
   1   2   6  384.93   20.50
   1   2   6  365.75   20.97
   1   2   6  376.65   20.27
  -2  -2  -6  134.76    8.41
  -2  -2  -6  144.88   10.27
  -2  -2  -6  140.72    8.44
  -2  -2  -6  145.44   10.17
   2   2   6  140.54    8.52
   2   2   6  143.36    8.93
   2   2   6  150.02    8.69
  -3  -2  -6   40.47    2.28
  -3  -2  -6   36.08    2.90
  -3  -2  -6   35.80    2.91
   3   2   6   36.13    2.23
   3   2   6   35.46    2.45
   3   2   6   34.54    2.58
   3   2   6   36.23    2.45
  -4  -2  -6  258.25   18.17
  -4  -2  -6  252.28   14.50
  -4  -2  -6  248.55   17.70
  -4  -2  -6  256.59   14.48
   4   2   6  257.45   15.20
   4   2   6  245.40   15.51
   4   2   6  247.64   15.03
  -5  -2  -6   28.14    2.15
  -5  -2  -6   31.06    2.61
  -5  -2  -6   28.02    1.76
  -5  -2  -6   28.04    1.77
   5   2   6   25.84    2.21
   5   2   6   30.72    2.21
  -6  -2  -6   77.33    4.73
  -6  -2  -6   80.55    5.49
  -6  -2  -6   80.62    6.34
   6   2   6   82.14    5.30
   6   2   6   80.20    3.58
   6   2   6   83.77    5.45
  -7  -2  -6  197.00   11.44
  -7  -2  -6  202.44   13.00
  -7  -2  -6  202.59   14.71
   7   2   6  188.12    8.44
   7   2   6  198.21   12.19
  -8  -2  -6   16.47    2.29
  -8  -2  -6   13.94    1.15
   8   2   6   17.06    1.84
   8   2   6   15.00    1.02
  -9  -2  -6   30.62    3.30
  -9  -2  -6   30.99    2.12
   9   2   6   28.90    1.72
   9   2   6   33.28    2.89
 -10  -2  -6   60.54    3.81
 -10  -2  -6   63.73    5.62
  10   2   6   54.68    2.95
  10   2   6   59.88    4.66
 -11  -2  -6   13.51    2.56
  11   2   6   13.79    2.29
   9  -3  -6   36.67    3.45
   9  -3  -6   37.98    2.53
  -9   3   6   42.49    3.79
  -9   3   6   42.25    4.38
   8  -3  -6   18.80    2.27
   8  -3  -6   21.26    1.69
  -8   3   6   22.46    2.58
  -8   3   6   21.11    3.07
   7  -3  -6   -0.28    0.46
   7  -3  -6   -0.13    0.62
  -7   3   6    0.53    0.80
  -7   3   6   -0.41    1.30
  -7   3   6    0.28    0.92
   6  -3  -6   42.30    3.40
   6  -3  -6   45.29    2.46
   6  -3  -6   43.60    2.38
  -6   3   6   42.86    4.02
  -6   3   6   52.20    4.36
  -6   3   6   47.54    3.58
   5  -3  -6   34.60    1.94
   5  -3  -6   35.86    2.00
   5  -3  -6   33.60    2.75
  -5   3   6   42.43    3.64
  -5   3   6   31.62    3.14
  -5   3   6   40.30    2.94
   4  -3  -6    0.85    0.37
   4  -3  -6    1.04    0.56
   4  -3  -6    1.28    0.39
  -4   3   6    1.02    0.58
  -4   3   6    0.31    0.96
  -4   3   6    0.20    0.53
   3  -3  -6  115.76    8.49
   3  -3  -6  121.50    7.23
   3  -3  -6  113.02    5.21
   3  -3  -6  117.16    5.46
  -3   3   6  105.40    8.51
  -3   3   6  125.84    7.29
  -3   3   6  125.68    8.39
   2  -3  -6  159.06    9.37
   2  -3  -6  161.44   11.14
   2  -3  -6  158.35    7.19
  -2   3   6  161.23    9.40
  -2   3   6  141.94   11.10
  -2   3   6  150.35   10.69
  -2   3   6  157.39   11.07
  -2   3   6  161.92    9.21
   1  -3  -6   11.84    1.07
   1  -3  -6   11.07    0.82
   1  -3  -6   10.93    1.28
  -1   3   6   11.18    1.07
   0  -3  -6  232.90   13.15
   0  -3  -6  221.90   15.91
   0  -3  -6  240.50   11.46
   0  -3  -6  233.58   10.26
   0   3   6  223.36   13.11
   0   3   6  197.21   13.67
  -1  -3  -6  307.20   18.27
  -1  -3  -6  330.37   22.35
  -1  -3  -6  327.76   18.28
   1   3   6  302.71   19.38
   1   3   6  320.35   18.23
   1   3   6  318.09   19.01
   1   3   6  310.97   18.46
   1   3   6  316.32   16.09
  -2  -3  -6    8.85    0.91
  -2  -3  -6   11.64    1.08
  -2  -3  -6    8.03    0.77
  -2  -3  -6    9.98    0.78
   2   3   6   10.03    0.80
   2   3   6    8.97    0.81
   2   3   6   10.46    0.95
   2   3   6   10.78    1.03
  -3  -3  -6  222.22   12.56
  -3  -3  -6  217.20   15.68
  -3  -3  -6  227.11   15.34
  -3  -3  -6  233.75   12.58
   3   3   6  222.92   13.22
   3   3   6  212.38   11.29
   3   3   6  200.83   13.43
   3   3   6  210.93   12.96
  -4  -3  -6   94.30    7.05
  -4  -3  -6   93.76    6.85
   4   3   6   97.46    5.95
   4   3   6   95.40    6.09
   4   3   6   92.05    5.85
   4   3   6   91.06    5.12
  -5  -3  -6    4.45    0.76
  -5  -3  -6    3.40    0.81
   5   3   6    3.12    0.76
   5   3   6    3.10    0.66
   5   3   6    4.50    0.82
  -6  -3  -6  101.03    6.67
  -6  -3  -6   95.93    5.69
  -6  -3  -6  100.97    7.58
  -6  -3  -6   98.31    5.66
   6   3   6   97.54    6.28
   6   3   6   95.63    5.48
   6   3   6   95.21    4.25
   6   3   6   97.61    6.46
  -7  -3  -6   29.18    1.83
  -7  -3  -6   29.58    1.38
  -7  -3  -6   29.49    2.87
  -7  -3  -6   30.00    2.41
   7   3   6   27.66    2.43
   7   3   6   28.72    1.49
  -8  -3  -6    7.62    1.18
  -8  -3  -6    6.01    0.63
  -8  -3  -6    7.75    1.60
   8   3   6    6.09    1.22
   8   3   6    5.99    0.64
  -9  -3  -6   54.71    3.32
  -9  -3  -6   51.90    4.89
   9   3   6   51.10    4.09
   9   3   6   52.26    2.58
 -10  -3  -6   31.86    3.53
  10   3   6   27.27    2.90
 -11  -3  -6    0.61    1.10
  11   3   6   -0.73    0.96
   9  -4  -6   12.66    1.50
   9  -4  -6   19.91    2.49
  -9   4   6   22.06    3.20
  -9   4   6   16.02    2.26
   8  -4  -6    0.43    0.63
   8  -4  -6   -0.12    0.72
  -8   4   6    0.56    0.94
  -8   4   6    0.26    1.46
   7  -4  -6   24.63    2.44
   7  -4  -6   26.22    1.76
   7  -4  -6   25.40    1.63
  -7   4   6   26.98    2.60
  -7   4   6   23.69    3.23
  -7   4   6   27.39    3.02
   6  -4  -6  118.55    5.86
   6  -4  -6  121.35    7.85
   6  -4  -6  118.76    5.70
  -6   4   6  121.54    9.53
  -6   4   6  135.78    9.27
  -6   4   6  127.28    7.95
   5  -4  -6   26.24    1.69
   5  -4  -6   29.39    2.39
   5  -4  -6   28.67    1.70
  -5   4   6   26.89    2.41
  -5   4   6   32.17    3.18
  -5   4   6   31.23    2.81
   4  -4  -6   41.19    2.19
   4  -4  -6   42.19    3.03
   4  -4  -6   42.45    2.24
  -4   4   6   41.75    3.76
  -4   4   6   41.12    3.06
  -4   4   6   42.97    3.49
   3  -4  -6  223.79   10.53
   3  -4  -6  231.66    9.96
   3  -4  -6  223.91   13.71
  -3   4   6  256.55   16.63
  -3   4   6  218.19   15.57
  -3   4   6  233.75   13.74
   2  -4  -6   16.46    1.42
   2  -4  -6   16.22    1.06
   2  -4  -6   16.96    1.01
   2  -4  -6   17.50    1.56
  -2   4   6   15.57    1.33
  -2   4   6   18.28    1.47
   1  -4  -6   53.63    3.76
   1  -4  -6   50.22    3.20
   1  -4  -6   49.97    2.49
  -1   4   6   38.78    3.42
  -1   4   6   50.03    3.19
  -1   4   6   50.67    2.56
   0  -4  -6  117.43    6.91
   0  -4  -6  121.49    5.44
   0   4   6  116.18    5.98
   0   4   6  116.80    6.89
   0   4   6  107.52    7.31
  -1  -4  -6    0.78    0.37
  -1  -4  -6    0.68    0.29
  -1  -4  -6    0.53    0.24
  -1  -4  -6    0.46    0.21
  -1  -4  -6    0.68    0.20
   1   4   6    0.34    0.25
   1   4   6    0.37    0.44
   1   4   6    0.45    0.23
   1   4   6    0.98    0.46
  -2  -4  -6  208.12    9.41
  -2  -4  -6  201.48   11.84
  -2  -4  -6  207.03   11.87
  -2  -4  -6  220.38   14.40
   2   4   6  207.13   12.12
   2   4   6  200.25   12.66
   2   4   6  204.38   10.59
   2   4   6  198.12   11.80
   2   4   6  205.36   12.48
  -3  -4  -6   46.43    2.01
  -3  -4  -6   47.03    2.69
  -3  -4  -6   46.72    3.49
   3   4   6   47.27    3.00
   3   4   6   41.98    3.14
   3   4   6   46.76    3.13
   3   4   6   44.57    2.65
  -4  -4  -6   10.44    0.55
   4   4   6   10.17    1.09
   4   4   6    9.35    1.05
   4   4   6    9.81    0.94
   4   4   6    9.07    1.02
  -5  -4  -6   51.54    3.77
   5   4   6   54.29    3.62
   5   4   6   50.56    3.51
   5   4   6   50.24    3.10
   5   4   6   52.88    3.69
  -6  -4  -6  101.94    7.13
  -6  -4  -6  105.38    4.30
   6   4   6  101.03    5.80
   6   4   6  105.02    6.67
   6   4   6  107.94    6.90
  -7  -4  -6   40.82    2.35
  -7  -4  -6   39.53    1.80
  -7  -4  -6   40.58    3.66
  -7  -4  -6   36.98    3.07
   7   4   6   37.52    2.65
   7   4   6   38.38    3.01
   7   4   6   39.40    1.87
  -8  -4  -6    4.79    1.35
  -8  -4  -6    4.25    0.98
  -8  -4  -6    5.09    0.52
   8   4   6    6.91    1.30
   8   4   6    5.58    0.57
   8   4   6    5.28    1.04
  -9  -4  -6   33.44    2.97
  -9  -4  -6   31.73    3.47
   9   4   6   34.57    3.00
 -10  -4  -6   14.87    2.56
  10   4   6   14.54    2.10
 -11  -4  -6    6.60    1.94
  11   4   6    6.37    1.65
   9  -5  -6   19.23    1.83
   9  -5  -6   16.70    2.27
  -9   5   6   13.94    2.19
   8  -5  -6    0.36    0.59
   8  -5  -6    0.20    0.79
  -8   5   6   -1.12    0.81
  -8   5   6   -2.32    1.38
   7  -5  -6   36.61    3.05
   7  -5  -6   33.72    2.18
   7  -5  -6   34.19    2.13
  -7   5   6   34.29    3.80
  -7   5   6   40.58    3.20
   6  -5  -6   39.74    3.14
   6  -5  -6   40.78    2.27
   6  -5  -6   36.38    2.23
  -6   5   6   44.50    3.84
  -6   5   6   38.80    3.18
  -6   5   6   37.63    3.91
   5  -5  -6   13.16    1.08
   5  -5  -6   12.90    1.56
   5  -5  -6   13.15    1.18
  -5   5   6   17.11    1.93
  -5   5   6   15.23    1.76
  -5   5   6   14.50    2.37
   4  -5  -6  123.76    7.97
   4  -5  -6  123.33    5.78
   4  -5  -6  125.61    6.09
  -4   5   6  143.70    9.66
  -4   5   6  127.93    7.99
   3  -5  -6   67.82    3.57
   3  -5  -6   72.78    3.39
   3  -5  -6   67.47    4.66
  -3   5   6   73.61    4.71
  -3   5   6   80.68    5.53
   2  -5  -6   34.82    2.39
   2  -5  -6   34.94    1.72
   2  -5  -6   33.17    1.84
  -2   5   6   28.91    2.65
  -2   5   6   31.04    2.54
  -2   5   6   37.53    2.43
  -2   5   6   34.60    1.78
   1  -5  -6  225.22   13.19
   1  -5  -6  226.24   15.64
   1  -5  -6  224.56    9.55
   1  -5  -6  220.35   10.23
  -1   5   6  233.25   13.19
  -1   5   6  215.89   13.88
  -1   5   6  229.31   11.43
   0  -5  -6   23.89    1.89
   0  -5  -6   23.12    1.33
   0  -5  -6   24.66    1.65
   0  -5  -6   23.89    1.71
   0  -5  -6   23.48    1.15
   0   5   6   18.01    1.89
   0   5   6   22.89    1.35
   0   5   6   21.03    1.59
   0   5   6   21.96    1.92
  -1  -5  -6    4.89    0.55
  -1  -5  -6    5.35    0.57
  -1  -5  -6    5.35    0.37
  -1  -5  -6    4.11    0.69
  -1  -5  -6    6.44    0.77
  -1  -5  -6    5.12    0.53
  -1  -5  -6    4.76    0.39
   1   5   6    4.83    0.53
   1   5   6    5.34    0.87
   1   5   6    5.69    0.60
   1   5   6    5.92    0.88
  -2  -5  -6  110.85    6.51
  -2  -5  -6  110.52    5.23
  -2  -5  -6  106.70    6.50
  -2  -5  -6  117.65    7.91
   2   5   6  110.10    7.05
   2   5   6  110.97    5.90
   2   5   6  112.85    7.00
  -3  -5  -6   31.76    1.77
  -3  -5  -6   33.79    1.95
  -3  -5  -6   32.34    2.54
  -3  -5  -6   33.97    1.96
   3   5   6   31.62    2.01
   3   5   6   33.53    2.24
   3   5   6   28.54    2.34
   3   5   6   32.52    2.38
  -4  -5  -6    8.70    0.44
  -4  -5  -6    7.99    0.81
   4   5   6    9.24    1.08
   4   5   6   10.40    1.23
   4   5   6    9.86    1.17
   4   5   6    7.78    0.93
  -5  -5  -6   45.71    2.12
  -5  -5  -6   48.20    3.54
   5   5   6   47.69    3.38
   5   5   6   44.51    3.23
   5   5   6   47.18    2.89
   5   5   6   48.60    3.42
  -6  -5  -6   61.89    2.66
  -6  -5  -6   64.04    4.49
   6   5   6   62.51    4.32
   6   5   6   56.40    3.63
   6   5   6   58.49    4.14
  -7  -5  -6    3.81    0.48
  -7  -5  -6    4.31    0.98
   7   5   6    3.78    0.86
   7   5   6    3.51    0.93
   7   5   6    3.78    0.41
  -8  -5  -6   57.45    4.33
   8   5   6   57.29    4.13
   8   5   6   52.71    3.58
  -9  -5  -6   51.68    4.82
  -9  -5  -6   51.24    4.15
   9   5   6   53.94    4.04
   9   5   6   48.78    3.50
 -10  -5  -6    0.32    1.02
  10   5   6    1.70    1.09
 -11  -5  -6   26.47    3.42
   9  -6  -6    0.60    0.96
   9  -6  -6    1.94    0.80
  -9   6   6    0.92    1.08
   8  -6  -6   42.53    2.63
   8  -6  -6   42.50    3.58
  -8   6   6   42.81    3.69
   7  -6  -6   52.57    3.00
   7  -6  -6   59.34    3.06
   7  -6  -6   54.57    4.12
  -7   6   6   51.65    4.12
   6  -6  -6    4.17    0.72
   6  -6  -6    3.37    0.74
   6  -6  -6    4.36    1.03
  -6   6   6    3.89    1.01
  -6   6   6    3.15    1.35
   5  -6  -6   71.51    4.84
   5  -6  -6   67.19    3.07
   5  -6  -6   71.86    3.52
   5  -6  -6   69.43    3.65
  -5   6   6   67.14    4.82
  -5   6   6   83.07    5.91
   4  -6  -6   30.69    2.00
   4  -6  -6   26.54    2.32
   4  -6  -6   28.15    1.69
   4  -6  -6   27.95    1.77
  -4   6   6   33.58    2.82
  -4   6   6   29.67    2.40
   3  -6  -6    9.85    0.74
   3  -6  -6   10.97    1.31
   3  -6  -6    8.84    0.91
   3  -6  -6    7.57    0.78
  -3   6   6    7.26    1.42
  -3   6   6   11.60    1.31
  -3   6   6    8.16    1.19
   2  -6  -6   84.22    3.70
   2  -6  -6   85.61    3.99
   2  -6  -6   76.67    5.09
  -2   6   6   78.33    5.94
  -2   6   6   85.98    4.25
  -2   6   6   82.76    5.11
  -2   6   6   72.47    5.50
   1  -6  -6   62.81    4.13
   1  -6  -6   62.32    3.24
   1  -6  -6   66.47    2.97
   1  -6  -6   69.53    4.76
  -1   6   6   63.50    3.47
  -1   6   6   65.95    4.55
  -1   6   6   65.81    4.12
   0  -6  -6    0.24    0.22
   0  -6  -6    0.17    0.27
   0  -6  -6    0.41    0.29
   0  -6  -6    0.23    0.27
   0  -6  -6    0.17    0.18
   0   6   6    0.51    0.30
   0   6   6    0.36    0.53
   0   6   6    0.08    0.25
   0   6   6   -0.09    0.50
  -1  -6  -6   88.16    5.35
  -1  -6  -6   91.51    3.83
  -1  -6  -6   89.20    5.37
  -1  -6  -6   88.02    4.27
  -1  -6  -6   88.74    5.32
   1   6   6   96.17    5.82
   1   6   6   86.49    5.33
   1   6   6   88.02    4.78
   1   6   6   90.72    5.79
  -2  -6  -6  245.23   14.01
  -2  -6  -6  236.28   10.99
  -2  -6  -6  238.19   13.99
  -2  -6  -6  264.22   16.86
   2   6   6  237.65   14.76
   2   6   6  243.60   12.52
   2   6   6  232.90   14.88
  -3  -6  -6   21.95    1.39
  -3  -6  -6   21.15    1.37
  -3  -6  -6   21.94    1.29
   3   6   6   22.29    1.83
   3   6   6   21.92    1.76
   3   6   6   21.32    1.53
  -4  -6  -6    9.61    0.78
  -4  -6  -6   11.00    0.84
   4   6   6   12.46    1.22
   4   6   6    9.90    1.28
   4   6   6   11.24    1.06
  -5  -6  -6  200.56    8.25
  -5  -6  -6  211.51   13.68
  -5  -6  -6  203.64    9.36
   5   6   6  205.27   12.72
   5   6   6  205.31   10.86
   5   6   6  206.63   12.86
  -6  -6  -6    8.40    0.76
  -6  -6  -6    7.92    1.26
  -6  -6  -6    7.48    0.69
   6   6   6    7.28    1.24
   6   6   6    8.74    1.13
  -7  -6  -6   68.15    3.00
  -7  -6  -6   68.65    3.34
  -7  -6  -6   71.79    5.13
   7   6   6   64.98    4.14
  -8  -6  -6   45.89    3.65
   8   6   6   40.60    2.99
  -9  -6  -6    0.13    0.73
   9   6   6    1.37    0.78
 -10  -6  -6   80.52    7.27
 -10  -6  -6   84.65    6.38
  10   6   6   83.08    5.28
 -11  -6  -6   45.46    4.80
   9  -7  -6   20.88    1.91
   9  -7  -6   16.89    2.33
  -9   7   6   14.19    2.18
   8  -7  -6   50.79    4.11
   8  -7  -6   48.82    2.95
   8  -7  -6   52.70    3.01
  -8   7   6   53.35    4.19
   7  -7  -6    4.20    1.20
   7  -7  -6    5.09    0.90
   7  -7  -6    4.30    0.86
  -7   7   6    4.06    1.24
   6  -7  -6   63.56    3.30
   6  -7  -6   67.02    4.59
   6  -7  -6   62.32    3.39
  -6   7   6   61.88    4.55
   5  -7  -6  103.32    4.33
   5  -7  -6   96.37    5.06
   5  -7  -6   98.32    6.63
   5  -7  -6  104.32    4.84
  -5   7   6  102.58    6.66
  -5   7   6  112.54    8.15
   4  -7  -6   16.91    1.29
   4  -7  -6   17.17    1.69
   4  -7  -6   17.29    1.21
   4  -7  -6   18.31    1.05
  -4   7   6   17.09    1.98
  -4   7   6   13.46    2.10
  -4   7   6   18.78    1.76
   3  -7  -6   22.91    1.37
   3  -7  -6   24.08    1.51
   3  -7  -6   23.03    1.91
   3  -7  -6   23.64    1.25
   3  -7  -6   24.38    1.52
  -3   7   6   15.13    2.16
  -3   7   6   21.99    1.90
  -3   7   6   19.06    2.08
   2  -7  -6  117.80    7.27
   2  -7  -6  123.11    7.00
   2  -7  -6  120.72    4.94
   2  -7  -6  122.85    5.25
   2  -7  -6  117.71    5.66
  -2   7   6  113.79    8.64
  -2   7   6  116.59    7.78
  -2   7   6  114.91    7.24
   1  -7  -6   36.10    1.74
   1  -7  -6   38.45    2.00
   1  -7  -6   34.71    2.13
   1  -7  -6   33.16    2.44
  -1   7   6   34.71    2.04
  -1   7   6   34.75    2.43
  -1   7   6   34.88    2.76
  -1   7   6   36.56    2.85
   0  -7  -6   11.98    0.69
   0  -7  -6   10.86    0.79
   0  -7  -6   11.32    0.89
   0  -7  -6   11.16    1.04
   0  -7  -6    9.60    0.81
   0   7   6   11.17    1.39
   0   7   6   11.86    0.92
   0   7   6   11.14    1.36
   0   7   6   11.29    1.01
  -1  -7  -6  119.78    4.81
  -1  -7  -6  112.25    6.84
  -1  -7  -6  117.19    4.87
  -1  -7  -6  116.15    6.86
  -1  -7  -6  110.31    5.41
   1   7   6  114.32    7.33
   1   7   6  115.95    6.12
   1   7   6  114.07    6.81
   1   7   6  114.32    7.28
  -2  -7  -6   74.08    4.51
  -2  -7  -6   76.97    3.27
  -2  -7  -6   77.03    4.54
  -2  -7  -6   81.09    5.35
  -2  -7  -6   71.04    3.64
   2   7   6   69.93    4.94
   2   7   6   72.05    4.89
   2   7   6   75.99    4.17
  -3  -7  -6   65.80    3.67
  -3  -7  -6   62.85    3.03
  -3  -7  -6   62.98    2.73
   3   7   6   50.78    3.61
   3   7   6   59.10    4.10
   3   7   6   66.09    4.21
   3   7   6   62.39    3.52
  -4  -7  -6  264.40   14.45
  -4  -7  -6  242.30   11.33
  -4  -7  -6  245.35   10.03
  -4  -7  -6  251.75   14.37
   4   7   6  250.18   13.08
   4   7   6  249.04   15.49
   4   7   6  248.60   15.35
  -5  -7  -6   33.11    1.68
  -5  -7  -6   34.12    2.84
  -5  -7  -6   33.84    1.81
   5   7   6   32.97    2.28
   5   7   6   34.73    2.65
   5   7   6   31.20    2.64
  -6  -7  -6   57.46    2.58
  -6  -7  -6   56.85    4.36
  -6  -7  -6   53.21    2.79
   6   7   6   60.33    3.55
   6   7   6   55.15    4.09
  -7  -7  -6  166.67   11.31
  -7  -7  -6  166.55    6.77
   7   7   6  161.54    9.03
  -8  -7  -6   10.40    1.67
   8   7   6   15.23    1.73
  -9  -7  -6   29.46    2.96
   9   7   6   31.20    2.56
 -10  -7  -6   43.34    4.03
  10   7   6   47.91    3.47
 -11  -7  -6    1.48    1.43
  11   7   6    1.56    1.09
   8  -8  -6   24.50    2.78
   8  -8  -6   23.30    1.83
   8  -8  -6   23.04    1.79
  -8   8   6   18.68    2.38
   7  -8  -6    8.28    1.45
   7  -8  -6    7.30    1.04
   7  -8  -6    3.83    0.85
  -7   8   6    8.23    1.48
   6  -8  -6   61.62    3.45
   6  -8  -6   61.66    3.30
   6  -8  -6   73.44    4.73
  -6   8   6   67.71    4.64
  -6   8   6   53.21    5.06
   5  -8  -6   37.15    2.91
   5  -8  -6   33.80    2.03
   5  -8  -6   34.42    2.20
   5  -8  -6   38.72    1.79
  -5   8   6   35.10    2.89
  -5   8   6   29.41    3.25
   4  -8  -6   12.36    0.92
   4  -8  -6   11.15    1.12
   4  -8  -6    8.52    1.28
   4  -8  -6   13.00    1.10
  -4   8   6    7.86    1.67
  -4   8   6    7.47    1.48
  -4   8   6    9.73    1.38
   3  -8  -6  141.58    5.82
   3  -8  -6  147.64    6.26
   3  -8  -6  140.58    8.66
   3  -8  -6  137.68    6.71
  -3   8   6  130.36   10.38
  -3   8   6  138.63    9.21
  -3   8   6  148.62    8.66
   2  -8  -6  109.09    6.63
   2  -8  -6  107.41    5.39
   2  -8  -6  109.77    4.70
   2  -8  -6  118.58    4.98
   2  -8  -6  110.24    6.92
  -2   8   6  109.40    8.25
  -2   8   6  118.13    6.93
  -2   8   6  110.80    7.42
   1  -8  -6    2.12    0.34
   1  -8  -6    3.29    0.43
   1  -8  -6    3.43    0.52
   1  -8  -6    1.99    0.50
   1  -8  -6    1.37    0.51
  -1   8   6    3.45    0.97
  -1   8   6    1.99    0.81
  -1   8   6    2.25    0.57
  -1   8   6    2.37    0.48
  -1   8   6    2.42    0.59
   0  -8  -6  168.80    7.98
   0  -8  -6  173.22    7.30
   0  -8  -6  168.79   10.19
   0  -8  -6  161.88    6.99
   0   8   6  174.91   10.16
   0   8   6  170.52    8.96
   0   8   6  185.72   10.77
   0   8   6  169.31   10.75
  -1  -8  -6  116.37    5.00
  -1  -8  -6  122.67    5.07
  -1  -8  -6  119.82    7.18
  -1  -8  -6  119.20    5.67
   1   8   6  120.42    7.57
   1   8   6  119.98    7.13
   1   8   6  119.94    6.40
   1   8   6  117.51    7.65
  -2  -8  -6    3.29    0.54
  -2  -8  -6    2.48    0.50
  -2  -8  -6    2.40    0.47
  -2  -8  -6    3.10    0.43
   2   8   6    2.83    0.45
   2   8   6    3.81    0.66
   2   8   6    2.44    0.62
   2   8   6    2.57    0.74
  -3  -8  -6  138.09    5.72
  -3  -8  -6  136.81    6.43
  -3  -8  -6  138.41    8.08
   3   8   6  134.25    8.70
   3   8   6  142.96    8.77
   3   8   6  136.45    7.41
  -4  -8  -6   47.31    2.18
  -4  -8  -6   46.60    2.85
  -4  -8  -6   46.18    2.36
   4   8   6   40.08    3.22
   4   8   6   45.09    2.85
   4   8   6   45.03    3.34
  -5  -8  -6   23.76    1.39
  -5  -8  -6   18.78    1.64
  -5  -8  -6   24.41    2.28
  -5  -8  -6   24.40    1.34
   5   8   6   25.60    2.20
   5   8   6   25.13    1.86
   5   8   6   25.05    2.07
  -6  -8  -6  163.54    9.91
  -6  -8  -6  180.46    7.88
  -6  -8  -6  171.20    7.05
  -6  -8  -6  175.63   11.73
   6   8   6  172.97    9.33
   6   8   6  165.19   10.90
  -7  -8  -6   38.96    1.99
  -7  -8  -6   42.22    3.47
   7   8   6   37.56    2.78
  -8  -8  -6    9.49    1.65
   8   8   6   10.23    1.45
  -9  -8  -6   42.62    3.90
   9   8   6   45.49    3.29
 -10  -8  -6   54.86    4.73
  10   8   6   53.49    3.90
   8  -9  -6    1.73    0.77
   8  -9  -6    0.97    0.97
   8  -9  -6    1.78    0.77
  -8   9   6    0.68    1.14
  -8   9   6    2.32    1.79
   7  -9  -6   24.76    2.75
   7  -9  -6   22.33    1.87
   7  -9  -6   21.24    1.71
  -7   9   6   18.55    2.32
  -7   9   6   14.20    2.58
   6  -9  -6   53.19    3.06
   6  -9  -6   56.14    2.92
   6  -9  -6   54.56    4.05
  -6   9   6   55.09    4.05
  -6   9   6   41.91    4.37
   5  -9  -6   16.80    1.11
   5  -9  -6   18.27    2.04
   5  -9  -6   17.84    1.33
   5  -9  -6   16.28    1.56
  -5   9   6   13.54    1.76
  -5   9   6   17.07    2.36
   4  -9  -6   16.65    1.40
   4  -9  -6   19.36    2.10
   4  -9  -6   16.47    1.09
   4  -9  -6   15.94    1.20
  -4   9   6   13.11    2.07
  -4   9   6   17.73    1.81
  -4   9   6   18.66    2.40
   3  -9  -6   74.52    3.34
   3  -9  -6   76.04    3.55
   3  -9  -6   75.75    4.99
   3  -9  -6   69.73    3.86
  -3   9   6   79.08    5.44
  -3   9   6   78.13    4.98
  -3   9   6   71.99    5.87
   2  -9  -6    9.47    0.85
   2  -9  -6    9.76    1.32
   2  -9  -6   10.78    1.10
   2  -9  -6    9.16    0.86
  -2   9   6   11.16    1.62
  -2   9   6    9.49    1.24
  -2   9   6    9.43    1.33
   1  -9  -6  114.68    4.83
   1  -9  -6  108.33    7.01
   1  -9  -6  107.29    6.80
   1  -9  -6  113.94    4.99
   1  -9  -6  114.98    5.53
  -1   9   6  114.78    6.10
  -1   9   6  113.88    8.45
  -1   9   6  119.06    7.52
  -1   9   6  122.10    7.42
  -1   9   6  111.51    6.98
   0  -9  -6  157.05    6.68
   0  -9  -6  160.53    9.70
   0  -9  -6  164.98    6.91
   0  -9  -6  162.03    7.61
   0   9   6  162.18   10.25
   0   9   6  158.22    9.65
   0   9   6  165.72   10.13
   0   9   6  165.01    8.56
  -1  -9  -6    2.06    0.52
  -1  -9  -6    1.75    0.23
  -1  -9  -6    1.62    0.50
  -1  -9  -6    1.91    0.45
   1   9   6    2.55    0.63
   1   9   6    1.71    0.72
   1   9   6    0.80    0.38
   1   9   6    1.53    0.55
  -2  -9  -6  154.45    7.25
  -2  -9  -6  157.37    9.20
  -2  -9  -6  154.04    6.43
   2   9   6  154.99    8.28
   2   9   6  155.68    9.80
   2   9   6  156.15    9.71
   2   9   6  152.68    9.18
  -3  -9  -6  189.14    7.64
  -3  -9  -6  191.30    8.60
  -3  -9  -6  181.87   10.88
   3   9   6  180.16   11.60
   3   9   6  189.64    9.90
   3   9   6  185.12   11.65
  -4  -9  -6    0.66    0.34
  -4  -9  -6    1.18    0.44
  -4  -9  -6    0.30    0.33
   4   9   6    0.20    0.62
   4   9   6    1.05    0.59
   4   9   6    0.35    0.49
  -5  -9  -6   53.11    4.16
  -5  -9  -6   55.03    2.67
  -5  -9  -6   50.18    2.47
   5   9   6   49.32    3.85
   5   9   6   49.00    3.25
  -6  -9  -6   38.10    3.31
  -6  -9  -6   36.44    2.46
  -6  -9  -6   38.21    2.02
  -6  -9  -6   38.71    1.95
   6   9   6   34.61    2.62
   6   9   6   37.60    3.13
  -7  -9  -6    2.50    1.01
  -7  -9  -6    2.43    0.55
   7   9   6    2.01    0.84
  -8  -9  -6   12.96    2.02
   8   9   6   16.69    1.94
  -9  -9  -6   18.30    2.50
   9   9   6   18.19    2.05
 -10  -9  -6    3.39    1.34
  10   9   6    3.46    1.20
   7 -10  -6   42.99    2.81
   7 -10  -6   48.00    2.74
   7 -10  -6   45.56    3.81
  -7  10   6   44.60    3.76
  -7  10   6   39.95    4.23
   6 -10  -6   22.00    1.88
   6 -10  -6   26.11    2.60
   6 -10  -6   27.71    1.83
  -6  10   6   22.91    3.10
  -6  10   6   28.90    2.63
   5 -10  -6   16.26    1.12
   5 -10  -6   15.03    1.86
   5 -10  -6   15.55    1.35
   5 -10  -6   13.58    1.45
  -5  10   6   15.28    1.86
  -5  10   6   12.84    2.11
   4 -10  -6   63.77    4.49
   4 -10  -6   65.69    2.97
   4 -10  -6   60.73    3.15
   4 -10  -6   60.13    3.49
  -4  10   6   66.90    4.50
  -4  10   6   63.63    4.89
   3 -10  -6   46.54    2.30
   3 -10  -6   46.53    2.72
   3 -10  -6   47.86    2.41
   3 -10  -6   43.25    3.39
  -3  10   6   46.57    3.79
  -3  10   6   46.49    4.01
  -3  10   6   46.42    3.40
   2 -10  -6   20.86    1.92
   2 -10  -6   20.35    1.28
   2 -10  -6   20.63    1.33
   2 -10  -6   22.72    1.61
  -2  10   6   22.62    2.26
  -2  10   6   22.55    1.91
  -2  10   6   20.91    2.17
  -2  10   6   21.60    2.01
   1 -10  -6   74.61    4.90
   1 -10  -6   71.41    3.38
   1 -10  -6   76.66    3.42
   1 -10  -6   77.49    3.90
  -1  10   6   77.95    5.30
  -1  10   6   71.76    5.84
  -1  10   6   74.39    4.84
  -1  10   6   77.66    5.02
   0 -10  -6   12.56    1.17
   0 -10  -6   13.18    1.31
   0 -10  -6   13.55    1.09
   0 -10  -6   13.69    0.80
   0  10   6   12.95    1.26
   0  10   6   11.97    1.24
   0  10   6   12.27    1.65
   0  10   6   13.03    1.23
  -1 -10  -6   37.24    2.12
  -1 -10  -6   37.51    1.89
  -1 -10  -6   37.84    2.58
   1  10   6   36.55    2.90
   1  10   6   33.13    2.50
   1  10   6   37.69    2.38
   1  10   6   33.38    2.57
  -2 -10  -6  100.18    4.43
  -2 -10  -6  104.38    4.98
   2  10   6  102.16    6.76
   2  10   6  103.80    5.70
   2  10   6   99.39    6.55
  -3 -10  -6   14.81    1.18
  -3 -10  -6   14.40    1.21
  -3 -10  -6   12.38    1.08
   3  10   6   16.55    1.41
   3  10   6   13.58    1.38
   3  10   6   12.73    1.66
  -4 -10  -6   15.34    1.24
  -4 -10  -6   11.15    1.03
  -4 -10  -6   13.74    1.90
  -4 -10  -6   13.38    1.08
   4  10   6   16.37    1.89
   4  10   6   12.71    1.43
   4  10   6   14.93    1.42
  -5 -10  -6   68.90    5.29
  -5 -10  -6   71.69    3.21
  -5 -10  -6   73.44    3.46
  -5 -10  -6   61.62    4.44
   5  10   6   66.13    4.18
   5  10   6   70.92    4.98
  -6 -10  -6   41.37    2.16
  -6 -10  -6   41.87    3.71
  -6 -10  -6   39.42    2.92
   6  10   6   44.53    3.00
   6  10   6   47.61    3.60
  -7 -10  -6    0.31    0.76
   7  10   6    0.48    0.69
  -8 -10  -6   24.82    2.75
   8  10   6   23.03    2.24
  -9 -10  -6   24.05    2.90
   9  10   6   24.63    2.58
   7 -11  -6   14.36    2.04
   7 -11  -6   18.19    1.69
   7 -11  -6   16.74    1.69
  -7  11   6   14.96    2.53
  -7  11   6   14.18    2.13
   6 -11  -6    0.75    0.90
   6 -11  -6    1.20    0.77
   6 -11  -6    2.40    0.76
  -6  11   6    0.50    0.90
  -6  11   6    1.83    1.33
   5 -11  -6   46.62    2.94
   5 -11  -6   50.40    3.84
   5 -11  -6   45.15    2.63
  -5  11   6   50.99    3.80
  -5  11   6   46.31    4.12
   4 -11  -6   29.93    1.78
   4 -11  -6   27.32    2.56
   4 -11  -6   29.12    2.07
   4 -11  -6   24.55    1.63
  -4  11   6   28.77    2.97
  -4  11   6   34.27    2.68
   3 -11  -6    4.81    1.05
   3 -11  -6    6.19    1.01
   3 -11  -6    6.66    0.82
   3 -11  -6    6.53    0.79
  -3  11   6    6.69    1.21
  -3  11   6    7.62    1.48
  -3  11   6    7.91    1.55
  -3  11   6    6.10    1.32
   2 -11  -6   92.83    6.15
   2 -11  -6   95.14    4.87
   2 -11  -6  100.03    4.24
   2 -11  -6   92.75    4.30
  -2  11   6   92.28    6.08
  -2  11   6   98.51    6.23
  -2  11   6   90.59    7.35
  -2  11   6   96.03    6.55
   1 -11  -6   70.71    4.80
   1 -11  -6   70.49    3.81
   1 -11  -6   75.33    3.33
   1 -11  -6   71.63    3.34
  -1  11   6   73.40    4.76
  -1  11   6   71.93    5.16
  -1  11   6   71.15    4.76
   0 -11  -6    0.22    0.39
   0 -11  -6    0.65    0.48
   0 -11  -6    0.12    0.48
   0  11   6    0.98    0.80
   0  11   6    0.95    0.58
   0  11   6    0.15    0.42
  -1 -11  -6   37.89    2.73
  -1 -11  -6   35.52    2.22
  -1 -11  -6   37.17    2.02
   1  11   6   36.90    2.71
   1  11   6   39.07    3.06
   1  11   6   41.31    2.58
  -2 -11  -6   46.20    2.33
  -2 -11  -6   47.54    2.59
  -2 -11  -6   45.94    3.12
   2  11   6   47.24    3.57
   2  11   6   42.23    3.20
   2  11   6   47.43    2.97
  -3 -11  -6    2.25    0.58
  -3 -11  -6    2.14    0.56
  -3 -11  -6    2.90    0.60
   3  11   6    2.43    0.74
   3  11   6    1.83    0.64
   3  11   6    3.39    0.97
  -4 -11  -6   19.66    1.40
  -4 -11  -6   21.57    1.39
  -4 -11  -6   20.81    1.69
  -4 -11  -6   21.14    2.32
   4  11   6   20.07    2.17
   4  11   6   21.49    1.82
  -5 -11  -6   33.35    1.99
  -5 -11  -6   38.67    3.34
  -5 -11  -6   33.59    2.64
  -5 -11  -6   31.32    1.90
   5  11   6   37.96    3.08
   5  11   6   35.80    2.57
  -6 -11  -6    0.23    0.83
  -6 -11  -6    0.32    0.47
  -6 -11  -6   -0.06    0.50
   6  11   6   -0.13    0.60
   6  11   6    0.91    0.86
  -7 -11  -6   41.00    3.74
   7  11   6   36.40    2.93
  -8 -11  -6   58.53    5.03
   8  11   6   58.70    4.06
  -9 -11  -6    1.01    1.15
   9  11   6    0.74    0.93
   6 -12  -6   13.74    1.38
   6 -12  -6   15.60    1.70
   6 -12  -6   10.70    1.80
  -6  12   6   12.48    1.97
  -6  12   6   17.01    2.50
   5 -12  -6   45.11    3.00
   5 -12  -6   49.63    3.90
   5 -12  -6   46.29    2.66
  -5  12   6   49.80    4.20
  -5  12   6   48.24    3.84
   4 -12  -6    3.01    0.68
   4 -12  -6    3.31    0.92
   4 -12  -6    2.25    0.63
   4 -12  -6    3.66    1.10
  -4  12   6    3.42    1.29
  -4  12   6    3.10    1.07
   3 -12  -6   21.37    1.80
   3 -12  -6   20.98    1.46
   3 -12  -6   21.46    2.20
   3 -12  -6   24.34    1.48
  -3  12   6   22.99    2.19
  -3  12   6   23.52    2.53
   2 -12  -6   61.83    2.95
   2 -12  -6   61.56    4.27
   2 -12  -6   61.37    3.42
  -2  12   6   61.67    4.57
  -2  12   6   57.00    5.03
  -2  12   6   55.90    4.15
   1 -12  -6    2.11    0.72
   1 -12  -6    1.86    0.70
   1 -12  -6    2.14    0.59
  -1  12   6    2.87    1.08
   0 -12  -6   28.65    1.75
   0 -12  -6   28.65    2.39
   0 -12  -6   31.19    2.04
   0  12   6   28.17    2.71
   0  12   6   32.12    2.25
  -1 -12  -6   73.93    3.80
  -1 -12  -6   67.30    3.36
   1  12   6   75.11    4.33
   1  12   6   70.49    5.13
  -2 -12  -6   24.33    1.57
  -2 -12  -6   24.64    1.68
  -2 -12  -6   23.92    1.97
   2  12   6   23.31    1.96
   2  12   6   25.67    2.44
  -3 -12  -6   19.11    2.23
  -3 -12  -6   18.57    1.40
  -3 -12  -6   16.65    1.55
  -3 -12  -6   17.35    1.41
   3  12   6   17.89    1.73
   3  12   6   18.98    2.10
  -4 -12  -6   60.12    4.04
  -4 -12  -6   59.53    2.96
  -4 -12  -6   62.08    4.96
  -4 -12  -6   65.14    3.23
   4  12   6   59.35    4.59
   4  12   6   57.65    3.85
  -5 -12  -6   22.98    2.84
  -5 -12  -6   15.32    1.75
  -5 -12  -6   18.48    1.37
   5  12   6   21.79    1.92
   5  12   6   17.32    2.24
  -6 -12  -6    4.72    1.07
  -6 -12  -6    7.76    1.66
   6  12   6    8.70    1.37
   6  12   6    6.17    1.42
  -7 -12  -6   53.98    4.71
   7  12   6   52.29    3.74
  -8 -12  -6    2.38    1.32
   8  12   6    1.97    1.02
   5 -13  -6   30.65    2.37
   5 -13  -6   28.16    1.95
   5 -13  -6   30.55    2.95
  -5  13   6   27.96    3.11
  -5  13   6   31.89    2.94
   4 -13  -6    1.15    0.83
   4 -13  -6    0.50    0.69
  -4  13   6    1.54    1.14
   3 -13  -6   37.00    2.06
   3 -13  -6   34.70    2.44
   3 -13  -6   31.36    2.92
  -3  13   6   36.45    3.26
   2 -13  -6   48.53    2.53
   2 -13  -6   49.43    3.68
   2 -13  -6   45.64    2.93
  -2  13   6   47.44    3.91
   1 -13  -6    0.83    0.66
   1 -13  -6    0.45    0.62
   1 -13  -6    0.37    0.51
  -1  13   6    0.81    0.94
  -1  13   6   -0.28    0.61
   0 -13  -6   53.36    3.16
   0 -13  -6   54.21    2.80
   0  13   6   57.86    4.30
   0  13   6   54.52    3.53
  -1 -13  -6   24.39    1.62
  -1 -13  -6   24.56    1.84
  -1 -13  -6   26.05    2.18
   1  13   6   26.62    2.09
   1  13   6   20.70    2.41
  -2 -13  -6    5.04    0.90
  -2 -13  -6    5.34    0.99
  -2 -13  -6    4.27    0.77
   2  13   6    6.74    1.47
   2  13   6    6.72    1.18
  -3 -13  -6   93.69    6.14
  -3 -13  -6  101.98    4.92
  -3 -13  -6   94.34    4.42
  -3 -13  -6   93.51    7.26
   3  13   6   97.52    5.72
   3  13   6  100.65    6.79
  -4 -13  -6   45.76    2.50
  -4 -13  -6   42.43    3.89
  -4 -13  -6   39.94    3.05
   4  13   6   37.63    3.55
   4  13   6   44.45    3.07
  -5 -13  -6   10.41    1.98
  -5 -13  -6    6.83    1.29
   5  13   6    7.47    1.32
   5  13   6    8.74    1.63
  -6 -13  -6   86.64    6.67
   6  13   6   87.49    6.23
   6  13   6   76.39    5.18
  -7 -13  -6   27.19    3.19
   7  13   6   28.02    2.53
   4 -14  -6   36.13    2.68
   4 -14  -6   35.25    3.24
  -4  14   6   38.02    3.54
   3 -14  -6   43.69    3.06
   3 -14  -6   50.25    3.90
  -3  14   6   50.31    4.08
   2 -14  -6    1.51    0.87
   2 -14  -6    2.63    0.91
  -2  14   6    1.50    1.09
   1 -14  -6   54.83    3.23
  -1  14   6   48.86    4.20
  -1  14   6   54.43    3.53
   0 -14  -6   56.80    4.23
   0 -14  -6   57.82    3.41
   0  14   6   61.12    4.63
   0  14   6   61.00    3.90
  -1 -14  -6    5.65    1.03
  -1 -14  -6    8.23    1.34
   1  14   6    8.06    1.32
   1  14   6    9.05    1.67
  -2 -14  -6   47.65    3.96
  -2 -14  -6   38.93    2.54
  -2 -14  -6   37.59    3.07
   2  14   6   39.11    2.99
   2  14   6   45.92    3.66
  -3 -14  -6   48.01    2.80
  -3 -14  -6   48.95    3.49
  -3 -14  -6   49.35    4.31
   3  14   6   48.34    4.00
   3  14   6   43.97    3.31
  -4 -14  -6   -0.17    0.83
  -4 -14  -6    0.84    0.62
   4  14   6    0.27    0.89
   4  14   6    1.48    0.88
  -5 -14  -6   25.05    2.40
  -5 -14  -6   26.78    3.38
   5  14   6   23.95    2.31
   5  14   6   25.19    2.80
  -6 -14  -6   35.29    3.62
   6  14   6   33.88    3.36
   6  14   6   31.42    2.77
   3 -15  -6    8.65    1.60
   3 -15  -6    6.53    1.25
  -3  15   6    8.49    1.74
   2 -15  -6   15.40    1.78
  -2  15   6   18.40    2.00
  -2  15   6   18.85    2.36
   1 -15  -6   47.59    3.16
   1 -15  -6   53.77    4.02
  -1  15   6   53.62    3.57
  -1  15   6   48.19    4.16
   0 -15  -6    8.18    1.51
   0 -15  -6    9.90    1.33
   0  15   6   12.65    1.98
   0  15   6   11.95    1.63
  -1 -15  -6   36.39    2.99
  -1 -15  -6   34.28    3.53
  -1 -15  -6   33.78    2.40
   1  15   6   37.64    3.40
   1  15   6   36.72    2.82
  -2 -15  -6   49.55    3.66
  -2 -15  -6   50.28    4.44
  -2 -15  -6   50.09    2.97
   2  15   6   46.42    3.48
   2  15   6   46.44    4.07
  -3 -15  -6   21.26    3.02
  -3 -15  -6   19.81    2.03
   3  15   6   19.56    2.28
   3  15   6   23.96    2.83
  -4 -15  -6    7.97    1.40
  -4 -15  -6    5.39    1.69
   4  15   6    6.29    1.56
   4  15   6    8.07    1.50
  -5 -15  -6   34.25    3.73
   5  15   6   36.13    3.55
   5  15   6   38.63    3.06
   0  16   6    1.60    1.17
  -1 -16  -6   27.29    3.07
  -1 -16  -6   25.24    2.51
  -1 -16  -6   26.24    2.11
   1  16   6   24.23    2.80
   1  16   6   25.74    2.42
   1  11  -7   21.94    3.74
   1  11  -7   21.01    2.96
  -1 -11   7   17.74    2.62
   0  11  -7    2.94    1.41
   0  11  -7    7.56    2.27
   0  11  -7    5.89    2.28
   0 -11   7    3.75    1.58
  -1  11  -7    9.65    2.72
  -1  11  -7    7.67    1.83
  -1  11  -7    8.67    2.45
   1 -11   7    8.26    1.83
  -2  11  -7   28.86    3.12
  -2  11  -7   33.12    4.18
  -2  11  -7   32.39    4.68
   2 -11   7   27.32    3.18
  -3  11  -7   10.76    2.68
  -3  11  -7   10.90    2.00
  -3  11  -7   10.73    2.57
   3 -11   7   10.54    2.06
   3 -11   7   12.45    2.05
  -4  11  -7    6.22    2.13
  -4  11  -7    6.56    2.56
  -4  11  -7    8.32    1.72
   4 -11   7    8.75    1.79
   4 -11   7    6.85    1.92
   3  10  -7    1.97    1.20
   3  10  -7   -0.84    1.63
  -3 -10   7    0.32    1.28
  -3 -10   7    0.21    1.13
   2  10  -7   29.00    4.53
   2  10  -7   36.37    3.58
  -2 -10   7   32.95    3.58
  -2 -10   7   39.11    3.63
   1  10  -7   35.54    4.35
   1  10  -7   26.36    3.34
  -1 -10   7   24.38    3.18
   0  10  -7   -0.69    0.81
   0  10  -7    0.40    1.29
   0  10  -7   -1.08    1.40
   0 -10   7    0.44    1.21
  -1  10  -7   25.03    3.64
  -1  10  -7   21.36    2.81
  -1  10  -7   22.86    3.54
   1 -10   7   20.72    2.59
  -2  10  -7   50.92    5.22
  -2  10  -7   48.78    5.01
  -2  10  -7   41.48    3.85
   2 -10   7   43.29    3.85
  -3  10  -7    0.82    0.93
  -3  10  -7    1.27    1.58
  -3  10  -7    0.79    1.39
   3 -10   7    1.92    1.30
   3 -10   7   -0.53    1.01
  -4  10  -7   51.06    4.28
  -4  10  -7   54.25    5.35
  -4  10  -7   54.00    5.95
   4 -10   7   62.72    4.91
   4 -10   7   54.50    4.42
  -5  10  -7   23.62    3.97
  -5  10  -7   20.82    3.19
  -5  10  -7   25.08    2.59
   5 -10   7   21.73    3.18
  -6  10  -7    1.13    1.42
  -6  10  -7   -0.70    1.90
   6 -10   7    1.05    1.56
   4   9  -7   -0.66    1.47
   4   9  -7    1.68    1.19
   4   9  -7    1.21    1.11
  -4  -9   7    0.70    1.39
  -4  -9   7    1.61    1.40
   3   9  -7   14.93    3.35
   3   9  -7   22.14    2.81
  -3  -9   7   21.29    2.84
  -3  -9   7   18.50    2.68
   2   9  -7   29.29    4.32
   2   9  -7   25.28    3.02
  -2  -9   7   26.91    2.99
  -2  -9   7   25.52    3.14
   1   9  -7   -0.74    1.40
   1   9  -7    0.19    0.87
  -1  -9   7    0.10    1.03
  -1  -9   7    0.25    1.12
   0   9  -7   41.78    4.38
   0   9  -7   35.77    3.47
   0   9  -7   39.23    4.50
   0  -9   7   34.92    3.48
  -1   9  -7   85.57    7.15
  -1   9  -7   70.54    5.68
  -1   9  -7   83.68    7.26
   1  -9   7   76.78    5.65
  -2   9  -7    7.92    2.06
  -2   9  -7    5.39    1.38
  -2   9  -7    6.42    1.97
   2  -9   7    6.24    1.47
  -3   9  -7   31.60    2.90
  -3   9  -7   31.89    4.05
  -3   9  -7   27.59    3.61
   3  -9   7   30.33    2.91
  -4   9  -7   50.01    3.80
  -4   9  -7   44.36    5.04
  -4   9  -7   38.44    4.49
   4  -9   7   50.07    4.26
   4  -9   7   50.79    3.86
  -5   9  -7    1.68    1.70
  -5   9  -7    4.03    1.13
  -5   9  -7    2.41    1.39
   5  -9   7    5.02    1.72
  -6   9  -7    6.77    2.57
  -6   9  -7   15.97    1.98
  -6   9  -7    7.58    1.96
   6  -9   7    6.26    2.02
  -7   9  -7   10.14    2.96
  -7   9  -7   13.61    2.52
  -7   9  -7   19.45    2.22
   7  -9   7   10.94    2.62
   5   8  -7   22.00    2.74
   5   8  -7   23.14    4.04
  -5  -8   7   19.26    2.69
  -5  -8   7   20.80    3.07
   4   8  -7    1.78    0.96
   4   8  -7   -0.60    1.46
   4   8  -7    1.10    0.93
  -4  -8   7    1.33    1.45
  -4  -8   7    1.37    1.17
   3   8  -7   45.71    3.73
   3   8  -7   30.27    4.70
  -3  -8   7   40.84    3.76
  -3  -8   7   42.86    3.92
   2   8  -7   22.40    2.61
   2   8  -7   13.55    2.93
  -2  -8   7   16.59    2.33
  -2  -8   7   14.76    2.23
   1   8  -7    5.88    2.04
   1   8  -7    4.52    1.37
  -1  -8   7    2.86    1.19
  -1  -8   7    3.29    1.26
   0   8  -7   61.66    5.49
   0   8  -7   50.75    4.31
   0   8  -7   62.14    5.63
   0  -8   7   55.37    4.42
   0  -8   7   49.00    4.26
  -1   8  -7   16.99    2.83
  -1   8  -7   14.34    2.12
  -1   8  -7   15.69    2.71
   1  -8   7   13.38    1.98
  -2   8  -7   19.29    2.85
  -2   8  -7   19.01    2.33
  -2   8  -7   19.79    3.13
   2  -8   7   19.24    2.27
  -3   8  -7   70.36    6.52
  -3   8  -7   80.65    5.38
  -3   8  -7   78.97    7.03
   3  -8   7   75.56    5.30
  -4   8  -7   12.15    1.76
  -4   8  -7    6.63    1.86
  -4   8  -7   10.91    2.59
   4  -8   7   13.64    1.77
   4  -8   7   12.45    2.14
  -5   8  -7    6.99    1.91
  -5   8  -7   11.71    1.68
  -5   8  -7    8.83    2.44
   5  -8   7   12.90    2.36
   5  -8   7   15.09    1.84
  -6   8  -7   27.10    2.40
  -6   8  -7   18.60    3.57
  -6   8  -7   23.44    2.98
   6  -8   7   18.83    3.11
  -7   8  -7    7.62    1.90
  -7   8  -7   11.91    1.71
  -7   8  -7    5.36    2.39
   7  -8   7    8.08    2.33
  -8   8  -7    0.16    1.91
  -8   8  -7    1.65    1.36
  -8   8  -7    1.44    0.91
   8  -8   7    1.35    1.69
   6   7  -7   12.75    2.89
  -6  -7   7   13.36    2.55
  -6  -7   7   21.72    2.62
   5   7  -7   -0.59    1.39
   5   7  -7    1.21    0.93
  -5  -7   7   -0.06    1.28
  -5  -7   7    1.65    1.21
   4   7  -7   67.08    4.18
   4   7  -7   69.52    4.92
   4   7  -7   50.92    6.03
  -4  -7   7   58.19    5.21
  -4  -7   7   63.72    4.95
   3   7  -7   69.18    4.94
  -3  -7   7   60.32    4.90
  -3  -7   7   62.91    5.23
   2   7  -7    1.82    0.92
   2   7  -7   -0.65    1.19
  -2  -7   7    0.38    0.97
  -2  -7   7    1.13    1.08
   1   7  -7   32.26    3.40
   1   7  -7   48.85    4.71
   1   7  -7   51.87    4.52
  -1  -7   7   36.96    3.53
  -1  -7   7   46.18    3.73
   0   7  -7   75.65    6.10
   0   7  -7   72.57    5.99
   0   7  -7   55.67    4.70
   0  -7   7   62.99    4.95
   0  -7   7   61.12    4.74
  -1   7  -7    0.59    0.73
  -1   7  -7    0.90    1.20
  -1   7  -7    2.55    1.34
   1  -7   7    2.27    0.91
   1  -7   7    0.88    0.87
  -2   7  -7   27.42    2.61
  -2   7  -7   29.49    3.55
  -2   7  -7   31.79    3.38
   2  -7   7   32.09    2.70
  -3   7  -7   21.14    3.20
  -3   7  -7   19.57    2.85
  -3   7  -7   20.77    2.05
   3  -7   7   19.60    2.08
  -4   7  -7    2.81    0.86
  -4   7  -7    2.42    1.14
  -4   7  -7    0.59    1.24
   4  -7   7    2.05    1.25
   4  -7   7    2.87    1.00
  -5   7  -7   27.84    3.28
  -5   7  -7   26.43    3.92
  -5   7  -7   33.26    2.64
   5  -7   7   26.26    3.26
   5  -7   7   34.61    2.71
  -6   7  -7   23.65    3.88
  -6   7  -7   31.47    3.41
  -6   7  -7   31.77    2.60
   6  -7   7   27.96    3.55
  -7   7  -7    1.28    1.18
  -7   7  -7    0.46    1.66
  -7   7  -7   -0.42    0.61
   7  -7   7   -1.10    1.19
  -8   7  -7   50.65    4.88
  -8   7  -7   56.16    3.98
  -8   7  -7   44.67    5.52
   8  -7   7   50.94    4.78
   9  -7   7   42.65    4.46
  -7  -6   7   73.46    5.87
   6   6  -7    9.86    1.93
   6   6  -7    7.58    2.36
  -6  -6   7    8.74    1.90
  -6  -6   7    1.53    1.55
   5   6  -7   14.38    2.98
   5   6  -7   21.49    2.68
  -5  -6   7   19.40    2.51
  -5  -6   7   17.13    2.61
   4   6  -7   57.43    6.05
   4   6  -7   67.76    4.11
   4   6  -7   67.50    4.84
  -4  -6   7   51.93    5.10
  -4  -6   7   71.84    4.99
   3   6  -7    0.68    0.79
   3   6  -7    0.21    1.36
  -3  -6   7    3.42    1.28
  -3  -6   7    1.18    1.18
   2   6  -7   32.89    4.02
   2   6  -7   34.97    3.09
  -2  -6   7   36.77    3.31
  -2  -6   7   34.54    3.12
   1   6  -7   77.13    5.90
   1   6  -7   68.95    5.97
   1   6  -7   58.16    4.61
  -1  -6   7   64.62    4.96
  -1  -6   7   52.48    4.55
   0   6  -7   13.97    1.97
   0   6  -7   16.43    2.41
   0   6  -7   15.89    2.48
   0  -6   7   13.51    1.86
   0  -6   7   12.31    1.77
  -1   6  -7   48.65    4.34
  -1   6  -7   46.32    4.29
  -1   6  -7   42.38    3.44
   1  -6   7   46.04    3.46
   1  -6   7   41.03    3.47
  -2   6  -7   99.55    8.31
  -2   6  -7   97.76    8.01
  -2   6  -7  102.04    6.61
   2  -6   7  104.12    6.57
  -3   6  -7   31.83    3.54
  -3   6  -7   21.78    2.99
  -3   6  -7   33.79    2.58
   3  -6   7   35.27    2.62
  -4   6  -7   18.37    2.46
  -4   6  -7   23.23    1.97
  -4   6  -7   14.89    2.72
   4  -6   7   22.01    2.00
   4  -6   7   22.21    2.70
  -5   6  -7   77.71    6.53
  -5   6  -7   83.69    5.29
  -5   6  -7   73.34    6.92
   5  -6   7   69.49    5.78
   5  -6   7   88.79    5.33
  -6   6  -7   24.99    2.11
  -6   6  -7   17.33    3.05
  -6   6  -7   23.90    2.80
   6  -6   7   22.15    3.02
  -7   6  -7   24.90    2.20
  -7   6  -7   21.57    3.35
  -7   6  -7   21.36    2.77
   7  -6   7   24.66    3.18
  -8   6  -7   78.55    5.33
  -8   6  -7   80.51    6.64
  -8   6  -7   75.83    7.21
   8  -6   7   76.04    6.17
  -9   6  -7    9.93    1.55
  -9   6  -7   11.21    2.21
  -9   6  -7    9.90    2.67
   9  -6   7    6.46    1.99
  -7  -5   7   23.40    2.89
  -7  -5   7   14.57    2.83
   6   5  -7   11.99    2.16
   6   5  -7   11.28    2.69
  -6  -5   7   13.48    2.19
  -6  -5   7    8.87    2.18
   5   5  -7  100.85    6.54
   5   5  -7   93.81    7.99
  -5  -5   7   72.78    6.87
  -5  -5   7   96.87    6.52
   4   5  -7   43.22    2.88
   4   5  -7   46.27    3.61
   4   5  -7   36.18    4.45
  -4  -5   7   42.33    3.63
  -4  -5   7   41.04    3.91
   3   5  -7    8.23    1.45
   3   5  -7    3.84    1.77
  -3  -5   7    9.11    1.62
  -3  -5   7    7.29    1.65
   2   5  -7   74.97    5.04
   2   5  -7   63.61    6.24
  -2  -5   7   71.14    5.42
  -2  -5   7   70.46    5.01
   1   5  -7   17.77    2.71
   1   5  -7   19.36    2.34
   1   5  -7   16.20    1.97
  -1  -5   7   15.48    2.00
  -1  -5   7   10.53    1.66
   0   5  -7    3.01    0.99
   0   5  -7    5.22    1.40
   0   5  -7    5.74    1.50
   0  -5   7    5.56    1.15
   0  -5   7    3.77    1.07
   0  -5   7    6.91    0.95
  -1   5  -7  131.84    8.56
  -1   5  -7  152.68   10.66
  -1   5  -7  155.30   10.49
   1  -5   7  145.88    8.57
   1  -5   7  120.83    9.13
   1  -5   7  118.55    8.50
  -2   5  -7   56.34    5.02
  -2   5  -7   60.75    3.98
   2  -5   7   58.67    3.76
   2  -5   7   47.14    3.91
   2  -5   7   56.27    3.89
  -3   5  -7   34.66    2.69
  -3   5  -7   28.16    3.45
   3  -5   7   36.53    2.73
   3  -5   7   36.74    3.06
   3  -5   7   37.44    2.54
  -4   5  -7  115.42    9.27
  -4   5  -7  100.54    9.57
  -4   5  -7  127.19    7.58
   4  -5   7  134.11    7.60
   4  -5   7  111.61    8.04
   4  -5   7  132.39    7.69
  -5   5  -7  107.33    9.28
  -5   5  -7  119.03    8.88
  -5   5  -7  118.31    7.18
   5  -5   7  105.05    7.75
   5  -5   7  119.87    7.18
  -6   5  -7    0.15    0.52
  -6   5  -7    0.24    1.19
  -6   5  -7    0.27    0.83
   6  -5   7   -0.97    0.96
  -7   5  -7   82.82    5.40
  -7   5  -7   84.69    6.73
  -7   5  -7   80.23    7.24
   7  -5   7   78.75    6.12
  -8   5  -7   52.31    5.49
  -8   5  -7   57.51    5.00
  -8   5  -7   55.24    3.94
   8  -5   7   55.58    4.77
  -9   5  -7    1.47    0.74
  -9   5  -7    2.20    1.21
  -9   5  -7    1.90    1.53
   9  -5   7    1.87    1.47
 -10   5  -7   24.10    2.99
 -10   5  -7   18.11    3.41
 -10   5  -7   19.96    2.12
  10  -5   7   20.21    3.05
   8   4  -7   16.64    1.89
  -8  -4   7    9.88    2.42
  -8  -4   7   15.26    2.68
   7   4  -7   -0.90    0.87
  -7  -4   7   -0.45    1.36
  -7  -4   7    1.61    1.34
   6   4  -7   31.15    3.11
   6   4  -7   29.18    3.66
  -6  -4   7   19.54    3.08
  -6  -4   7   35.00    3.32
   5   4  -7   13.63    2.03
   5   4  -7   15.83    2.82
  -5  -4   7   16.89    2.55
  -5  -4   7   14.41    2.09
   4   4  -7   -0.99    0.95
   4   4  -7    0.02    0.47
   4   4  -7   -0.10    0.70
  -4  -4   7   -1.57    0.86
  -4  -4   7    0.45    0.90
   3   4  -7   70.81    4.62
   3   4  -7   50.85    5.47
  -3  -4   7   63.67    4.56
  -3  -4   7   60.90    4.94
   2   4  -7   70.43    6.81
   2   4  -7   84.74    5.58
  -2  -4   7   86.63    5.60
  -2  -4   7   82.09    6.06
   1   4  -7   11.93    1.92
   1   4  -7   13.19    2.26
   1   4  -7    8.53    1.39
  -1  -4   7    8.26    1.42
  -1  -4   7    8.53    1.47
   0   4  -7   74.84    5.55
   0   4  -7   73.76    5.43
   0   4  -7   49.39    4.24
   0  -4   7   56.79    4.30
   0  -4   7   54.24    4.58
   0  -4   7   69.46    4.26
  -1   4  -7  199.49   13.98
  -1   4  -7  201.28   13.74
  -1   4  -7  181.49   11.31
   1  -4   7  179.34   11.25
   1  -4   7  169.86   11.51
  -2   4  -7    1.80    0.99
  -2   4  -7    1.05    0.84
  -2   4  -7    0.50    0.53
   2  -4   7    1.15    0.54
   2  -4   7    1.79    0.68
   2  -4   7    0.82    0.53
  -3   4  -7   52.22    3.82
   3  -4   7   53.01    4.14
   3  -4   7   54.62    3.83
   3  -4   7   63.66    3.95
   3  -4   7   56.32    3.83
  -4   4  -7   99.71    7.67
  -4   4  -7  103.74    6.23
  -4   4  -7   90.12    7.91
   4  -4   7  105.78    6.23
   4  -4   7   81.58    6.58
   4  -4   7  106.94    6.39
  -5   4  -7    0.71    0.49
  -5   4  -7   -0.06    0.91
  -5   4  -7    0.58    0.77
   5  -4   7    0.18    0.76
   5  -4   7    0.61    0.59
  -6   4  -7   75.30    6.80
  -6   4  -7   80.07    5.17
  -6   4  -7   87.62    6.51
   6  -4   7   78.23    5.82
  -7   4  -7   46.74    3.25
  -7   4  -7   43.88    4.47
  -7   4  -7   45.31    4.12
   7  -4   7   45.31    3.94
  -8   4  -7    0.21    0.55
  -8   4  -7    0.94    0.89
  -8   4  -7    0.39    1.18
   8  -4   7   -0.57    1.04
  -9   4  -7   37.67    4.42
  -9   4  -7   40.17    3.91
  -9   4  -7   37.97    3.00
   9  -4   7   41.11    3.89
 -10   4  -7   16.54    3.07
 -10   4  -7   21.44    2.77
 -10   4  -7   19.94    2.01
  10  -4   7   24.81    3.26
   8   3  -7    4.59    1.09
  -8  -3   7    1.54    1.66
  -8  -3   7    3.07    1.55
   7   3  -7    0.91    1.10
   7   3  -7    6.60    1.19
  -7  -3   7    3.12    1.50
  -7  -3   7    2.03    1.48
   6   3  -7   12.60    2.22
   6   3  -7   15.81    2.72
  -6  -3   7   11.04    2.28
  -6  -3   7   19.14    2.55
   5   3  -7   24.55    2.52
   5   3  -7   23.40    2.98
  -5  -3   7   22.50    2.63
  -5  -3   7   15.19    2.55
   4   3  -7   11.07    2.17
   4   3  -7   13.38    1.86
  -4  -3   7    9.50    1.58
  -4  -3   7    5.08    1.50
   3   3  -7   70.00    4.50
   3   3  -7   51.28    5.31
  -3  -3   7   68.61    4.47
  -3  -3   7   51.25    4.68
   2   3  -7   11.63    2.29
   2   3  -7   21.06    1.95
  -2  -3   7   16.38    2.01
  -2  -3   7   21.89    2.01
   1   3  -7   29.50    2.95
   1   3  -7   21.50    2.03
  -1  -3   7   22.79    2.10
  -1  -3   7   18.12    2.12
   0   3  -7  136.09    8.27
   0  -3   7  126.56    8.96
   0  -3   7  133.16    8.22
  -1   3  -7   54.07    3.95
  -1   3  -7   62.57    4.93
  -1   3  -7   63.73    4.93
   1  -3   7   53.48    4.16
   1  -3   7   59.29    3.98
   1  -3   7   56.23    3.98
  -2   3  -7   33.26    2.48
  -2   3  -7   26.00    3.02
   2  -3   7   32.22    2.44
   2  -3   7   36.02    2.53
   2  -3   7   32.15    2.45
  -3   3  -7   83.25    7.05
  -3   3  -7   82.64    7.27
  -3   3  -7   98.41    5.83
   3  -3   7  101.58    5.99
   3  -3   7   99.26    5.82
   3  -3   7   83.61    6.09
  -4   3  -7   10.88    1.10
  -4   3  -7   10.81    1.65
  -4   3  -7    8.33    1.60
   4  -3   7    9.99    1.12
   4  -3   7    9.22    1.13
   4  -3   7    7.66    1.48
  -5   3  -7    2.01    1.04
  -5   3  -7    1.49    0.51
  -5   3  -7    1.40    0.74
   5  -3   7    1.41    0.59
   5  -3   7    1.47    0.93
   5  -3   7    2.28    0.69
  -6   3  -7   35.15    2.59
  -6   3  -7   37.04    3.68
  -6   3  -7   37.67    3.38
   6  -3   7   38.18    3.22
  -7   3  -7    0.32    0.45
  -7   3  -7    1.16    0.81
  -7   3  -7    0.88    0.98
   7  -3   7   -0.55    0.93
  -8   3  -7   22.61    1.95
  -8   3  -7   23.08    2.93
  -8   3  -7   22.14    2.58
   8  -3   7   25.87    2.77
  -9   3  -7   20.75    3.14
  -9   3  -7   22.02    1.97
  -9   3  -7   22.79    2.71
   9  -3   7   24.61    3.01
 -10   3  -7    8.25    1.79
 -10   3  -7    6.87    1.18
 -10   3  -7    4.49    1.92
  10  -3   7    5.36    1.75
   8   2  -7    0.81    1.22
   8   2  -7    1.19    0.81
  -8  -2   7    1.01    1.60
  -8  -2   7    0.98    1.41
   7   2  -7   31.46    3.30
   7   2  -7   34.08    2.36
  -7  -2   7   27.35    3.74
  -7  -2   7   35.35    3.61
   6   2  -7   44.40    3.94
  -6  -2   7   40.42    4.27
  -6  -2   7   58.28    4.32
   5   2  -7    0.17    0.95
   5   2  -7    0.43    0.82
  -5  -2   7    1.38    1.07
  -5  -2   7   -0.08    1.11
   4   2  -7   85.28    5.91
   4   2  -7   88.06    7.09
   4   2  -7   76.26    4.05
  -4  -2   7   95.30    6.01
   3   2  -7   79.98    4.95
   3   2  -7   94.85    7.51
   3   2  -7  104.83    6.27
  -3  -2   7  109.60    6.29
  -3  -2   7   77.46    6.62
   2   2  -7    4.57    1.04
   2   2  -7    2.39    1.21
  -2  -2   7    2.40    1.03
  -2  -2   7    4.06    0.98
   1   2  -7   77.93    5.97
   1   2  -7   75.84    4.78
  -1  -2   7   71.90    4.74
  -1  -2   7   57.62    5.05
   0   2  -7   49.62    3.75
   0   2  -7   37.06    3.03
   0   2  -7   47.11    3.89
   0  -2   7   39.32    3.30
   0  -2   7   40.51    3.07
  -1   2  -7    3.89    1.06
  -1   2  -7    2.94    0.74
  -1   2  -7    4.66    1.04
   1  -2   7    3.76    0.86
   1  -2   7    3.76    0.83
   1  -2   7    4.23    0.88
  -2   2  -7   82.85    5.28
   2  -2   7   83.82    5.45
   2  -2   7   81.52    5.24
  -3   2  -7   19.03    1.60
  -3   2  -7   18.84    2.08
  -3   2  -7   19.57    2.08
   3  -2   7   21.65    1.66
   3  -2   7   20.80    1.68
   3  -2   7   15.07    1.80
  -4   2  -7   -0.02    0.31
  -4   2  -7    0.47    0.53
  -4   2  -7    1.01    0.76
   4  -2   7   -0.48    0.56
   4  -2   7    0.29    0.42
   4  -2   7   -0.08    0.42
  -5   2  -7   79.83    6.25
  -5   2  -7   76.44    5.98
  -5   2  -7   70.09    4.76
   5  -2   7   81.16    5.37
   5  -2   7   77.31    4.80
   5  -2   7   77.71    5.13
  -6   2  -7   83.02    6.74
  -6   2  -7   83.01    6.45
  -6   2  -7   79.29    5.13
   6  -2   7   87.94    5.82
  -7   2  -7    0.18    0.58
  -7   2  -7    0.36    0.41
  -7   2  -7    0.93    0.97
   7  -2   7    0.67    0.85
  -8   2  -7   20.70    2.39
  -8   2  -7   17.96    1.68
  -8   2  -7   22.36    2.69
   8  -2   7   23.26    2.51
  -9   2  -7   58.28    4.97
  -9   2  -7   55.88    5.36
  -9   2  -7   55.13    3.80
   9  -2   7   57.69    4.66
   9  -2   7   55.19    2.95
 -10   2  -7   -0.27    0.83
 -10   2  -7   -0.58    0.47
 -10   2  -7   -0.68    1.25
  10  -2   7    0.06    0.64
  10  -2   7    0.38    1.26
 -11   2  -7   24.88    2.18
 -11   2  -7   23.82    3.06
 -11   2  -7   24.21    3.69
  11  -2   7   26.07    1.82
  11  -2   7   24.64    3.31
   9   1  -7    2.91    0.98
  -9  -1   7    0.85    1.51
  -9  -1   7    3.51    1.87
   8   1  -7    8.40    1.30
   8   1  -7    6.85    1.71
  -8  -1   7    5.97    1.96
  -8  -1   7    4.71    1.77
   7   1  -7   49.32    2.84
   7   1  -7   49.14    4.02
  -7  -1   7   41.10    4.11
  -7  -1   7   38.64    4.25
   6   1  -7    9.38    1.19
   6   1  -7    8.21    1.63
  -6  -1   7    7.77    1.86
  -6  -1   7   11.06    2.05
   5   1  -7   49.47    4.19
   5   1  -7   60.39    5.02
  -5  -1   7   47.50    4.56
  -5  -1   7   63.55    4.51
   4   1  -7  155.31   10.61
   4   1  -7  181.97    7.82
   4   1  -7  182.28   12.77
  -4  -1   7  184.37   10.80
  -4  -1   7  142.76   11.64
   3   1  -7    4.62    1.32
   3   1  -7    5.91    1.17
   3   1  -7    4.97    0.64
   3   1  -7    5.72    0.71
  -3  -1   7    5.41    1.31
  -3  -1   7    5.82    1.17
   2   1  -7   95.18    8.71
   2   1  -7  130.29    7.40
  -2  -1   7   98.36    7.93
  -2  -1   7  136.89    7.42
   1   1  -7  154.44   11.96
   1   1  -7  175.76    9.93
  -1  -1   7  143.81   10.82
  -1  -1   7  170.98    9.88
   0   1  -7   17.55    1.67
   0   1  -7   20.43    2.17
   0   1  -7   20.88    1.97
   0  -1   7   17.65    1.84
   0  -1   7   17.76    1.70
  -1   1  -7   88.26    6.73
  -1   1  -7   81.80    6.71
  -1   1  -7   77.31    5.50
   1  -1   7  103.44    5.42
   1  -1   7   83.76    5.52
   1  -1   7   86.48    5.79
  -2   1  -7   59.77    4.92
  -2   1  -7   66.66    4.05
  -2   1  -7   54.05    4.83
   2  -1   7   58.82    3.97
   2  -1   7   61.87    4.15
   2  -1   7   67.85    4.23
  -3   1  -7    2.24    0.72
  -3   1  -7    2.55    0.78
  -3   1  -7    1.98    0.53
   3  -1   7    1.74    0.62
   3  -1   7    1.77    0.71
   3  -1   7    2.75    0.61
  -4   1  -7   38.06    3.23
  -4   1  -7   37.59    3.32
  -4   1  -7   36.29    2.53
   4  -1   7   39.78    2.93
   4  -1   7   37.01    2.54
   4  -1   7   37.11    2.75
  -5   1  -7  102.14    6.50
  -5   1  -7  106.94    8.06
  -5   1  -7  109.72    8.33
   5  -1   7  113.06    6.53
   5  -1   7  113.41    7.08
   5  -1   7  104.71    6.99
  -6   1  -7   25.28    2.59
  -6   1  -7   23.40    2.36
  -6   1  -7   22.72    1.74
   6  -1   7   26.45    2.36
   6  -1   7   23.88    2.08
  -7   1  -7   56.82    3.74
  -7   1  -7   55.56    4.81
  -7   1  -7   60.73    5.10
   7  -1   7   63.63    4.45
  -8   1  -7  114.02    7.15
  -8   1  -7  118.15    9.38
  -8   1  -7  118.18    9.00
   8  -1   7  122.94    7.98
  -9   1  -7   25.79    2.82
  -9   1  -7   23.08    3.08
  -9   1  -7   24.58    1.97
   9  -1   7   25.13    1.64
   9  -1   7   27.60    2.84
 -10   1  -7    9.06    2.18
 -10   1  -7   11.76    2.09
 -10   1  -7   12.45    1.34
  10  -1   7   13.92    1.25
  10  -1   7   15.00    2.33
 -11   1  -7   59.00    5.91
 -11   1  -7   60.42    5.45
 -11   1  -7   60.18    4.04
  11  -1   7   59.85    5.05
  11  -1   7   56.77    3.13
   9   0  -7    6.25    1.17
  -9   0   7    3.69    1.66
  -9   0   7    4.79    1.96
   8   0  -7   62.03    3.54
   8   0  -7   63.71    4.97
  -8   0   7   60.84    5.21
  -8   0   7   59.07    5.55
   7   0  -7   50.09    2.86
   7   0  -7   51.29    4.07
  -7   0   7   38.19    4.04
  -7   0   7   46.97    4.47
   6   0  -7   16.98    2.21
   6   0  -7   14.86    1.46
  -6   0   7   14.61    2.35
  -6   0   7   14.55    2.36
   5   0  -7   76.73    5.79
   5   0  -7   71.15    3.31
   5   0  -7   68.77    4.96
  -5   0   7   63.14    5.41
  -5   0   7   54.31    4.87
   4   0  -7   24.29    2.59
   4   0  -7   24.62    1.39
   4   0  -7   20.47    2.42
  -4   0   7   22.62    2.41
  -4   0   7   19.00    2.44
   3   0  -7   52.22    2.54
   3   0  -7   54.09    4.33
   3   0  -7   44.33    2.57
   3   0  -7   43.00    3.54
  -3   0   7   48.99    3.67
  -3   0   7   45.65    3.89
   2   0  -7   93.58    6.18
   2   0  -7   85.85    7.36
  -2   0   7   96.39    6.82
  -2   0   7  102.82    6.25
   1   0  -7   30.94    2.38
   1   0  -7   27.52    2.93
  -1   0   7   32.95    2.44
  -1   0   7   26.15    2.54
   0   0  -7   57.22    3.94
   0   0  -7   60.62    4.59
   0   0  -7   58.21    4.83
   0   0   7   57.55    3.94
   0   0   7   60.04    4.39
  -1   0  -7  230.81   17.96
  -1   0  -7  257.65   14.76
   1   0   7  236.76   15.47
   1   0   7  253.93   14.99
   1   0   7  272.12   14.76
  -2   0  -7   82.72    5.86
  -2   0  -7   91.97    7.17
  -2   0  -7   99.76    7.24
   2   0   7  105.21    6.30
   2   0   7   87.47    6.02
   2   0   7  104.77    5.85
   2   0   7   97.92    5.91
  -3   0  -7    2.69    0.70
  -3   0  -7    2.50    0.53
  -3   0  -7    2.36    0.70
  -3   0  -7    2.23    0.50
   3   0   7    2.28    0.52
   3   0   7    1.06    0.58
   3   0   7    2.01    0.62
   3   0   7    2.00    0.35
  -4   0  -7  198.45   14.63
  -4   0  -7  191.04   11.91
  -4   0  -7  205.03   11.74
  -4   0  -7  210.45   11.75
  -4   0  -7  207.71   14.32
   4   0   7  197.64   12.45
   4   0   7  186.74   11.70
   4   0   7  210.06   12.23
  -5   0  -7  144.91    8.56
  -5   0  -7  144.37    9.40
  -5   0  -7  139.77   10.52
  -5   0  -7  150.35   10.87
   5   0   7  146.52    8.55
   5   0   7  141.08    9.21
   5   0   7  149.71    9.12
  -6   0  -7   11.81    1.00
  -6   0  -7   11.06    1.48
  -6   0  -7   12.02    1.78
   6   0   7   10.13    1.44
   6   0   7   14.53    1.71
  -7   0  -7  120.02    7.24
  -7   0  -7  114.94    9.07
  -7   0  -7  125.37    9.47
   7   0   7  127.20    7.99
  -8   0  -7   23.14    2.48
  -8   0  -7   23.18    1.73
  -8   0  -7   24.75    2.72
   8   0   7   23.01    1.45
   8   0   7   21.94    2.40
  -9   0  -7   21.44    2.79
  -9   0  -7   21.73    2.60
  -9   0  -7   22.97    1.78
   9   0   7   23.71    2.57
   9   0   7   23.77    1.53
 -10   0  -7   96.48    8.29
 -10   0  -7   96.07    6.06
 -10   0  -7   99.91    7.89
  10   0   7  106.85    7.15
  10   0   7   92.40    4.58
 -11   0  -7   16.98    2.55
 -11   0  -7   16.03    2.92
 -11   0  -7   14.11    1.50
  11   0   7   15.04    1.39
  11   0   7   14.41    2.53
   9  -1  -7   38.06    2.70
  -9   1   7   45.63    4.29
   8  -1  -7   27.03    2.03
   8  -1  -7   24.70    2.95
  -8   1   7   27.86    3.63
  -8   1   7   27.29    3.35
   7  -1  -7    3.40    1.21
   7  -1  -7    2.87    0.81
  -7   1   7    3.02    1.56
  -7   1   7    3.65    1.36
   6  -1  -7   82.56    5.56
   6  -1  -7   78.15    3.93
  -6   1   7   74.88    6.10
  -6   1   7   70.23    5.57
   5  -1  -7   54.99    2.94
   5  -1  -7   58.06    4.20
   5  -1  -7   59.23    2.82
   5  -1  -7   52.63    4.69
  -5   1   7   48.87    4.20
  -5   1   7   55.53    4.71
   4  -1  -7    0.79    0.34
   4  -1  -7    0.21    0.68
   4  -1  -7    0.60    0.71
  -4   1   7   -0.77    0.64
  -4   1   7    1.94    1.07
   3  -1  -7   58.02    4.79
   3  -1  -7   62.07    2.94
   3  -1  -7   59.09    4.12
  -3   1   7   49.61    4.06
  -3   1   7   56.58    4.55
   2  -1  -7   50.09    3.75
   2  -1  -7   52.79    2.77
   2  -1  -7   54.75    4.53
  -2   1   7   47.51    3.77
  -2   1   7   62.35    4.33
   1  -1  -7    2.59    0.75
   1  -1  -7    3.45    1.08
   1  -1  -7    3.45    0.39
  -1   1   7    2.20    0.73
  -1   1   7    2.83    0.90
   0  -1  -7   69.45    4.73
   0  -1  -7   75.73    5.48
   0  -1  -7   75.23    5.77
   0   1   7   65.36    4.71
   0   1   7   80.27    5.38
  -1  -1  -7   99.64    7.96
  -1  -1  -7  103.79    7.92
   1   1   7  115.61    7.09
   1   1   7  110.72    6.71
   1   1   7  110.96    6.62
  -2  -1  -7    0.46    0.38
  -2  -1  -7    0.03    0.33
  -2  -1  -7    0.66    0.48
  -2  -1  -7    0.56    0.35
   2   1   7    0.63    0.42
   2   1   7    0.37    0.46
   2   1   7    0.74    0.44
   2   1   7    0.79    0.36
  -3  -1  -7  142.30    7.81
  -3  -1  -7  129.16    9.61
  -3  -1  -7  131.66    9.50
   3   1   7  131.68    7.79
   3   1   7  127.32    8.02
   3   1   7  127.76    8.29
   3   1   7  127.17    7.95
  -4  -1  -7  237.73   14.12
  -4  -1  -7  243.66   17.59
  -4  -1  -7  251.05   14.11
  -4  -1  -7  243.73   17.20
   4   1   7  251.06   14.64
   4   1   7  233.74   15.01
  -5  -1  -7   -0.10    0.38
  -5  -1  -7    0.15    0.24
  -5  -1  -7    0.07    0.49
   5   1   7    0.87    0.54
   5   1   7    0.27    0.52
   5   1   7    0.15    0.28
  -6  -1  -7  159.72   11.53
  -6  -1  -7  159.79   10.37
  -6  -1  -7  162.39   11.88
  -6  -1  -7  154.73    9.27
   6   1   7  159.12   10.12
   6   1   7  157.17    9.91
  -7  -1  -7  101.85    7.72
  -7  -1  -7   91.64    5.78
  -7  -1  -7   97.39    7.42
   7   1   7  100.59    6.51
  -8  -1  -7    1.60    0.42
  -8  -1  -7    1.27    0.96
   8   1   7    1.27    0.89
   8   1   7    1.07    0.44
  -9  -1  -7   41.59    4.13
  -9  -1  -7   41.89    2.77
   9   1   7   42.14    3.62
   9   1   7   41.87    2.22
 -10  -1  -7   23.64    2.97
 -10  -1  -7   22.46    1.72
  10   1   7   18.79    2.60
  10   1   7   21.33    1.48
 -11  -1  -7   -0.75    1.26
  11   1   7   -0.62    1.08
   9  -2  -7   31.26    3.19
   9  -2  -7   30.95    2.26
  -9   2   7   32.65    3.81
  -9   2   7   25.20    3.25
   8  -2  -7    2.65    1.25
   8  -2  -7    2.65    0.78
  -8   2   7    1.55    1.26
  -8   2   7    0.30    1.45
   7  -2  -7   11.69    1.87
   7  -2  -7   10.30    1.30
  -7   2   7   10.18    2.13
  -7   2   7    9.98    1.81
   6  -2  -7   57.02    4.15
   6  -2  -7   48.09    2.88
  -6   2   7   51.18    4.63
  -6   2   7   58.60    4.84
  -6   2   7   55.36    4.29
   5  -2  -7    0.14    0.37
   5  -2  -7    1.03    0.79
   5  -2  -7    0.52    0.44
  -5   2   7    0.55    0.67
  -5   2   7   -1.22    0.94
  -5   2   7    0.21    0.84
   4  -2  -7   33.43    1.87
   4  -2  -7   35.59    2.80
   4  -2  -7   32.96    3.10
  -4   2   7   32.23    2.86
  -4   2   7   35.61    3.30
   3  -2  -7  111.71    5.33
   3  -2  -7  110.13    8.41
   3  -2  -7  117.91    7.19
  -3   2   7  121.14    8.17
  -3   2   7  103.33    7.16
   2  -2  -7   47.18    3.42
   2  -2  -7   49.28    4.05
   2  -2  -7   47.09    2.53
  -2   2   7   54.14    4.00
  -2   2   7   45.35    3.45
   1  -2  -7   18.97    1.30
   1  -2  -7   18.24    1.69
   1  -2  -7   13.35    1.97
  -1   2   7   22.97    1.54
  -1   2   7   22.42    2.15
  -1   2   7   15.65    1.68
   0  -2  -7  140.62    8.95
   0  -2  -7  173.94   10.95
   0   2   7  135.80   10.55
   0   2   7  141.12    8.94
   0   2   7  159.77    9.24
   0   2   7  144.68   10.12
  -1  -2  -7   73.86    5.75
  -1  -2  -7   79.03    4.91
  -1  -2  -7   82.88    4.97
   1   2   7   81.43    4.93
   1   2   7   89.33    4.84
   1   2   7   73.35    5.03
   1   2   7   70.18    5.26
  -2  -2  -7   33.48    2.26
  -2  -2  -7   32.36    2.74
  -2  -2  -7   35.40    2.29
  -2  -2  -7   33.83    2.59
   2   2   7   28.19    2.18
   2   2   7   31.68    2.26
   2   2   7   32.90    2.49
   2   2   7   32.98    2.21
  -3  -2  -7   86.93    6.33
  -3  -2  -7   88.41    5.15
  -3  -2  -7   79.34    5.14
  -3  -2  -7   87.78    6.36
   3   2   7   87.45    5.35
   3   2   7   85.56    5.32
   3   2   7   79.54    5.55
  -4  -2  -7   13.77    1.46
  -4  -2  -7   15.05    1.01
  -4  -2  -7   15.37    1.49
  -4  -2  -7   11.94    1.04
   4   2   7   15.85    1.27
   4   2   7   13.27    0.94
   4   2   7   13.36    1.31
   4   2   7   14.02    1.37
  -5  -2  -7   76.26    5.92
  -5  -2  -7   78.00    4.53
  -5  -2  -7   75.56    5.77
  -5  -2  -7   76.68    4.50
   5   2   7   72.89    4.97
   5   2   7   76.50    5.14
  -6  -2  -7  140.52   10.27
  -6  -2  -7  138.26   10.57
  -6  -2  -7  141.53    9.32
  -6  -2  -7  146.58    8.19
   6   2   7  136.77    9.04
   6   2   7  138.45    8.83
  -7  -2  -7    1.37    0.31
  -7  -2  -7    1.14    0.77
  -7  -2  -7    0.95    0.51
   7   2   7    1.24    0.79
  -8  -2  -7   31.85    2.12
  -8  -2  -7   33.93    3.35
   8   2   7   33.48    1.74
   8   2   7   32.27    2.85
  -9  -2  -7   75.33    6.30
  -9  -2  -7   71.47    4.40
   9   2   7   77.29    5.36
   9   2   7   66.63    3.38
 -10  -2  -7   29.19    3.30
  10   2   7   28.15    2.93
  10   2   7   24.76    1.62
 -11  -2  -7    7.04    2.05
  11   2   7    6.35    1.74
   9  -3  -7   11.68    1.97
   9  -3  -7   14.00    1.58
  -9   3   7   11.94    2.29
  -9   3   7   15.29    2.85
   8  -3  -7    1.32    0.68
   8  -3  -7    0.53    0.92
  -8   3   7   -0.54    1.05
  -8   3   7    1.68    1.59
   7  -3  -7   31.79    3.02
   7  -3  -7   34.71    2.17
  -7   3   7   40.55    3.93
  -7   3   7   30.95    3.17
   6  -3  -7   69.10    4.73
   6  -3  -7   65.07    3.37
   6  -3  -7   58.61    3.25
  -6   3   7   74.14    5.63
  -6   3   7   60.32    4.74
   5  -3  -7    0.25    0.66
   5  -3  -7    0.49    0.41
   5  -3  -7    0.35    0.47
  -5   3   7    0.28    1.05
  -5   3   7    0.85    0.69
  -5   3   7    0.67    0.76
   4  -3  -7   54.48    4.46
   4  -3  -7   55.62    3.93
   4  -3  -7   55.84    2.83
   4  -3  -7   53.10    2.80
  -4   3   7   59.57    4.67
  -4   3   7   59.23    4.05
  -4   3   7   51.12    4.34
   3  -3  -7  106.58    7.66
   3  -3  -7   98.71    4.88
   3  -3  -7  103.41    6.52
  -3   3   7  111.39    7.57
  -3   3   7   95.84    7.48
  -3   3   7  103.51    6.57
   2  -3  -7    3.00    0.50
   2  -3  -7    3.34    0.74
   2  -3  -7    3.48    0.88
  -2   3   7    2.36    1.02
  -2   3   7    3.10    0.46
  -2   3   7    3.19    0.74
   1  -3  -7  229.69   17.94
   1  -3  -7  275.58   15.00
   1  -3  -7  261.54   11.58
  -1   3   7  256.36   14.96
  -1   3   7  233.48   16.86
  -1   3   7  264.47   14.80
   0  -3  -7  121.78    6.99
   0  -3  -7  119.00    5.95
   0  -3  -7  109.35    5.47
   0  -3  -7  121.97    8.50
   0   3   7   95.85    7.21
   0   3   7  118.79    6.95
  -1  -3  -7   21.33    1.59
  -1  -3  -7   22.35    1.63
  -1  -3  -7   15.73    1.90
  -1  -3  -7   23.12    1.69
   1   3   7   21.05    1.78
   1   3   7   25.11    1.61
   1   3   7   23.04    1.44
   1   3   7   17.37    1.87
  -2  -3  -7  329.63   19.08
  -2  -3  -7  330.69   23.05
  -2  -3  -7  338.52   23.42
  -2  -3  -7  301.20   19.08
   2   3   7  342.96   20.25
   2   3   7  340.34   19.84
   2   3   7  330.51   19.37
  -3  -3  -7   78.87    4.95
  -3  -3  -7   82.98    6.16
  -3  -3  -7   79.45    4.97
  -3  -3  -7   88.13    6.15
   3   3   7   82.05    5.15
   3   3   7   84.96    4.80
   3   3   7   87.36    5.29
   3   3   7   79.85    5.43
  -4  -3  -7    3.06    0.32
  -4  -3  -7    3.77    0.73
  -4  -3  -7    3.11    0.69
  -4  -3  -7    3.21    0.42
   4   3   7    2.21    0.61
   4   3   7    2.63    0.62
   4   3   7    3.42    0.68
  -5  -3  -7  131.87    9.91
  -5  -3  -7  133.94    9.65
   5   3   7  133.11    8.34
   5   3   7  132.49    8.54
   5   3   7  134.45    8.26
  -6  -3  -7   24.07    2.36
  -6  -3  -7   24.70    2.00
   6   3   7   23.96    2.07
   6   3   7   22.38    2.09
  -7  -3  -7    1.41    0.26
  -7  -3  -7    1.36    0.55
  -7  -3  -7    1.46    0.80
   7   3   7    0.87    0.77
  -8  -3  -7   18.56    2.37
  -8  -3  -7   18.71    1.93
  -8  -3  -7   20.25    1.32
   8   3   7   20.12    2.10
   8   3   7   19.29    1.17
  -9  -3  -7   44.45    4.24
   9   3   7   44.65    3.65
   9   3   7   42.64    2.19
 -10  -3  -7    0.70    1.11
  10   3   7    0.63    1.02
 -11  -3  -7   27.83    3.58
  11   3   7   27.64    3.35
   9  -4  -7   -0.27    0.62
   9  -4  -7   -0.07    0.89
  -9   4   7    0.10    1.73
  -9   4   7   -0.05    1.20
   8  -4  -7   25.00    2.20
   8  -4  -7   25.64    2.76
  -8   4   7   33.30    4.08
  -8   4   7   27.77    3.04
   7  -4  -7   72.47    3.70
   7  -4  -7   63.19    4.99
  -7   4   7   66.82    5.16
  -7   4   7   77.58    6.15
   6  -4  -7    6.69    0.96
   6  -4  -7    8.35    0.93
   6  -4  -7   10.85    1.55
  -6   4   7    9.27    2.15
  -6   4   7   10.90    1.68
   5  -4  -7   90.49    4.55
   5  -4  -7   86.71    6.12
   5  -4  -7   91.49    4.44
  -5   4   7  105.88    7.39
  -5   4   7   97.13    6.27
   4  -4  -7  138.94    9.29
   4  -4  -7  144.17    6.75
   4  -4  -7  143.37    7.06
  -4   4   7  164.14   11.10
  -4   4   7  149.43    9.38
  -4   4   7  169.65   10.89
   3  -4  -7   15.82    1.12
   3  -4  -7   15.96    1.70
   3  -4  -7   16.86    1.60
   3  -4  -7   16.53    1.14
  -3   4   7   12.46    2.08
  -3   4   7   16.04    1.66
  -3   4   7   18.35    1.49
   2  -4  -7   93.05    4.49
   2  -4  -7   94.02    6.87
   2  -4  -7   90.82    5.84
   2  -4  -7   90.85    4.23
  -2   4   7   97.68    5.90
   1  -4  -7  175.85    8.15
   1  -4  -7  177.87   10.50
   1  -4  -7  179.09   12.57
  -1   4   7  181.61   10.50
  -1   4   7  166.92   11.00
   0  -4  -7    0.49    0.56
   0  -4  -7    0.25    0.31
   0  -4  -7    0.07    0.29
   0   4   7   -0.18    0.49
   0   4   7    0.94    0.37
  -1  -4  -7  193.80    8.77
  -1  -4  -7  188.08   11.08
  -1  -4  -7  192.25   11.07
  -1  -4  -7  199.88   13.38
   1   4   7  190.97    9.72
   1   4   7  183.11   11.01
   1   4   7  166.78   11.85
   1   4   7  197.15   11.07
   1   4   7  187.33   11.63
  -2  -4  -7  174.59   12.11
  -2  -4  -7  171.82   12.22
  -2  -4  -7  170.56    9.93
  -2  -4  -7  154.92    9.96
   2   4   7  179.32   10.53
   2   4   7  176.01   10.73
   2   4   7  169.84    8.87
   2   4   7  172.18   10.13
  -3  -4  -7    0.06    0.26
  -3  -4  -7    0.15    0.15
  -3  -4  -7    0.28    0.22
  -3  -4  -7    0.32    0.32
   3   4   7    0.26    0.45
   3   4   7    0.30    0.35
   3   4   7    0.49    0.42
   3   4   7    0.40    0.35
  -4  -4  -7  102.71    7.77
  -4  -4  -7  109.19    7.61
   4   4   7  103.55    6.49
   4   4   7  108.67    6.65
   4   4   7   98.64    5.66
   4   4   7  103.47    6.76
  -5  -4  -7  187.24   13.91
   5   4   7  189.57   11.96
   5   4   7  194.21   11.76
   5   4   7  189.82   11.56
   5   4   7  190.40   10.06
  -6  -4  -7   29.22    2.75
  -6  -4  -7   28.22    2.37
   6   4   7   28.87    2.35
   6   4   7   26.01    2.05
   6   4   7   32.54    2.50
  -7  -4  -7   27.13    1.32
  -7  -4  -7   25.00    2.58
  -7  -4  -7   22.50    2.17
   7   4   7   29.06    2.34
   7   4   7   22.60    1.95
  -8  -4  -7   70.73    5.85
  -8  -4  -7   66.65    5.02
   8   4   7   68.20    4.89
  -9  -4  -7   25.47    2.99
   9   4   7   24.32    2.54
 -10  -4  -7   13.35    2.41
  10   4   7   11.86    2.00
 -11  -4  -7   45.68    4.86
  11   4   7   46.91    4.09
   9  -5  -7    0.91    1.07
   9  -5  -7   -0.23    0.69
  -9   5   7   -1.24    1.02
   8  -5  -7   51.64    4.18
   8  -5  -7   50.14    3.04
  -8   5   7   51.57    4.36
  -8   5   7   54.86    5.26
   7  -5  -7   13.68    2.03
   7  -5  -7   14.69    1.35
   7  -5  -7   13.56    1.44
  -7   5   7   13.77    2.63
  -7   5   7    9.70    1.74
   6  -5  -7   28.93    2.72
   6  -5  -7   32.59    1.97
   6  -5  -7   32.81    2.02
  -6   5   7   31.15    3.59
  -6   5   7   32.11    2.90
   5  -5  -7   96.26    6.33
   5  -5  -7   95.61    4.75
   5  -5  -7   96.21    4.59
  -5   5   7   99.34    6.41
  -5   5   7   95.87    7.51
   4  -5  -7   13.04    1.17
   4  -5  -7   12.68    1.53
   4  -5  -7   13.33    1.16
  -4   5   7   15.74    1.61
  -4   5   7   13.05    1.57
   3  -5  -7   84.13    5.14
   3  -5  -7   80.06    3.89
   3  -5  -7   80.12    3.69
  -3   5   7   81.54    5.14
  -3   5   7   71.42    5.73
   2  -5  -7  189.28    8.11
   2  -5  -7  183.67    8.64
   2  -5  -7  189.99   13.21
   2  -5  -7  180.97   11.17
  -2   5   7  201.71   11.23
  -2   5   7  178.32   11.78
   1  -5  -7   59.16    4.23
   1  -5  -7   57.26    3.64
   1  -5  -7   54.19    2.61
   1  -5  -7   55.34    2.85
  -1   5   7   54.56    2.92
  -1   5   7   55.45    3.62
   0  -5  -7   57.42    3.53
   0  -5  -7   51.87    4.23
   0  -5  -7   57.26    2.84
   0   5   7   52.96    3.91
   0   5   7   46.67    3.92
   0   5   7   61.47    2.99
   0   5   7   56.00    3.50
  -1  -5  -7   92.32    4.33
  -1  -5  -7   86.37    5.35
  -1  -5  -7  100.72    6.49
  -1  -5  -7   89.90    6.38
  -1  -5  -7   73.59    6.46
  -1  -5  -7   91.98    5.38
   1   5   7   86.70    5.32
   1   5   7   91.94    5.83
   1   5   7   89.50    4.73
   1   5   7   87.09    5.91
  -2  -5  -7   87.59    4.21
  -2  -5  -7   87.70    6.26
  -2  -5  -7   86.11    5.10
  -2  -5  -7   84.94    5.13
   2   5   7   87.45    5.58
   2   5   7   83.78    4.63
   2   5   7   85.30    5.64
  -3  -5  -7    8.99    0.88
  -3  -5  -7    8.29    0.94
  -3  -5  -7    7.39    0.43
  -3  -5  -7    7.04    0.61
  -3  -5  -7    7.74    0.59
   3   5   7    8.21    1.09
   3   5   7    8.88    1.11
   3   5   7    7.20    0.83
   3   5   7    8.18    0.85
  -4  -5  -7   97.51    4.09
  -4  -5  -7   98.77    7.01
   4   5   7   99.56    6.22
   4   5   7   90.04    5.26
   4   5   7   90.06    6.25
   4   5   7   99.83    6.03
   5   5   7   29.53    2.37
   5   5   7   31.69    2.50
   5   5   7   31.52    2.51
   5   5   7   32.85    2.17
  -6  -5  -7   16.02    1.65
  -6  -5  -7   15.18    0.96
   6   5   7   16.90    1.48
   6   5   7   15.61    1.61
   6   5   7   16.20    1.67
   6   5   7   16.65    1.72
  -7  -5  -7  111.46    4.64
  -7  -5  -7  110.45    7.73
  -7  -5  -7  119.57    8.74
   7   5   7  106.95    7.20
   7   5   7  107.47    6.28
  -8  -5  -7   38.69    3.21
  -8  -5  -7   35.95    3.69
   8   5   7   38.31    3.13
   8   5   7   39.68    2.81
  -9  -5  -7   14.06    2.32
  -9  -5  -7   11.60    1.73
   9   5   7   12.11    1.90
 -10  -5  -7  110.16    8.79
  10   5   7   98.52    7.21
 -11  -5  -7    6.63    1.95
  11   5   7    9.32    1.93
   8  -6  -7   36.93    3.45
   8  -6  -7   40.26    2.56
  -8   6   7   41.11    3.67
   7  -6  -7    0.28    0.77
   7  -6  -7    0.13    0.55
   7  -6  -7    0.12    0.60
  -7   6   7    0.29    0.96
   6  -6  -7   73.40    3.53
   6  -6  -7   63.01    4.72
   6  -6  -7   61.58    3.50
  -6   6   7   71.11    4.89
   5  -6  -7   41.98    2.32
   5  -6  -7   43.42    3.23
   5  -6  -7   40.44    2.35
  -5   6   7   39.16    3.23
   4  -6  -7   11.75    1.49
   4  -6  -7   14.32    1.08
   4  -6  -7   14.79    1.18
  -4   6   7   13.27    1.69
   3  -6  -7   39.92    2.21
   3  -6  -7   43.03    2.08
   3  -6  -7   41.81    2.90
  -3   6   7   33.69    2.99
  -3   6   7   38.84    3.24
  -3   6   7   41.84    2.91
   2  -6  -7   31.73    1.87
   2  -6  -7   32.88    2.41
   2  -6  -7   32.03    1.71
  -2   6   7   31.34    2.39
  -2   6   7   33.48    1.76
   1  -6  -7    5.99    0.71
   1  -6  -7    5.96    0.59
   1  -6  -7    6.31    0.90
   1  -6  -7    6.21    0.75
  -1   6   7    6.18    1.18
  -1   6   7    6.31    0.83
  -1   6   7    5.46    0.53
   0  -6  -7   89.61    5.99
   0  -6  -7   85.58    3.71
   0  -6  -7   87.67    6.06
   0  -6  -7   82.96    5.17
   0  -6  -7   81.78    4.09
   0   6   7   86.46    4.46
   0   6   7   84.18    5.67
   0   6   7   67.48    5.62
   0   6   7   85.86    5.15
  -1  -6  -7   64.11    4.09
  -1  -6  -7   65.94    4.93
  -1  -6  -7   65.56    4.09
  -1  -6  -7   66.61    5.00
  -1  -6  -7   62.78    3.31
  -1  -6  -7   66.80    2.92
   1   6   7   68.27    3.64
   1   6   7   68.91    4.58
   1   6   7   70.16    4.57
   1   6   7   68.09    4.07
  -2  -6  -7    8.01    0.78
  -2  -6  -7    6.94    0.66
  -2  -6  -7    7.09    0.64
  -2  -6  -7    6.78    0.83
  -2  -6  -7    6.99    0.42
   2   6   7    6.57    0.77
   2   6   7    5.76    0.95
   2   6   7    7.57    1.05
  -3  -6  -7   52.15    3.05
  -3  -6  -7   49.32    2.64
  -3  -6  -7   53.65    3.85
  -3  -6  -7   51.83    3.06
   3   6   7   49.00    3.56
   3   6   7   49.02    3.54
   3   6   7   49.37    2.98
  -4  -6  -7   85.10    6.28
  -4  -6  -7   86.92    4.20
   4   6   7   85.31    5.70
   4   6   7   85.09    5.67
   4   6   7   87.93    4.83
  -5  -6  -7   11.38    0.84
  -5  -6  -7   11.67    0.94
   5   6   7   13.40    1.44
   5   6   7    9.64    1.35
   5   6   7   10.45    1.16
  -6  -6  -7   65.13    3.18
  -6  -6  -7   62.05    2.78
  -6  -6  -7   59.99    4.61
   6   6   7   62.88    3.79
   6   6   7   58.85    4.28
   6   6   7   62.38    4.43
   6   6   7   63.67    4.47
  -7  -6  -7   38.79    3.24
  -7  -6  -7   38.75    1.90
  -7  -6  -7   40.18    2.16
   7   6   7   39.48    3.10
   7   6   7   37.62    2.73
  -8  -6  -7    4.35    1.10
   8   6   7    3.67    0.96
   8   6   7    5.52    1.26
  -9  -6  -7   62.18    4.84
  -9  -6  -7   60.62    5.56
   9   6   7   60.56    4.06
 -10  -6  -7   38.44    4.31
  10   6   7   43.72    3.25
 -11  -6  -7    7.39    2.11
   8  -7  -7    0.28    0.92
   8  -7  -7   -0.01    0.61
  -8   7   7    0.37    1.05
   7  -7  -7   34.60    3.14
   7  -7  -7   34.78    2.25
   7  -7  -7   37.07    2.29
  -7   7   7   32.99    3.19
   6  -7  -7   50.78    3.91
   6  -7  -7   49.12    2.88
   6  -7  -7   52.93    2.85
  -6   7   7   51.60    3.97
   5  -7  -7    2.75    0.67
   5  -7  -7    2.56    0.46
   5  -7  -7    3.20    0.69
   5  -7  -7    2.05    0.80
  -5   7   7    2.92    1.01
   4  -7  -7    2.55    0.56
   4  -7  -7    4.88    0.76
   4  -7  -7    3.03    0.81
  -4   7   7    2.76    1.19
  -4   7   7    3.15    0.91
   3  -7  -7  100.56    6.03
   3  -7  -7   95.31    4.33
   3  -7  -7   92.97    4.63
  -3   7   7   97.79    6.00
  -3   7   7   79.43    6.40
   2  -7  -7   31.72    2.44
   2  -7  -7   34.60    1.76
   2  -7  -7   32.83    1.94
  -2   7   7   33.43    1.86
  -2   7   7   33.13    2.46
  -2   7   7   27.96    2.84
  -2   7   7   33.89    2.54
   1  -7  -7    4.12    0.51
   1  -7  -7    3.89    0.70
   1  -7  -7    3.82    0.60
  -1   7   7    3.51    0.99
  -1   7   7    5.93    0.57
  -1   7   7    5.10    0.80
   0  -7  -7   76.07    4.85
   0  -7  -7   79.31    3.87
   0  -7  -7   76.78    3.46
   0  -7  -7   76.05    5.46
   0   7   7   81.28    4.84
   0   7   7   86.44    5.41
   0   7   7   75.70    4.19
   0   7   7   76.81    5.37
  -1  -7  -7   19.26    0.94
  -1  -7  -7   15.06    1.55
  -1  -7  -7   19.41    1.42
  -1  -7  -7   17.90    1.22
   1   7   7   21.02    1.84
   1   7   7   21.39    1.76
   1   7   7   19.82    1.39
   1   7   7   17.71    1.28
  -2  -7  -7   53.47    3.29
  -2  -7  -7   53.68    2.21
  -2  -7  -7   51.72    3.23
  -2  -7  -7   47.68    2.66
  -2  -7  -7   51.18    3.82
   2   7   7   52.35    3.01
   2   7   7   53.33    3.69
   2   7   7   49.88    3.59
  -3  -7  -7  143.70    5.95
  -3  -7  -7  140.32    6.72
  -3  -7  -7  142.58    8.38
  -3  -7  -7  160.92   10.21
  -3  -7  -7  141.87    8.38
   3   7   7  142.03    7.69
   3   7   7  135.68    9.09
   3   7   7  143.77    9.11
  -4  -7  -7    8.20    0.61
  -4  -7  -7    9.26    0.86
  -4  -7  -7    8.59    0.65
  -4  -7  -7    9.72    0.85
   4   7   7    9.11    1.27
   4   7   7    8.38    1.22
   4   7   7    8.48    1.04
  -5  -7  -7  108.91    4.59
  -5  -7  -7  107.36    5.16
   5   7   7  104.18    7.09
   5   7   7  112.96    7.16
   5   7   7  108.40    6.05
  -6  -7  -7   93.20    6.67
  -6  -7  -7   92.30    4.48
  -6  -7  -7   94.68    4.02
   6   7   7   90.11    5.36
   6   7   7   93.39    6.32
   6   7   7   94.05    6.31
  -7  -7  -7   11.81    1.76
  -7  -7  -7   11.79    0.96
  -7  -7  -7   14.45    0.98
   7   7   7   15.24    1.64
  -8  -7  -7   28.34    2.68
  -8  -7  -7   27.83    1.52
   8   7   7   26.31    2.27
  -9  -7  -7   37.21    3.30
   9   7   7   31.87    2.76
 -10  -7  -7   -0.08    0.85
 -10  -7  -7    1.31    1.30
  10   7   7    0.89    0.99
   8  -8  -7    2.18    0.85
   8  -8  -7    0.15    1.04
  -8   8   7    0.94    1.10
   7  -8  -7   19.21    1.72
   7  -8  -7   20.07    1.79
   7  -8  -7   22.17    2.61
  -7   8   7   19.56    2.98
  -7   8   7   16.51    2.20
   6  -8  -7   12.84    1.80
   6  -8  -7   12.36    1.28
   6  -8  -7   12.76    1.35
  -6   8   7   13.62    2.46
  -6   8   7    9.92    1.64
   5  -8  -7    2.70    0.89
   5  -8  -7    3.78    0.56
   5  -8  -7    3.71    0.79
   5  -8  -7    3.87    0.75
  -5   8   7    2.71    1.47
  -5   8   7    3.15    0.95
   4  -8  -7   57.13    4.09
   4  -8  -7   58.91    2.67
   4  -8  -7   64.22    2.98
   4  -8  -7   57.64    3.15
  -4   8   7   58.76    4.10
  -4   8   7   48.59    4.48
   3  -8  -7   52.70    2.66
   3  -8  -7   55.54    3.76
   3  -8  -7   57.07    2.95
   3  -8  -7   56.20    2.51
  -3   8   7   53.44    3.72
  -3   8   7   42.35    4.08
   2  -8  -7    0.99    0.54
   2  -8  -7    1.83    0.58
   2  -8  -7    1.24    0.41
   2  -8  -7    0.75    0.36
  -2   8   7    1.36    1.04
  -2   8   7    0.40    0.47
  -2   8   7    1.48    0.38
  -2   8   7    1.49    0.47
   1  -8  -7  165.11    7.73
   1  -8  -7  162.02    9.89
   1  -8  -7  169.47    7.12
   1  -8  -7  165.40    6.78
  -1   8   7  166.88    8.55
  -1   8   7  139.21   10.51
  -1   8   7  176.69   10.62
  -1   8   7  172.41    9.88
   0  -8  -7  126.38    5.36
   0  -8  -7  122.28    7.51
   0  -8  -7  118.78    5.20
   0  -8  -7  117.82    5.90
   0   8   7  135.43    8.16
   0   8   7  123.39    7.47
   0   8   7  118.92    6.55
   0   8   7  132.01    8.09
  -1  -8  -7    8.50    0.80
  -1  -8  -7    9.45    0.89
  -1  -8  -7    8.14    0.89
  -1  -8  -7    9.19    0.55
   1   8   7    8.75    0.92
   1   8   7    8.82    1.19
   1   8   7    8.86    0.88
   1   8   7   10.37    1.38
  -2  -8  -7  128.12    5.98
  -2  -8  -7  109.76    8.82
  -2  -8  -7  126.94    5.30
  -2  -8  -7  134.93    7.52
   2   8   7  125.42    8.04
   2   8   7  131.87    8.13
   2   8   7  131.10    6.79
  -3  -8  -7   64.37    3.01
  -3  -8  -7   65.96    3.36
  -3  -8  -7   70.53    4.89
   3   8   7   68.61    4.66
   3   8   7   66.39    3.88
   3   8   7   65.03    4.54
  -4  -8  -7   31.33    1.82
  -4  -8  -7   30.37    1.67
  -4  -8  -7   33.71    2.05
   4   8   7   32.69    2.65
   4   8   7   31.78    2.21
   4   8   7   31.57    2.54
  -5  -8  -7  116.77    5.65
  -5  -8  -7  120.96    5.08
   5   8   7  119.97    6.67
   5   8   7  121.99    7.86
   5   8   7  119.47    7.83
  -6  -8  -7   29.00    2.60
  -6  -8  -7   26.34    1.51
  -6  -8  -7   26.52    1.59
   6   8   7   26.31    2.39
   6   8   7   27.41    2.13
   6   8   7   26.55    2.49
  -7  -8  -7   19.24    1.27
  -7  -8  -7   19.62    2.18
   7   8   7   21.11    1.89
  -8  -8  -7   78.12    3.40
  -8  -8  -7   72.76    5.74
   8   8   7   72.92    4.68
  -9  -8  -7   34.64    3.31
   9   8   7   33.72    2.78
 -10  -8  -7   -0.06    0.83
  10   8   7    0.12    0.86
   8  -9  -7   24.34    3.03
   8  -9  -7   26.28    2.03
   8  -9  -7   26.69    2.02
  -8   9   7   20.68    2.77
  -8   9   7   27.49    3.77
   7  -9  -7   33.71    2.35
   7  -9  -7   32.87    3.19
   7  -9  -7   32.82    2.24
  -7   9   7   36.48    3.93
  -7   9   7   35.50    3.22
   6  -9  -7    8.95    1.56
   6  -9  -7   10.67    1.17
   6  -9  -7   11.38    1.34
  -6   9   7    7.95    1.47
  -6   9   7    6.64    1.99
   5  -9  -7   32.66    1.95
   5  -9  -7   32.15    1.67
   5  -9  -7   30.12    2.71
   5  -9  -7   34.12    2.12
  -5   9   7   30.53    2.71
  -5   9   7   19.61    2.92
   4  -9  -7   55.38    4.13
   4  -9  -7   62.11    2.97
   4  -9  -7   60.98    2.72
   4  -9  -7   57.78    3.21
  -4   9   7   50.70    4.55
  -4   9   7   56.86    4.11
   3  -9  -7    4.37    0.66
   3  -9  -7    4.66    1.03
   3  -9  -7    4.42    0.78
   3  -9  -7    4.24    0.61
  -3   9   7    4.05    1.29
  -3   9   7    4.26    0.90
   2  -9  -7  128.23    8.09
   2  -9  -7  123.22    6.30
   2  -9  -7  128.06    5.78
   2  -9  -7  131.27    5.51
  -2   9   7  141.14    8.79
  -2   9   7  133.71    6.89
  -2   9   7  131.63    8.06
  -2   9   7  129.61    9.57
   1  -9  -7  106.04    6.91
   1  -9  -7  109.56    5.45
   1  -9  -7  114.60    4.94
   1  -9  -7  105.26    4.75
  -1   9   7  120.98    7.56
  -1   9   7  110.47    6.89
  -1   9   7  113.74    7.46
  -1   9   7  114.41    5.97
   0  -9  -7    6.02    0.89
   0  -9  -7    5.05    0.72
   0  -9  -7    5.86    0.69
   0  -9  -7    6.24    0.54
   0   9   7    5.74    1.06
   0   9   7    5.82    1.22
   0   9   7    5.45    0.76
   0   9   7    4.86    0.79
  -1  -9  -7  180.44   10.26
  -1  -9  -7  173.38    7.12
  -1  -9  -7  165.54    8.04
   1   9   7  166.94   10.16
   1   9   7  172.35   10.80
   1   9   7  177.11    9.10
   1   9   7  169.95   10.88
  -2  -9  -7  183.76    8.51
  -2  -9  -7  185.08   10.79
  -2  -9  -7  183.62    7.54
   2   9   7  180.41   11.50
   2   9   7  185.26    9.69
   2   9   7  179.85   11.43
  -3  -9  -7    0.31    0.35
  -3  -9  -7    0.12    0.35
   3   9   7    0.43    0.48
   3   9   7    0.26    0.59
   3   9   7    0.62    0.50
  -4  -9  -7   86.02    3.79
  -4  -9  -7   85.17    4.18
  -4  -9  -7   83.88    5.12
   4   9   7   89.36    5.85
   4   9   7   83.38    4.91
   4   9   7   84.25    5.71
  -5  -9  -7   89.26    3.80
  -5  -9  -7   73.47    5.13
  -5  -9  -7   92.52    6.33
  -5  -9  -7   84.90    4.15
   5   9   7   83.89    5.75
   5   9   7   90.49    5.91
   5   9   7   84.73    4.97
  -6  -9  -7    3.25    0.54
  -6  -9  -7    2.39    0.53
  -6  -9  -7    4.47    1.21
   6   9   7    1.99    0.91
   6   9   7    2.53    0.84
  -7  -9  -7   28.03    2.77
  -7  -9  -7   28.85    1.63
   7   9   7   26.10    2.29
  -8  -9  -7   46.57    4.21
  -8  -9  -7   51.99    2.48
   8   9   7   51.27    3.53
  -9  -9  -7    0.71    0.90
   9   9   7    0.39    0.88
 -10  -9  -7   34.29    3.59
  10   9   7   38.16    3.09
   7 -10  -7   12.25    1.52
   7 -10  -7   12.69    2.00
   7 -10  -7   13.51    1.41
  -7  10   7   10.06    2.42
  -7  10   7    9.45    1.79
   6 -10  -7   19.45    1.79
   6 -10  -7   22.57    2.32
   6 -10  -7   16.02    1.53
  -6  10   7   16.82    2.69
  -6  10   7   16.94    2.14
   5 -10  -7  135.61    6.13
   5 -10  -7  136.70    5.63
   5 -10  -7  134.24    8.54
   5 -10  -7  131.31    6.59
  -5  10   7  133.88    8.50
  -5  10   7  116.52    9.02
   4 -10  -7   25.33    1.47
   4 -10  -7   21.77    1.53
   4 -10  -7   23.44    1.81
   4 -10  -7   26.19    2.33
  -4  10   7   22.99    2.89
  -4  10   7   22.11    2.24
   3 -10  -7   41.10    2.54
   3 -10  -7   43.94    2.18
   3 -10  -7   42.26    2.25
   3 -10  -7   41.62    3.22
  -3  10   7   44.11    3.73
  -3  10   7   40.62    3.18
   2 -10  -7  136.95    8.70
   2 -10  -7  138.06    6.20
   2 -10  -7  139.80    6.82
   2 -10  -7  138.89    5.94
  -2  10   7  138.42    8.65
  -2  10   7  164.76    9.47
  -2  10   7  128.54    9.17
  -2  10   7  142.95    7.45
   1 -10  -7    5.69    0.97
   1 -10  -7    7.04    0.68
   1 -10  -7    7.01    0.96
   1 -10  -7    8.37    0.87
  -1  10   7    7.68    0.90
  -1  10   7    6.59    1.16
  -1  10   7    6.93    1.04
  -1  10   7    4.96    1.22
   0 -10  -7   64.92    4.37
   0 -10  -7   68.69    3.12
   0 -10  -7   67.72    3.53
   0  10   7   64.28    4.34
   0  10   7   67.77    4.57
   0  10   7   71.76    4.91
   0  10   7   66.15    3.84
  -1 -10  -7   64.16    3.01
  -1 -10  -7   66.19    3.39
  -1 -10  -7   64.18    4.17
   1  10   7   67.63    4.67
   1  10   7   62.79    3.74
   1  10   7   62.49    4.36
  -2 -10  -7    2.83    0.62
  -2 -10  -7    5.31    0.73
  -2 -10  -7    5.08    0.76
   2  10   7    4.91    0.87
   2  10   7    5.30    0.87
   2  10   7    3.80    0.95
  -3 -10  -7   43.11    2.15
  -3 -10  -7   39.81    2.70
  -3 -10  -7   41.82    2.31
   3  10   7   40.55    3.28
   3  10   7   39.96    3.05
   3  10   7   43.01    2.74
  -4 -10  -7   85.77    4.34
  -4 -10  -7   86.84    3.94
  -4 -10  -7   86.08    5.37
   4  10   7   89.05    5.92
   4  10   7   90.38    5.13
   4  10   7   91.86    6.10
  -5 -10  -7   30.32    1.67
  -5 -10  -7   28.07    2.74
  -5 -10  -7   25.11    1.67
   5  10   7   25.52    2.14
   5  10   7   31.46    2.68
   5  10   7   29.05    2.45
  -6 -10  -7    9.25    1.68
  -6 -10  -7    5.95    0.77
   6  10   7    5.47    1.14
   6  10   7    6.14    1.32
  -7 -10  -7   73.12    3.41
  -7 -10  -7   69.53    5.72
   7  10   7   77.82    4.68
  -8 -10  -7   38.39    3.66
   8  10   7   38.54    3.00
  -9 -10  -7    2.31    1.17
   9  10   7    0.65    0.91
   6 -11  -7   41.92    3.59
   6 -11  -7   44.52    2.57
   6 -11  -7   41.83    2.78
  -6  11   7   40.74    3.57
  -6  11   7   37.10    4.03
   5 -11  -7   26.72    2.03
   5 -11  -7   25.91    1.78
   5 -11  -7   23.60    2.50
  -5  11   7   26.10    2.54
  -5  11   7   25.06    3.21
   4 -11  -7   19.32    1.33
   4 -11  -7   18.55    2.22
   4 -11  -7   20.42    1.68
   4 -11  -7   18.84    1.36
  -4  11   7   12.91    1.84
  -4  11   7   18.60    2.58
   3 -11  -7   82.14    4.37
   3 -11  -7   84.51    5.57
   3 -11  -7   85.88    3.76
   3 -11  -7   83.86    3.91
  -3  11   7   71.42    5.74
  -3  11   7   90.38    6.12
  -3  11   7   77.97    5.46
   2 -11  -7   48.07    2.42
   2 -11  -7   45.39    3.50
   2 -11  -7   46.40    2.42
   2 -11  -7   50.45    2.86
  -2  11   7   46.88    3.47
  -2  11   7   50.00    3.69
  -2  11   7   48.84    2.94
  -2  11   7   49.58    4.01
   1 -11  -7    6.09    0.94
   1 -11  -7    5.53    0.79
   1 -11  -7    5.73    1.01
  -1  11   7    5.66    0.89
  -1  11   7    6.59    1.13
  -1  11   7    4.88    1.28
   0 -11  -7   59.93    2.88
   0 -11  -7   59.06    3.24
   0 -11  -7   60.11    4.03
   0  11   7   57.67    3.53
   0  11   7   59.89    4.09
   0  11   7   58.99    4.46
  -1 -11  -7   47.64    2.74
  -1 -11  -7   49.23    2.47
  -1 -11  -7   48.34    3.35
   1  11   7   46.29    3.43
   1  11   7   51.06    3.84
   1  11   7   51.37    3.09
  -2 -11  -7    3.36    0.70
  -2 -11  -7    2.95    0.64
   2  11   7    2.35    0.76
   2  11   7    3.78    0.81
   2  11   7    5.14    1.20
  -3 -11  -7   33.32    1.92
  -3 -11  -7   37.26    2.49
  -3 -11  -7   34.91    2.12
   3  11   7   34.05    2.71
   3  11   7   37.64    2.55
   3  11   7   35.81    3.01
  -4 -11  -7   32.87    2.39
  -4 -11  -7   35.49    2.04
  -4 -11  -7   32.82    1.92
   4  11   7   36.22    2.52
   4  11   7   34.59    3.00
   4  11   7   34.25    2.72
  -5 -11  -7    0.24    0.45
  -5 -11  -7    0.19    0.45
  -5 -11  -7   -0.32    0.37
  -5 -11  -7    0.66    0.78
   5  11   7   -0.86    0.58
   5  11   7    0.86    0.83
  -6 -11  -7   59.93    4.98
  -6 -11  -7   58.54    2.98
   6  11   7   65.50    4.04
   6  11   7   60.11    4.71
  -7 -11  -7   36.92    3.51
  -7 -11  -7   34.32    2.04
   7  11   7   37.66    2.87
  -8 -11  -7    1.79    1.13
   8  11   7    1.51    0.90
  -9 -11  -7   48.80    4.57
   9  11   7   53.20    3.85
   6 -12  -7   31.61    3.05
   6 -12  -7   28.21    2.30
  -6  12   7   28.60    2.96
  -6  12   7   32.90    3.56
   5 -12  -7    2.71    1.16
   5 -12  -7    3.55    0.97
   5 -12  -7    3.60    0.79
  -5  12   7    1.48    0.97
  -5  12   7    2.13    1.45
   4 -12  -7   22.83    1.62
   4 -12  -7   25.91    1.62
   4 -12  -7   25.08    1.99
   4 -12  -7   23.87    2.46
  -4  12   7   22.24    2.82
  -4  12   7   26.95    2.52
   3 -12  -7   22.05    1.86
   3 -12  -7   24.78    1.57
   3 -12  -7   22.47    1.52
   3 -12  -7   21.48    2.23
  -3  12   7   24.38    2.93
   2 -12  -7   -0.28    0.45
   2 -12  -7   -0.12    0.53
   2 -12  -7    0.18    0.61
  -2  12   7   -0.74    0.56
  -2  12   7    0.84    1.07
   1 -12  -7   22.24    1.47
   1 -12  -7   20.65    1.67
   1 -12  -7   20.63    1.96
  -1  12   7   18.40    1.68
  -1  12   7   22.73    2.45
   0 -12  -7   57.80    3.16
   0 -12  -7   55.82    3.88
   0 -12  -7   52.35    2.75
   0  12   7   57.91    3.47
   0  12   7   51.36    3.88
   0  12   7   58.82    4.36
  -1 -12  -7   13.16    1.39
  -1 -12  -7   12.96    1.19
  -1 -12  -7   11.27    1.23
   1  12   7   14.84    2.01
   1  12   7   14.24    1.48
   1  12   7   10.67    1.26
  -2 -12  -7   16.71    1.39
  -2 -12  -7   16.61    1.40
  -2 -12  -7   17.61    1.58
   2  12   7   21.39    2.40
   2  12   7   16.34    1.63
   2  12   7   18.69    1.70
  -3 -12  -7  105.43    6.63
  -3 -12  -7  111.57    5.36
  -3 -12  -7  107.68    4.81
   3  12   7  102.52    7.02
   3  12   7  115.59    6.24
   3  12   7  105.23    7.33
  -4 -12  -7   21.85    2.39
  -4 -12  -7   18.33    1.44
  -4 -12  -7   18.51    1.62
  -4 -12  -7   18.49    1.38
   4  12   7   18.25    1.84
   4  12   7   19.74    1.88
   4  12   7   20.62    2.27
  -5 -12  -7   16.98    1.41
  -5 -12  -7   19.61    1.44
  -5 -12  -7   16.36    1.66
  -5 -12  -7   17.45    2.39
   5  12   7   20.08    2.47
   5  12   7   16.47    1.84
  -6 -12  -7   38.97    3.71
  -6 -12  -7   40.19    2.22
   6  12   7   36.28    3.50
   6  12   7   41.50    3.02
  -7 -12  -7    2.91    1.25
   7  12   7    4.51    1.18
  -8 -12  -7   33.33    3.52
   8  12   7   32.97    2.86
   5 -13  -7    8.57    1.36
   5 -13  -7    7.90    1.56
  -5  13   7   10.80    2.08
   4 -13  -7   37.68    3.42
   4 -13  -7   41.87    2.80
   4 -13  -7   41.25    2.29
  -4  13   7   43.70    3.91
   3 -13  -7   20.00    1.99
   3 -13  -7   22.21    2.26
   3 -13  -7   18.73    1.57
  -3  13   7   26.40    3.02
   2 -13  -7    1.02    0.58
   2 -13  -7    0.79    0.72
   2 -13  -7    0.91    0.67
  -2  13   7    0.57    0.72
  -2  13   7    1.00    1.09
   1 -13  -7   41.26    2.78
   1 -13  -7   42.72    3.39
   1 -13  -7   44.36    2.42
  -1  13   7   47.86    3.90
  -1  13   7   47.93    3.03
   0 -13  -7   26.10    2.36
   0 -13  -7   24.12    1.72
   0 -13  -7   28.05    2.03
   0  13   7   34.32    2.95
   0  13   7   29.93    2.23
  -1 -13  -7    2.92    0.69
  -1 -13  -7    4.70    0.90
   1  13   7    4.05    0.97
   1  13   7    4.77    1.30
  -2 -13  -7   57.40    2.96
  -2 -13  -7   56.20    3.97
  -2 -13  -7   59.38    3.28
   2  13   7   60.08    3.80
   2  13   7   60.55    4.58
  -3 -13  -7   32.43    2.06
  -3 -13  -7   32.68    2.59
  -3 -13  -7   38.23    2.28
   3  13   7   38.94    3.30
   3  13   7   36.09    2.70
  -4 -13  -7   27.73    1.80
  -4 -13  -7   31.97    3.09
  -4 -13  -7   28.67    1.88
  -4 -13  -7   23.72    2.16
   4  13   7   27.16    2.80
   4  13   7   28.99    2.40
  -5 -13  -7   66.91    4.91
  -5 -13  -7   76.95    6.00
  -5 -13  -7   79.29    3.62
   5  13   7   75.10    5.58
   5  13   7   72.02    4.68
  -6 -13  -7   30.71    3.24
   6  13   7   31.77    3.13
   6  13   7   26.91    2.51
  -7 -13  -7   13.00    2.24
   7  13   7   10.28    1.62
   4 -14  -7   32.94    2.51
   4 -14  -7   28.54    2.98
  -4  14   7   36.89    3.48
   3 -14  -7    0.08    0.71
   3 -14  -7    0.53    0.60
   3 -14  -7   -0.04    0.69
  -3  14   7    0.58    1.08
   2 -14  -7   53.48    2.82
   2 -14  -7   55.58    3.33
   2 -14  -7   51.25    4.04
  -2  14   7   52.62    4.43
   1 -14  -7   63.98    3.70
   1 -14  -7   58.45    4.51
   1 -14  -7   64.53    3.22
  -1  14   7   68.56    5.04
  -1  14   7   61.62    4.00
   0 -14  -7    0.41    0.58
   0 -14  -7    1.63    0.78
   0  14   7    1.91    1.14
   0  14   7    1.63    0.80
  -1 -14  -7   51.23    3.19
  -1 -14  -7   52.86    3.88
  -1 -14  -7   53.89    2.85
   1  14   7   59.33    3.66
   1  14   7   53.32    4.38
  -2 -14  -7   50.78    2.98
  -2 -14  -7   47.56    3.52
  -2 -14  -7   49.53    2.67
   2  14   7   45.48    4.07
   2  14   7   51.75    3.42
  -3 -14  -7    1.63    0.76
  -3 -14  -7    3.43    1.32
  -3 -14  -7    2.02    0.70
  -3 -14  -7    3.33    0.83
   3  14   7    3.89    1.27
   3  14   7    4.44    1.09
  -4 -14  -7   33.37    2.77
  -4 -14  -7   35.43    3.61
   4  14   7   39.47    2.90
   4  14   7   37.20    3.44
  -5 -14  -7   15.27    1.99
  -5 -14  -7   15.64    2.51
   5  14   7   15.24    2.23
   5  14   7   17.12    2.02
  -6 -14  -7    1.84    1.18
   6  14   7    4.19    1.42
   6  14   7    4.56    1.16
   2 -15  -7   45.15    3.65
   2 -15  -7   43.06    2.96
  -2  15   7   42.32    3.96
   1 -15  -7    3.33    1.01
  -1  15   7    3.39    1.08
  -1  15   7    4.28    1.43
   0 -15  -7   44.69    2.85
   0 -15  -7   41.44    3.43
   0  15   7   43.72    3.17
   0  15   7   42.83    3.85
  -1 -15  -7   65.27    3.64
  -1 -15  -7   57.50    4.38
   1  15   7   65.38    5.01
   1  15   7   61.39    4.12
  -2 -15  -7    3.77    1.49
  -2 -15  -7    2.66    0.86
  -2 -15  -7    4.11    1.00
   2  15   7    2.18    1.23
   2  15   7    2.96    1.01
  -3 -15  -7   15.49    2.43
  -3 -15  -7   15.08    1.54
  -3 -15  -7   12.66    1.65
   3  15   7   14.72    2.18
   3  15   7   17.73    2.01
  -4 -15  -7   47.35    3.77
  -4 -15  -7   52.93    4.76
   4  15   7   51.06    4.41
   4  15   7   59.24    3.84
   5  15   7    4.53    1.56
   1  10  -8    0.39    1.70
   1  10  -8   -0.07    0.99
  -1 -10   8   -1.24    1.23
   0  10  -8   38.12    4.42
   0  10  -8   29.19    3.51
   0  10  -8   38.78    4.33
   0 -10   8   23.20    3.11
  -1  10  -8   34.23    4.22
  -1  10  -8   33.26    4.26
  -1  10  -8   29.77    3.26
   1 -10   8   28.37    3.31
  -2  10  -8    1.40    1.51
  -2  10  -8    0.37    1.64
  -2  10  -8    1.60    1.18
   2 -10   8   -0.04    1.08
  -3  10  -8   37.48    4.28
  -3  10  -8   33.27    4.30
   3 -10   8   39.13    3.58
   3 -10   8   31.21    3.37
  -4  10  -8   13.16    2.72
  -4  10  -8   15.47    3.27
  -4  10  -8   17.35    2.46
   4 -10   8   18.05    2.68
   3   9  -8   18.71    3.70
   3   9  -8   22.31    2.74
  -3  -9   8   19.15    2.72
  -3  -9   8   15.37    2.59
   2   9  -8    0.02    0.98
   2   9  -8   -0.56    1.70
  -2  -9   8    0.72    1.22
  -2  -9   8    1.18    1.29
   1   9  -8   28.10    3.44
   1   9  -8   33.15    4.24
  -1  -9   8   27.98    3.45
   0   9  -8   82.98    6.95
   0   9  -8   61.17    5.37
   0   9  -8   75.37    6.66
   0  -9   8   66.59    5.45
  -1   9  -8   -0.65    1.43
  -1   9  -8    1.95    1.09
  -1   9  -8    1.16    1.34
   1  -9   8    1.09    1.26
  -2   9  -8   43.44    4.61
  -2   9  -8   39.35    4.40
  -2   9  -8   35.71    3.47
   2  -9   8   37.15    3.52
  -3   9  -8   56.45    5.35
  -3   9  -8   45.27    4.14
  -3   9  -8   57.51    5.53
   3  -9   8   48.74    4.18
   3  -9   8   55.64    4.42
  -4   9  -8    0.67    1.38
  -4   9  -8    2.80    1.11
  -4   9  -8    2.84    2.00
   4  -9   8    3.02    1.46
  -5   9  -8   15.41    3.23
  -5   9  -8   14.18    2.68
  -5   9  -8   16.79    2.19
   5  -9   8   14.95    2.65
  -6   9  -8    9.37    2.22
  -6   9  -8   14.34    1.98
  -6   9  -8    9.13    2.61
   6  -9   8   16.91    2.76
   4   8  -8   32.20    5.31
   4   8  -8   53.09    4.07
  -4  -8   8   37.16    4.13
  -4  -8   8   47.69    4.14
   3   8  -8   25.75    3.07
   3   8  -8   19.25    3.64
  -3  -8   8   20.99    2.92
  -3  -8   8   27.56    3.24
   2   8  -8    4.32    2.03
   2   8  -8    4.09    1.30
  -2  -8   8    4.46    1.52
  -2  -8   8    4.32    1.52
   1   8  -8   52.74    5.06
   1   8  -8   41.48    3.79
  -1  -8   8   36.96    3.77
  -1  -8   8   40.14    3.80
   0   8  -8   19.69    3.00
   0   8  -8   18.14    2.98
   0   8  -8   12.17    2.19
   0  -8   8   13.14    2.09
  -1   8  -8   24.35    3.36
  -1   8  -8   21.58    2.78
  -1   8  -8   24.34    3.22
   1  -8   8   20.47    2.54
  -2   8  -8   52.48    5.10
  -2   8  -8   47.54    3.99
  -2   8  -8   51.95    4.94
   2  -8   8   45.35    3.93
  -3   8  -8    3.63    1.71
  -3   8  -8    5.88    1.34
  -3   8  -8    3.92    1.64
   3  -8   8    3.41    1.20
   3  -8   8    6.87    1.59
  -4   8  -8   17.24    2.13
  -4   8  -8   16.46    3.03
  -4   8  -8   14.47    2.65
   4  -8   8   13.88    1.95
   4  -8   8   15.33    2.31
  -5   8  -8   46.24    5.25
  -5   8  -8   41.53    4.65
  -5   8  -8   52.84    3.89
   5  -8   8   53.63    4.49
  -6   8  -8    6.32    1.84
  -6   8  -8   10.21    1.67
  -6   8  -8    5.96    2.25
   6  -8   8    8.92    2.31
  -7   8  -8    8.84    1.53
  -7   8  -8    0.66    1.84
  -7   8  -8    1.60    1.41
   7  -8   8    3.77    1.91
   5   7  -8   47.30    3.98
  -5  -7   8   35.30    4.18
  -5  -7   8   47.35    4.11
   4   7  -8   31.54    4.96
   4   7  -8   38.17    3.41
  -4  -7   8   29.01    3.58
  -4  -7   8   38.49    3.55
   3   7  -8    4.05    2.13
   3   7  -8    7.68    1.63
  -3  -7   8    5.52    1.71
  -3  -7   8    6.14    1.69
   2   7  -8   63.01    6.05
   2   7  -8   62.02    4.71
  -2  -7   8   56.80    4.90
  -2  -7   8   56.29    4.68
   1   7  -8   33.76    3.22
   1   7  -8   40.12    4.25
  -1  -7   8   31.74    3.26
  -1  -7   8   32.54    3.24
   0   7  -8    1.41    1.21
   0   7  -8    0.94    0.86
   0   7  -8    0.49    1.31
   0  -7   8    0.57    0.99
   0  -7   8    0.04    0.98
  -1   7  -8   51.39    4.77
  -1   7  -8   49.91    4.74
  -1   7  -8   40.47    3.74
   1  -7   8   47.85    3.85
  -2   7  -8    6.95    1.79
  -2   7  -8    5.51    1.64
  -2   7  -8    6.14    1.34
   2  -7   8    3.66    1.17
  -3   7  -8    0.93    1.22
  -3   7  -8    1.11    0.82
  -3   7  -8   -0.03    1.02
   3  -7   8    0.60    0.80
   3  -7   8    1.65    1.11
  -4   7  -8   27.21    2.41
  -4   7  -8   15.67    2.76
  -4   7  -8   27.73    3.50
   4  -7   8   26.35    2.80
   4  -7   8   25.68    2.43
  -5   7  -8   11.99    2.53
  -5   7  -8    9.47    2.07
   5  -7   8   17.93    2.68
  -6   7  -8   -0.41    1.00
  -6   7  -8   -0.40    1.48
  -6   7  -8    1.61    0.85
   6  -7   8    0.99    1.55
  -7   7  -8   39.09    2.99
  -7   7  -8   35.45    3.87
  -7   7  -8   24.81    4.12
   7  -7   8   26.54    3.62
  -8   7  -8   47.54    4.72
  -8   7  -8   51.69    3.74
  -8   7  -8   38.49    5.16
   8  -7   8   38.54    4.47
   6   6  -8    8.90    2.64
   6   6  -8   16.20    2.37
  -6  -6   8   16.79    2.48
  -6  -6   8    9.01    2.38
   5   6  -8   25.03    4.30
   5   6  -8   31.54    3.11
  -5  -6   8   32.24    3.26
  -5  -6   8   22.87    3.39
   4   6  -8   -0.29    0.78
   4   6  -8   -1.42    1.36
  -4  -6   8   -0.01    1.27
  -4  -6   8    0.25    1.01
   3   6  -8   19.64    3.55
   3   6  -8   21.26    2.61
  -3  -6   8   24.27    2.66
  -3  -6   8   17.09    2.62
   2   6  -8   30.37    2.90
   2   6  -8   33.35    3.92
  -2  -6   8   30.19    3.04
  -2  -6   8   26.05    2.98
   1   6  -8    0.06    0.75
   1   6  -8    0.71    1.31
  -1  -6   8   -0.03    0.94
  -1  -6   8   -0.20    0.91
   0   6  -8   59.85    4.87
   0   6  -8   45.01    3.87
   0  -6   8   44.91    4.01
   0  -6   8   49.49    3.96
  -1   6  -8   45.98    3.85
  -1   6  -8   60.72    4.93
  -1   6  -8   58.22    4.87
   1  -6   8   40.99    3.81
   1  -6   8   50.10    3.90
  -2   6  -8    6.92    1.75
  -2   6  -8    4.01    1.10
  -2   6  -8    3.46    1.37
   2  -6   8    5.00    1.22
  -3   6  -8   25.15    3.11
  -3   6  -8   17.38    2.72
  -3   6  -8   21.85    2.20
   3  -6   8   23.56    2.25
   3  -6   8   26.05    2.51
  -4   6  -8   58.38    6.27
  -4   6  -8   77.05    5.00
   4  -6   8   79.55    5.51
   4  -6   8   74.27    4.96
  -5   6  -8   11.13    2.41
  -5   6  -8   16.34    1.74
  -5   6  -8   15.11    2.42
   5  -6   8   16.70    2.50
  -6   6  -8   21.41    2.88
  -6   6  -8   19.27    3.31
  -6   6  -8   26.13    2.27
   6  -6   8   29.05    3.53
  -7   6  -8   37.35    4.47
  -7   6  -8   43.00    4.18
  -7   6  -8   43.06    3.21
   7  -6   8   31.98    4.10
  -8   6  -8    2.00    0.92
  -8   6  -8    2.10    1.33
  -8   6  -8    1.57    1.85
   8  -6   8    0.16    1.51
  -9   6  -8   24.73    2.35
  -9   6  -8   24.44    3.16
  -9   6  -8   16.73    3.38
   9  -6   8   26.09    3.74
  -7  -5   8    4.27    1.90
  -7  -5   8    9.76    2.07
   6   5  -8   37.85    5.08
   6   5  -8   47.49    4.14
  -6  -5   8   52.25    4.32
   5   5  -8   13.32    2.97
   5   5  -8   18.67    2.39
  -5  -5   8   19.30    2.54
  -5  -5   8   13.29    2.52
   4   5  -8   13.28    1.93
   4   5  -8    9.11    2.41
  -4  -5   8    9.63    2.12
  -4  -5   8   11.24    1.87
   3   5  -8   48.26    3.57
   3   5  -8   38.28    4.57
  -3  -5   8   32.83    3.66
  -3  -5   8   42.28    3.57
   2   5  -8   22.04    2.28
   2   5  -8   21.03    3.30
  -2  -5   8   21.38    2.43
  -2  -5   8   17.10    2.52
   1   5  -8    8.75    2.08
   1   5  -8    9.15    1.60
  -1  -5   8    6.61    1.48
  -1  -5   8    6.74    1.48
   0   5  -8   59.92    4.81
   0   5  -8   54.77    4.90
   0   5  -8   44.73    3.84
   0  -5   8   44.40    4.03
   0  -5   8   61.00    3.70
   0  -5   8   43.06    3.83
  -1   5  -8   33.88    3.39
  -1   5  -8   33.78    3.31
  -1   5  -8   25.09    2.58
   1  -5   8   26.17    2.59
   1  -5   8   31.74    2.42
   1  -5   8   33.68    2.77
  -2   5  -8   25.05    2.39
  -2   5  -8   28.24    3.12
  -2   5  -8   24.75    2.95
   2  -5   8   27.02    2.24
   2  -5   8   27.17    2.44
   2  -5   8   25.99    2.17
  -3   5  -8   92.91    8.24
  -3   5  -8  103.36    6.60
   3  -5   8  109.61    6.91
   3  -5   8   98.75    6.52
  -4   5  -8   50.42    5.24
  -4   5  -8   62.46    4.13
  -4   5  -8   46.40    4.95
   4  -5   8   64.38    4.14
   4  -5   8   70.92    4.72
  -5   5  -8    7.18    1.90
  -5   5  -8   14.65    1.64
  -5   5  -8   10.63    1.95
   5  -5   8   10.23    1.94
  -6   5  -8  124.71    7.43
  -6   5  -8  123.79    9.22
  -6   5  -8  114.30    9.63
   6  -5   8  100.96    8.05
  -7   5  -8   24.89    3.62
  -7   5  -8   25.55    3.00
  -7   5  -8   27.11    2.30
   7  -5   8   22.16    3.09
  -8   5  -8    2.40    1.78
  -8   5  -8    2.26    0.88
  -8   5  -8    2.96    1.30
   8  -5   8    2.86    1.74
  -9   5  -8   46.72    3.55
  -9   5  -8   46.00    4.59
  -9   5  -8   47.48    5.28
   9  -5   8   46.48    4.61
   7   4  -8   25.68    3.12
  -7  -4   8   17.99    3.25
  -7  -4   8   27.50    3.39
   6   4  -8   27.87    3.21
   6   4  -8   17.80    3.25
  -6  -4   8   13.80    2.73
  -6  -4   8   25.92    2.99
   5   4  -8    4.02    1.80
   5   4  -8    5.95    1.45
  -5  -4   8    1.68    1.59
  -5  -4   8    7.57    1.68
   4   4  -8   36.61    4.35
  -4  -4   8   36.93    3.72
   3   4  -8   47.47    5.66
   3   4  -8   73.95    4.76
  -3  -4   8   52.99    5.00
  -3  -4   8   77.04    4.83
   2   4  -8    2.67    0.96
   2   4  -8    1.00    1.28
  -2  -4   8    1.08    1.05
  -2  -4   8    1.08    0.91
   1   4  -8   94.97    7.03
   1   4  -8   82.97    5.53
  -1  -4   8   65.61    5.86
  -1  -4   8   81.75    5.54
   0   4  -8  107.74    7.60
   0  -4   8  146.56    7.70
   0  -4   8  107.37    8.20
   0  -4   8  108.70    7.58
  -1   4  -8    6.59    1.27
  -1   4  -8    7.44    1.58
  -1   4  -8    5.95    1.43
   1  -4   8    6.42    1.15
   1  -4   8    7.81    1.17
   1  -4   8    5.90    1.19
  -2   4  -8   50.48    4.51
  -2   4  -8   43.26    4.33
  -2   4  -8   47.07    3.60
   2  -4   8   47.69    3.51
   2  -4   8   48.99    3.60
   2  -4   8   54.63    3.65
  -3   4  -8   84.27    8.40
  -3   4  -8  108.83    6.85
   3  -4   8  110.44    6.83
   3  -4   8  115.86    7.18
   3  -4   8  115.58    6.97
  -4   4  -8    0.77    1.00
  -4   4  -8    0.96    0.87
  -4   4  -8    1.91    0.65
   4  -4   8    1.33    0.73
   4  -4   8    1.26    0.68
   4  -4   8    0.66    0.85
  -5   4  -8  108.89    8.18
  -5   4  -8  101.22    8.50
  -5   4  -8  107.93    6.57
   5  -4   8  110.40    6.81
   5  -4   8   86.22    7.04
  -6   4  -8   54.52    5.15
  -6   4  -8   58.57    3.77
  -6   4  -8   55.04    4.76
   6  -4   8   44.29    4.30
  -7   4  -8    1.64    0.98
  -7   4  -8    0.35    1.27
  -7   4  -8    1.41    0.63
   7  -4   8    0.09    1.09
  -8   4  -8   54.15    5.02
  -8   4  -8   55.85    5.47
  -8   4  -8   55.61    3.93
   8  -4   8   61.54    5.00
  -9   4  -8   51.72    4.72
  -9   4  -8   47.70    5.21
  -9   4  -8   46.27    3.56
   9  -4   8   53.53    4.74
 -10   4  -8    0.74    0.73
 -10   4  -8   -0.38    1.55
 -10   4  -8    0.16    1.12
  10  -4   8   -0.52    1.35
   7   3  -8   58.07    4.61
   7   3  -8   42.96    3.12
  -7  -3   8   42.94    4.70
   6   3  -8   14.09    2.91
   6   3  -8   12.99    2.17
  -6  -3   8    9.76    2.38
  -6  -3   8   14.09    2.33
   5   3  -8    9.05    1.81
   5   3  -8    8.18    2.21
  -5  -3   8   15.68    2.20
  -5  -3   8    6.79    2.00
   4   3  -8  117.20    7.36
   4   3  -8   86.40    8.72
  -4  -3   8  118.11    7.34
   3   3  -8   10.35    1.59
   3   3  -8    8.60    2.25
  -3  -3   8    7.65    1.73
  -3  -3   8   12.90    1.82
   2   3  -8   47.08    3.43
   2   3  -8   42.89    4.38
  -2  -3   8   50.30    3.51
  -2  -3   8   32.68    3.54
   1   3  -8  180.75   12.78
   1   3  -8  161.05   10.35
  -1  -3   8  161.19   10.34
   0   3  -8   28.27    2.92
   0   3  -8   26.96    2.61
   0   3  -8   20.91    2.14
   0  -3   8   25.54    2.05
   0  -3   8   23.03    2.24
   0  -3   8   22.18    2.29
  -1   3  -8   82.60    6.46
  -1   3  -8   68.26    5.22
  -1   3  -8   88.93    6.48
   1  -3   8   64.76    5.17
   1  -3   8   86.52    5.37
   1  -3   8   83.94    5.65
  -2   3  -8  133.16   10.46
  -2   3  -8  139.70    8.55
   2  -3   8  146.36    8.53
   2  -3   8  128.75    8.72
  -3   3  -8   30.38    2.38
  -3   3  -8   23.35    2.92
  -3   3  -8   22.76    2.83
   3  -3   8   32.55    2.40
   3  -3   8   33.64    2.68
   3  -3   8   35.20    2.46
  -4   3  -8   25.06    2.02
  -4   3  -8   23.77    2.62
  -4   3  -8   24.22    2.78
   4  -3   8   26.22    2.09
   4  -3   8   20.21    2.32
   4  -3   8   25.06    2.06
  -5   3  -8   55.94    4.86
  -5   3  -8   59.84    3.88
  -5   3  -8   57.19    5.13
   5  -3   8   49.96    4.33
   5  -3   8   62.49    4.09
  -6   3  -8    9.61    1.99
  -6   3  -8    8.65    1.56
  -6   3  -8    8.73    1.14
   6  -3   8    8.19    1.72
  -7   3  -8   16.19    2.58
  -7   3  -8   13.73    2.14
  -7   3  -8   14.38    1.47
   7  -3   8   15.24    2.40
  -8   3  -8   20.69    1.87
  -8   3  -8   21.24    3.17
  -8   3  -8   21.15    2.57
   8  -3   8   22.99    3.00
  -9   3  -8    6.47    1.92
  -9   3  -8    9.18    1.26
  -9   3  -8    6.18    1.59
   9  -3   8    8.24    2.06
 -10   3  -8   10.82    2.15
 -10   3  -8   10.31    2.58
 -10   3  -8   11.31    1.49
  10  -3   8   12.39    2.56
   8   2  -8   22.05    2.30
  -8  -2   8   24.14    3.55
  -8  -2   8   36.99    3.79
   7   2  -8   25.76    3.17
   7   2  -8   23.26    2.32
  -7  -2   8   24.75    3.59
  -7  -2   8   26.51    3.21
   6   2  -8    5.58    1.84
   6   2  -8    4.21    1.41
  -6  -2   8    7.37    1.78
  -6  -2   8    2.71    1.56
   5   2  -8   97.27    8.49
   5   2  -8   97.78    7.07
  -5  -2   8  110.24    7.18
   4   2  -8   51.84    3.85
   4   2  -8   41.62    4.53
  -4  -2   8   34.49    3.91
  -4  -2   8   56.26    3.94
   3   2  -8   -0.91    1.01
   3   2  -8    0.58    0.71
  -3  -2   8    0.73    0.82
  -3  -2   8    0.34    0.94
   2   2  -8   87.36    7.58
   2   2  -8  100.26    6.22
  -2  -2   8   79.96    6.68
  -2  -2   8  103.34    6.24
   1   2  -8   62.48    4.90
   1   2  -8   51.84    3.76
  -1  -2   8   50.33    3.75
  -1  -2   8   45.22    4.01
   0   2  -8   17.60    1.72
   0   2  -8   18.00    1.95
   0   2  -8   17.20    2.13
   0  -2   8   13.44    1.70
   0  -2   8   15.03    1.68
  -1   2  -8   56.08    4.51
  -1   2  -8   69.82    5.63
  -1   2  -8   73.07    5.58
   1  -2   8   71.10    4.72
   1  -2   8   58.83    4.52
   1  -2   8   72.04    4.95
   1  -2   8   74.64    4.25
  -2   2  -8   21.44    2.32
  -2   2  -8   16.28    2.24
  -2   2  -8   23.46    1.94
   2  -2   8   24.57    1.98
   2  -2   8   22.65    1.95
  -3   2  -8   12.69    1.33
  -3   2  -8   10.30    1.75
  -3   2  -8   10.13    1.67
   3  -2   8   15.44    1.43
   3  -2   8   11.14    1.62
   3  -2   8   13.56    1.41
  -4   2  -8  115.16    6.82
  -4   2  -8  108.55    8.34
  -4   2  -8  107.21    8.56
   4  -2   8   90.54    7.12
   4  -2   8  114.83    7.16
   4  -2   8  119.40    6.83
  -5   2  -8   42.79    3.70
  -5   2  -8   41.70    2.87
  -5   2  -8   38.59    3.81
   5  -2   8   38.77    3.37
   5  -2   8   43.23    3.12
  -6   2  -8    2.55    0.95
  -6   2  -8    2.46    0.61
  -6   2  -8    3.61    1.24
   6  -2   8    2.14    1.03
   6  -2   8    3.82    0.92
  -7   2  -8   30.64    3.03
  -7   2  -8   32.04    3.39
  -7   2  -8   30.83    2.29
   7  -2   8   29.84    3.02
  -8   2  -8   42.84    3.95
  -8   2  -8   41.76    2.95
  -8   2  -8   40.57    4.26
   8  -2   8   42.42    3.85
  -9   2  -8    0.37    0.92
  -9   2  -8    0.46    0.52
  -9   2  -8    0.70    1.33
   9  -2   8    0.09    1.19
 -10   2  -8   26.55    2.28
 -10   2  -8   30.07    3.79
 -10   2  -8   27.99    3.23
  10  -2   8   31.67    3.77
   8   1  -8   18.93    1.97
   8   1  -8   14.93    2.54
  -8  -1   8   17.47    3.03
  -8  -1   8   13.80    2.74
   7   1  -8    1.47    1.21
   7   1  -8    3.01    0.99
  -7  -1   8    2.48    1.59
  -7  -1   8    2.27    1.39
   6   1  -8   42.02    3.91
  -6  -1   8   42.50    4.21
  -6  -1   8   46.49    4.07
   5   1  -8   20.41    2.58
   5   1  -8   24.82    3.01
  -5  -1   8   15.76    2.53
  -5  -1   8   27.80    2.71
   4   1  -8   -0.65    0.90
   4   1  -8    1.00    0.87
   4   1  -8    0.06    0.36
  -4  -1   8    0.08    1.00
  -4  -1   8    0.61    0.85
   3   1  -8   80.90    5.24
   3   1  -8   70.10    3.66
   3   1  -8   67.82    6.20
  -3  -1   8   64.35    5.51
  -3  -1   8   80.92    5.21
   2   1  -8   68.51    6.48
   2   1  -8   88.55    5.45
  -2  -1   8   74.90    5.83
  -2  -1   8   82.27    5.37
   1   1  -8    0.75    0.59
   1   1  -8    1.61    1.07
  -1  -1   8    0.48    0.65
  -1  -1   8    0.08    0.71
   0   1  -8   29.51    2.50
   0   1  -8   34.97    2.94
   0   1  -8   33.09    3.17
   0  -1   8   30.99    2.54
   0  -1   8   33.94    2.80
  -1   1  -8   86.14    6.55
  -1   1  -8   74.80    5.39
  -1   1  -8   71.77    6.52
   1  -1   8   78.59    5.40
   1  -1   8   92.30    5.25
   1  -1   8   86.73    5.68
   1  -1   8   97.40    6.03
  -2   1  -8    0.19    0.59
  -2   1  -8    0.06    0.56
  -2   1  -8    0.25    0.42
   2  -1   8   -0.09    0.53
   2  -1   8   -0.31    0.55
   2  -1   8   -0.38    0.40
  -3   1  -8   21.63    2.16
  -3   1  -8   20.14    2.09
  -3   1  -8   18.47    1.63
   3  -1   8   17.56    1.61
   3  -1   8   14.89    1.75
   3  -1   8   20.87    1.82
  -4   1  -8   62.32    3.92
  -4   1  -8   61.21    4.96
  -4   1  -8   58.75    4.83
   4  -1   8   54.33    4.22
   4  -1   8   58.85    3.88
   4  -1   8   61.41    4.18
  -5   1  -8    0.20    0.58
  -5   1  -8    0.48    0.37
  -5   1  -8    0.48    0.56
   5  -1   8    0.56    0.76
   5  -1   8    0.90    0.62
  -6   1  -8   63.32    5.34
  -6   1  -8   64.30    4.22
  -6   1  -8   70.93    5.62
   6  -1   8   66.90    4.91
   6  -1   8   68.67    4.69
  -7   1  -8   64.84    5.45
  -7   1  -8   65.13    4.24
  -7   1  -8   68.18    5.76
   7  -1   8   71.08    5.06
  -8   1  -8    3.40    1.34
  -8   1  -8    3.41    1.12
  -8   1  -8    4.48    0.77
   8  -1   8    2.60    1.18
  -9   1  -8   42.16    4.35
  -9   1  -8   43.51    4.12
  -9   1  -8   41.14    2.98
   9  -1   8   49.98    4.12
 -10   1  -8   64.08    5.73
 -10   1  -8   64.22    4.29
 -10   1  -8   64.01    6.08
  10  -1   8   70.31    5.47
 -11   1  -8    1.33    1.24
 -11   1  -8    1.89    1.69
 -11   1  -8    2.56    0.83
  11  -1   8    1.74    1.51
   8   0  -8   19.13    2.02
   8   0  -8   17.43    2.62
  -8   0   8   19.11    3.09
  -8   0   8   11.02    2.45
   7   0  -8   13.93    2.26
   7   0  -8   14.67    1.65
  -7   0   8   11.51    2.34
  -7   0   8   11.09    2.31
   6   0  -8   54.87    3.15
   6   0  -8   51.69    4.38
  -6   0   8   54.29    4.82
  -6   0   8   51.88    4.49
   5   0  -8    2.51    1.14
   5   0  -8    4.38    1.53
  -5   0   8    4.09    1.44
  -5   0   8    3.94    1.44
   4   0  -8    7.37    1.75
   4   0  -8    8.96    0.91
   4   0  -8    7.95    1.57
  -4   0   8    9.07    1.76
  -4   0   8   11.84    1.85
   3   0  -8   30.81    3.20
   3   0  -8   25.41    1.72
   3   0  -8   29.63    2.63
  -3   0   8   26.41    2.74
  -3   0   8   30.95    2.71
   2   0  -8    2.76    1.21
   2   0  -8    4.72    1.03
  -2   0   8    4.72    1.23
  -2   0   8    6.99    1.24
   1   0  -8   36.07    3.50
   1   0  -8   35.18    2.79
  -1   0   8   36.26    2.82
  -1   0   8   34.03    3.02
   0   0  -8   99.52    6.99
   0   0  -8   84.64    5.87
   0   0  -8   87.62    7.16
   0   0   8   90.37    5.90
   0   0   8   97.01    6.56
  -1   0  -8   33.00    3.02
  -1   0  -8   29.23    3.16
  -1   0  -8   37.26    2.67
   1   0   8   35.02    2.81
   1   0   8   41.84    3.05
   1   0   8   38.66    2.69
   1   0   8   38.53    2.49
  -2   0  -8    9.69    1.30
  -2   0  -8    9.57    1.19
  -2   0  -8    7.60    1.41
   2   0   8    9.12    1.23
   2   0   8    8.59    1.34
   2   0   8   12.58    1.18
   2   0   8   10.21    0.88
  -3   0  -8  118.20    8.08
  -3   0  -8  142.00   10.05
  -3   0  -8  146.29    9.98
   3   0   8  128.67    8.39
   3   0   8  131.37    8.07
   3   0   8  125.50    8.07
   3   0   8  152.40    8.69
  -4   0  -8   95.94    6.97
  -4   0  -8   85.72    5.52
  -4   0  -8   93.66    6.86
   4   0   8   93.10    5.98
   4   0   8   75.32    5.45
   4   0   8   98.42    5.96
  -5   0  -8   16.64    1.38
  -5   0  -8   17.71    1.91
  -5   0  -8   15.41    1.80
   5   0   8   16.92    1.82
   5   0   8   17.79    1.68
  -6   0  -8   78.92    6.34
  -6   0  -8   80.51    5.03
  -6   0  -8   85.15    6.61
   6   0   8   83.02    5.60
   6   0   8   82.37    5.67
  -7   0  -8   25.09    1.83
  -7   0  -8   25.50    2.71
  -7   0  -8   23.27    2.54
   7   0   8   28.24    2.63
  -8   0  -8   23.11    2.56
  -8   0  -8   18.09    1.51
  -8   0  -8   18.92    2.30
   8   0   8   19.08    2.45
  -9   0  -8  106.00    8.39
  -9   0  -8  100.73    7.95
  -9   0  -8   94.71    6.11
   9   0   8  101.60    7.14
 -10   0  -8    6.68    0.96
 -10   0  -8    5.38    1.82
 -10   0  -8    6.22    1.63
  10   0   8    7.73    1.90
 -11   0  -8   20.23    2.90
 -11   0  -8   16.37    3.00
  11   0   8   17.96    2.77
   8  -1  -8    6.49    1.22
   8  -1  -8    4.24    1.56
  -8   1   8    2.81    1.80
  -8   1   8    2.47    1.50
   7  -1  -8   47.65    2.87
   7  -1  -8   46.89    4.06
  -7   1   8   48.22    4.55
  -7   1   8   39.56    4.08
   6  -1  -8   35.62    3.35
   6  -1  -8   37.33    2.35
  -6   1   8   32.18    3.42
  -6   1   8   38.06    3.80
   5  -1  -8    1.06    0.48
   5  -1  -8    0.97    0.83
   5  -1  -8    0.30    0.89
  -5   1   8    0.72    1.11
  -5   1   8   -0.32    0.93
   4  -1  -8   34.57    3.21
   4  -1  -8   43.52    2.23
   4  -1  -8   40.92    3.81
  -4   1   8   31.62    3.24
  -4   1   8   44.35    3.76
   3  -1  -8   93.36    6.77
   3  -1  -8  109.99    8.17
   3  -1  -8  102.19    5.02
  -3   1   8  114.58    7.64
  -3   1   8   96.65    6.81
   2  -1  -8    3.25    0.64
   2  -1  -8    4.88    1.12
   2  -1  -8    2.60    1.16
  -2   1   8    4.80    1.26
  -2   1   8    3.30    1.01
   1  -1  -8  109.12    8.40
   1  -1  -8   97.61    6.88
  -1   1   8  116.43    7.73
  -1   1   8  111.48    6.97
   0  -1  -8   83.99    5.63
   0  -1  -8   84.81    6.81
   0  -1  -8   91.29    6.52
   0   1   8   84.08    5.63
   0   1   8   92.49    6.34
  -1  -1  -8    0.19    0.58
  -1  -1  -8    0.30    0.43
  -1  -1  -8    0.37    0.41
   1   1   8    0.13    0.47
   1   1   8    0.49    0.65
   1   1   8   -0.33    0.38
   1   1   8    1.49    0.53
  -2  -1  -8  168.48   13.83
  -2  -1  -8  217.92   11.55
  -2  -1  -8  201.67   14.03
   2   1   8  191.61   11.69
   2   1   8  192.21   12.19
   2   1   8  188.24   11.65
  -3  -1  -8  127.86    7.48
  -3  -1  -8  122.14    9.07
  -3  -1  -8  120.13    9.11
   3   1   8  114.81    7.63
   3   1   8  117.11    7.51
   3   1   8  137.14    7.45
   3   1   8  122.55    7.95
  -4  -1  -8    4.40    0.91
  -4  -1  -8    4.75    0.97
  -4  -1  -8    4.00    0.67
   4   1   8    3.85    0.86
   4   1   8    6.06    1.03
   4   1   8    5.05    0.68
  -5  -1  -8  172.82   12.74
  -5  -1  -8  169.31   12.43
  -5  -1  -8  174.52   10.14
   5   1   8  166.83   10.89
   5   1   8  177.66   10.71
  -6  -1  -8  103.31    6.03
  -6  -1  -8   97.41    7.57
  -6  -1  -8   96.85    7.79
   6   1   8   99.00    6.69
   6   1   8  104.62    6.68
  -7  -1  -8    0.82    0.76
  -7  -1  -8    0.31    0.31
  -7  -1  -8   -0.01    0.57
   7   1   8    0.34    0.78
   7   1   8    0.23    0.69
  -8  -1  -8   44.26    3.93
  -8  -1  -8   42.48    2.80
  -8  -1  -8   40.31    4.05
   8   1   8   47.56    3.71
  -9  -1  -8   44.45    4.29
  -9  -1  -8   41.79    3.97
  -9  -1  -8   41.41    2.78
   9   1   8   42.79    3.77
 -10  -1  -8   -0.79    0.80
 -10  -1  -8    1.24    1.27
  10   1   8   -1.14    1.01
 -11  -1  -8   23.48    3.48
 -11  -1  -8   20.43    2.93
  11   1   8   21.50    3.04
   8  -2  -8   16.37    2.50
   8  -2  -8   13.37    1.63
  -8   2   8    9.63    2.13
  -8   2   8   11.12    2.43
   7  -2  -8   23.87    2.94
   7  -2  -8   22.50    1.99
  -7   2   8   23.83    3.12
  -7   2   8   23.37    3.23
   6  -2  -8    2.73    0.78
   6  -2  -8    1.89    1.12
  -6   2   8    0.70    1.09
  -6   2   8    1.99    1.42
   5  -2  -8   32.58    2.94
   5  -2  -8   31.63    1.87
   5  -2  -8   31.44    2.08
  -5   2   8   28.53    3.01
  -5   2   8   33.61    3.40
   4  -2  -8   87.86    4.28
   4  -2  -8   82.72    6.86
   4  -2  -8   89.69    5.96
  -4   2   8   95.45    6.74
  -4   2   8   78.26    5.92
   3  -2  -8   23.47    2.28
   3  -2  -8   24.73    2.62
   3  -2  -8   25.46    1.58
  -3   2   8   29.47    2.77
  -3   2   8   20.43    2.31
   2  -2  -8   69.52    5.62
   2  -2  -8   71.83    3.54
   2  -2  -8   69.62    4.72
  -2   2   8   62.46    4.69
   1  -2  -8  280.30   12.70
   1  -2  -8  278.30   19.79
   1  -2  -8  272.39   16.44
  -1   2   8  275.07   16.44
   0  -2  -8   43.19    3.43
   0  -2  -8   35.17    2.71
   0   2   8   33.78    2.70
   0   2   8   40.99    2.74
   0   2   8   33.70    2.76
  -1  -2  -8   48.09    4.24
  -1  -2  -8   52.34    3.97
  -1  -2  -8   59.44    3.61
   1   2   8   50.69    3.36
   1   2   8   49.20    3.55
   1   2   8   55.76    3.89
   1   2   8   53.78    3.55
  -2  -2  -8  256.89   13.51
  -2  -2  -8  260.13   13.50
  -2  -2  -8  240.92   16.36
  -2  -2  -8  192.68   16.13
   2   2   8  226.92   13.56
   2   2   8  209.37   13.78
   2   2   8  223.90   13.40
   2   2   8  214.61   14.23
  -3  -2  -8    9.89    1.01
  -3  -2  -8   10.80    1.36
  -3  -2  -8   11.00    1.19
  -3  -2  -8   10.37    1.02
   3   2   8    9.75    1.10
   3   2   8   11.36    1.07
   3   2   8   11.86    1.46
  -4  -2  -8   66.30    4.75
  -4  -2  -8   82.78    6.04
  -4  -2  -8   84.31    6.01
   4   2   8   82.96    5.13
   4   2   8   81.84    5.04
   4   2   8   74.56    4.69
   4   2   8   81.41    5.32
  -5  -2  -8   85.30    5.56
  -5  -2  -8   98.00    7.18
  -5  -2  -8   96.35    7.02
   5   2   8   97.18    6.08
   5   2   8   91.73    6.21
  -6  -2  -8    3.21    0.88
  -6  -2  -8    3.09    0.92
  -6  -2  -8    3.43    0.49
  -6  -2  -8    2.67    0.62
   6   2   8    3.07    0.91
   6   2   8    3.00    0.92
  -7  -2  -8   58.36    3.51
  -7  -2  -8   55.93    4.86
  -7  -2  -8   57.58    4.73
   7   2   8   57.14    4.22
   7   2   8   56.51    4.22
  -8  -2  -8   77.67    6.70
  -8  -2  -8   82.65    4.88
  -8  -2  -8   81.30    6.49
   8   2   8   82.38    5.77
  -9  -2  -8   22.14    2.88
  -9  -2  -8   24.21    2.69
   9   2   8   25.15    2.67
 -10  -2  -8   16.35    2.73
  10   2   8   19.44    2.67
 -11  -2  -8   30.30    3.83
  11   2   8   30.82    3.39
   8  -3  -8   35.03    2.56
   8  -3  -8   39.25    3.67
  -8   3   8   39.32    3.92
  -8   3   8   40.06    4.25
   7  -3  -8   26.15    1.97
   7  -3  -8   24.92    2.74
  -7   3   8   29.45    3.46
  -7   3   8   23.11    3.03
   6  -3  -8    1.58    0.96
   6  -3  -8    2.46    0.70
  -6   3   8    1.98    1.18
  -6   3   8    2.50    1.54
   5  -3  -8   55.64    2.99
   5  -3  -8   56.49    4.30
   5  -3  -8   58.72    3.08
  -5   3   8   54.39    4.39
  -5   3   8   59.61    5.02
   4  -3  -8   46.80    3.62
   4  -3  -8   44.88    4.07
   4  -3  -8   50.45    2.59
   4  -3  -8   46.02    2.59
  -4   3   8   43.55    3.67
  -4   3   8   53.63    4.34
   3  -3  -8    7.22    0.82
   3  -3  -8    5.65    1.12
   3  -3  -8    6.74    1.32
  -3   3   8    8.86    1.74
  -3   3   8    4.91    1.14
   2  -3  -8  218.96   10.19
   2  -3  -8  213.43   15.85
   2  -3  -8  221.75   13.30
  -2   3   8  209.49   13.28
  -2   3   8  242.42   15.06
   1  -3  -8   31.41    3.44
   1  -3  -8   44.48    2.31
   1  -3  -8   44.09    2.99
  -1   3   8   40.90    2.96
   0  -3  -8   76.37    5.51
   0  -3  -8   69.84    4.49
   0  -3  -8   62.81    3.52
   0   3   8   62.11    4.11
   0   3   8   72.63    4.49
   0   3   8   72.38    4.66
  -1  -3  -8  155.60   11.67
  -1  -3  -8  177.74    9.87
  -1  -3  -8  155.95   11.81
   1   3   8  138.40   10.11
   1   3   8  187.17    9.82
   1   3   8  186.76    9.74
   1   3   8  144.14   10.44
  -2  -3  -8  127.57    8.70
  -2  -3  -8  123.05    7.25
  -2  -3  -8  114.71    7.22
  -2  -3  -8  108.53    8.73
   2   3   8  115.43    7.52
   2   3   8  124.56    7.25
   2   3   8  125.67    7.15
   2   3   8  117.08    7.81
  -3  -3  -8   47.14    3.55
  -3  -3  -8   36.60    2.76
  -3  -3  -8   44.27    3.39
  -3  -3  -8   37.93    2.79
   3   3   8   43.12    2.90
   3   3   8   47.58    3.23
   3   3   8   44.00    3.02
   3   3   8   45.68    2.66
  -4  -3  -8  114.70    6.97
  -4  -3  -8  120.38    8.63
  -4  -3  -8  115.18    8.73
   4   3   8  120.70    7.42
   4   3   8  116.72    7.65
   4   3   8  121.19    7.35
  -5  -3  -8   50.51    4.13
  -5  -3  -8   52.63    3.09
  -5  -3  -8   49.69    4.04
  -5  -3  -8   51.14    3.02
   5   3   8   47.79    3.52
   5   3   8   48.64    3.65
   5   3   8   51.44    3.54
  -6  -3  -8    3.84    0.87
  -6  -3  -8    4.19    0.98
  -6  -3  -8    2.96    0.69
   6   3   8    2.70    0.89
   6   3   8    3.49    0.91
  -7  -3  -8   57.43    4.12
  -7  -3  -8   56.35    4.82
  -7  -3  -8   53.71    4.62
   7   3   8   57.89    4.16
   7   3   8   56.57    4.20
  -8  -3  -8   34.60    3.35
   8   3   8   31.62    2.91
  -9  -3  -8    8.01    1.73
   9   3   8    5.69    1.50
 -10  -3  -8   64.12    6.04
  10   3   8   70.88    5.32
 -11  -3  -8   19.56    3.12
  11   3   8   20.09    2.83
   8  -4  -8   31.85    2.37
   8  -4  -8   33.08    3.32
  -8   4   8   37.24    4.15
  -8   4   8   33.74    3.62
   7  -4  -8   -0.56    0.54
   7  -4  -8    0.03    0.96
  -7   4   8   -0.75    0.94
  -7   4   8    0.90    1.64
   6  -4  -8   80.87    4.14
   6  -4  -8   76.85    4.11
   6  -4  -8   79.92    5.75
  -6   4   8   88.17    6.83
  -6   4   8   84.19    5.93
   5  -4  -8  101.47    6.81
   5  -4  -8   98.62    5.00
   5  -4  -8   98.50    4.90
  -5   4   8  116.72    8.04
  -5   4   8   99.56    6.88
   4  -4  -8    1.03    0.47
   4  -4  -8    1.65    0.75
   4  -4  -8    0.40    0.46
  -4   4   8    0.97    1.23
  -4   4   8    0.42    0.72
   3  -4  -8  134.36    6.39
   3  -4  -8  128.29    9.82
   3  -4  -8  130.88    6.06
   3  -4  -8  132.65    8.40
  -3   4   8  144.41    9.75
  -3   4   8  137.16    8.46
   2  -4  -8   71.76    3.75
   2  -4  -8   78.11    5.79
   2  -4  -8   74.53    4.93
  -2   4   8   74.25    4.95
   1  -4  -8    3.38    0.61
   1  -4  -8    2.47    0.68
   1  -4  -8    3.05    0.89
  -1   4   8    2.57    0.68
  -1   4   8    3.04    0.86
   0  -4  -8   87.86    4.29
   0  -4  -8   88.44    6.56
   0  -4  -8   91.46    5.40
   0   4   8   87.53    5.86
   0   4   8   85.20    5.34
   0   4   8   74.23    5.63
  -1  -4  -8   27.11    1.98
  -1  -4  -8   23.27    2.39
  -1  -4  -8   30.27    1.99
  -1  -4  -8   25.78    1.72
   1   4   8   25.85    2.20
   1   4   8   21.58    2.23
   1   4   8   29.39    1.92
   1   4   8   28.76    1.71
  -2  -4  -8    7.45    1.11
  -2  -4  -8    5.86    0.78
  -2  -4  -8    7.07    0.74
  -2  -4  -8    6.81    0.73
   2   4   8    7.69    0.73
   2   4   8    7.31    1.05
   2   4   8    5.88    1.08
  -3  -4  -8   83.37    6.19
  -3  -4  -8   80.72    6.15
  -3  -4  -8   87.55    5.05
  -3  -4  -8   81.02    4.93
   3   4   8   80.54    5.54
   3   4   8   81.72    5.18
   3   4   8   82.73    4.57
   3   4   8   86.60    5.42
  -4  -4  -8  112.16    8.04
  -4  -4  -8  108.66    8.15
  -4  -4  -8  106.63    6.36
   4   4   8  112.49    6.86
   4   4   8  107.50    5.99
   4   4   8  111.85    7.01
   4   4   8  111.08    7.18
  -5  -4  -8    4.21    0.92
  -5  -4  -8    5.08    0.97
   5   4   8    6.07    0.93
   5   4   8    4.34    0.90
   5   4   8    4.05    0.93
   5   4   8    4.70    0.92
  -6  -4  -8   51.88    3.87
  -6  -4  -8   52.26    4.37
  -6  -4  -8   54.59    4.26
   6   4   8   50.82    3.86
   6   4   8   50.99    3.74
  -7  -4  -8  141.46    9.73
  -7  -4  -8  143.62   10.94
   7   4   8  144.94    9.42
   7   4   8  145.35    9.17
  -8  -4  -8   10.85    1.53
  -8  -4  -8    9.98    1.75
   8   4   8   10.58    1.67
  -9  -4  -8   34.24    3.59
   9   4   8   32.85    3.08
 -10  -4  -8   52.65    4.97
  10   4   8   46.09    4.19
 -11  -4  -8    0.23    1.19
  11   4   8    0.52    1.17
   8  -5  -8   15.21    2.33
   8  -5  -8   16.51    1.73
  -8   5   8   13.94    2.28
   7  -5  -8   22.72    2.78
   7  -5  -8   23.31    2.03
  -7   5   8   22.52    2.90
  -7   5   8   24.60    3.66
   6  -5  -8   54.13    3.10
   6  -5  -8   57.52    3.11
   6  -5  -8   55.27    4.34
  -6   5   8   65.96    5.51
  -6   5   8   56.11    4.45
   5  -5  -8    5.91    1.21
   5  -5  -8    6.78    0.94
   5  -5  -8    5.61    0.85
  -5   5   8    7.26    1.47
   4  -5  -8   47.54    3.62
   4  -5  -8   47.35    2.59
   4  -5  -8   48.56    2.69
  -4   5   8   53.83    3.77
   3  -5  -8  149.95    8.94
   3  -5  -8  141.17    6.81
   3  -5  -8  142.35    6.44
   3  -5  -8  135.27   10.38
  -3   5   8  152.85    8.99
   2  -5  -8   12.60    1.43
   2  -5  -8   11.79    1.10
   2  -5  -8   13.08    1.54
   2  -5  -8   11.14    1.00
  -2   5   8   11.84    1.59
  -2   5   8   12.51    1.44
   1  -5  -8   68.25    3.51
   1  -5  -8   73.06    5.29
   1  -5  -8   70.37    4.48
  -1   5   8   67.28    4.45
  -1   5   8   65.42    4.83
   0  -5  -8  105.06    4.92
   0  -5  -8   87.85    7.39
   0  -5  -8  102.52    6.16
   0   5   8   81.28    6.52
   0   5   8  104.03    6.79
   0   5   8  107.81    5.23
   0   5   8  111.02    6.16
  -1  -5  -8   42.83    2.22
  -1  -5  -8   36.81    3.15
  -1  -5  -8   38.39    2.54
   1   5   8   36.64    2.91
   1   5   8   39.64    2.51
   1   5   8   31.75    2.94
   1   5   8   40.33    2.21
  -2  -5  -8    3.98    0.56
  -2  -5  -8    4.37    0.72
  -2  -5  -8    3.16    0.52
  -2  -5  -8    3.03    0.70
  -2  -5  -8    3.73    0.53
   2   5   8    3.89    0.92
   2   5   8    3.95    0.83
   2   5   8    4.60    0.62
  -3  -5  -8  159.26    7.64
  -3  -5  -8  165.32   11.50
  -3  -5  -8  158.65    9.33
  -3  -5  -8  155.03   11.63
   3   5   8  164.20    9.70
   3   5   8  166.65   10.08
   3   5   8  156.57   10.20
   3   5   8  164.67    8.50
  -4  -5  -8    9.87    1.18
  -4  -5  -8   10.17    1.20
   4   5   8   11.44    1.14
   4   5   8    8.86    1.02
   4   5   8   10.19    1.37
   4   5   8   11.80    1.38
  -5  -5  -8   17.39    1.77
  -5  -5  -8   16.76    1.68
   5   5   8   17.10    1.71
   5   5   8   15.99    1.67
   5   5   8   16.68    1.60
   5   5   8   16.93    1.46
  -6  -5  -8   98.03    7.14
  -6  -5  -8   98.88    7.66
  -6  -5  -8  101.05    7.94
   6   5   8  109.82    5.88
   6   5   8  100.67    6.91
   6   5   8  108.14    6.86
   6   5   8  107.02    6.71
  -7  -5  -8   30.42    2.63
  -7  -5  -8   31.91    3.00
  -7  -5  -8   30.03    1.56
   7   5   8   30.63    2.65
   7   5   8   27.55    2.27
   7   5   8   29.94    2.67
  -8  -5  -8   51.20    4.75
  -8  -5  -8   53.93    4.17
   8   5   8   55.12    4.10
  -9  -5  -8   76.08    6.67
   9   5   8   80.06    5.67
 -10  -5  -8   12.24    2.36
  10   5   8   13.72    2.23
 -11  -5  -8   14.66    2.68
  11   5   8   10.94    2.04
   8  -6  -8    6.36    1.65
   8  -6  -8    4.48    1.02
  -8   6   8    4.05    1.48
   7  -6  -8   51.35    4.19
   7  -6  -8   52.32    3.04
   7  -6  -8   49.24    3.02
  -7   6   8   56.56    4.42
   6  -6  -8   42.34    3.52
   6  -6  -8   40.87    2.53
   6  -6  -8   47.67    2.61
  -6   6   8   40.21    3.59
   5  -6  -8    4.21    1.13
   5  -6  -8    5.35    0.85
  -5   6   8    3.82    1.11
   4  -6  -8   44.22    2.36
   4  -6  -8   43.91    3.29
   4  -6  -8   41.17    2.46
  -4   6   8   42.59    3.33
   3  -6  -8   27.95    1.70
   3  -6  -8   27.68    2.38
   3  -6  -8   29.19    1.82
  -3   6   8   31.61    2.49
  -3   6   8   32.11    2.84
   2  -6  -8    7.48    1.03
   2  -6  -8    6.12    1.00
   2  -6  -8    7.90    0.90
   2  -6  -8    6.34    0.74
  -2   6   8   10.58    1.29
  -2   6   8    7.30    1.39
   1  -6  -8   86.62    5.94
   1  -6  -8   82.94    3.69
   1  -6  -8   79.55    5.11
   1  -6  -8   77.56    4.02
  -1   6   8   82.40    4.20
  -1   6   8   85.36    5.13
  -1   6   8   66.40    5.50
   0  -6  -8   85.66    6.16
   0  -6  -8   84.47    5.18
   0  -6  -8   88.19    3.74
   0  -6  -8   85.04    4.15
   0   6   8   67.63    5.67
   0   6   8   75.30    5.66
   0   6   8   85.69    5.15
   0   6   8   88.04    4.41
  -1  -6  -8    2.62    0.35
  -1  -6  -8    1.92    0.49
  -1  -6  -8    2.95    0.52
  -1  -6  -8    2.23    0.65
  -1  -6  -8    1.99    0.29
   1   6   8    1.88    0.42
   1   6   8    0.51    0.65
   1   6   8    1.97    0.44
   1   6   8    1.42    0.75
  -2  -6  -8  161.76    9.52
  -2  -6  -8  172.28    7.67
  -2  -6  -8  138.87   11.49
   2   6   8  167.27   10.25
   2   6   8  176.95   10.39
   2   6   8  164.52    8.52
  -3  -6  -8  144.25    8.50
  -3  -6  -8  148.00    6.95
  -3  -6  -8  158.49   10.48
  -3  -6  -8  141.69    8.54
   3   6   8  149.88    9.27
   3   6   8  144.89    9.34
   3   6   8  138.99    7.75
  -4  -6  -8    7.29    0.87
  -4  -6  -8    7.44    1.04
   4   6   8    6.95    1.12
   4   6   8    7.15    1.15
   4   6   8    5.51    0.86
  -5  -6  -8   98.36    7.25
  -5  -6  -8  100.60    4.87
   5   6   8  101.84    6.55
   5   6   8   96.75    6.56
   5   6   8   98.02    6.30
   5   6   8   94.77    5.53
  -6  -6  -8   53.07    2.52
  -6  -6  -8   53.75    4.15
  -6  -6  -8   54.74    2.94
   6   6   8   55.17    3.44
   6   6   8   58.62    3.92
   6   6   8   47.92    3.98
   6   6   8   58.25    4.09
  -7  -6  -8    6.59    1.42
  -7  -6  -8    7.27    0.90
  -7  -6  -8    8.83    1.42
  -7  -6  -8    7.98    0.76
   7   6   8    7.24    1.17
   7   6   8    9.49    1.48
   7   6   8    8.61    1.57
  -8  -6  -8   53.42    4.10
  -8  -6  -8   49.85    4.63
  -8  -6  -8   48.04    2.75
   8   6   8   53.05    3.97
   8   6   8   50.23    3.46
  -9  -6  -8   12.16    2.23
  -9  -6  -8   11.95    1.84
   9   6   8   13.19    2.00
   9   6   8   12.27    1.66
 -10  -6  -8    7.40    1.85
 -11  -6  -8   37.51    4.32
   8  -7  -8   31.98    3.22
   8  -7  -8   32.07    2.32
  -8   7   8   30.81    3.35
   7  -7  -8   28.45    2.83
   7  -7  -8   24.64    1.98
   7  -7  -8   27.34    2.01
  -7   7   8   27.63    2.92
   6  -7  -8   -0.24    0.57
   6  -7  -8    0.22    0.55
   6  -7  -8   -0.18    0.72
  -6   7   8   -0.26    0.84
   5  -7  -8   35.63    2.26
   5  -7  -8   37.66    3.07
   5  -7  -8   35.91    2.18
  -5   7   8   37.75    3.13
   4  -7  -8   57.91    3.23
   4  -7  -8   56.46    4.23
   4  -7  -8   63.13    3.10
  -4   7   8   60.87    4.31
  -4   7   8   62.97    4.77
   3  -7  -8   31.83    2.58
   3  -7  -8   31.98    1.83
   3  -7  -8   33.71    2.02
  -3   7   8   31.59    2.59
  -3   7   8   33.32    2.98
   2  -7  -8   28.99    1.59
   2  -7  -8   30.19    2.28
   2  -7  -8   26.52    1.75
  -2   7   8   29.67    2.27
  -2   7   8   24.11    2.64
   1  -7  -8   77.20    3.62
   1  -7  -8   66.17    5.02
   1  -7  -8   71.63    3.23
   1  -7  -8   68.35    4.50
  -1   7   8   73.74    4.52
  -1   7   8   60.47    4.96
  -1   7   8   70.45    3.71
   0  -7  -8   32.27    1.62
   0  -7  -8   35.23    2.54
   0  -7  -8   31.02    1.91
   0  -7  -8   32.06    2.32
   0   7   8   34.12    2.31
   0   7   8   31.69    1.92
   0   7   8   30.20    2.78
  -1  -7  -8   26.65    1.90
  -1  -7  -8   27.44    1.32
  -1  -7  -8   23.42    2.23
  -1  -7  -8   28.30    1.67
   1   7   8   27.17    1.87
   1   7   8   28.25    2.44
   1   7   8   27.76    1.71
   1   7   8   25.85    2.35
  -2  -7  -8  159.22    7.58
  -2  -7  -8  156.23    9.49
  -2  -7  -8  160.04    6.81
   2   7   8  164.61    8.53
   2   7   8  163.57   10.25
   2   7   8  169.72   10.32
  -3  -7  -8    2.47    0.52
  -3  -7  -8    2.35    0.39
  -3  -7  -8    2.43    0.58
   3   7   8    1.27    0.53
   3   7   8    2.55    0.76
   3   7   8    2.42    0.80
  -4  -7  -8  135.97    6.45
  -4  -7  -8  138.24    9.72
   4   7   8  134.09    7.35
   4   7   8  138.18    8.73
   4   7   8  131.79    8.72
  -5  -7  -8   98.92    7.33
  -5  -7  -8  102.10    4.31
  -5  -7  -8  103.01    4.89
   5   7   8   93.34    6.64
   5   7   8  102.40    6.69
   5   7   8   99.49    5.64
  -6  -7  -8    4.40    1.02
  -6  -7  -8    3.66    0.61
  -6  -7  -8    4.27    0.61
   6   7   8    2.35    0.79
   6   7   8    3.12    0.95
   6   7   8    4.30    1.07
  -7  -7  -8   50.88    4.06
  -7  -7  -8   50.17    2.70
  -7  -7  -8   50.52    2.42
   7   7   8   49.45    3.35
  -8  -7  -8   61.41    2.87
  -8  -7  -8   62.94    4.89
   8   7   8   63.14    4.08
  -9  -7  -8    0.44    0.78
  -9  -7  -8    0.34    0.89
   9   7   8    0.31    0.83
 -10  -7  -8    4.70    1.64
  10   7   8    4.77    1.29
   7  -8  -8    7.74    1.13
   7  -8  -8    5.11    1.02
   7  -8  -8    7.00    1.62
  -7   8   8    6.30    1.51
  -7   8   8    5.20    1.95
   6  -8  -8    3.93    0.84
   6  -8  -8    3.14    0.85
   6  -8  -8    2.95    1.09
  -6   8   8    3.70    1.61
  -6   8   8    0.54    0.96
   5  -8  -8   51.99    2.34
   5  -8  -8   48.11    2.66
   5  -8  -8   48.75    2.84
   5  -8  -8   44.31    3.66
  -5   8   8   45.94    3.74
  -5   8   8   45.57    4.13
   4  -8  -8   23.56    2.19
   4  -8  -8   22.58    1.35
   4  -8  -8   22.86    1.52
   4  -8  -8   21.92    1.65
  -4   8   8   21.93    2.20
  -4   8   8   20.75    2.78
   3  -8  -8   16.75    1.37
   3  -8  -8   17.44    1.21
   3  -8  -8   18.24    1.75
  -3   8   8   15.86    1.74
  -3   8   8   13.81    2.18
   2  -8  -8  114.70    4.91
   2  -8  -8  112.31    5.35
   2  -8  -8  113.43    6.84
  -2   8   8  106.35    6.78
  -2   8   8   91.53    7.31
   1  -8  -8   58.14    2.54
   1  -8  -8   52.64    2.84
   1  -8  -8   52.09    3.54
  -1   8   8   52.81    4.12
  -1   8   8   46.37    3.97
  -1   8   8   51.03    3.51
  -1   8   8   51.08    2.89
   0  -8  -8   17.17    0.97
   0  -8  -8   15.64    1.41
   0  -8  -8   16.15    1.24
   0   8   8   15.11    1.17
   0   8   8   16.60    1.43
   0   8   8   17.84    1.92
   0   8   8   18.13    1.88
  -1  -8  -8  107.31    6.52
  -1  -8  -8  109.63    4.62
  -1  -8  -8  104.27    5.20
   1   8   8  104.53    5.75
   1   8   8  113.67    7.20
   1   8   8  105.10    6.46
   1   8   8  108.06    7.10
  -2  -8  -8   24.57    1.60
  -2  -8  -8   27.11    1.83
  -2  -8  -8   26.70    1.46
   2   8   8   26.89    2.34
   2   8   8   23.89    1.74
   2   8   8   25.25    2.18
  -3  -8  -8   42.23    2.73
  -3  -8  -8   42.64    2.39
  -3  -8  -8   45.17    3.34
  -3  -8  -8   42.34    2.14
   3   8   8   44.36    3.37
   3   8   8   44.99    2.73
   3   8   8   43.00    3.22
  -4  -8  -8   57.56    2.62
  -4  -8  -8   54.77    3.31
  -4  -8  -8   52.87    2.88
  -4  -8  -8   58.98    4.21
   4   8   8   56.27    4.08
   4   8   8   54.91    3.37
   4   8   8   50.20    3.92
  -5  -8  -8    7.64    0.85
  -5  -8  -8    9.51    0.90
  -5  -8  -8    8.20    1.07
   5   8   8   10.94    1.52
   5   8   8    7.01    1.07
   5   8   8    9.78    1.51
  -6  -8  -8   28.14    1.76
  -6  -8  -8   27.29    2.71
  -6  -8  -8   30.94    1.67
   6   8   8   31.29    2.75
   6   8   8   32.75    2.33
   6   8   8   30.45    2.64
  -7  -8  -8   71.34    5.36
  -7  -8  -8   72.46    3.21
  -7  -8  -8   66.03    3.49
   7   8   8   68.69    4.34
  -8  -8  -8   23.94    2.55
  -8  -8  -8   25.39    1.48
   8   8   8   22.23    2.18
  -9  -8  -8    0.85    0.88
   9   8   8    1.68    1.00
 -10  -8  -8   52.56    5.09
 -10  -8  -8   46.96    4.45
   7  -9  -8    1.22    1.08
   7  -9  -8    2.15    0.78
   7  -9  -8    1.52    0.79
  -7   9   8    1.83    1.17
  -7   9   8    1.52    1.74
   6  -9  -8   19.16    2.41
   6  -9  -8   17.02    1.58
   6  -9  -8   15.47    1.59
  -6   9   8   13.32    1.95
  -6   9   8   12.25    2.42
   5  -9  -8   64.75    4.90
   5  -9  -8   71.38    3.17
   5  -9  -8   70.91    3.56
   5  -9  -8   71.64    3.84
  -5   9   8   59.57    5.44
  -5   9   8   71.00    4.98
   4  -9  -8   -0.16    0.33
   4  -9  -8   -0.05    0.60
   4  -9  -8   -0.36    0.49
   4  -9  -8   -0.18    0.42
  -4   9   8   -0.50    1.05
  -4   9   8    0.07    0.69
   3  -9  -8   41.58    3.12
   3  -9  -8   39.27    2.43
   3  -9  -8   43.86    2.22
   3  -9  -8   41.90    2.08
  -3   9   8   31.09    3.48
  -3   9   8   41.32    3.11
   2  -9  -8   48.20    2.77
   2  -9  -8   52.11    2.48
   2  -9  -8   45.31    3.45
   2  -9  -8   50.05    2.40
  -2   9   8   46.86    4.05
  -2   9   8   49.32    3.47
   1  -9  -8   14.63    0.95
   1  -9  -8   14.10    1.44
   1  -9  -8   13.42    1.31
   1  -9  -8   15.00    1.06
  -1   9   8   14.94    1.12
  -1   9   8   12.30    1.96
  -1   9   8   12.49    1.94
  -1   9   8   14.02    1.43
   0  -9  -8  135.73    8.48
   0  -9  -8  139.54    6.04
   0  -9  -8  134.44    6.68
   0  -9  -8  140.35    5.90
   0   9   8  141.71    8.46
   0   9   8  136.03    7.39
   0   9   8  154.46    9.31
   0   9   8  141.29    9.14
  -1  -9  -8   63.79    4.21
  -1  -9  -8   66.30    3.44
  -1  -9  -8   62.05    3.03
   1   9   8   66.21    3.76
   1   9   8   67.50    4.63
   1   9   8   72.78    4.88
  -2  -9  -8    6.04    0.75
  -2  -9  -8    7.95    0.88
  -2  -9  -8    5.49    0.77
   2   9   8    5.75    0.85
   2   9   8    4.75    1.11
   2   9   8    6.25    1.08
  -3  -9  -8  142.26    8.53
  -3  -9  -8  147.86    6.11
  -3  -9  -8  144.03    6.86
   3   9   8  150.64    7.84
   3   9   8  144.13    9.35
   3   9   8  140.62    9.25
  -4  -9  -8   48.18    2.72
  -4  -9  -8   52.76    2.52
  -4  -9  -8   50.68    3.17
   4   9   8   54.74    3.29
   4   9   8   53.93    3.95
   4   9   8   50.32    3.75
  -5  -9  -8    1.57    0.48
  -5  -9  -8    1.47    0.49
   5   9   8    0.98    0.80
   5   9   8    1.51    0.73
   5   9   8    0.52    0.70
  -6  -9  -8   23.99    2.47
  -6  -9  -8   24.05    1.50
  -6  -9  -8   25.90    1.57
   6   9   8   22.99    2.44
   6   9   8   25.86    2.38
   6   9   8   23.14    2.08
  -7  -9  -8   51.52    2.59
  -7  -9  -8   50.18    4.33
   7   9   8   51.86    4.22
   7   9   8   57.77    3.64
  -8  -9  -8   -0.93    0.35
  -8  -9  -8    0.64    0.79
   8   9   8   -0.03    0.76
  -9  -9  -8   28.91    2.99
   9   9   8   27.82    2.58
 -10  -9  -8   34.71    3.46
  10   9   8   30.03    2.85
   7 -10  -8   21.84    2.02
   7 -10  -8   15.82    2.24
   7 -10  -8   15.70    1.66
  -7  10   8   14.83    2.23
  -7  10   8   17.41    3.05
   6 -10  -8   67.34    4.97
   6 -10  -8   67.47    3.52
   6 -10  -8   68.75    3.77
  -6  10   8   65.25    4.93
  -6  10   8   53.41    5.40
   5 -10  -8    9.20    1.67
   5 -10  -8    7.69    1.02
   5 -10  -8    9.53    1.28
  -5  10   8    3.79    1.69
  -5  10   8    8.19    1.47
   4 -10  -8   44.84    2.85
   4 -10  -8   51.48    2.62
   4 -10  -8   48.81    2.41
   4 -10  -8   49.16    3.70
  -4  10   8   49.79    3.70
  -4  10   8   36.86    4.06
   3 -10  -8   88.57    3.96
   3 -10  -8   93.01    4.19
   3 -10  -8   85.82    4.58
   3 -10  -8   92.29    5.91
  -3  10   8   77.68    6.40
  -3  10   8   88.83    5.84
   2 -10  -8    4.58    0.87
   2 -10  -8    5.39    1.06
   2 -10  -8    5.83    0.72
   2 -10  -8    5.69    0.73
  -2  10   8    3.71    0.92
  -2  10   8    3.59    1.26
  -2  10   8    5.30    1.48
   1 -10  -8   43.13    3.18
   1 -10  -8   42.55    2.57
   1 -10  -8   44.90    2.26
   1 -10  -8   44.83    2.19
  -1  10   8   49.32    3.87
  -1  10   8   42.23    2.62
  -1  10   8   45.07    3.54
   0 -10  -8   72.89    4.90
   0 -10  -8   72.37    3.93
   0 -10  -8   75.09    3.48
   0  10   8   78.04    5.29
   0  10   8   73.83    4.27
   0  10   8   88.76    5.67
  -1 -10  -8    4.41    0.68
  -1 -10  -8    5.17    0.84
  -1 -10  -8    4.12    0.75
   1  10   8    4.70    0.77
   1  10   8    4.05    1.11
   1  10   8    5.09    1.01
  -2 -10  -8   49.00    3.20
  -2 -10  -8   47.30    2.66
  -2 -10  -8   48.32    2.42
   2  10   8   47.00    3.51
   2  10   8   48.32    3.74
   2  10   8   49.08    3.00
  -3 -10  -8  101.09    5.01
  -3 -10  -8   99.38    4.48
   3  10   8  101.08    6.73
   3  10   8  103.06    6.92
   3  10   8  104.46    5.75
  -4 -10  -8    9.95    1.04
  -4 -10  -8    9.79    0.93
  -4 -10  -8    9.94    1.03
   4  10   8   10.46    1.29
   4  10   8   13.17    1.82
   4  10   8   12.24    1.60
  -5 -10  -8   16.79    1.23
  -5 -10  -8   15.53    1.23
   5  10   8   16.90    1.82
   5  10   8   16.58    2.04
   5  10   8   16.18    2.08
  -6 -10  -8  113.45    8.35
  -6 -10  -8  115.73    5.06
  -6 -10  -8  115.35    5.57
   6  10   8  121.17    6.71
   6  10   8  111.56    7.86
  -7 -10  -8   30.00    2.96
  -7 -10  -8   26.40    1.71
   7  10   8   29.69    2.46
   7  10   8   29.12    2.91
  -8 -10  -8   11.36    1.11
  -8 -10  -8   10.36    1.85
   8  10   8   12.06    1.70
  -9 -10  -8   41.95    3.83
   9  10   8   36.97    3.15
   6 -11  -8    7.79    1.27
   6 -11  -8    8.21    1.72
   6 -11  -8    8.13    1.11
  -6  11   8    8.92    1.76
  -6  11   8    6.10    2.07
   5 -11  -8   24.39    1.97
   5 -11  -8   26.34    1.77
   5 -11  -8   25.21    2.54
  -5  11   8   21.69    3.16
  -5  11   8   18.19    2.36
   4 -11  -8   84.88    4.56
   4 -11  -8   84.61    3.84
   4 -11  -8   80.12    5.75
   4 -11  -8   82.79    4.08
  -4  11   8   85.61    5.77
   3 -11  -8   12.82    1.40
   3 -11  -8   14.33    1.80
   3 -11  -8   12.00    1.11
   3 -11  -8   11.59    1.11
  -3  11   8   14.26    2.30
  -3  11   8    9.44    1.87
   2 -11  -8   12.12    1.11
   2 -11  -8   10.97    1.46
   2 -11  -8   12.56    1.38
   2 -11  -8   11.08    1.12
  -2  11   8   14.24    2.24
  -2  11   8   10.30    1.77
   1 -11  -8   91.75    6.14
   1 -11  -8   94.38    4.89
   1 -11  -8   88.93    4.26
  -1  11   8   94.28    5.26
  -1  11   8  101.67    6.55
  -1  11   8  104.12    6.90
   0 -11  -8   77.11    4.22
   0 -11  -8   77.37    3.73
   0 -11  -8   82.07    5.30
   0  11   8   87.83    5.98
   0  11   8   82.67    4.63
   0  11   8   83.27    5.56
  -1 -11  -8    0.94    0.53
  -1 -11  -8    0.43    0.44
  -1 -11  -8   -0.01    0.37
   1  11   8    0.30    0.82
   1  11   8    0.86    0.63
   1  11   8    0.82    0.55
  -2 -11  -8   54.79    2.87
  -2 -11  -8   48.53    2.54
  -2 -11  -8   49.36    3.38
   2  11   8   51.10    3.19
   2  11   8   50.64    4.00
   2  11   8   48.64    3.63
  -3 -11  -8   66.80    3.53
  -3 -11  -8   70.24    3.23
  -3 -11  -8   65.99    4.21
   3  11   8   63.46    4.61
   3  11   8   63.94    4.03
   3  11   8   70.91    4.99
  -4 -11  -8    0.95    0.48
  -4 -11  -8    0.08    0.31
  -4 -11  -8    0.90    0.49
   4  11   8    1.58    0.73
   4  11   8    1.02    0.89
   4  11   8    0.36    0.65
  -5 -11  -8   63.38    3.40
  -5 -11  -8   63.48    5.20
  -5 -11  -8   65.57    3.17
   5  11   8   62.78    4.68
   5  11   8   67.29    4.96
   5  11   8   69.37    4.18
  -6 -11  -8   39.59    3.72
  -6 -11  -8   41.86    2.24
   6  11   8   42.30    3.63
   6  11   8   40.18    3.04
  -7 -11  -8   11.28    2.03
  -7 -11  -8   11.95    1.20
   7  11   8    9.74    1.58
   7  11   8   11.49    1.98
  -8 -11  -8   87.29    6.87
  -8 -11  -8   88.15    4.09
   8  11   8   89.03    5.58
  -9 -11  -8   27.37    3.04
   9  11   8   23.24    2.64
   5 -12  -8   25.73    1.84
   5 -12  -8   24.55    2.66
   5 -12  -8   26.75    2.21
  -5  12   8   26.33    3.43
   4 -12  -8   38.52    2.66
   4 -12  -8   38.94    3.28
   4 -12  -8   39.07    2.29
   4 -12  -8   36.94    2.14
  -4  12   8   36.75    3.82
   3 -12  -8    0.38    0.71
   3 -12  -8    1.09    0.80
   3 -12  -8   -0.12    0.49
  -3  12   8   -0.28    1.23
   2 -12  -8   30.29    1.86
   2 -12  -8   30.15    2.66
   2 -12  -8   30.11    2.17
  -2  12   8   37.02    3.40
   1 -12  -8   48.83    2.54
   1 -12  -8   45.30    3.53
   1 -12  -8   44.93    2.86
  -1  12   8   48.47    3.01
  -1  12   8   49.92    3.64
  -1  12   8   55.14    4.24
   0 -12  -8    4.55    0.83
   0 -12  -8    5.52    1.06
   0 -12  -8    4.95    0.92
   0  12   8    4.82    1.34
   0  12   8    5.75    0.96
   0  12   8    5.80    1.08
  -1 -12  -8   59.47    3.35
  -1 -12  -8   60.90    3.01
  -1 -12  -8   60.45    4.10
   1  12   8   63.52    3.73
   1  12   8   56.75    4.21
   1  12   8   62.42    4.73
  -2 -12  -8   93.86    4.15
  -2 -12  -8   90.11    4.58
   2  12   8   90.68    6.36
   2  12   8   88.73    5.17
   2  12   8   83.63    5.92
  -3 -12  -8    4.45    0.79
  -3 -12  -8    6.06    0.92
  -3 -12  -8    5.93    0.89
   3  12   8    5.52    1.03
   3  12   8    6.55    1.44
   3  12   8    5.88    1.12
  -4 -12  -8   45.76    3.08
  -4 -12  -8   42.98    2.43
  -4 -12  -8   46.50    2.64
   4  12   8   42.55    3.43
   4  12   8   47.60    3.85
   4  12   8   46.35    3.14
  -5 -12  -8   47.30    2.61
  -5 -12  -8   49.28    4.31
  -5 -12  -8   50.32    2.79
   5  12   8   52.01    3.44
   5  12   8   48.04    4.10
  -6 -12  -8    4.92    1.45
  -6 -12  -8    4.19    0.81
   6  12   8    4.99    1.43
   6  12   8    4.72    1.18
  -7 -12  -8   30.21    1.98
  -7 -12  -8   32.25    3.42
   7  12   8   33.92    2.83
   7  12   8   35.56    3.36
  -8 -12  -8   26.51    3.07
   8  12   8   29.13    2.62
   4 -13  -8   18.73    1.89
   4 -13  -8   17.80    2.22
   4 -13  -8   19.29    1.59
  -4  13   8   22.34    2.88
   3 -13  -8    1.97    0.93
   3 -13  -8    0.79    0.77
   3 -13  -8    0.03    0.54
  -3  13   8    2.65    1.42
   2 -13  -8   36.83    3.22
   2 -13  -8   45.10    2.36
   2 -13  -8   38.80    2.69
  -2  13   8   43.84    3.91
   1 -13  -8   41.05    2.66
   1 -13  -8   41.42    3.24
   1 -13  -8   39.83    2.31
  -1  13   8   42.99    3.80
   0 -13  -8    9.87    1.41
   0 -13  -8   11.00    1.19
   0 -13  -8   13.50    1.40
   0  13   8   11.52    1.39
   0  13   8   11.98    1.98
  -1 -13  -8   48.27    2.98
  -1 -13  -8   48.63    2.68
   1  13   8   52.21    3.33
   1  13   8   53.92    4.26
  -2 -13  -8    4.38    0.89
  -2 -13  -8    4.33    0.80
  -2 -13  -8    5.45    0.96
   2  13   8    5.32    1.39
   2  13   8    6.86    1.17
  -3 -13  -8   37.62    2.10
  -3 -13  -8   31.37    2.47
  -3 -13  -8   31.59    2.17
   3  13   8   32.85    3.20
   3  13   8   34.72    2.60
  -4 -13  -8   81.01    3.92
  -4 -13  -8   78.44    6.40
  -4 -13  -8   84.22    5.26
  -4 -13  -8   80.96    4.26
   4  13   8   80.60    6.03
   4  13   8   84.16    5.05
  -5 -13  -8    6.80    1.63
  -5 -13  -8    8.83    1.09
   5  13   8   12.13    2.00
   5  13   8    9.64    1.48
  -6 -13  -8   19.54    2.69
  -6 -13  -8   17.04    1.53
   6  13   8   21.27    2.71
   6  13   8   17.43    2.02
  -7 -13  -8   38.10    3.91
   7  13   8   43.18    3.87
   7  13   8   39.97    3.20
   3 -14  -8   43.28    3.47
   3 -14  -8   37.98    2.79
   3 -14  -8   39.42    2.32
  -3  14   8   37.81    3.85
   2 -14  -8   45.26    3.77
   2 -14  -8   45.14    3.11
   2 -14  -8   51.30    2.73
  -2  14   8   55.14    4.47
   1 -14  -8    1.18    0.80
   1 -14  -8    1.72    0.88
   1 -14  -8    3.34    0.79
  -1  14   8    3.86    1.48
   0 -14  -8   59.96    3.51
   0 -14  -8   53.65    3.02
   0 -14  -8   60.78    4.26
   0  14   8   57.83    3.77
   0  14   8   60.50    4.86
  -1 -14  -8   51.00    3.07
  -1 -14  -8   50.70    2.75
   1  14   8   50.15    4.30
   1  14   8   49.98    3.40
  -2 -14  -8    3.14    0.79
  -2 -14  -8    3.39    0.89
  -2 -14  -8    3.45    0.86
   2  14   8    4.47    1.52
   2  14   8    2.61    0.95
  -3 -14  -8   34.57    2.14
  -3 -14  -8   31.80    2.25
  -3 -14  -8   34.25    2.62
   3  14   8   38.39    3.43
   3  14   8   30.72    2.60
  -4 -14  -8    8.22    1.23
  -4 -14  -8    8.08    1.12
  -4 -14  -8   10.87    2.07
  -4 -14  -8    9.02    1.11
   4  14   8    7.05    1.37
  -5 -14  -8    1.37    0.73
  -5 -14  -8    1.06    1.10
   5  14   8    0.82    0.91
   5  14   8    2.06    1.14
  -6 -14  -8   24.75    2.95
   6  14   8   18.75    2.24
   6  14   8   27.43    3.18
   2 -15  -8    0.44    0.73
   2 -15  -8   -0.14    0.59
   2 -15  -8    0.61    0.77
  -2  15   8    0.87    1.24
   1 -15  -8   35.35    3.12
   1 -15  -8   37.73    2.34
   1 -15  -8   35.71    2.62
  -1  15   8   38.70    3.71
   0 -15  -8   45.02    3.07
   0 -15  -8   48.05    2.70
   0  15   8   47.38    3.33
   0  15   8   49.40    4.26
  -1 -15  -8   -0.17    0.60
  -1 -15  -8    0.07    0.68
  -1 -15  -8   -0.11    0.57
   1  15   8    0.01    0.78
   1  15   8    1.31    1.16
  -2 -15  -8   17.26    1.73
  -2 -15  -8   18.34    1.63
  -2 -15  -8   16.13    1.80
   2  15   8   18.44    1.99
   2  15   8   17.51    2.45
  -3 -15  -8   32.76    2.77
  -3 -15  -8   35.07    2.42
  -3 -15  -8   36.99    2.26
  -3 -15  -8   36.60    3.69
   3  15   8   35.55    2.86
   3  15   8   34.41    3.55
  -4 -15  -8   16.75    2.68
  -4 -15  -8   12.76    1.67
   4  15   8   19.47    2.19
   4  15   8   14.43    2.25
   2   9  -9   26.45    3.24
  -2  -9   9   23.00    3.14
   1   9  -9   18.61    2.81
   1   9  -9   34.35    4.17
  -1  -9   9   22.74    2.94
   0   9  -9   -1.83    1.37
   0   9  -9    0.57    1.03
   0  -9   9   -0.73    1.12
  -1   9  -9   42.04    4.14
  -1   9  -9   51.47    5.24
  -1   9  -9   57.66    5.37
   1  -9   9   43.79    4.22
  -2   9  -9   32.64    3.52
  -2   9  -9   41.50    4.54
  -2   9  -9   39.69    4.57
   2  -9   9   39.92    3.70
  -3   9  -9   -1.01    0.77
  -3   9  -9   -0.98    1.28
  -3   9  -9    0.68    1.62
   3  -9   9    0.72    1.28
  -4   9  -9   25.74    3.06
  -4   9  -9   23.66    3.81
  -4   9  -9   22.45    3.51
   4  -9   9   29.97    3.10
  -5   9  -9   15.67    3.00
  -5   9  -9   23.62    2.84
  -5   9  -9   22.42    3.62
   5  -9   9   24.89    3.19
   3   8  -9    8.42    1.74
   3   8  -9    7.07    2.51
  -3  -8   9   13.24    2.37
  -3  -8   9    4.00    1.73
   2   8  -9   50.54    5.50
   2   8  -9   52.23    4.29
  -2  -8   9   42.93    4.23
  -2  -8   9   40.69    4.23
   1   8  -9    4.91    1.99
   1   8  -9    6.27    1.65
  -1  -8   9    3.07    1.46
   0   8  -9   25.46    3.65
   0   8  -9   21.86    2.82
   0   8  -9   26.17    3.26
   0  -8   9   14.46    2.37
  -1   8  -9   47.39    4.60
  -1   8  -9   43.22    4.44
  -1   8  -9   31.62    3.45
   1  -8   9   35.76    3.61
  -2   8  -9    0.30    0.81
  -2   8  -9    0.21    1.37
  -2   8  -9    1.75    1.49
   2  -8   9    0.73    1.17
  -3   8  -9   23.35    3.48
  -3   8  -9   29.61    2.91
  -3   8  -9   27.37    3.94
   3  -8   9   29.29    2.94
   3  -8   9   29.29    2.97
  -4   8  -9   55.46    5.59
  -4   8  -9   47.40    5.09
  -4   8  -9   48.17    4.13
   4  -8   9   57.09    4.49
  -5   8  -9    4.11    1.22
  -5   8  -9    3.09    1.91
  -5   8  -9    1.01    1.41
   5  -8   9    5.61    1.76
  -6   8  -9    8.04    2.14
  -6   8  -9   15.01    2.04
  -6   8  -9    9.38    2.56
   6  -8   9   15.83    2.62
   4   7  -9    4.41    2.27
   4   7  -9    6.07    1.50
  -4  -7   9    3.76    1.79
  -4  -7   9    6.42    1.70
   3   7  -9   63.42    6.74
   3   7  -9   72.90    5.33
  -3  -7   9   65.60    5.35
   2   7  -9   26.48    3.07
   2   7  -9   28.29    3.90
  -2  -7   9   20.27    2.73
  -2  -7   9   19.38    2.87
   1   7  -9    4.33    1.88
   1   7  -9    9.22    1.78
  -1  -7   9    5.56    1.54
  -1  -7   9    3.15    1.38
   0   7  -9   55.21    4.85
   0   7  -9   41.16    3.91
   0   7  -9   52.39    4.98
   0  -7   9   38.20    3.86
  -1   7  -9   18.98    2.70
  -1   7  -9   24.22    3.37
  -1   7  -9   26.61    3.21
   1  -7   9   22.72    2.77
  -2   7  -9    5.30    1.76
  -2   7  -9    3.23    1.19
  -2   7  -9    5.37    1.82
   2  -7   9    4.89    1.47
  -3   7  -9   26.15    3.42
  -3   7  -9   23.83    2.57
  -3   7  -9   21.72    3.21
   3  -7   9   28.49    2.74
   3  -7   9   24.97    2.67
  -4   7  -9    5.45    1.81
  -4   7  -9    9.32    2.38
  -4   7  -9   10.80    1.72
   4  -7   9   11.50    2.00
  -5   7  -9    5.97    1.81
  -5   7  -9    6.51    1.39
  -5   7  -9    5.91    1.97
   5  -7   9    5.11    1.68
  -6   7  -9   26.17    3.57
  -6   7  -9   36.06    2.99
  -6   7  -9   32.45    4.26
   6  -7   9   34.52    3.65
  -7   7  -9   19.97    2.30
  -7   7  -9   13.78    2.59
  -7   7  -9    8.73    2.59
   7  -7   9   19.07    2.92
   5   6  -9    1.96    1.07
   5   6  -9   -1.67    1.55
  -5  -6   9   -0.63    1.39
  -5  -6   9    1.75    1.37
   4   6  -9   18.78    3.66
   4   6  -9   20.70    2.64
  -4  -6   9   16.64    2.88
  -4  -6   9   20.07    2.73
   3   6  -9   14.73    3.05
   3   6  -9   15.44    2.11
  -3  -6   9   15.00    2.21
  -3  -6   9    9.65    2.16
   2   6  -9    0.22    0.85
   2   6  -9    0.18    1.45
  -2  -6   9   -0.63    1.11
  -2  -6   9    0.12    1.14
   1   6  -9   29.52    2.91
   1   6  -9   33.16    3.82
  -1  -6   9   22.84    2.89
  -1  -6   9   29.90    2.99
   0   6  -9   26.35    2.74
   0   6  -9   31.71    3.52
   0   6  -9   30.14    3.23
   0  -6   9   21.84    2.66
   0  -6   9   22.47    2.63
  -1   6  -9    0.64    1.18
  -1   6  -9    1.56    0.94
  -1   6  -9    0.57    1.10
   1  -6   9    0.86    1.02
  -2   6  -9   17.79    2.31
  -2   6  -9   16.76    2.73
  -2   6  -9   21.46    2.85
   2  -6   9   23.43    2.38
  -3   6  -9   75.16    6.52
  -3   6  -9   72.47    5.15
  -3   6  -9   66.13    6.24
   3  -6   9   72.25    5.23
   3  -6   9   72.28    5.10
  -4   6  -9    5.44    1.71
  -4   6  -9    5.36    1.86
  -4   6  -9    9.24    1.56
   4  -6   9    7.86    1.65
  -5   6  -9   11.99    2.35
  -5   6  -9   23.20    2.10
  -5   6  -9   14.28    2.85
   5  -6   9   18.04    2.58
  -6   6  -9   29.85    4.26
  -6   6  -9   43.99    3.23
  -6   6  -9   35.18    4.01
   6  -6   9   43.83    4.04
  -7   6  -9    1.34    0.86
  -7   6  -9    0.60    1.49
  -7   6  -9    2.31    1.36
   7  -6   9   -0.16    1.42
  -8   6  -9   18.10    2.87
  -8   6  -9   20.43    2.15
  -8   6  -9   14.53    3.24
   8  -6   9   17.96    3.24
   6   5  -9    6.33    1.69
   6   5  -9    2.15    2.21
  -6  -5   9    5.72    1.67
  -6  -5   9    2.12    1.79
   5   5  -9   15.43    2.32
   5   5  -9    6.07    2.41
  -5  -5   9    8.62    2.23
  -5  -5   9   11.03    2.03
   4   5  -9   23.57    3.76
  -4  -5   9   20.00    2.93
   3   5  -9   15.47    2.98
   3   5  -9   20.21    2.48
  -3  -5   9   10.49    2.19
  -3  -5   9   15.49    2.30
   2   5  -9    7.72    2.21
   2   5  -9    6.35    1.39
  -2  -5   9    5.33    1.46
  -2  -5   9    2.82    1.38
   1   5  -9   33.56    3.61
   1   5  -9   29.64    2.72
  -1  -5   9   27.24    2.81
  -1  -5   9   20.15    2.65
   0   5  -9   11.22    1.99
   0   5  -9   11.37    2.16
   0   5  -9    7.12    1.48
   0  -5   9   12.14    1.52
   0  -5   9    7.69    1.56
   0  -5   9    8.07    1.62
  -1   5  -9   11.09    1.99
  -1   5  -9    8.84    1.62
  -1   5  -9   11.30    2.11
   1  -5   9    6.39    1.30
   1  -5   9    5.73    1.38
  -2   5  -9   91.56    7.27
  -2   5  -9   93.36    7.21
  -2   5  -9   75.63    5.83
   2  -5   9   82.94    5.85
  -3   5  -9   13.28    1.80
  -3   5  -9   11.04    2.13
  -3   5  -9   13.63    2.40
   3  -5   9   12.79    1.79
   3  -5   9   19.52    2.26
  -4   5  -9    9.43    2.07
  -4   5  -9   12.94    2.54
  -4   5  -9   17.74    1.78
   4  -5   9   17.10    2.21
  -5   5  -9   69.39    6.39
  -5   5  -9   84.88    5.24
  -5   5  -9   60.09    6.58
   5  -5   9   90.11    5.88
  -6   5  -9   35.45    2.73
  -6   5  -9   28.57    3.82
  -6   5  -9   34.76    3.60
   6  -5   9   25.54    3.35
  -7   5  -9    4.47    1.81
  -7   5  -9    6.31    1.22
  -7   5  -9    5.74    1.68
   7  -5   9    3.01    1.77
  -8   5  -9   33.91    2.80
  -8   5  -9   40.74    3.91
  -8   5  -9   30.49    4.44
   8  -5   9   23.65    3.74
  -9   5  -9   11.41    1.62
  -9   5  -9    6.43    2.42
  -9   5  -9   12.21    2.39
   9  -5   9   11.51    2.75
   6   4  -9    3.75    2.25
   6   4  -9    9.48    2.00
  -6  -4   9    9.96    1.90
  -6  -4   9    7.03    2.12
   5   4  -9   19.36    2.49
   5   4  -9   12.72    3.04
  -5  -4   9   22.57    2.76
  -5  -4   9   10.80    2.34
   4   4  -9   28.92    2.84
   4   4  -9   25.16    4.07
  -4  -4   9   21.11    3.22
  -4  -4   9   28.87    2.93
   3   4  -9    1.26    0.92
   3   4  -9   -0.25    1.45
  -3  -4   9    0.02    1.24
  -3  -4   9    1.84    1.05
   2   4  -9  101.93    7.87
   2   4  -9   93.00    6.15
  -2  -4   9   72.08    6.60
  -2  -4   9   91.11    6.18
   1   4  -9   86.41    6.82
   1   4  -9   79.88    5.43
  -1  -4   9   64.39    5.74
  -1  -4   9   78.74    5.45
   0   4  -9    1.24    0.95
   0   4  -9    0.75    1.10
   0   4  -9    0.51    0.79
   0  -4   9    1.88    0.79
   0  -4   9    0.87    0.89
   0  -4   9    0.46    0.86
  -1   4  -9  113.22    7.96
  -1   4  -9   80.46    6.41
  -1   4  -9  107.34    7.97
   1  -4   9   98.11    6.86
   1  -4   9  107.89    6.52
   1  -4   9   78.49    6.37
  -2   4  -9   64.33    4.83
  -2   4  -9   78.35    6.06
  -2   4  -9   67.10    5.88
   2  -4   9   61.72    4.75
   2  -4   9   78.67    4.97
   2  -4   9   62.24    4.78
  -3   4  -9    0.43    0.59
  -3   4  -9    0.30    1.00
  -3   4  -9    0.62    0.98
   3  -4   9    0.05    0.78
   3  -4   9    0.37    0.73
   3  -4   9   -0.08    0.72
  -4   4  -9   89.55    5.65
  -4   4  -9   66.17    6.73
  -4   4  -9   69.13    6.98
   4  -4   9   99.05    6.11
   4  -4   9   97.92    5.78
  -5   4  -9   35.07    2.64
  -5   4  -9   26.11    3.49
  -5   4  -9   28.93    3.29
   5  -4   9   36.79    2.70
   5  -4   9   28.15    3.05
  -6   4  -9    5.03    1.62
  -6   4  -9    6.07    1.09
  -6   4  -9    6.77    1.61
   6  -4   9    1.70    1.32
  -7   4  -9   48.12    3.40
  -7   4  -9   48.30    4.45
  -7   4  -9   45.14    4.81
   7  -4   9   39.89    4.16
  -8   4  -9   42.25    3.22
  -8   4  -9   44.98    4.29
  -8   4  -9   43.94    4.80
   8  -4   9   38.45    4.23
  -9   4  -9    1.62    1.21
  -9   4  -9   -0.07    1.56
  -9   4  -9    0.54    0.65
   9  -4   9   -0.09    1.55
   7   3  -9    1.64    1.35
   7   3  -9    1.13    1.00
  -7  -3   9    3.13    1.48
  -7  -3   9    0.95    1.84
   6   3  -9    7.13    2.34
   6   3  -9   13.99    2.24
  -6  -3   9   22.27    2.84
  -6  -3   9    8.24    2.22
   5   3  -9   25.84    4.09
  -5  -3   9   28.13    3.56
  -5  -3   9   43.47    3.57
   4   3  -9   14.83    2.06
   4   3  -9    8.19    2.46
  -4  -3   9    6.49    1.92
  -4  -3   9   13.20    2.02
   3   3  -9   59.37    4.07
   3   3  -9   43.79    4.98
  -3  -3   9   53.99    4.04
  -3  -3   9   40.07    4.21
   2   3  -9  107.28    7.02
   2   3  -9  114.14    8.78
  -2  -3   9   92.84    7.65
  -2  -3   9  108.62    7.05
   1   3  -9    7.52    1.36
   1   3  -9    7.01    1.84
  -1  -3   9    6.67    1.51
  -1  -3   9    7.90    1.42
   0   3  -9   87.91    6.40
   0   3  -9  104.74    7.75
   0   3  -9  106.72    7.96
   0  -3   9   90.72    6.41
   0  -3   9   93.19    6.94
   0  -3   9  101.93    6.45
  -1   3  -9  186.98   13.72
  -1   3  -9  192.04   13.83
   1  -3   9  195.41   11.67
   1  -3   9  160.21   11.24
   1  -3   9  186.18   12.32
  -2   3  -9    9.19    1.48
  -2   3  -9   12.38    2.06
  -2   3  -9   12.60    1.96
   2  -3   9   12.67    1.40
   2  -3   9   10.71    1.52
   2  -3   9    9.96    1.51
  -3   3  -9   74.30    5.17
  -3   3  -9   61.48    6.25
   3  -3   9   82.54    5.35
   3  -3   9   76.60    5.16
   3  -3   9   91.34    5.47
  -4   3  -9   66.68    6.17
  -4   3  -9   63.13    6.30
  -4   3  -9   82.88    5.13
   4  -3   9   78.43    5.18
   4  -3   9   84.41    5.52
   4  -3   9   80.61    5.26
  -5   3  -9    3.49    1.36
  -5   3  -9    4.47    0.94
  -5   3  -9    4.27    1.25
   5  -3   9    4.94    1.07
   5  -3   9    3.64    1.35
  -6   3  -9   22.53    2.66
  -6   3  -9   21.36    3.11
  -6   3  -9   21.93    1.95
   6  -3   9   23.35    2.15
   6  -3   9   23.07    3.00
  -7   3  -9   48.45    4.37
  -7   3  -9   47.46    3.35
  -7   3  -9   45.98    4.69
   7  -3   9   43.80    4.19
  -8   3  -9   -0.04    0.86
  -8   3  -9    0.57    0.56
  -8   3  -9   -0.78    1.06
   8  -3   9   -1.88    1.06
  -9   3  -9   24.98    3.71
  -9   3  -9   25.02    3.09
  -9   3  -9   23.11    2.13
   9  -3   9   26.18    3.55
 -10   3  -9   42.11    4.31
 -10   3  -9   37.02    4.74
 -10   3  -9   42.38    3.18
  10  -3   9   44.59    4.49
   7   2  -9    9.54    1.99
   7   2  -9    3.74    1.25
  -7  -2   9   12.21    2.66
  -7  -2   9   10.85    2.21
   6   2  -9   63.27    6.80
   6   2  -9   83.72    5.88
  -6  -2   9   59.03    6.05
  -6  -2   9   90.33    5.96
   5   2  -9   31.75    4.49
   5   2  -9   37.26    3.39
  -5  -2   9   26.81    3.44
  -5  -2   9   37.46    3.42
   4   2  -9    7.02    1.44
   4   2  -9    3.43    1.75
  -4  -2   9    3.81    1.49
  -4  -2   9    9.23    1.70
   3   2  -9  125.65    7.57
   3   2  -9   93.14    9.05
   3   2  -9  120.74    5.49
  -3  -2   9   95.65    8.12
  -3  -2   9  124.21    7.55
   2   2  -9   56.04    5.36
   2   2  -9   61.01    4.28
  -2  -2   9   50.06    4.58
  -2  -2   9   62.65    4.31
   1   2  -9   20.06    2.06
   1   2  -9   25.54    2.90
  -1  -2   9   18.78    2.23
  -1  -2   9   22.83    2.18
   0   2  -9   55.24    4.30
   0   2  -9   50.73    4.49
   0   2  -9   48.14    3.63
   0  -2   9   46.17    3.87
   0  -2   9   48.13    3.57
   0  -2   9   48.48    3.65
  -1   2  -9   24.26    2.45
  -1   2  -9   23.67    2.60
  -1   2  -9   20.21    2.04
   1  -2   9   25.12    2.14
   1  -2   9   25.67    2.22
   1  -2   9   20.04    2.07
  -2   2  -9   31.71    2.88
  -2   2  -9   26.97    2.92
  -2   2  -9   23.97    2.28
   2  -2   9   26.50    2.39
   2  -2   9   29.71    2.41
  -3   2  -9   51.73    5.21
  -3   2  -9   70.16    4.42
  -3   2  -9   50.34    5.17
   3  -2   9   69.35    4.57
   3  -2   9   77.64    4.66
   3  -2   9   64.59    4.32
  -4   2  -9   28.69    2.19
  -4   2  -9   25.58    2.75
  -4   2  -9   21.69    2.68
   4  -2   9   26.43    2.27
   4  -2   9   23.58    2.20
   4  -2   9   23.92    2.45
  -5   2  -9   13.96    1.40
  -5   2  -9   12.38    2.07
  -5   2  -9   13.16    1.94
   5  -2   9    8.56    1.78
   5  -2   9   13.57    1.69
  -6   2  -9   86.47    5.62
  -6   2  -9   91.00    7.09
  -6   2  -9   90.62    7.37
   6  -2   9   81.62    6.30
   6  -2   9   92.32    6.09
  -7   2  -9   50.09    3.38
  -7   2  -9   45.57    4.36
  -7   2  -9   48.81    4.69
   7  -2   9   50.54    4.28
  -8   2  -9    0.40    0.53
  -8   2  -9   -0.64    1.04
  -8   2  -9   -0.15    0.86
   8  -2   9   -1.55    1.04
  -9   2  -9   62.53    5.49
  -9   2  -9   59.30    4.13
  -9   2  -9   62.05    5.85
   9  -2   9   63.51    5.33
 -10   2  -9   16.65    2.65
 -10   2  -9   14.35    1.63
 -10   2  -9   17.58    3.13
  10  -2   9   20.64    3.20
   7   1  -9   19.14    2.82
   7   1  -9   20.33    2.24
  -7  -1   9   23.53    3.07
  -7  -1   9   18.78    3.13
   6   1  -9   41.72    4.77
   6   1  -9   41.00    4.00
  -6  -1   9   48.79    4.19
  -6  -1   9   44.97    4.46
   5   1  -9   -1.83    1.06
   5   1  -9    0.38    0.90
  -5  -1   9    0.43    1.08
  -5  -1   9   -0.57    1.19
   4   1  -9   62.79    4.50
   4   1  -9   49.45    5.29
  -4  -1   9   48.71    4.67
  -4  -1   9   61.66    4.48
   3   1  -9   81.45    4.11
   3   1  -9   93.67    5.83
   3   1  -9   65.37    6.82
  -3  -1   9   90.35    5.78
  -3  -1   9   75.08    6.18
   2   1  -9    0.84    1.19
   2   1  -9    2.66    0.93
  -2  -1   9    1.02    1.03
  -2  -1   9    1.92    0.95
   1   1  -9   63.76    4.55
   1   1  -9   68.90    5.72
  -1  -1   9   67.15    4.58
  -1  -1   9   62.23    4.97
   0   1  -9   48.25    4.00
   0   1  -9   45.57    3.47
   0   1  -9   49.79    4.36
   0  -1   9   52.25    3.55
   0  -1   9   45.72    3.75
   0  -1   9   46.31    3.46
  -1   1  -9    4.06    1.17
  -1   1  -9    3.36    0.86
  -1   1  -9    4.38    0.99
   1  -1   9    3.43    0.95
   1  -1   9    3.28    0.58
   1  -1   9    2.70    0.81
   1  -1   9    3.99    0.95
  -2   1  -9   33.37    3.20
  -2   1  -9   31.68    2.66
  -2   1  -9   31.28    3.29
   2  -1   9   33.37    2.82
   2  -1   9   39.45    2.74
   2  -1   9   43.63    2.85
  -3   1  -9   23.37    1.99
  -3   1  -9   20.26    2.44
  -3   1  -9   21.30    2.38
   3  -1   9   25.28    2.21
   3  -1   9   26.09    2.21
   3  -1   9   21.93    1.96
  -4   1  -9    0.78    0.50
  -4   1  -9    0.61    0.73
  -4   1  -9    1.14    0.71
   4  -1   9    0.76    0.66
   4  -1   9   -0.62    0.71
  -5   1  -9   32.45    2.40
  -5   1  -9   30.03    3.06
  -5   1  -9   33.09    3.19
   5  -1   9   28.03    2.82
   5  -1   9   34.69    2.72
  -6   1  -9   67.13    5.38
  -6   1  -9   66.83    5.58
  -6   1  -9   60.67    4.19
   6  -1   9   60.67    4.85
   6  -1   9   68.71    4.69
  -7   1  -9    0.85    0.49
  -7   1  -9    1.13    0.83
  -7   1  -9    0.20    0.94
   7  -1   9   -0.27    1.02
  -8   1  -9   48.19    3.45
  -8   1  -9   52.02    4.64
  -8   1  -9   52.38    4.93
   8  -1   9   58.65    4.57
  -9   1  -9   55.19    5.27
  -9   1  -9   50.47    3.60
  -9   1  -9   53.91    4.89
   9  -1   9   58.69    4.84
 -10   1  -9    1.39    0.64
 -10   1  -9    2.32    1.60
 -10   1  -9    1.07    1.06
  10  -1   9    0.86    1.46
   8   0  -9   10.69    1.66
  -8   0   9    9.80    2.39
   7   0  -9   45.91    3.04
   7   0  -9   38.99    4.08
  -7   0   9   42.75    4.48
  -7   0   9   46.47    4.40
   6   0  -9    9.22    1.46
   6   0  -9   12.00    2.22
  -6   0   9    8.21    1.91
  -6   0   9   11.89    2.44
   5   0  -9    5.52    1.51
   5   0  -9    5.61    1.87
  -5   0   9    5.82    1.72
  -5   0   9    5.19    1.48
   4   0  -9   38.90    3.32
   4   0  -9   32.04    2.08
   4   0  -9   35.97    3.91
  -4   0   9   36.09    3.53
  -4   0   9   35.65    3.29
   3   0  -9    3.38    1.04
   3   0  -9    4.30    0.76
   3   0  -9    3.70    1.47
  -3   0   9    5.42    1.28
  -3   0   9    3.60    1.21
   2   0  -9   35.03    2.83
   2   0  -9   25.96    3.32
  -2   0   9   31.89    2.99
  -2   0   9   33.61    2.83
   1   0  -9   59.23    5.13
   1   0  -9   58.47    4.14
  -1   0   9   57.50    4.14
  -1   0   9   56.89    4.51
   0   0  -9    7.70    1.22
   0   0  -9    9.21    1.70
   0   0  -9    8.03    1.21
   0   0   9    7.75    1.36
   0   0   9    8.97    1.26
  -1   0  -9   21.66    2.00
  -1   0  -9   23.56    2.27
  -1   0  -9   20.37    2.49
   1   0   9   26.67    2.34
   1   0   9   24.47    2.06
   1   0   9   26.20    2.22
   1   0   9   24.56    1.82
  -2   0  -9  153.00    8.42
  -2   0  -9  116.28   10.05
   2   0   9  127.57    8.81
   2   0   9  158.82    8.55
   2   0   9  128.42    8.23
  -3   0  -9   36.19    3.29
  -3   0  -9   37.46    3.17
  -3   0  -9   30.02    2.52
   3   0   9   32.61    2.23
   3   0   9   40.47    2.62
   3   0   9   30.77    2.70
   3   0   9   40.81    2.93
  -4   0  -9    5.21    1.13
  -4   0  -9    6.06    1.27
  -4   0  -9    4.46    0.83
   4   0   9    6.08    1.14
   4   0   9    4.80    1.09
  -5   0  -9   91.76    5.79
  -5   0  -9   92.50    7.18
  -5   0  -9   94.93    7.32
   5   0   9   96.17    6.31
   5   0   9   88.12    6.26
  -6   0  -9   32.21    3.09
  -6   0  -9   33.77    2.36
  -6   0  -9   32.48    3.21
   6   0   9   32.24    2.75
   6   0   9   31.67    2.96
  -7   0  -9   19.11    2.36
  -7   0  -9   15.67    2.03
  -7   0  -9   16.59    1.47
   7   0   9   19.84    2.06
   7   0   9   22.03    2.60
  -8   0  -9   39.16    3.83
  -8   0  -9   42.63    4.06
  -8   0  -9   40.89    2.81
   8   0   9   42.75    3.76
  -9   0  -9    3.47    1.48
  -9   0  -9    4.57    1.37
  -9   0  -9    4.20    0.77
   9   0   9    4.22    1.54
 -10   0  -9   28.34    3.30
 -10   0  -9   27.98    3.53
  10   0   9   33.74    3.55
   8  -1  -9   22.50    2.27
   8  -1  -9   24.24    3.23
  -8   1   9   15.72    2.92
  -8   1   9   31.54    3.80
   7  -1  -9    4.53    1.11
   7  -1  -9    3.93    1.54
  -7   1   9    0.99    1.46
  -7   1   9    3.57    1.87
   6  -1  -9    2.63    1.25
   6  -1  -9    3.07    0.97
  -6   1   9    3.99    1.74
  -6   1   9    1.30    1.23
   5  -1  -9   49.19    4.57
   5  -1  -9   40.72    3.82
  -5   1   9   43.82    3.94
  -5   1   9   46.06    4.24
   4  -1  -9   38.89    2.26
   4  -1  -9   33.60    3.30
   4  -1  -9   39.19    3.98
  -4   1   9   42.99    3.51
  -4   1   9   38.21    3.67
   3  -1  -9    1.44    0.86
   3  -1  -9    0.84    1.07
   3  -1  -9    1.43    0.56
  -3   1   9    1.43    1.07
  -3   1   9    1.80    0.94
   2  -1  -9   57.11    3.27
   2  -1  -9   54.32    5.30
   2  -1  -9   63.24    4.50
  -2   1   9   69.85    4.96
  -2   1   9   64.57    4.50
   1  -1  -9   71.11    6.01
   1  -1  -9   73.30    4.98
  -1   1   9   71.92    4.96
  -1   1   9   73.07    5.46
   0  -1  -9    0.14    0.71
   0  -1  -9    0.02    0.49
   0   1   9    0.95    0.64
   0   1   9    0.42    0.80
   0   1   9    1.25    0.57
  -1  -1  -9   91.71    7.81
  -1  -1  -9  110.06    6.56
  -1  -1  -9  101.19    7.66
   1   1   9  102.42    6.49
   1   1   9  101.48    6.89
   1   1   9  102.81    6.43
   1   1   9  114.10    6.58
  -2  -1  -9   80.90    6.37
  -2  -1  -9   68.27    6.40
   2   1   9  101.12    5.47
   2   1   9   85.43    5.30
   2   1   9   82.32    5.76
  -3  -1  -9   17.13    1.79
  -3  -1  -9   15.48    1.91
  -3  -1  -9   16.50    1.48
   3   1   9   20.71    1.56
   3   1   9   17.69    1.81
   3   1   9   13.70    1.57
   3   1   9   15.44    1.33
  -4  -1  -9  173.94   12.49
  -4  -1  -9  176.34   12.36
   4   1   9  180.48   10.87
   4   1   9  170.41   10.50
   4   1   9  149.29   10.22
  -5  -1  -9   74.07    5.96
  -5  -1  -9   71.87    4.76
  -5  -1  -9   78.38    6.07
   5   1   9   76.53    5.24
   5   1   9   81.45    5.35
  -6  -1  -9    6.79    0.86
  -6  -1  -9    5.03    1.14
  -6  -1  -9    6.28    1.29
   6   1   9    5.80    1.21
   6   1   9    8.14    1.52
  -7  -1  -9  117.99    9.09
  -7  -1  -9  114.96    9.33
  -7  -1  -9  121.78    7.21
   7   1   9  124.13    8.05
   7   1   9  120.92    8.03
  -8  -1  -9   30.85    2.13
  -8  -1  -9   29.40    3.06
  -8  -1  -9   29.53    3.24
   8   1   9   31.14    3.02
  -9  -1  -9    1.89    1.27
  -9  -1  -9    2.22    1.08
   9   1   9    1.45    1.28
 -10  -1  -9   17.56    2.95
 -10  -1  -9   23.60    2.81
  10   1   9   21.82    2.94
 -11  -1  -9   14.07    2.83
 -11  -1  -9   14.06    2.39
  11   1   9   10.89    2.39
   8  -2  -9    9.38    2.04
   8  -2  -9   10.93    1.59
  -8   2   9    7.60    2.15
  -8   2   9    8.33    2.25
   7  -2  -9   -0.18    1.07
   7  -2  -9    0.10    0.65
  -7   2   9    0.25    1.53
  -7   2   9   -0.49    1.14
   6  -2  -9   24.41    2.90
   6  -2  -9   26.34    2.16
  -6   2   9   24.92    3.20
  -6   2   9   15.76    2.53
   5  -2  -9   42.86    3.67
   5  -2  -9   40.89    2.59
   5  -2  -9   39.87    4.00
   5  -2  -9   46.10    2.41
  -5   2   9   39.86    3.91
  -5   2   9   31.07    3.52
   4  -2  -9   -0.49    0.79
   4  -2  -9   -0.26    0.40
   4  -2  -9   -0.82    0.66
  -4   2   9   -0.40    0.89
  -4   2   9    0.18    1.11
   3  -2  -9   96.06    7.46
   3  -2  -9   93.62    4.63
   3  -2  -9   83.26    6.20
  -3   2   9  104.29    7.05
  -3   2   9   82.84    6.21
   2  -2  -9   96.19    6.47
   2  -2  -9   96.99    7.75
   2  -2  -9   95.67    4.87
  -2   2   9   99.66    6.49
   1  -2  -9    9.70    1.76
   1  -2  -9    8.82    1.38
   1  -2  -9    8.34    1.04
  -1   2   9    9.69    1.62
  -1   2   9    7.67    1.35
   0  -2  -9   90.00    6.70
   0  -2  -9   79.30    5.49
   0   2   9   87.12    5.49
   0   2   9   80.87    5.49
   0   2   9   83.15    5.18
  -1  -2  -9  152.56    8.96
  -1  -2  -9  139.50   10.72
  -1  -2  -9  151.99   10.54
   1   2   9  122.78    8.75
   1   2   9  151.09    9.49
   1   2   9  146.77    9.08
   1   2   9  159.73    8.98
  -2  -2  -9    9.15    1.14
  -2  -2  -9    5.97    1.25
  -2  -2  -9    8.82    1.05
   2   2   9    6.36    0.98
   2   2   9    5.04    1.15
   2   2   9   10.52    1.19
   2   2   9    7.82    1.01
  -3  -2  -9   96.95    7.50
  -3  -2  -9  103.10    7.44
  -3  -2  -9  109.10    6.15
   3   2   9  104.33    6.10
   3   2   9   93.52    6.25
   3   2   9   89.35    6.21
   3   2   9   96.86    6.65
  -4  -2  -9   58.16    4.66
  -4  -2  -9   57.47    3.74
  -4  -2  -9   59.19    4.73
   4   2   9   57.12    3.88
   4   2   9   59.62    4.05
   4   2   9   61.34    4.27
  -5  -2  -9    0.35    0.55
  -5  -2  -9    0.55    0.59
  -5  -2  -9    0.41    0.33
   5   2   9    0.09    0.60
   5   2   9    0.20    0.63
  -6  -2  -9   91.28    6.13
  -6  -2  -9  106.98    7.81
  -6  -2  -9  104.88    7.98
   6   2   9  106.36    6.95
   6   2   9  108.35    6.84
  -7  -2  -9  105.08    8.27
  -7  -2  -9  103.34    6.27
  -7  -2  -9  104.77    8.04
   7   2   9  111.07    7.14
   7   2   9  102.30    7.12
  -8  -2  -9    0.12    0.86
  -8  -2  -9   -0.51    0.62
   8   2   9    0.30    0.96
  -9  -2  -9   24.67    2.89
  -9  -2  -9   29.42    3.24
   9   2   9   26.91    2.93
 -10  -2  -9   90.01    7.71
 -10  -2  -9   91.24    7.36
  10   2   9   84.89    6.67
 -11  -2  -9    6.69    1.70
 -11  -2  -9    7.31    2.07
  11   2   9    5.73    1.93
   8  -3  -9   14.99    2.51
   8  -3  -9   18.01    1.99
  -8   3   9   13.87    2.65
  -8   3   9   20.05    3.15
   7  -3  -9    5.10    1.60
   7  -3  -9    3.08    0.93
  -7   3   9    3.38    1.83
  -7   3   9    1.15    1.29
   6  -3  -9   57.35    3.26
   6  -3  -9   50.23    4.46
  -6   3   9   62.31    5.18
  -6   3   9   51.52    4.60
   5  -3  -9   36.41    3.39
   5  -3  -9   39.16    2.31
   5  -3  -9   42.10    2.48
  -5   3   9   38.40    3.87
  -5   3   9   35.06    3.48
   4  -3  -9    8.17    1.63
   4  -3  -9   11.02    1.23
   4  -3  -9   10.30    1.06
   4  -3  -9   10.20    1.71
  -4   3   9    4.86    1.32
  -4   3   9    7.73    1.79
   3  -3  -9  105.98    8.07
   3  -3  -9   95.28    6.82
   3  -3  -9  105.71    5.14
  -3   3   9  122.63    7.89
  -3   3   9   89.28    6.79
   2  -3  -9   13.17    1.74
   2  -3  -9   13.00    1.26
   2  -3  -9   12.37    1.97
  -2   3   9   16.02    2.25
  -2   3   9   12.65    1.72
   1  -3  -9   47.17    2.78
   1  -3  -9   46.68    3.58
   1  -3  -9   47.22    4.33
  -1   3   9   54.82    3.64
  -1   3   9   51.86    3.66
   0  -3  -9  128.78    8.27
   0  -3  -9  119.98    6.45
   0  -3  -9  155.86   10.09
   0   3   9  144.48    8.74
   0   3   9  153.57    8.53
   0   3   9  113.21    7.90
   0   3   9  128.54    8.25
  -1  -3  -9   35.69    2.44
  -1  -3  -9   28.67    2.38
  -1  -3  -9   32.35    2.93
   1   3   9   30.43    2.39
   1   3   9   30.76    2.13
   1   3   9   33.42    2.76
   1   3   9   28.03    2.48
  -2  -3  -9   72.63    4.50
  -2  -3  -9   76.71    5.23
   2   3   9   57.68    4.84
   2   3   9   59.03    4.57
   2   3   9   74.56    4.41
   2   3   9   71.32    4.40
  -3  -3  -9  157.44   11.62
  -3  -3  -9  156.10    9.53
  -3  -3  -9  166.56   11.65
   3   3   9  158.83    9.73
   3   3   9  156.58    9.92
   3   3   9  165.80   10.34
  -4  -3  -9   37.96    3.15
  -4  -3  -9   39.21    3.27
  -4  -3  -9   38.30    2.52
   4   3   9   37.54    2.99
   4   3   9   35.89    2.73
   4   3   9   37.54    2.77
  -5  -3  -9   13.37    1.02
  -5  -3  -9   11.77    1.45
  -5  -3  -9   12.28    1.51
   5   3   9    9.91    1.49
   5   3   9   11.90    1.35
   5   3   9   14.09    1.63
  -6  -3  -9   58.02    4.94
  -6  -3  -9   63.54    5.10
  -6  -3  -9   63.43    3.75
   6   3   9   62.71    4.52
   6   3   9   61.80    4.44
  -7  -3  -9   23.26    2.57
  -7  -3  -9   29.09    2.80
   7   3   9   28.66    2.57
   7   3   9   25.18    2.46
  -8  -3  -9    4.51    1.30
  -8  -3  -9    4.77    1.20
   8   3   9    5.09    1.37
  -9  -3  -9   42.55    4.11
  -9  -3  -9   47.12    4.42
   9   3   9   44.04    3.88
 -10  -3  -9   13.89    2.33
 -10  -3  -9   15.89    2.62
  10   3   9    9.56    2.04
 -11  -3  -9    2.88    1.48
 -11  -3  -9    3.91    1.47
  11   3   9    4.33    1.60
   8  -4  -9   -0.41    0.97
   8  -4  -9    0.99    0.80
  -8   4   9   -0.95    1.24
  -8   4   9    0.62    1.83
   7  -4  -9   46.75    4.18
   7  -4  -9   49.16    3.01
  -7   4   9   45.89    4.36
  -7   4   9   47.79    4.88
   6  -4  -9   73.41    4.08
   6  -4  -9   78.82    5.76
  -6   4   9   76.30    5.85
  -6   4   9   82.51    6.61
   5  -4  -9    0.93    0.65
   5  -4  -9    1.18    0.57
   5  -4  -9    0.97    0.86
  -5   4   9    1.83    1.56
  -5   4   9    0.85    1.06
   4  -4  -9   89.17    4.51
   4  -4  -9   85.58    6.98
   4  -4  -9   85.02    4.37
   4  -4  -9   88.81    6.12
  -4   4   9  108.09    7.25
  -4   4   9   83.24    6.13
   3  -4  -9   81.34    4.18
   3  -4  -9   78.77    5.55
   3  -4  -9   80.35    4.00
   3  -4  -9   81.07    6.44
  -3   4   9   96.73    6.63
  -3   4   9   75.34    5.56
   2  -4  -9    1.38    0.70
   2  -4  -9    1.42    0.55
   2  -4  -9    0.58    0.79
  -2   4   9    0.45    0.68
   1  -4  -9   34.72    3.75
   1  -4  -9   43.82    3.23
   1  -4  -9   43.91    2.53
  -1   4   9   46.38    3.26
  -1   4   9   52.62    3.42
   0  -4  -9   70.39    3.99
   0  -4  -9   83.70    6.17
   0  -4  -9   74.94    5.04
   0   4   9   79.03    5.03
   0   4   9   78.73    5.43
   0   4   9   80.19    5.32
  -1  -4  -9    5.18    1.07
  -1  -4  -9    3.49    0.71
  -1  -4  -9    5.27    0.86
   1   4   9    4.38    1.00
   1   4   9    5.18    0.52
   1   4   9    3.57    1.01
   1   4   9    5.14    0.78
  -2  -4  -9  106.75    7.39
  -2  -4  -9  103.71    6.23
   2   4   9   87.48    6.54
   2   4   9  106.97    6.12
   2   4   9   92.15    6.80
   2   4   9  107.60    6.20
  -3  -4  -9   59.83    4.53
  -3  -4  -9   57.09    3.72
  -3  -4  -9   59.28    4.70
   3   4   9   61.16    4.12
   3   4   9   62.99    4.35
   3   4   9   58.77    3.87
  -4  -4  -9    0.70    0.45
  -4  -4  -9    1.43    0.61
  -4  -4  -9    1.53    0.33
   4   4   9    0.98    0.59
   4   4   9    1.16    0.56
   4   4   9    0.43    0.63
  -5  -4  -9   70.47    5.71
  -5  -4  -9   74.25    5.66
   5   4   9   75.86    4.94
   5   4   9   73.73    5.14
   5   4   9   73.35    4.97
  -6  -4  -9  107.53    8.31
  -6  -4  -9  105.35    8.10
   6   4   9  110.36    7.30
   6   4   9  110.74    7.08
  -7  -4  -9    5.66    1.08
  -7  -4  -9    7.61    1.37
  -7  -4  -9    7.33    1.43
   7   4   9    5.47    1.29
   7   4   9    7.10    1.40
  -8  -4  -9   31.94    3.19
  -8  -4  -9   32.78    3.33
   8   4   9   33.74    3.07
  -9  -4  -9   28.37    3.09
  -9  -4  -9   30.73    3.34
   9   4   9   31.68    3.03
 -10  -4  -9    3.24    1.42
 -10  -4  -9    3.67    1.27
  10   4   9    3.02    1.38
 -11  -4  -9   41.72    4.52
 -11  -4  -9   39.61    4.06
  11   4   9   36.82    3.88
   8  -5  -9   22.83    3.03
   8  -5  -9   23.05    2.22
  -8   5   9   15.27    2.58
   7  -5  -9   36.46    2.48
   7  -5  -9   34.12    3.46
  -7   5   9   37.73    3.69
   6  -5  -9    1.40    1.07
   6  -5  -9    0.66    0.63
   6  -5  -9    0.13    0.58
  -6   5   9    1.20    1.18
   5  -5  -9   42.79    2.62
   5  -5  -9   45.14    2.62
   5  -5  -9   47.12    3.72
  -5   5   9   45.24    3.80
   4  -5  -9   66.34    3.62
   4  -5  -9   68.87    3.51
   4  -5  -9   66.09    4.88
  -4   5   9   73.66    5.03
   3  -5  -9    1.29    0.53
   3  -5  -9    1.05    0.70
   3  -5  -9    1.27    0.75
   3  -5  -9    0.93    0.52
  -3   5   9    1.86    0.88
   2  -5  -9   54.63    2.75
   2  -5  -9   52.82    4.38
   2  -5  -9   51.41    3.79
   2  -5  -9   52.90    2.94
  -2   5   9   53.86    3.84
  -2   5   9   57.28    4.06
   1  -5  -9  148.62    8.86
   1  -5  -9  135.25   10.50
   1  -5  -9  142.90    6.90
  -1   5   9  142.96    8.81
  -1   5   9  150.40    9.31
   0  -5  -9   57.87    3.19
   0  -5  -9   58.04    3.92
   0  -5  -9   58.54    4.79
   0   5   9   53.53    4.25
   0   5   9   65.13    4.47
   0   5   9   62.88    3.93
  -1  -5  -9   14.98    1.70
  -1  -5  -9   13.80    1.31
  -1  -5  -9   14.99    1.28
   1   5   9   15.09    1.25
   1   5   9   10.90    1.77
   1   5   9   11.03    1.60
  -2  -5  -9  163.44    9.44
  -2  -5  -9  166.29   11.42
  -2  -5  -9  154.73    7.65
   2   5   9  155.13   10.32
   2   5   9  165.09    9.50
   2   5   9  149.33   10.07
  -3  -5  -9   43.09    2.66
  -3  -5  -9   41.94    3.48
  -3  -5  -9   40.84    2.48
  -3  -5  -9   42.04    3.30
   3   5   9   41.50    3.16
   3   5   9   42.12    2.58
   3   5   9   43.86    3.29
   3   5   9   42.24    2.86
  -4  -5  -9   25.62    2.14
  -4  -5  -9   23.34    2.01
  -4  -5  -9   20.81    1.37
   4   5   9   20.40    1.65
   4   5   9   20.09    1.98
   4   5   9   19.63    1.99
   4   5   9   21.64    1.80
  -5  -5  -9   85.05    6.51
  -5  -5  -9   85.89    6.65
   5   5   9   87.55    4.96
   5   5   9   89.76    5.84
   5   5   9   81.08    5.88
   5   5   9   90.06    5.69
  -6  -5  -9   11.12    1.51
  -6  -5  -9   11.34    1.62
   6   5   9   14.51    1.85
   6   5   9   12.39    1.63
   6   5   9   11.23    1.56
   6   5   9   11.46    1.37
  -7  -5  -9   67.63    5.34
  -7  -5  -9   67.00    4.92
  -7  -5  -9   65.93    5.50
   7   5   9   64.64    4.85
   7   5   9   64.72    4.75
  -8  -5  -9   97.69    7.70
  -8  -5  -9   93.36    7.39
  -8  -5  -9   92.44    7.01
   8   5   9   95.44    6.58
  -9  -5  -9    7.82    1.76
   9   5   9    4.94    1.46
 -10  -5  -9   31.12    3.58
  10   5   9   29.58    3.23
 -11  -5  -9   39.86    4.41
  11   5   9   42.21    3.96
   7  -6  -9   14.82    2.34
   7  -6  -9   11.93    1.50
  -7   6   9   10.68    2.00
   6  -6  -9    3.48    0.86
   6  -6  -9    4.93    0.95
   6  -6  -9    2.44    1.04
  -6   6   9    3.66    1.34
   5  -6  -9   90.61    4.33
   5  -6  -9   81.64    5.94
   5  -6  -9   86.65    4.46
  -5   6   9   83.89    6.04
   4  -6  -9    6.30    0.93
   4  -6  -9    7.87    1.04
   4  -6  -9    9.30    1.56
  -4   6   9    7.24    1.48
   3  -6  -9    4.84    0.74
   3  -6  -9    3.57    0.98
   3  -6  -9    3.11    0.69
  -3   6   9    5.34    1.14
  -3   6   9    5.58    1.34
   2  -6  -9   74.95    5.25
   2  -6  -9   78.91    3.80
   2  -6  -9   81.13    6.04
   2  -6  -9   77.15    4.09
  -2   6   9   86.23    5.34
  -2   6   9   82.63    5.68
   1  -6  -9   58.13    4.38
   1  -6  -9   55.61    2.71
   1  -6  -9   55.38    3.78
   1  -6  -9   55.74    3.02
  -1   6   9   56.37    3.78
  -1   6   9   50.21    4.13
   0  -6  -9   12.60    1.23
   0  -6  -9   11.68    1.62
   0  -6  -9   14.91    0.92
   0  -6  -9   14.23    1.16
   0   6   9    8.49    1.51
   0   6   9   12.16    1.89
   0   6   9   13.48    1.27
   0   6   9   11.35    0.88
  -1  -6  -9  156.09    9.51
  -1  -6  -9  177.17   11.60
  -1  -6  -9  167.89    7.66
   1   6   9  136.59   10.14
   1   6   9  161.90    8.33
   1   6   9  160.75    9.48
  -2  -6  -9   99.21    7.08
  -2  -6  -9  101.80    4.93
  -2  -6  -9   97.27    5.89
   2   6   9   95.02    6.51
   2   6   9   97.02    6.64
   2   6   9   97.43    5.29
  -3  -6  -9   17.31    1.49
  -3  -6  -9   14.44    1.07
  -3  -6  -9   13.41    1.35
  -3  -6  -9   14.99    1.55
   3   6   9   15.82    1.73
   3   6   9   15.02    1.64
   3   6   9   13.55    1.22
  -4  -6  -9   96.62    6.89
  -4  -6  -9   92.59    4.71
  -4  -6  -9   88.78    6.93
   4   6   9   93.78    6.21
   4   6   9   90.93    6.23
   4   6   9   89.76    5.15
   4   6   9   94.58    5.88
  -5  -6  -9   92.50    4.62
  -5  -6  -9   86.55    6.68
  -5  -6  -9   87.89    6.86
   5   6   9   94.85    5.86
   5   6   9   85.95    5.10
   5   6   9   91.91    6.09
   5   6   9   87.57    6.09
  -6  -6  -9   16.56    1.82
  -6  -6  -9   17.00    1.92
  -6  -6  -9   15.93    1.38
   6   6   9   16.65    1.61
   6   6   9   20.41    1.98
   6   6   9   16.58    1.78
   6   6   9   16.35    1.88
  -7  -6  -9   84.17    6.95
  -7  -6  -9   85.48    6.29
  -7  -6  -9   85.62    3.81
  -7  -6  -9   87.58    6.71
   7   6   9   84.04    5.18
   7   6   9   89.12    6.14
   7   6   9   92.52    6.01
  -8  -6  -9   16.66    1.14
  -8  -6  -9   16.64    1.93
  -8  -6  -9   15.64    2.35
   8   6   9   13.89    1.85
   8   6   9   19.47    2.32
  -9  -6  -9    9.26    1.93
   9   6   9    8.68    1.70
 -10  -6  -9   67.46    6.22
  10   6   9   69.40    5.43
   7  -7  -9    0.27    0.66
   7  -7  -9    0.21    1.00
  -7   7   9    0.28    1.21
   6  -7  -9   32.51    2.33
   6  -7  -9   35.95    2.32
   6  -7  -9   37.96    3.31
  -6   7   9   35.17    3.38
   5  -7  -9   58.04    4.37
   5  -7  -9   53.96    3.10
   5  -7  -9   53.88    3.24
  -5   7   9   64.84    4.87
  -5   7   9   58.90    4.48
   4  -7  -9    7.99    1.34
   4  -7  -9    6.02    0.88
   4  -7  -9    7.23    1.00
  -4   7   9    8.73    1.71
  -4   7   9    7.21    1.38
   3  -7  -9   34.78    2.25
   3  -7  -9   34.92    2.92
   3  -7  -9   37.01    2.09
  -3   7   9   40.20    3.39
  -3   7   9   39.77    3.02
   2  -7  -9  103.18    6.25
   2  -7  -9   95.98    4.84
   2  -7  -9   95.53    4.45
  -2   7   9   90.78    6.64
  -2   7   9   96.03    6.20
   1  -7  -9    9.53    1.03
   1  -7  -9    9.87    0.86
   1  -7  -9    8.59    1.12
  -1   7   9    7.73    1.08
  -1   7   9    8.95    1.51
  -1   7   9    5.27    1.39
   0  -7  -9   66.78    3.01
   0  -7  -9   68.35    3.45
   0  -7  -9   68.35    4.89
   0  -7  -9   66.26    4.21
   0   7   9   67.18    3.52
   0   7   9   50.31    4.63
   0   7   9   55.39    4.75
   0   7   9   69.65    4.21
  -1  -7  -9   80.89    3.96
  -1  -7  -9   80.09    5.77
  -1  -7  -9   75.94    4.76
  -1  -7  -9   80.39    3.42
   1   7   9   64.14    5.34
   1   7   9   79.28    4.17
   1   7   9   69.44    5.34
  -2  -7  -9   13.75    1.13
  -2  -7  -9   12.98    0.72
  -2  -7  -9    8.69    1.28
  -2  -7  -9   13.65    1.08
   2   7   9   14.67    1.81
   2   7   9   12.39    1.08
   2   7   9   14.19    1.75
  -3  -7  -9  154.41    9.06
  -3  -7  -9  153.39    7.39
  -3  -7  -9  151.96   11.08
   3   7   9  157.85   10.00
   3   7   9  152.22    8.24
   3   7   9  162.07    9.96
  -4  -7  -9   75.80    3.93
  -4  -7  -9   77.37    5.72
   4   7   9   73.92    5.26
   4   7   9   78.30    5.34
   4   7   9   74.63    4.38
  -5  -7  -9    3.75    0.70
  -5  -7  -9    2.48    0.71
   5   7   9    2.34    0.89
   5   7   9    2.03    0.72
   5   7   9    3.40    1.01
  -6  -7  -9   94.08    7.80
  -6  -7  -9  100.72    7.54
  -6  -7  -9   98.73    5.02
  -6  -7  -9  104.09    4.41
   6   7   9  104.86    6.92
   6   7   9  100.04    6.89
   6   7   9  106.16    5.85
  -7  -7  -9   78.89    6.37
  -7  -7  -9   74.04    5.77
  -7  -7  -9   78.01    4.01
  -7  -7  -9   81.26    3.52
  -7  -7  -9   77.55    6.06
   7   7   9   73.53    4.73
   7   7   9   79.82    5.62
  -8  -7  -9    2.10    0.60
  -8  -7  -9    3.03    1.04
  -8  -7  -9    1.66    0.99
  -8  -7  -9    3.04    0.57
   8   7   9    0.71    0.85
  -9  -7  -9   18.63    2.56
  -9  -7  -9   20.74    2.66
   9   7   9   21.31    2.37
 -10  -7  -9   28.33    3.47
   7  -8  -9    1.90    0.84
   7  -8  -9    0.85    0.70
   7  -8  -9    0.28    1.03
  -7   8   9    1.21    1.69
  -7   8   9    0.70    1.15
   6  -8  -9   23.51    1.91
   6  -8  -9   20.91    2.55
   6  -8  -9   21.38    1.90
  -6   8   9   20.83    2.68
  -6   8   9   23.41    3.01
   5  -8  -9   23.94    2.47
   5  -8  -9   24.60    1.77
   5  -8  -9   20.29    1.80
   5  -8  -9   23.29    1.45
  -5   8   9   29.24    3.32
  -5   8   9   23.63    2.59
   4  -8  -9   22.14    1.59
   4  -8  -9   23.35    2.27
   4  -8  -9   22.50    1.73
  -4   8   9   21.03    2.74
  -4   8   9   22.43    2.33
   3  -8  -9   65.71    3.17
   3  -8  -9   63.07    3.43
   3  -8  -9   59.01    4.36
  -3   8   9   56.08    4.86
  -3   8   9   67.85    4.47
   2  -8  -9   27.71    1.85
   2  -8  -9   29.54    2.34
   2  -8  -9   30.07    1.64
  -2   8   9   20.06    2.71
  -2   8   9   28.50    2.36
   1  -8  -9   39.23    1.93
   1  -8  -9   36.52    2.22
   1  -8  -9   37.70    2.72
  -1   8   9   28.38    3.16
  -1   8   9   35.06    3.21
  -1   8   9   39.07    2.72
   0  -8  -9  157.83    7.26
   0  -8  -9  157.24    9.16
   0  -8  -9  160.15    6.57
   0   8   9  156.38    7.90
   0   8   9  123.64    9.85
   0   8   9  161.38    9.28
   0   8   9  137.14    9.86
  -1  -8  -9    5.46    0.50
  -1  -8  -9    4.08    0.69
  -1  -8  -9    5.53    0.80
   1   8   9    5.69    1.35
   1   8   9    3.81    0.66
   1   8   9    5.81    1.27
  -2  -8  -9   28.06    1.80
  -2  -8  -9   26.86    1.97
   2   8   9   29.46    2.63
   2   8   9   27.13    1.88
   2   8   9   31.98    2.55
  -3  -8  -9   64.49    4.98
  -3  -8  -9   67.14    4.06
  -3  -8  -9   66.14    3.49
   3   8   9   66.87    3.88
   3   8   9   68.11    4.73
   3   8   9   67.19    4.81
  -4  -8  -9    2.93    0.68
  -4  -8  -9    4.04    0.68
  -4  -8  -9    2.19    0.51
   4   8   9    2.43    0.99
   4   8   9    3.87    0.97
   4   8   9    2.72    0.75
  -5  -8  -9   15.48    1.61
  -5  -8  -9   14.68    1.10
  -5  -8  -9   17.00    1.25
   5   8   9   17.64    2.07
   5   8   9   14.90    1.58
   5   8   9   13.89    1.84
  -6  -8  -9   51.04    2.83
  -6  -8  -9   51.38    2.56
  -6  -8  -9   52.51    4.21
  -6  -8  -9   52.34    4.21
   6   8   9   54.16    4.15
   6   8   9   55.44    3.47
   6   8   9   50.48    4.00
  -7  -8  -9    8.38    0.92
  -7  -8  -9    8.34    1.53
  -7  -8  -9   10.53    1.56
  -7  -8  -9    9.12    0.98
   7   8   9    9.43    1.38
   7   8   9   10.22    1.72
   7   8   9    7.77    1.61
  -8  -8  -9    8.41    1.78
  -8  -8  -9   10.10    0.99
  -8  -8  -9    9.04    1.64
   8   8   9    8.85    1.47
  -9  -8  -9   32.47    3.20
  -9  -8  -9   31.63    3.62
   9   8   9   35.65    2.87
 -10  -8  -9   28.07    3.50
  10   8   9   27.71    2.91
   7  -9  -9   23.90    2.05
   7  -9  -9   22.96    2.15
   7  -9  -9   23.44    2.92
  -7   9   9   27.01    3.58
  -7   9   9   21.84    2.83
   6  -9  -9   38.08    2.70
   6  -9  -9   38.90    2.55
   6  -9  -9   41.22    3.63
  -6   9   9   42.41    3.67
  -6   9   9   47.06    4.41
   5  -9  -9   -0.17    0.75
   5  -9  -9   -0.20    0.61
   5  -9  -9    0.66    0.58
  -5   9   9    0.72    1.47
  -5   9   9    0.86    0.88
   4  -9  -9   39.11    3.25
   4  -9  -9   39.55    2.10
   4  -9  -9   38.89    2.28
   4  -9  -9   43.04    2.58
  -4   9   9   40.30    3.30
  -4   9   9   37.52    3.80
   3  -9  -9   18.47    1.92
   3  -9  -9   18.00    1.25
   3  -9  -9   18.64    1.54
   3  -9  -9   20.24    1.34
  -3   9   9   17.00    2.57
  -3   9   9   17.68    1.94
   2  -9  -9    7.51    0.82
   2  -9  -9    6.23    0.81
   2  -9  -9    6.04    1.09
   2  -9  -9    7.24    0.95
  -2   9   9    8.52    1.29
  -2   9   9    3.58    1.51
  -2   9   9    7.33    1.53
   1  -9  -9   84.58    3.68
   1  -9  -9   87.66    3.75
   1  -9  -9   78.99    5.25
   1  -9  -9   86.23    4.23
  -1   9   9   73.64    5.83
  -1   9   9   70.54    5.86
   0  -9  -9   35.17    1.75
   0  -9  -9   34.74    1.89
   0  -9  -9   33.72    2.13
   0  -9  -9   35.86    2.58
   0   9   9   34.05    3.08
   0   9   9   38.87    3.32
   0   9   9   33.66    2.13
  -1  -9  -9   10.56    1.16
  -1  -9  -9   14.14    1.16
  -1  -9  -9   11.75    1.16
   1   9   9   10.69    1.75
   1   9   9   11.43    1.07
   1   9   9   11.55    1.70
  -2  -9  -9   64.18    3.42
  -2  -9  -9   65.07    4.10
  -2  -9  -9   60.10    3.01
   2   9   9   65.56    4.63
   2   9   9   63.99    3.74
   2   9   9   70.98    4.88
  -3  -9  -9   72.08    3.88
  -3  -9  -9   75.30    4.63
  -3  -9  -9   80.05    3.50
   3   9   9   81.09    5.47
   3   9   9   74.01    4.36
   3   9   9   73.80    5.24
  -4  -9  -9    8.33    0.71
  -4  -9  -9    7.36    0.92
  -4  -9  -9    8.82    0.93
   4   9   9    8.02    1.43
   4   9   9    7.88    1.33
   4   9   9    7.50    1.08
  -5  -9  -9   25.63    1.55
  -5  -9  -9   24.36    1.67
   5   9   9   26.33    2.55
   5   9   9   24.75    2.34
   5   9   9   26.17    2.10
  -6  -9  -9   52.48    4.32
  -6  -9  -9   53.35    2.88
  -6  -9  -9   50.50    2.61
   6   9   9   56.06    4.26
   6   9   9   51.87    3.53
   6   9   9   54.64    4.12
  -7  -9  -9    0.60    0.43
  -7  -9  -9   -0.32    0.69
  -7  -9  -9    0.76    0.51
   7   9   9    0.53    0.80
   7   9   9    1.13    0.99
  -8  -9  -9   24.15    1.61
  -8  -9  -9   26.05    2.77
   8   9   9   26.64    2.41
  -9  -9  -9   16.65    2.41
   9   9   9   20.36    2.35
   6 -10  -9    0.41    0.73
   6 -10  -9    0.04    0.89
   6 -10  -9    0.50    0.66
  -6  10   9    1.26    1.65
  -6  10   9   -0.63    0.84
   5 -10  -9   54.59    3.21
   5 -10  -9   65.25    4.72
   5 -10  -9   58.45    3.57
  -5  10   9   66.45    5.44
  -5  10   9   63.76    4.71
   4 -10  -9   76.92    5.29
   4 -10  -9   73.51    4.08
   4 -10  -9   73.70    3.45
   4 -10  -9   77.42    3.73
  -4  10   9   78.38    5.29
  -4  10   9   61.47    5.74
   3 -10  -9    0.82    0.69
   3 -10  -9    1.40    0.51
   3 -10  -9    0.82    0.48
   3 -10  -9    0.42    0.60
  -3  10   9   -0.13    1.28
   2 -10  -9   39.01    2.06
   2 -10  -9   40.97    2.45
   2 -10  -9   37.45    3.00
   2 -10  -9   38.05    2.06
  -2  10   9   38.38    3.68
  -2  10   9   36.05    3.41
   1 -10  -9   61.70    4.22
   1 -10  -9   63.65    2.98
   1 -10  -9   63.58    3.42
  -1  10   9   57.83    4.87
  -1  10   9   60.69    4.74
   0 -10  -9    2.59    0.63
   0 -10  -9    3.06    0.73
   0 -10  -9    3.43    0.81
   0  10   9    3.07    1.10
   0  10   9    5.75    1.51
   0  10   9    3.80    0.68
  -1 -10  -9   20.34    1.61
  -1 -10  -9   23.53    1.50
  -1 -10  -9   24.31    1.90
   1  10   9   23.85    2.56
   1  10   9   27.12    2.31
   1  10   9   22.86    1.70
  -2 -10  -9   34.81    2.49
  -2 -10  -9   36.25    1.98
  -2 -10  -9   36.39    2.20
   2  10   9   38.16    3.24
   2  10   9   37.33    2.39
   2  10   9   32.62    2.87
  -3 -10  -9   17.33    1.36
  -3 -10  -9   14.73    1.31
  -3 -10  -9   16.69    1.22
   3  10   9   20.97    2.41
   3  10   9   17.69    1.81
   3  10   9   17.70    1.53
  -4 -10  -9   31.75    2.09
  -4 -10  -9   30.95    1.96
  -4 -10  -9   30.11    1.82
   4  10   9   31.46    2.70
   4  10   9   32.15    2.36
   4  10   9   33.09    2.97
  -5 -10  -9   93.76    4.12
  -5 -10  -9   86.81    4.51
   5  10   9   92.32    6.42
   5  10   9   87.50    6.22
   5  10   9   91.29    5.35
  -6 -10  -9   21.18    2.42
  -6 -10  -9   21.48    1.52
  -6 -10  -9   23.14    1.53
   6  10   9   21.11    2.07
   6  10   9   21.44    2.31
   6  10   9   23.77    2.59
  -7 -10  -9   32.24    3.16
  -7 -10  -9   31.64    1.91
   7  10   9   30.61    3.13
   7  10   9   34.93    2.68
  -8 -10  -9   68.60    5.89
  -8 -10  -9   74.32    3.56
   8  10   9   85.19    4.99
  -9 -10  -9    6.16    1.57
   9  10   9    7.06    1.44
   6 -11  -9   19.37    1.78
   6 -11  -9   21.99    2.71
   6 -11  -9   19.81    2.02
  -6  11   9   14.56    2.96
   5 -11  -9   47.62    3.86
   5 -11  -9   44.23    2.65
   5 -11  -9   49.36    3.05
  -5  11   9   38.87    4.41
   4 -11  -9    3.87    0.72
   4 -11  -9    4.21    0.79
   4 -11  -9    2.96    0.91
   4 -11  -9    3.04    1.05
  -4  11   9    1.48    1.45
   3 -11  -9   16.85    1.28
   3 -11  -9   19.29    1.82
   3 -11  -9   17.81    2.15
   3 -11  -9   17.68    1.29
  -3  11   9   16.12    2.45
  -3  11   9   12.01    2.33
   2 -11  -9   74.40    3.48
   2 -11  -9   74.38    5.03
   2 -11  -9   77.91    4.05
  -2  11   9   77.36    5.81
  -2  11   9   62.90    5.40
   1 -11  -9   38.75    2.23
   1 -11  -9   44.39    2.63
   1 -11  -9   41.44    3.15
  -1  11   9   42.84    3.55
  -1  11   9   43.99    3.94
   0 -11  -9    5.75    0.93
   0 -11  -9    4.61    0.74
   0 -11  -9    3.75    0.84
   0  11   9    3.72    1.11
   0  11   9    6.01    1.58
   0  11   9    5.14    0.81
  -1 -11  -9   80.18    5.00
  -1 -11  -9   73.57    4.04
  -1 -11  -9   69.67    3.56
   1  11   9   81.95    5.40
   1  11   9   81.43    5.78
   1  11   9   74.79    4.40
  -2 -11  -9   45.21    2.42
  -2 -11  -9   47.41    3.18
  -2 -11  -9   45.69    2.69
   2  11   9   42.68    2.94
   2  11   9   48.48    3.57
   2  11   9   51.81    4.00
  -3 -11  -9    2.20    0.61
  -3 -11  -9    2.73    0.68
   3  11   9    2.12    0.86
   3  11   9    2.56    1.11
   3  11   9    1.85    0.75
  -4 -11  -9   91.03    5.72
  -4 -11  -9   99.10    4.33
  -4 -11  -9   95.67    4.76
   4  11   9   96.53    6.69
   4  11   9   96.76    5.53
   4  11   9   89.24    6.40
  -5 -11  -9   36.49    2.01
  -5 -11  -9   33.86    2.10
   5  11   9   32.99    2.89
   5  11   9   34.96    3.22
   5  11   9   30.16    2.53
  -6 -11  -9   41.97    2.50
  -6 -11  -9   44.61    2.40
  -6 -11  -9   40.79    3.89
   6  11   9   45.99    3.22
   6  11   9   45.91    3.64
   6  11   9   44.31    3.87
  -7 -11  -9   91.74    4.18
  -7 -11  -9   84.58    6.87
   7  11   9   88.10    5.57
   7  11   9   93.96    6.68
  -8 -11  -9   22.66    2.80
  -8 -11  -9   23.67    1.66
   8  11   9   25.12    2.64
   5 -12  -9   26.51    2.70
   5 -12  -9   28.04    2.20
  -5  12   9   20.59    3.28
   4 -12  -9    1.42    0.85
   4 -12  -9    0.50    0.82
   4 -12  -9   -0.21    0.50
  -4  12   9   -0.72    1.37
   3 -12  -9   22.11    2.25
   3 -12  -9   20.64    1.92
   3 -12  -9   24.96    1.60
  -3  12   9   20.07    2.91
  -3  12   9   18.06    2.80
   2 -12  -9   29.34    1.88
   2 -12  -9   31.61    2.67
   2 -12  -9   30.49    2.21
  -2  12   9   30.15    2.92
  -2  12   9   30.81    3.47
   1 -12  -9    0.58    0.60
   1 -12  -9    0.16    0.47
   1 -12  -9    0.12    0.61
  -1  12   9    0.30    0.88
  -1  12   9   -0.47    1.09
   0 -12  -9   75.14    3.67
   0 -12  -9   79.42    4.19
   0 -12  -9   74.09    5.12
   0  12   9   75.72    4.45
   0  12   9   86.39    6.03
   0  12   9   77.13    5.44
  -1 -12  -9   81.45    4.34
  -1 -12  -9   82.10    3.87
  -1 -12  -9   78.92    5.32
   1  12   9   85.51    5.69
   1  12   9   80.81    4.74
   1  12   9   84.77    6.14
  -2 -12  -9    0.52    0.56
  -2 -12  -9    0.44    0.51
  -2 -12  -9    1.59    0.56
   2  12   9    0.71    0.64
   2  12   9    1.63    1.07
   2  12   9    0.49    0.69
  -3 -12  -9   93.46    5.93
  -3 -12  -9   96.41    4.42
  -3 -12  -9   94.57    4.90
   3  12   9   99.69    5.60
   3  12   9   95.93    6.87
   3  12   9   95.53    6.49
  -4 -12  -9   96.03    4.55
  -4 -12  -9   96.88    5.03
  -4 -12  -9   96.04    6.09
   4  12   9  106.34    5.89
   4  12   9  100.74    6.78
   4  12   9  102.10    7.10
  -5 -12  -9    1.79    1.02
  -5 -12  -9    1.09    0.62
  -5 -12  -9    1.66    0.64
   5  12   9    3.37    1.06
   5  12   9    3.04    1.10
   5  12   9    3.48    1.36
  -6 -12  -9   41.15    2.35
  -6 -12  -9   40.49    3.89
   6  12   9   41.95    3.82
   6  12   9   43.11    3.17
  -7 -12  -9   25.97    2.95
  -7 -12  -9   25.93    1.79
   7  12   9   26.68    2.98
   7  12   9   26.15    2.52
  -8 -12  -9    2.20    1.16
  -8 -12  -9    1.73    0.67
   8  12   9    2.89    1.23
   4 -13  -9   16.80    2.34
   4 -13  -9   10.49    1.20
   4 -13  -9   15.16    1.78
  -4  13   9   11.93    2.51
   3 -13  -9   39.16    2.27
   3 -13  -9   34.96    3.27
   3 -13  -9   45.84    2.87
  -3  13   9   42.25    4.19
   2 -13  -9   29.72    2.28
   2 -13  -9   31.10    2.77
   2 -13  -9   30.46    1.97
  -2  13   9   32.44    3.52
   1 -13  -9   16.92    1.54
   1 -13  -9   18.91    1.97
   1 -13  -9   19.59    1.85
  -1  13   9   19.38    2.74
   0 -13  -9   54.20    3.41
   0 -13  -9   57.83    4.20
   0 -13  -9   63.22    3.11
   0  13   9   66.07    5.05
  -1 -13  -9    2.51    0.77
  -1 -13  -9    2.54    0.75
  -1 -13  -9    4.08    0.91
   1  13   9    2.26    0.80
   1  13   9    4.96    1.54
  -2 -13  -9   23.23    1.63
  -2 -13  -9   20.27    1.72
   2  13   9   20.50    1.90
   2  13   9   22.70    2.25
   2  13   9   25.37    2.94
  -3 -13  -9   76.53    3.66
  -3 -13  -9   77.26    4.03
  -3 -13  -9   69.30    4.74
   3  13   9   74.50    4.56
   3  13   9   70.15    5.17
   3  13   9   79.47    5.75
  -4 -13  -9    3.70    0.81
  -4 -13  -9    2.33    0.64
  -4 -13  -9    2.93    0.77
   4  13   9    3.36    1.31
   4  13   9    3.75    1.12
   4  13   9    5.70    1.17
  -5 -13  -9   32.73    3.32
  -5 -13  -9   30.95    2.08
  -5 -13  -9   31.13    2.03
   5  13   9   28.61    3.19
   5  13   9   31.99    2.67
  -6 -13  -9   46.49    2.62
  -6 -13  -9   44.81    4.25
   6  13   9   44.49    4.14
   6  13   9   47.17    3.49
  -7 -13  -9    3.09    1.37
  -7 -13  -9    3.77    0.84
   7  13   9    4.09    1.25
   7  13   9    3.11    1.37
   3 -14  -9   25.97    1.82
   3 -14  -9   25.30    2.60
   3 -14  -9   29.08    2.28
  -3  14   9   18.52    2.95
   2 -14  -9    5.99    1.00
   2 -14  -9    8.16    1.54
   2 -14  -9    9.14    1.40
  -2  14   9   10.69    2.22
   1 -14  -9   80.27    5.53
   1 -14  -9   76.38    4.44
   1 -14  -9   79.49    3.90
  -1  14   9   83.35    6.31
   0 -14  -9   33.53    2.16
   0 -14  -9   34.55    2.87
   0 -14  -9   32.18    2.43
   0  14   9   37.90    3.71
  -1 -14  -9    2.17    0.71
  -1 -14  -9    1.63    0.76
   1  14   9    4.17    1.52
   1  14   9    2.19    0.88
  -2 -14  -9   34.73    2.85
  -2 -14  -9   37.16    2.52
  -2 -14  -9   37.99    2.29
   2  14   9   42.30    3.79
   2  14   9   39.70    2.80
  -3 -14  -9    9.79    1.27
  -3 -14  -9   10.58    1.37
  -3 -14  -9    8.62    1.12
   3  14   9   13.18    2.15
   3  14   9   10.88    1.54
  -4 -14  -9   -0.17    0.57
  -4 -14  -9   -0.55    0.54
  -4 -14  -9    1.61    1.16
   4  14   9    1.40    0.91
   4  14   9    2.07    1.28
  -5 -14  -9   13.48    1.43
  -5 -14  -9   21.63    2.96
   5  14   9   15.17    2.37
   5  14   9   15.15    1.92
  -6 -14  -9    8.18    1.17
  -6 -14  -9    7.51    1.91
   6  14   9    7.10    1.51
   6  14   9    9.99    2.04
   1 -15  -9   26.88    2.56
   1 -15  -9   23.68    2.23
   1 -15  -9   24.98    2.01
  -1  15   9   24.59    3.25
   0 -15  -9    1.64    0.88
   0 -15  -9    0.74    0.67
   0  15   9    2.86    1.46
  -1 -15  -9   27.35    2.15
  -1 -15  -9   26.11    1.91
  -1 -15  -9   24.64    2.39
   1  15   9   29.26    3.46
   1  15   9   27.94    2.38
  -2 -15  -9   20.05    2.02
  -2 -15  -9   18.98    1.75
  -2 -15  -9   22.81    2.08
   2  15   9   22.89    2.95
   2  15   9   25.17    2.22
  -3 -15  -9    5.75    1.07
  -3 -15  -9    6.03    1.03
  -3 -15  -9    7.14    1.21
   3  15   9    6.88    1.34
   3  15   9    6.14    1.66
  -4 -15  -9   26.39    2.13
  -4 -15  -9   28.16    3.59
   4  15   9   20.36    2.38
   4  15   9   25.07    3.15
   1   8 -10   19.62    2.70
   1   8 -10   17.32    3.31
  -1  -8  10   14.56    2.47
   0   8 -10   23.19    3.02
   0   8 -10   18.00    3.17
   0  -8  10   18.45    2.59
  -1   8 -10    0.81    1.03
  -1   8 -10   -0.50    1.41
  -1   8 -10   -1.20    1.04
   1  -8  10   -1.02    1.02
  -2   8 -10   17.54    2.69
  -2   8 -10   30.69    3.68
  -2   8 -10   21.84    3.32
  -3   8 -10   18.00    3.10
  -3   8 -10   17.81    3.14
  -3   8 -10   16.76    2.45
   3  -8  10   18.06    2.41
  -4   8 -10   -0.56    1.38
  -4   8 -10    0.32    0.92
  -4   8 -10    0.92    1.68
   4  -8  10    1.83    1.30
  -5   8 -10   18.45    2.53
  -5   8 -10   15.48    2.96
  -5   8 -10   20.67    3.64
   5  -8  10   26.44    3.20
   3   7 -10   10.52    2.00
   3   7 -10    7.82    2.61
  -3  -7  10   10.16    2.04
  -3  -7  10    6.62    2.01
   2   7 -10   14.50    2.99
   2   7 -10   16.72    2.47
  -2  -7  10   12.32    2.38
  -2  -7  10   15.47    2.41
   1   7 -10   34.08    3.55
   1   7 -10   43.97    4.67
  -1  -7  10   36.30    3.72
   0   7 -10   13.48    2.67
   0   7 -10   11.75    2.10
   0   7 -10   13.97    2.58
   0  -7  10   14.75    2.37
  -1   7 -10    9.67    2.26
  -1   7 -10    8.10    1.70
  -1   7 -10    8.45    2.01
   1  -7  10    8.37    1.85
  -2   7 -10   17.94    2.89
  -2   7 -10   13.92    2.24
  -2   7 -10   24.33    3.36
   2  -7  10   13.81    2.16
  -3   7 -10    7.58    1.74
  -3   7 -10    9.83    2.28
  -3   7 -10    9.28    2.26
   3  -7  10    9.90    1.77
  -4   7 -10    2.35    1.07
  -4   7 -10    3.82    1.67
  -4   7 -10    6.96    2.13
   4  -7  10    6.66    1.75
  -5   7 -10   33.67    3.15
  -5   7 -10   29.30    3.93
   5  -7  10   40.03    3.61
  -6   7 -10   11.71    2.85
  -6   7 -10   21.31    2.39
  -6   7 -10   10.01    2.49
   6  -7  10   22.10    2.98
   4   6 -10   11.06    2.92
   4   6 -10   17.56    2.48
  -4  -6  10   14.18    2.31
  -4  -6  10    8.98    2.27
   3   6 -10    2.09    1.95
   3   6 -10    2.72    1.26
  -3  -6  10    0.36    1.44
  -3  -6  10    5.82    1.64
   2   6 -10   31.29    3.10
   2   6 -10   31.18    4.04
  -2  -6  10   31.61    3.33
  -2  -6  10   24.11    3.30
   1   6 -10   15.96    2.39
   1   6 -10   20.90    3.15
  -1  -6  10   17.62    2.36
  -1  -6  10   12.43    2.25
   0   6 -10    2.84    1.59
   0   6 -10    3.86    1.45
   0   6 -10    1.30    1.10
   0  -6  10    1.64    1.28
  -1   6 -10   39.49    4.27
  -1   6 -10   45.44    4.16
  -1   6 -10   32.82    3.35
   1  -6  10   33.28    3.39
  -2   6 -10   50.11    4.51
  -2   6 -10   64.46    5.65
  -2   6 -10   66.76    5.71
   2  -6  10   56.69    4.59
  -3   6 -10    4.82    1.70
  -3   6 -10    3.83    1.27
  -3   6 -10    5.53    1.83
   3  -6  10    5.37    1.41
  -4   6 -10   36.69    4.17
  -4   6 -10   33.75    3.09
  -4   6 -10   33.75    3.91
   4  -6  10   33.66    3.30
  -5   6 -10   41.20    4.75
  -5   6 -10   48.03    5.18
  -5   6 -10   57.28    4.03
  -6   6 -10    2.21    1.44
  -6   6 -10    3.44    1.91
  -6   6 -10    2.89    1.09
   6  -6  10    6.48    1.85
  -7   6 -10   18.96    3.06
  -7   6 -10   15.17    3.18
   7  -6  10   31.63    3.83
   5   5 -10   28.15    4.75
   5   5 -10   29.23    3.18
  -5  -5  10   24.23    3.78
  -5  -5  10   36.94    3.54
   4   5 -10    5.01    1.39
   4   5 -10    2.76    2.11
  -4  -5  10    2.17    1.70
  -4  -5  10    6.66    1.71
   3   5 -10   13.36    2.07
   3   5 -10   13.62    3.01
  -3  -5  10    7.60    2.03
  -3  -5  10   14.11    2.19
   2   5 -10   40.78    3.44
   2   5 -10   39.62    4.50
  -2  -5  10   42.34    3.65
  -2  -5  10   29.64    3.65
   1   5 -10    9.39    2.26
   1   5 -10    9.84    1.84
  -1  -5  10    7.01    1.75
  -1  -5  10   10.82    1.96
   0   5 -10    8.93    1.67
   0   5 -10    6.79    1.87
   0   5 -10    8.22    1.78
   0  -5  10    6.97    1.53
   0  -5  10    7.06    1.67
  -1   5 -10   66.78    5.42
  -1   5 -10   82.09    6.67
  -1   5 -10   83.12    6.58
   1  -5  10   70.48    5.45
  -2   5 -10   10.59    2.04
  -2   5 -10    9.07    1.96
  -2   5 -10    9.06    1.71
   2  -5  10    8.13    1.51
  -3   5 -10   24.77    3.24
  -3   5 -10   24.32    2.56
  -3   5 -10   25.17    3.22
   3  -5  10   30.61    2.75
  -4   5 -10   75.59    6.64
  -4   5 -10   59.38    6.21
  -4   5 -10   74.51    5.21
   4  -5  10   83.57    5.54
  -5   5 -10   16.74    2.02
  -5   5 -10   10.42    2.27
  -5   5 -10    8.45    2.07
   5  -5  10   20.08    2.55
  -6   5 -10   25.57    2.32
  -6   5 -10   19.59    3.34
  -6   5 -10   15.88    2.76
   6  -5  10   35.80    3.83
  -7   5 -10   33.97    2.79
  -7   5 -10   32.77    3.73
  -7   5 -10   28.56    4.23
   7  -5  10   25.10    3.48
  -8   5 -10    4.19    1.64
  -8   5 -10    3.54    1.10
  -8   5 -10    2.62    1.95
   8  -5  10    1.46    1.74
   5   4 -10    3.18    1.28
   5   4 -10    1.18    1.84
  -5  -4  10    4.58    1.56
  -5  -4  10    1.65    1.65
   4   4 -10    0.11    1.69
   4   4 -10    3.98    1.26
  -4  -4  10    2.70    1.33
  -4  -4  10    1.80    1.62
   3   4 -10   55.11    4.27
   3   4 -10   58.10    5.78
  -3  -4  10   43.36    4.60
  -3  -4  10   55.91    4.38
   2   4 -10   44.53    4.43
   2   4 -10   34.25    3.17
  -2  -4  10   29.78    3.42
  -2  -4  10   38.00    3.41
   1   4 -10    0.57    1.26
   1   4 -10    0.76    0.80
  -1  -4  10    1.34    1.07
  -1  -4  10   -0.09    1.03
  -1  -4  10    0.86    0.79
   0   4 -10   54.89    4.80
   0   4 -10   51.59    4.13
   0   4 -10   53.13    5.04
   0  -4  10   50.51    4.27
   0  -4  10   54.79    3.86
   0  -4  10   52.48    4.17
  -1   4 -10   58.61    4.82
  -1   4 -10   71.70    5.82
  -1   4 -10   69.78    5.93
   1  -4  10   73.90    4.76
   1  -4  10   58.99    4.81
   1  -4  10   66.43    4.98
  -2   4 -10    0.22    0.98
  -2   4 -10    0.29    0.94
  -2   4 -10   -0.01    0.69
   2  -4  10    0.44    0.75
   2  -4  10   -0.32    0.82
  -3   4 -10   37.80    3.80
  -3   4 -10   33.08    2.98
  -3   4 -10   31.37    3.66
   3  -4  10   40.62    3.11
   3  -4  10   32.41    2.96
  -4   4 -10   14.23    2.47
  -4   4 -10   22.80    2.11
  -4   4 -10   16.47    2.68
  -5   4 -10   14.06    1.77
  -5   4 -10    9.04    2.21
  -5   4 -10   12.78    2.25
   5  -4  10   18.27    2.49
  -6   4 -10   35.75    4.30
  -6   4 -10   42.73    3.22
  -6   4 -10   39.54    4.12
   6  -4  10   42.89    3.89
  -7   4 -10   10.81    1.56
  -7   4 -10   12.59    2.64
  -7   4 -10   11.89    2.26
   7  -4  10   12.61    2.58
  -8   4 -10    6.71    1.20
  -8   4 -10    4.34    2.01
  -8   4 -10    6.20    1.79
   8  -4  10    2.41    1.84
  -9   4 -10   32.60    4.45
  -9   4 -10   34.08    3.95
  -9   4 -10   38.89    3.02
   6   3 -10   20.04    4.14
   6   3 -10   34.88    3.43
  -6  -3  10   33.28    3.85
   5   3 -10    4.97    2.23
   5   3 -10   12.36    2.06
  -5  -3  10   12.47    2.05
  -5  -3  10   10.65    2.37
   4   3 -10   20.18    3.63
   4   3 -10   26.82    2.78
  -4  -3  10   23.18    3.19
  -4  -3  10   25.72    2.93
   3   3 -10   51.57    5.37
   3   3 -10   52.12    4.11
  -3  -3  10   44.73    4.49
  -3  -3  10   55.50    4.23
   2   3 -10    1.24    0.88
   2   3 -10    0.12    1.27
  -2  -3  10    2.10    1.25
  -2  -3  10    2.09    1.11
   1   3 -10   50.91    4.62
   1   3 -10   44.23    3.54
  -1  -3  10   39.37    3.76
  -1  -3  10   43.77    3.60
   0   3 -10   77.34    6.43
   0   3 -10   79.90    6.18
   0   3 -10   70.01    5.20
   0  -3  10   71.51    5.55
   0  -3  10   70.49    5.21
   0  -3  10   75.66    5.12
  -1   3 -10    1.54    0.91
  -1   3 -10   -0.40    0.91
  -1   3 -10    0.50    0.70
   1  -3  10    0.81    0.88
   1  -3  10    2.01    0.84
   1  -3  10    0.76    0.79
  -2   3 -10   72.40    6.30
  -2   3 -10   59.70    5.07
  -2   3 -10   77.71    6.26
   2  -3  10   73.88    5.22
   2  -3  10   66.89    5.11
   2  -3  10   81.25    5.16
   2  -3  10   86.82    5.42
  -3   3 -10   38.54    4.24
  -3   3 -10   46.16    4.34
  -3   3 -10   41.80    3.48
   3  -3  10   45.93    3.58
   3  -3  10   57.30    3.76
  -4   3 -10    0.60    1.07
  -4   3 -10    0.70    1.00
  -4   3 -10    1.61    0.79
   4  -3  10    1.83    0.95
   4  -3  10    2.47    1.15
  -5   3 -10   20.21    2.84
  -5   3 -10   27.28    2.30
  -5   3 -10   21.42    3.18
   5  -3  10   29.76    2.49
   5  -3  10   24.62    2.73
  -6   3 -10   36.14    4.14
  -6   3 -10   34.12    3.85
  -6   3 -10   39.28    3.05
   6  -3  10   41.72    3.73
   6  -3  10   46.51    3.38
  -7   3 -10   -0.35    1.17
  -7   3 -10   -0.16    0.93
  -7   3 -10    0.18    0.59
   7  -3  10   -0.93    1.26
  -8   3 -10   14.49    2.86
  -8   3 -10   15.30    1.65
  -8   3 -10   14.28    2.42
   8  -3  10   11.58    2.59
  -9   3 -10   37.65    4.34
  -9   3 -10   33.13    2.71
  -9   3 -10   33.81    3.74
   9  -3  10   26.17    3.86
   6   2 -10   21.85    4.17
   6   2 -10   31.26    3.36
  -6  -2  10   27.93    3.84
  -6  -2  10   37.33    3.51
   5   2 -10   16.88    3.56
   5   2 -10   28.20    2.94
  -5  -2  10   21.07    3.22
  -5  -2  10   26.61    3.07
   4   2 -10   99.09    6.47
   4   2 -10   77.46    7.85
  -4  -2  10   82.85    6.98
  -4  -2  10   95.40    6.41
   3   2 -10   28.63    3.88
   3   2 -10   34.57    3.03
  -3  -2  10   26.44    3.29
  -3  -2  10   39.21    3.20
   2   2 -10   17.53    2.89
   2   2 -10   16.94    2.09
  -2  -2  10   14.80    2.03
  -2  -2  10   15.23    2.30
   1   2 -10   86.67    7.18
   1   2 -10   85.67    5.81
  -1  -2  10   83.40    6.32
  -1  -2  10   82.91    5.76
   0   2 -10    4.82    1.12
   0   2 -10    5.24    1.49
   0   2 -10    4.34    1.14
   0  -2  10    6.74    1.19
   0  -2  10    6.90    1.33
   0  -2  10    4.73    1.17
  -1   2 -10   25.35    2.94
  -1   2 -10   23.83    2.56
  -1   2 -10   25.51    2.34
   1  -2  10   26.18    2.38
   1  -2  10   26.15    2.42
   1  -2  10   26.05    2.31
  -2   2 -10   82.60    6.11
  -2   2 -10   87.44    7.46
  -2   2 -10   97.83    7.47
   2  -2  10  104.43    6.19
   2  -2  10   91.21    6.34
   2  -2  10   94.77    6.14
  -3   2 -10    6.66    1.24
  -3   2 -10    4.98    1.41
  -3   2 -10    6.50    1.49
   3  -2  10    6.81    1.37
   3  -2  10    9.98    1.56
  -4   2 -10   20.91    2.77
  -4   2 -10   25.70    2.24
  -4   2 -10   21.11    2.75
   4  -2  10   26.05    2.44
   4  -2  10   29.95    2.64
  -5   2 -10   94.49    7.92
  -5   2 -10  100.90    6.45
  -5   2 -10   98.05    8.12
   5  -2  10  108.66    6.88
   5  -2  10   94.72    6.89
  -6   2 -10   47.18    4.34
  -6   2 -10   46.00    3.36
  -6   2 -10   45.36    4.51
   6  -2  10   40.40    3.94
   6  -2  10   51.55    3.77
  -7   2 -10    3.77    1.35
  -7   2 -10    4.35    0.93
  -7   2 -10    5.08    1.66
   7  -2  10    1.93    1.39
  -8   2 -10   55.12    4.97
  -8   2 -10   54.82    3.75
  -8   2 -10   50.82    5.21
   8  -2  10   49.49    4.79
  -9   2 -10   37.75    4.28
  -9   2 -10   38.85    3.92
  -9   2 -10   36.54    2.79
   9  -2  10   26.50    3.87
 -10   2 -10    6.15    2.19
  10  -2  10    4.16    2.16
   7   1 -10   17.26    2.13
   7   1 -10   26.43    3.30
  -7  -1  10   22.26    3.53
   6   1 -10    3.27    1.43
   6   1 -10    0.20    1.55
  -6  -1  10    1.63    1.84
  -6  -1  10    4.99    1.76
   5   1 -10   47.68    5.83
   5   1 -10   67.20    5.04
  -5  -1  10   57.58    5.33
  -5  -1  10   71.33    5.05
   4   1 -10   36.83    3.29
   4   1 -10   29.31    4.39
  -4  -1  10   31.07    3.50
  -4  -1  10   36.00    3.26
   3   1 -10   12.33    1.88
   3   1 -10   11.58    1.15
   3   1 -10    8.87    2.34
  -3  -1  10   12.57    1.93
  -3  -1  10    6.42    1.73
   2   1 -10  103.58    6.95
   2   1 -10  103.22    8.57
  -2  -1  10  100.18    7.62
  -2  -1  10  109.53    6.97
   1   1 -10   72.54    6.27
   1   1 -10   74.32    5.12
  -1  -1  10   74.90    5.12
  -1  -1  10   72.16    5.58
   0   1 -10    0.01    0.57
   0   1 -10    0.19    0.58
   0   1 -10   -0.60    0.84
   0  -1  10    0.43    0.82
   0  -1  10    0.43    0.73
   0  -1  10    0.23    0.71
  -1   1 -10   99.96    7.81
  -1   1 -10   95.88    6.56
  -1   1 -10   98.02    8.01
   1  -1  10  105.47    6.84
   1  -1  10  108.98    7.22
   1  -1  10  101.58    6.55
  -2   1 -10   86.49    5.82
  -2   1 -10   79.07    7.04
  -2   1 -10   87.21    6.98
   2  -1  10   98.75    5.88
   2  -1  10   92.79    5.80
   2  -1  10   87.44    6.11
  -3   1 -10    0.13    0.74
  -3   1 -10   -0.06    0.51
  -3   1 -10   -0.36    0.68
   3  -1  10   -1.08    0.68
   3  -1  10    0.13    0.72
  -4   1 -10   46.89    4.44
  -4   1 -10   47.75    4.49
  -4   1 -10   50.11    3.61
   4  -1  10   54.65    3.97
   4  -1  10   53.81    3.92
  -5   1 -10   69.51    5.86
  -5   1 -10   67.63    5.74
  -5   1 -10   67.84    4.63
   5  -1  10   60.24    5.00
   5  -1  10   79.68    5.12
  -6   1 -10    1.18    1.07
  -6   1 -10    1.72    0.64
  -6   1 -10    1.82    1.03
   6  -1  10    2.73    1.05
   6  -1  10    0.82    1.08
  -7   1 -10   89.35    7.37
  -7   1 -10   87.04    7.09
  -7   1 -10   86.78    5.61
   7  -1  10   89.49    6.21
   7  -1  10   83.65    6.48
  -8   1 -10   41.60    3.07
  -8   1 -10   45.53    4.21
  -8   1 -10   43.69    4.41
   8  -1  10   40.43    4.10
  -9   1 -10    1.08    1.34
  -9   1 -10    0.50    1.00
  -9   1 -10   -0.01    0.52
   9  -1  10   -0.31    1.36
 -10   1 -10   57.36    5.44
 -10   1 -10   62.97    5.97
  10  -1  10   56.12    5.38
   7   0 -10    0.65    0.87
   7   0 -10    2.79    1.44
  -7   0  10    3.25    1.82
  -7   0  10    4.84    1.90
   6   0 -10   27.47    3.43
   6   0 -10   22.76    2.38
  -6   0  10   33.39    3.45
  -6   0  10   28.66    3.70
   5   0 -10   28.94    4.06
   5   0 -10   38.71    3.57
  -5   0  10   38.60    3.60
  -5   0  10   36.88    3.82
   4   0 -10    0.63    0.89
   4   0 -10   -0.23    1.26
  -4   0  10    1.39    1.07
  -4   0  10    0.40    1.22
   3   0 -10   22.72    3.56
   3   0 -10   26.63    1.88
   3   0 -10   31.80    2.86
  -3   0  10   33.28    2.87
  -3   0  10   26.48    2.99
   2   0 -10   38.63    2.30
   2   0 -10   35.07    3.13
   2   0 -10   38.49    4.09
  -2   0  10   42.41    3.27
  -2   0  10   34.98    3.43
   1   0 -10    5.65    1.16
   1   0 -10    4.58    1.48
  -1   0  10    4.89    1.30
  -1   0  10    4.65    1.08
   0   0 -10   58.13    4.90
   0   0 -10   54.04    3.94
   0   0  10   57.56    4.35
   0   0  10   52.96    3.98
   0   0  10   57.65    3.97
   0   0  10   51.56    3.64
  -1   0 -10  103.38    6.87
  -1   0 -10  107.88    8.41
  -1   0 -10  105.47    8.15
   1   0  10  123.05    7.74
   1   0  10  105.73    6.73
   1   0  10  110.07    6.89
   1   0  10  103.94    7.20
   1   0  10  108.39    6.80
  -2   0 -10   28.02    2.29
  -2   0 -10   25.80    2.60
  -2   0 -10   23.02    2.81
   2   0  10   28.62    2.29
   2   0  10   27.62    2.52
   2   0  10   32.08    2.32
  -3   0 -10   20.54    2.57
  -3   0 -10   27.54    2.16
  -3   0 -10   24.82    2.55
   3   0  10   30.15    2.34
   3   0  10   23.78    2.39
  -4   0 -10   83.25    6.10
  -4   0 -10  104.56    7.70
  -4   0 -10   98.95    7.66
   4   0  10  111.22    6.79
   4   0  10   91.03    6.45
  -5   0 -10   18.48    1.74
  -5   0 -10   21.82    2.35
  -5   0 -10   20.01    2.35
   5   0  10   21.30    2.18
   5   0  10   18.31    2.37
  -6   0 -10   27.66    2.20
  -6   0 -10   27.49    2.91
  -6   0 -10   31.09    3.04
   6   0  10   27.85    2.62
   6   0  10   25.90    2.78
  -7   0 -10   59.24    5.19
  -7   0 -10   58.52    3.87
  -7   0 -10   58.64    5.01
   7   0  10   56.41    4.44
   7   0  10   55.45    4.67
  -8   0 -10    0.67    0.87
  -8   0 -10    0.90    1.08
  -8   0 -10    0.91    0.53
   8   0  10   -0.03    1.15
  -9   0 -10   35.46    2.61
  -9   0 -10   34.26    3.91
  -9   0 -10   37.08    3.76
   9   0  10   32.85    3.70
 -10   0 -10   40.42    4.29
 -10   0 -10   44.31    4.73
  10   0  10   46.42    4.48
   7  -1 -10    6.72    1.47
   7  -1 -10    5.36    1.76
  -7   1  10    7.93    2.16
  -7   1  10    3.67    1.62
   6  -1 -10   32.63    2.59
   6  -1 -10   33.60    3.64
  -6   1  10   34.26    3.66
  -6   1  10   38.29    3.95
   5  -1 -10   14.02    2.30
   5  -1 -10   11.92    2.57
  -5   1  10   15.56    2.33
  -5   1  10   13.64    2.34
   4  -1 -10   -0.35    1.12
   4  -1 -10    0.22    0.57
   4  -1 -10    0.99    0.98
  -4   1  10    0.03    1.19
  -4   1  10    2.74    1.17
   3  -1 -10   37.87    2.43
   3  -1 -10   43.69    3.54
   3  -1 -10   33.11    4.08
  -3   1  10   44.14    3.84
  -3   1  10   45.84    3.59
   2  -1 -10   40.14    3.46
   2  -1 -10   44.65    4.34
   2  -1 -10   43.06    2.57
  -2   1  10   44.30    3.85
  -2   1  10   46.53    3.57
   1  -1 -10    0.18    0.60
   1  -1 -10    0.31    0.96
  -1   1  10    0.87    0.76
  -1   1  10    0.75    1.02
   0  -1 -10   61.52    5.21
   0  -1 -10   57.74    4.25
   0   1  10   69.62    4.38
   0   1  10   52.45    4.28
   0   1  10   69.11    4.86
   0   1  10   59.66    4.06
  -1  -1 -10   31.90    2.68
  -1  -1 -10   32.77    2.53
  -1  -1 -10   27.19    3.01
   1   1  10   32.46    2.35
   1   1  10   32.80    2.55
   1   1  10   32.27    2.70
   1   1  10   29.91    2.32
  -2  -1 -10   22.38    1.76
  -2  -1 -10   16.44    1.84
  -2  -1 -10   12.83    2.15
   2   1  10   18.80    1.69
   2   1  10   16.01    2.08
   2   1  10   22.34    1.80
   2   1  10   18.47    1.55
  -3  -1 -10   81.46    6.13
  -3  -1 -10   69.66    6.16
  -3  -1 -10   91.07    5.09
   3   1  10   75.98    5.17
   3   1  10   71.52    4.88
   3   1  10   77.18    5.53
  -4  -1 -10   22.30    1.82
  -4  -1 -10   23.41    2.31
  -4  -1 -10   20.64    2.39
   4   1  10   19.08    2.05
   4   1  10   24.36    2.30
  -5  -1 -10   27.92    2.54
  -5  -1 -10   17.72    1.78
  -5  -1 -10   24.06    2.52
   5   1  10   22.30    2.27
   5   1  10   28.26    2.45
  -6  -1 -10   94.23    6.91
  -6  -1 -10   75.40    5.29
  -6  -1 -10   86.65    6.75
   6   1  10   87.94    6.06
   6   1  10   83.13    5.96
  -7  -1 -10   32.80    2.38
  -7  -1 -10   35.04    3.30
  -7  -1 -10   34.90    3.38
   7   1  10   28.49    3.02
   7   1  10   33.43    2.98
  -8  -1 -10    3.86    1.23
  -8  -1 -10    4.71    0.80
  -8  -1 -10    3.12    1.26
   8   1  10    4.19    1.43
  -9  -1 -10   19.44    2.89
  -9  -1 -10   21.39    2.66
   9   1  10   20.16    2.83
 -10  -1 -10   13.73    2.33
 -10  -1 -10   14.23    2.64
  10   1  10   10.51    2.38
   7  -2 -10    5.26    1.80
   7  -2 -10    5.23    1.25
  -7   2  10    5.65    1.89
  -7   2  10    5.29    1.99
   6  -2 -10   23.05    2.29
  -6   2  10   28.77    3.62
   5  -2 -10   -0.16    0.93
   5  -2 -10   -1.39    0.61
   5  -2 -10    0.68    1.23
  -5   2  10    1.66    1.56
  -5   2  10   -1.29    0.89
   4  -2 -10   28.93    3.46
   4  -2 -10   27.77    3.26
   4  -2 -10   28.34    1.95
  -4   2  10   29.29    3.02
  -4   2  10   31.63    3.28
   3  -2 -10   43.26    4.58
   3  -2 -10   43.90    2.78
   3  -2 -10   43.74    3.88
  -3   2  10   60.55    4.48
  -3   2  10   56.81    4.11
   2  -2 -10    7.66    1.76
   2  -2 -10    5.42    0.93
   2  -2 -10    6.83    1.37
  -2   2  10    8.68    1.75
  -2   2  10    7.28    1.39
   1  -2 -10   78.83    5.61
   1  -2 -10   74.62    4.28
   1  -2 -10   82.49    6.77
  -1   2  10   90.93    6.33
  -1   2  10   88.34    5.69
   0  -2 -10  127.01    8.01
   0  -2 -10  131.85    9.64
   0   2  10  125.02    7.65
   0   2  10  129.94    8.01
   0   2  10  128.98    7.97
   0   2  10  115.63    8.21
  -1  -2 -10   -0.14    0.66
  -1  -2 -10   -0.07    0.50
   1   2  10    0.45    0.44
   1   2  10   -0.03    0.71
   1   2  10    0.05    0.57
   1   2  10    0.04    0.57
  -2  -2 -10   41.55    4.14
  -2  -2 -10   48.43    3.92
   2   2  10   50.10    3.37
   2   2  10   51.08    3.87
   2   2  10   54.70    3.47
  -3  -2 -10   44.40    3.93
  -3  -2 -10   47.65    3.70
  -3  -2 -10   53.53    3.17
   3   2  10   40.95    3.16
   3   2  10   42.58    3.54
   3   2  10   37.92    3.02
  -4  -2 -10    0.23    0.64
  -4  -2 -10    0.31    0.54
  -4  -2 -10    1.39    0.47
   4   2  10   -0.61    0.61
   4   2  10    1.18    0.50
   4   2  10    0.54    0.83
  -5  -2 -10   48.47    4.18
  -5  -2 -10   49.01    4.12
  -5  -2 -10   47.36    3.21
   5   2  10   47.05    3.67
   5   2  10   53.57    3.87
  -6  -2 -10   42.12    3.71
  -6  -2 -10   41.76    3.67
  -6  -2 -10   35.09    2.68
   6   2  10   44.51    3.39
   6   2  10   46.92    3.49
  -7  -2 -10    0.05    0.77
  -7  -2 -10    0.47    0.33
  -7  -2 -10   -0.03    0.63
   7   2  10    0.58    0.83
   7   2  10    0.88    1.00
  -8  -2 -10   23.57    2.74
  -8  -2 -10   25.46    2.84
   8   2  10   27.24    2.84
  -9  -2 -10   46.71    4.72
  -9  -2 -10   50.78    4.58
   9   2  10   51.10    4.45
 -10  -2 -10    6.16    1.83
 -10  -2 -10    9.86    1.91
  10   2  10    8.26    2.11
   7  -3 -10   35.76    2.73
   7  -3 -10   34.04    3.81
  -7   3  10   43.26    4.35
   6  -3 -10   25.35    2.29
   6  -3 -10   24.91    3.20
  -6   3  10   28.85    3.57
  -6   3  10   19.18    2.85
   5  -3 -10   11.36    2.05
   5  -3 -10   13.05    1.52
   5  -3 -10   14.07    1.40
  -5   3  10   11.48    2.18
  -5   3  10   10.50    2.18
   4  -3 -10   41.44    4.08
   4  -3 -10   41.41    2.51
   4  -3 -10   34.01    3.46
   4  -3 -10   45.42    2.67
  -4   3  10   45.54    4.09
  -4   3  10   39.46    3.63
   3  -3 -10   24.65    2.97
   3  -3 -10   24.28    1.80
   3  -3 -10   23.47    2.53
  -3   3  10   31.97    3.10
  -3   3  10   22.78    2.69
   2  -3 -10   34.90    3.77
   2  -3 -10   41.09    2.45
   2  -3 -10   35.73    3.24
  -2   3  10   38.14    3.32
  -2   3  10   52.38    3.95
   1  -3 -10  147.79   10.21
   1  -3 -10  124.66    8.40
   1  -3 -10  122.00    6.48
  -1   3  10  123.64    8.38
  -1   3  10  142.67    8.47
   0  -3 -10   12.01    1.80
   0  -3 -10    8.22    1.33
   0  -3 -10    8.49    1.13
   0   3  10    8.96    1.46
   0   3  10    9.74    1.33
   0   3  10    9.92    1.43
  -1  -3 -10   64.36    4.30
  -1  -3 -10   66.13    5.17
   1   3  10   54.48    3.91
   1   3  10   65.86    4.35
   1   3  10   60.36    4.23
   1   3  10   69.46    4.68
  -2  -3 -10  148.78   11.84
  -2  -3 -10  140.00   11.93
   2   3  10  161.44   10.71
   2   3  10  185.90    9.98
   2   3  10  180.04    9.97
   2   3  10  170.68   10.27
  -3  -3 -10   29.49    2.38
  -3  -3 -10   29.98    2.09
  -3  -3 -10   23.04    2.58
   3   3  10   26.64    2.10
   3   3  10   22.84    2.11
   3   3  10   25.05    2.50
  -4  -3 -10   13.73    1.51
  -4  -3 -10   14.58    1.79
  -4  -3 -10   14.61    1.25
   4   3  10   10.11    1.35
   4   3  10   12.16    1.79
   4   3  10   14.59    1.52
  -5  -3 -10  108.03    7.86
  -5  -3 -10  108.99    6.23
  -5  -3 -10  102.07    7.85
   5   3  10  113.51    7.12
   5   3  10   83.14    6.55
   5   3  10  105.69    6.76
  -6  -3 -10   27.82    2.71
  -6  -3 -10   26.23    2.67
  -6  -3 -10   28.45    1.88
   6   3  10   27.33    2.61
   6   3  10   28.41    2.55
  -7  -3 -10    6.02    1.34
  -7  -3 -10    4.42    1.13
   7   3  10    6.10    1.36
   7   3  10    4.32    1.26
  -8  -3 -10   46.81    4.23
  -8  -3 -10   48.40    4.40
   8   3  10   42.01    3.81
   8   3  10   52.28    4.05
  -9  -3 -10    7.33    1.78
  -9  -3 -10   11.47    1.97
   9   3  10    9.77    1.97
 -10  -3 -10   19.69    2.78
 -10  -3 -10   22.03    3.14
  10   3  10   17.05    2.78
   7  -4 -10   25.18    2.35
   7  -4 -10   25.36    3.36
  -7   4  10   32.75    3.99
  -7   4  10   16.75    2.79
   6  -4 -10   10.18    2.05
   6  -4 -10   12.74    1.54
  -6   4  10    8.81    2.43
  -6   4  10    8.35    2.06
   5  -4 -10  120.17    8.09
   5  -4 -10  112.46    5.76
   5  -4 -10  115.78    5.88
  -5   4  10  101.67    7.95
  -5   4  10  138.05    9.20
   4  -4 -10   43.70    2.57
   4  -4 -10   42.59    2.58
   4  -4 -10   43.36    3.62
   4  -4 -10   36.35    3.89
  -4   4  10   48.28    4.27
  -4   4  10   38.58    3.60
   3  -4 -10    9.76    1.76
   3  -4 -10    6.60    1.42
   3  -4 -10    7.46    1.03
  -3   4  10    5.20    1.34
   2  -4 -10   97.48    8.47
   2  -4 -10  111.81    7.27
   2  -4 -10  115.26    5.58
  -2   4  10  118.97    7.32
  -2   4  10  108.48    7.26
   1  -4 -10   55.71    3.28
   1  -4 -10   54.82    5.01
   1  -4 -10   63.88    4.32
  -1   4  10   67.97    4.33
  -1   4  10   55.53    4.21
   0  -4 -10   12.45    1.61
   0  -4 -10   14.09    1.95
   0  -4 -10    8.16    1.15
   0   4  10   13.23    1.73
   0   4  10   12.97    1.60
   0   4  10   13.29    1.61
  -1  -4 -10   78.05    4.52
  -1  -4 -10   98.52    6.89
  -1  -4 -10   86.26    5.66
   1   4  10   86.82    5.88
   1   4  10   91.01    6.18
   1   4  10   86.90    5.59
  -2  -4 -10   30.77    2.12
  -2  -4 -10   21.97    2.48
   2   4  10   21.66    2.23
   2   4  10   21.26    2.41
   2   4  10   31.09    1.93
  -3  -4 -10    0.31    0.57
  -3  -4 -10    0.21    0.36
  -3  -4 -10    0.40    0.39
   3   4  10    0.24    0.46
   3   4  10    0.11    0.75
   3   4  10    1.09    0.69
  -4  -4 -10   88.42    5.61
  -4  -4 -10   96.98    7.12
  -4  -4 -10   92.65    7.00
   4   4  10   85.25    6.08
   4   4  10   99.54    6.49
   4   4  10   97.55    6.01
  -5  -4 -10  102.35    7.50
  -5  -4 -10  101.58    7.47
  -5  -4 -10   91.83    5.77
   5   4  10  103.11    6.77
   5   4  10  101.28    6.43
   5   4  10   91.73    6.41
  -6  -4 -10   -0.11    0.51
  -6  -4 -10    0.85    0.66
   6   4  10   -0.18    0.74
   6   4  10    0.37    0.65
   6   4  10    0.41    0.77
  -7  -4 -10   77.52    6.16
  -7  -4 -10   75.99    6.29
   7   4  10   80.22    5.56
   7   4  10   76.47    5.61
  -8  -4 -10   69.62    5.91
  -8  -4 -10   72.54    6.11
   8   4  10   74.51    5.41
   8   4  10   73.36    5.42
  -9  -4 -10   -0.14    0.74
  -9  -4 -10    0.40    0.93
   9   4  10    1.19    1.15
 -10  -4 -10   52.77    5.13
 -10  -4 -10   53.38    4.85
  10   4  10   49.60    4.56
   7  -5 -10    0.31    0.75
   7  -5 -10   -0.45    1.02
  -7   5  10   -0.75    1.16
   6  -5 -10   31.90    2.26
   6  -5 -10   30.80    3.18
  -6   5  10   27.06    3.32
   5  -5 -10   47.18    2.74
   5  -5 -10   43.00    2.71
   5  -5 -10   43.15    3.81
  -5   5  10   41.93    3.91
   4  -5 -10    1.97    0.73
   4  -5 -10    3.38    1.10
   4  -5 -10    1.30    0.67
  -4   5  10    1.43    1.01
   3  -5 -10   60.49    5.04
   3  -5 -10   63.17    3.40
   3  -5 -10   63.39    3.25
   3  -5 -10   61.63    4.49
  -3   5  10   60.77    4.51
  -3   5  10   51.51    4.40
   2  -5 -10  104.94    5.00
   2  -5 -10  103.46    5.33
   2  -5 -10  109.16    6.96
   2  -5 -10  100.54    8.07
  -2   5  10  106.53    6.94
  -2   5  10  109.58    7.09
   1  -5 -10    4.15    0.82
   1  -5 -10    3.83    0.92
   1  -5 -10    2.35    1.02
  -1   5  10    3.67    0.98
  -1   5  10    4.67    1.13
   0  -5 -10   65.45    5.22
   0  -5 -10   60.70    3.48
   0  -5 -10   60.77    4.29
   0   5  10   61.58    4.60
   0   5  10   67.08    4.74
   0   5  10   65.99    4.29
  -1  -5 -10   58.33    3.77
  -1  -5 -10   60.01    4.61
  -1  -5 -10   55.14    3.16
   1   5  10   46.77    4.00
   1   5  10   52.37    4.24
   1   5  10   59.67    3.75
  -2  -5 -10   39.32    2.36
  -2  -5 -10   28.80    2.83
  -2  -5 -10   36.47    2.21
   2   5  10   27.02    2.77
   2   5  10   27.06    2.60
  -3  -5 -10   42.59    3.70
  -3  -5 -10   44.27    3.42
  -3  -5 -10   45.76    2.86
   3   5  10   44.82    2.99
   3   5  10   37.59    3.26
   3   5  10   47.96    3.60
  -4  -5 -10   58.83    4.55
  -4  -5 -10   54.72    3.39
  -4  -5 -10   54.60    4.36
   4   5  10   50.50    3.99
   4   5  10   57.14    3.83
   4   5  10   61.23    4.29
  -5  -5 -10    1.84    0.72
  -5  -5 -10    2.60    0.74
   5   5  10    2.55    0.86
   5   5  10    2.14    0.82
   5   5  10    1.56    0.89
  -6  -5 -10   72.78    5.58
  -6  -5 -10   67.37    5.44
   6   5  10   69.70    5.07
   6   5  10   70.65    4.87
   6   5  10   63.26    4.85
  -7  -5 -10  106.19    8.00
  -7  -5 -10   99.01    7.18
  -7  -5 -10  100.42    7.76
   7   5  10  102.87    6.89
   7   5  10   97.48    7.02
  -8  -5 -10    0.45    0.77
  -8  -5 -10   -0.03    0.69
   8   5  10    1.11    0.98
   8   5  10   -0.28    0.88
  -9  -5 -10   57.97    5.20
  -9  -5 -10   55.26    4.94
   9   5  10   56.70    4.60
 -10  -5 -10   71.49    6.13
 -10  -5 -10   69.11    6.39
  10   5  10   73.85    5.70
   7  -6 -10    5.00    1.16
   7  -6 -10    3.25    1.43
  -7   6  10    3.90    1.71
   6  -6 -10   48.04    4.05
   6  -6 -10   44.52    2.82
   6  -6 -10   44.32    2.81
  -6   6  10   40.50    4.04
   5  -6 -10   22.89    2.72
   5  -6 -10   21.84    1.83
   5  -6 -10   23.16    1.98
  -5   6  10   24.80    2.94
   4  -6 -10    3.69    0.82
   4  -6 -10    5.18    1.23
   4  -6 -10    4.12    0.88
  -4   6  10    2.93    1.26
  -4   6  10    4.84    1.38
   3  -6 -10   23.10    2.35
   3  -6 -10   25.32    2.49
   3  -6 -10   25.16    1.68
   3  -6 -10   24.29    1.78
  -3   6  10   25.69    2.58
  -3   6  10   21.75    2.41
   2  -6 -10   31.07    1.91
   2  -6 -10   31.81    2.11
   2  -6 -10   31.04    2.95
   2  -6 -10   31.05    2.70
  -2   6  10   35.29    2.82
  -2   6  10   36.17    3.00
   1  -6 -10   16.72    1.41
   1  -6 -10   15.65    1.89
   1  -6 -10   16.94    1.70
   1  -6 -10   15.70    1.20
  -1   6  10   18.03    2.16
  -1   6  10   16.08    1.71
   0  -6 -10   83.93    5.49
   0  -6 -10   89.81    4.49
   0  -6 -10   78.77    6.57
   0   6  10   88.11    5.48
   0   6  10   81.38    5.95
   0   6  10   94.82    6.17
  -1  -6 -10   19.00    1.54
  -1  -6 -10   19.50    1.62
  -1  -6 -10   21.62    2.13
   1   6  10   16.07    2.11
   1   6  10   18.64    2.43
  -2  -6 -10   15.20    1.23
  -2  -6 -10   17.00    1.54
  -2  -6 -10   11.60    1.57
   2   6  10   12.03    1.88
   2   6  10   14.19    1.85
  -3  -6 -10  127.45    7.51
  -3  -6 -10  127.70    6.33
  -3  -6 -10  118.30    9.30
   3   6  10  135.42    8.53
   3   6  10  132.60    6.86
   3   6  10  121.97    8.29
  -4  -6 -10   49.80    4.06
  -4  -6 -10   51.21    3.00
  -4  -6 -10   50.29    3.93
  -4  -6 -10   44.31    2.89
   4   6  10   48.85    3.42
   4   6  10   49.60    3.08
   4   6  10   49.78    3.80
   4   6  10   49.56    3.84
  -5  -6 -10   21.29    2.11
  -5  -6 -10   20.04    1.69
  -5  -6 -10   20.03    2.05
   5   6  10   21.47    1.97
   5   6  10   21.54    2.15
   5   6  10   22.00    1.79
   5   6  10   20.52    2.14
  -6  -6 -10   88.61    6.71
  -6  -6 -10   86.43    6.85
   6   6  10   86.32    5.15
   6   6  10   90.77    5.95
   6   6  10   86.64    6.10
   6   6  10   86.59    6.17
  -7  -6 -10    7.78    1.41
  -7  -6 -10    9.12    1.49
  -7  -6 -10    7.10    1.40
   7   6  10    9.11    1.57
   7   6  10   10.23    1.75
  -8  -6 -10   11.75    1.03
  -8  -6 -10    9.64    1.68
  -8  -6 -10   10.04    1.81
   8   6  10    9.77    1.79
   8   6  10   11.37    1.83
  -9  -6 -10   43.37    4.31
  -9  -6 -10   44.88    4.15
   9   6  10   45.98    3.97
 -10  -6 -10   10.63    1.99
 -10  -6 -10    9.75    2.15
  10   6  10   10.54    2.09
   7  -7 -10   29.97    3.27
   7  -7 -10   28.68    2.27
  -7   7  10   30.51    3.68
   6  -7 -10   31.09    3.18
   6  -7 -10   32.29    2.24
   6  -7 -10   29.29    2.25
  -6   7  10   33.70    3.54
  -6   7  10   24.44    3.07
   5  -7 -10    0.83    0.70
   5  -7 -10   -0.92    0.68
   5  -7 -10    0.72    0.62
  -5   7  10    1.06    1.28
  -5   7  10   -0.92    0.97
   4  -7 -10   30.33    2.23
   4  -7 -10   35.56    3.06
   4  -7 -10   32.15    2.11
  -4   7  10   32.88    3.24
  -4   7  10   33.95    3.11
   3  -7 -10   79.05    4.24
   3  -7 -10   77.37    5.50
   3  -7 -10   82.06    3.96
  -3   7  10   83.27    5.88
  -3   7  10   77.86    5.53
   2  -7 -10    6.22    0.95
   2  -7 -10    4.87    0.75
   2  -7 -10    6.13    1.18
  -2   7  10    6.32    1.18
  -2   7  10    5.84    1.48
   1  -7 -10   47.14    2.49
   1  -7 -10   46.82    3.48
   1  -7 -10   53.22    2.88
  -1   7  10   47.95    3.48
  -1   7  10   54.85    3.96
  -1   7  10   45.25    3.94
   0  -7 -10   59.98    4.01
   0  -7 -10   61.65    3.33
   0  -7 -10   61.67    2.88
   0   7  10   51.02    4.47
   0   7  10   64.40    4.69
  -1  -7 -10    0.28    0.30
  -1  -7 -10    0.28    0.37
  -1  -7 -10    0.23    0.63
  -1  -7 -10    0.78    0.47
   1   7  10   -1.14    0.80
   1   7  10    0.12    0.37
   1   7  10    0.01    0.88
  -2  -7 -10   68.64    5.52
  -2  -7 -10   82.09    3.95
  -2  -7 -10   73.56    4.51
   2   7  10   73.70    4.06
   2   7  10   74.81    5.32
   2   7  10   63.35    5.12
  -3  -7 -10   95.44    8.12
  -3  -7 -10  124.21    5.67
  -3  -7 -10  113.82    6.62
   3   7  10  114.21    6.08
   3   7  10  118.42    7.58
   3   7  10  106.04    7.43
  -4  -7 -10   12.72    1.35
  -4  -7 -10   12.32    1.33
  -4  -7 -10   11.68    0.86
  -4  -7 -10   11.85    1.46
   4   7  10   11.05    1.25
   4   7  10   12.36    1.78
   4   7  10   15.03    1.88
  -5  -7 -10  111.01    8.21
  -5  -7 -10  115.30    5.62
  -5  -7 -10  112.66    8.37
   5   7  10  107.16    7.47
   5   7  10  108.90    6.22
   5   7  10  109.06    7.45
  -6  -7 -10   76.43    4.00
  -6  -7 -10   70.98    5.90
  -6  -7 -10   73.94    5.74
   6   7  10   72.27    5.34
   6   7  10   78.10    5.42
   6   7  10   72.92    4.50
  -7  -7 -10    0.64    0.65
  -7  -7 -10    0.47    0.68
  -7  -7 -10    0.00    0.47
  -7  -7 -10    1.02    0.44
  -7  -7 -10    1.07    0.75
   7   7  10    0.92    0.87
   7   7  10    1.45    0.83
   7   7  10    0.82    0.95
  -8  -7 -10   38.67    3.96
  -8  -7 -10   44.04    3.85
  -8  -7 -10   41.13    3.67
  -8  -7 -10   47.36    2.24
  -8  -7 -10   41.15    2.55
   8   7  10   42.64    3.19
  -9  -7 -10   22.76    2.73
  -9  -7 -10   18.84    2.42
 -10  -7 -10    0.84    0.93
 -10  -7 -10    1.67    1.17
   6  -8 -10    3.55    0.96
   6  -8 -10    3.88    1.38
   6  -8 -10    3.47    1.01
  -6   8  10    4.55    1.83
  -6   8  10    4.19    1.59
   5  -8 -10   22.56    1.77
   5  -8 -10   20.68    1.92
   5  -8 -10   20.45    2.60
  -5   8  10   24.87    3.15
  -5   8  10   19.47    2.62
   4  -8 -10   75.10    5.39
   4  -8 -10   77.71    3.87
   4  -8 -10   69.36    4.09
  -4   8  10   78.73    5.49
  -4   8  10   78.15    5.80
   3  -8 -10    4.44    0.73
   3  -8 -10    4.56    0.90
   3  -8 -10    6.52    1.28
  -3   8  10    4.65    1.49
  -3   8  10    4.48    1.18
   2  -8 -10   64.02    4.56
   2  -8 -10   63.50    3.60
   2  -8 -10   67.49    3.27
  -2   8  10   67.24    5.13
  -2   8  10   66.87    4.63
   1  -8 -10  149.96    7.26
   1  -8 -10  140.96    9.14
   1  -8 -10  152.12    6.61
  -1   8  10  140.10    9.89
  -1   8  10  162.11   10.01
   0  -8 -10    9.49    1.11
   0  -8 -10   10.78    1.27
   0  -8 -10   12.33    0.86
   0   8  10    8.69    1.72
   0   8  10    7.50    1.62
  -1  -8 -10   51.46    3.26
  -1  -8 -10   53.16    2.84
   1   8  10   42.83    3.88
   1   8  10   42.23    3.88
   1   8  10   48.42    2.80
  -2  -8 -10   92.57    5.56
  -2  -8 -10   94.95    4.68
   2   8  10   81.32    6.27
   2   8  10   90.35    4.98
   2   8  10   91.65    6.37
  -3  -8 -10   24.18    1.68
  -3  -8 -10   23.76    1.70
   3   8  10   22.61    2.31
   3   8  10   25.03    2.48
   3   8  10   23.38    1.76
  -4  -8 -10   34.60    2.18
  -4  -8 -10   34.60    2.22
  -4  -8 -10   35.77    3.00
   4   8  10   38.25    3.04
   4   8  10   33.90    3.14
   4   8  10   34.53    2.41
  -5  -8 -10   52.41    3.10
  -5  -8 -10   60.05    2.77
  -5  -8 -10   57.51    4.46
  -5  -8 -10   53.56    4.54
   5   8  10   57.65    4.37
   5   8  10   56.69    4.25
   5   8  10   55.35    3.53
  -6  -8 -10    4.91    1.00
  -6  -8 -10    4.66    0.69
  -6  -8 -10    3.28    1.00
  -6  -8 -10    4.83    0.83
   6   8  10    3.91    0.99
   6   8  10    4.40    1.30
   6   8  10    5.22    1.24
  -7  -8 -10   17.68    1.24
  -7  -8 -10   16.98    2.03
  -7  -8 -10   17.50    1.94
  -7  -8 -10   15.18    2.04
  -7  -8 -10   16.94    1.41
   7   8  10   15.72    1.83
   7   8  10   17.50    2.32
   7   8  10   16.76    2.29
  -8  -8 -10   58.96    4.96
  -8  -8 -10   62.55    2.93
  -8  -8 -10   60.87    4.87
  -8  -8 -10   55.52    5.23
   8   8  10   60.09    4.06
  -9  -8 -10   21.10    2.72
  -9  -8 -10   17.24    2.29
   9   8  10   20.44    2.35
 -10  -8 -10    8.29    1.76
 -10  -8 -10    9.91    2.05
   6  -9 -10    3.58    0.94
   6  -9 -10    4.16    1.40
   6  -9 -10    2.98    1.07
  -6   9  10    3.72    1.38
  -6   9  10    7.66    2.17
   5  -9 -10   57.68    3.26
   5  -9 -10   56.38    3.50
   5  -9 -10   60.14    4.62
  -5   9  10   56.27    4.63
  -5   9  10   62.78    5.22
   4  -9 -10   16.97    1.38
   4  -9 -10   15.74    1.73
   4  -9 -10   17.85    2.34
   4  -9 -10   16.67    1.52
  -4   9  10   19.45    2.37
  -4   9  10   19.65    2.86
   3  -9 -10   11.27    1.13
   3  -9 -10    8.61    1.42
   3  -9 -10   11.34    1.35
  -3   9  10   10.25    2.03
   2  -9 -10   77.13    5.38
   2  -9 -10   84.16    3.86
   2  -9 -10   79.27    4.29
  -2   9  10   88.08    5.98
  -2   9  10   71.64    5.98
   1  -9 -10   17.95    1.63
   1  -9 -10   16.85    1.13
   1  -9 -10   15.88    1.66
  -1   9  10   23.50    2.77
  -1   9  10   11.53    2.16
   0  -9 -10   30.72    2.25
   0  -9 -10   31.20    1.97
   0   9  10   20.25    2.82
   0   9  10   25.32    2.79
  -1  -9 -10   82.87    4.44
  -1  -9 -10   86.44    5.42
   1   9  10   91.20    4.76
   1   9  10   86.51    6.28
   1   9  10   81.08    6.12
  -2  -9 -10   50.98    3.43
  -2  -9 -10   54.67    3.00
   2   9  10   52.31    3.15
   2   9  10   56.08    4.15
   2   9  10   49.69    4.19
  -3  -9 -10    1.60    0.57
  -3  -9 -10    2.07    0.46
  -3  -9 -10    1.45    0.52
   3   9  10    1.42    0.66
   3   9  10    1.17    0.85
   3   9  10    2.28    1.03
  -4  -9 -10   91.09    4.59
  -4  -9 -10   82.84    4.00
   4   9  10   87.48    6.17
   4   9  10   92.48    6.38
   4   9  10   91.95    5.15
  -5  -9 -10   38.21    2.19
  -5  -9 -10   32.75    1.91
   5   9  10   31.35    2.47
   5   9  10   35.81    3.19
   5   9  10   31.99    2.91
  -6  -9 -10   -0.10    0.40
  -6  -9 -10    0.60    0.47
   6   9  10   -0.47    0.76
   6   9  10    0.86    0.81
   6   9  10    2.19    1.09
  -7  -9 -10   34.24    3.27
  -7  -9 -10   34.05    1.99
  -7  -9 -10   34.59    2.16
   7   9  10   33.74    2.74
   7   9  10   37.65    3.24
   7   9  10   36.23    3.45
  -8  -9 -10   27.93    3.14
  -8  -9 -10   29.82    2.98
  -8  -9 -10   30.09    1.80
   8   9  10   28.26    2.57
  -9  -9 -10    3.88    1.44
  -9  -9 -10    4.95    1.47
   9   9  10    6.70    1.54
  -6  10  10   42.73    4.49
   5 -10 -10   33.55    3.19
   5 -10 -10   30.22    2.13
   5 -10 -10   29.03    2.36
  -5  10  10   37.35    3.92
   4 -10 -10    0.32    0.70
   4 -10 -10    0.11    0.52
   4 -10 -10    0.72    0.51
   4 -10 -10   -0.62    0.76
  -4  10  10   -1.74    1.37
   3 -10 -10   33.20    2.30
   3 -10 -10   29.11    1.83
   3 -10 -10   31.75    1.92
   3 -10 -10   30.34    2.77
  -3  10  10   29.48    3.64
  -3  10  10   33.05    3.11
   2 -10 -10   48.95    2.89
   2 -10 -10   48.07    2.46
   2 -10 -10   46.09    3.55
   2 -10 -10   46.38    2.49
  -2  10  10   39.49    4.16
  -2  10  10   53.19    4.16
   1 -10 -10    0.89    0.60
   1 -10 -10   -0.12    0.52
   1 -10 -10   -0.15    0.41
  -1  10  10   -1.43    1.06
  -1  10  10   -0.20    1.03
   0 -10 -10   14.09    1.52
   0 -10 -10   18.37    1.64
   0 -10 -10   19.47    1.48
   0  10  10   12.33    2.10
   0  10  10   14.95    2.23
  -1 -10 -10   30.30    2.37
  -1 -10 -10   34.37    2.14
  -1 -10 -10   31.22    1.83
   1  10  10   33.04    2.13
   1  10  10   30.17    3.14
   1  10  10   32.63    2.99
  -2 -10 -10    0.79    0.43
  -2 -10 -10    0.99    0.47
  -2 -10 -10    1.79    0.65
   2  10  10    0.16    0.80
   2  10  10    0.08    1.03
   2  10  10    0.82    0.57
  -3 -10 -10   50.09    3.45
  -3 -10 -10   54.18    3.05
  -3 -10 -10   55.56    2.75
   3  10  10   56.95    4.18
   3  10  10   55.97    4.42
   3  10  10   56.31    3.38
  -4 -10 -10   50.60    2.82
  -4 -10 -10   48.50    2.53
   4  10  10   46.91    3.17
   4  10  10   51.66    4.13
   4  10  10   47.31    3.83
  -5 -10 -10    0.48    0.48
  -5 -10 -10    0.66    0.51
   5  10  10   -0.45    0.68
   5  10  10    0.53    0.75
   5  10  10    0.50    0.93
  -6 -10 -10   38.41    2.39
  -6 -10 -10   40.27    2.23
  -6 -10 -10   39.31    3.63
   6  10  10   42.37    3.73
   6  10  10   39.62    2.99
   6  10  10   43.22    3.53
  -7 -10 -10   59.72    2.90
  -7 -10 -10   52.66    4.67
   7  10  10   56.73    4.72
   7  10  10   58.12    3.90
   7  10  10   53.51    4.46
  -8 -10 -10    3.52    1.34
  -8 -10 -10    3.20    0.75
   8  10  10    2.54    1.15
  -9 -10 -10   19.28    2.78
  -9 -10 -10   19.05    2.87
   9  10  10   14.25    1.99
   5 -11 -10    1.16    1.01
   5 -11 -10   -0.29    0.59
   5 -11 -10   -0.34    0.80
  -5  11  10    0.21    1.68
   4 -11 -10    8.68    1.12
   4 -11 -10    9.62    1.73
   4 -11 -10    9.42    1.41
   4 -11 -10    7.32    0.96
  -4  11  10    7.31    2.13
   3 -11 -10   22.91    2.42
   3 -11 -10   25.31    2.00
   3 -11 -10   22.24    1.56
  -3  11  10   21.89    3.13
  -3  11  10   26.03    2.85
   2 -11 -10   15.06    1.87
   2 -11 -10   21.87    1.92
   2 -11 -10   19.43    1.40
  -2  11  10   15.04    2.43
  -2  11  10   14.72    2.64
   1 -11 -10    7.43    1.19
   1 -11 -10    8.90    1.19
   1 -11 -10    8.37    0.99
  -1  11  10    7.03    1.71
  -1  11  10    5.97    1.78
   0 -11 -10   50.31    3.63
   0 -11 -10   52.94    3.06
   0 -11 -10   50.25    2.65
   0  11  10   51.86    4.18
   0  11  10   52.25    4.52
  -1 -11 -10   37.44    2.47
  -1 -11 -10   38.19    2.18
  -1 -11 -10   40.12    2.89
   1  11  10   42.99    3.79
   1  11  10   39.06    2.54
   1  11  10   40.54    3.35
  -2 -11 -10    1.91    0.57
  -2 -11 -10    1.79    0.66
  -2 -11 -10    1.75    0.59
   2  11  10    2.11    0.98
   2  11  10    2.97    1.33
   2  11  10    1.50    0.69
  -3 -11 -10   64.22    3.48
  -3 -11 -10   60.69    3.12
   3  11  10   67.74    5.06
   3  11  10   61.93    3.86
   3  11  10   61.90    4.66
  -4 -11 -10   18.21    1.50
  -4 -11 -10   20.45    1.65
   4  11  10   24.48    2.84
   4  11  10   18.10    2.07
   4  11  10   18.16    1.79
  -5 -11 -10   21.40    1.60
  -5 -11 -10   22.40    1.55
   5  11  10   22.22    2.68
   5  11  10   18.05    1.99
   5  11  10   21.56    2.31
  -6 -11 -10   39.49    3.81
  -6 -11 -10   41.84    2.51
  -6 -11 -10   43.45    2.38
   6  11  10   44.01    3.92
   6  11  10   41.93    3.57
   6  11  10   44.35    3.17
  -7 -11 -10    7.37    1.71
  -7 -11 -10    9.49    1.12
   7  11  10    9.79    1.63
   7  11  10    9.76    1.95
  -8 -11 -10   19.51    1.65
  -8 -11 -10   21.08    2.97
   8  11  10   24.60    2.59
   4 -12 -10   22.72    1.62
   4 -12 -10   22.44    2.74
   4 -12 -10   21.40    2.15
  -4  12  10   21.41    3.40
   3 -12 -10   38.09    2.15
  -3  12  10   33.24    4.18
  -3  12  10   32.79    3.49
   2 -12 -10   -0.38    0.52
   2 -12 -10    0.10    0.74
   2 -12 -10    0.01    0.65
  -2  12  10   -0.95    1.31
  -2  12  10   -0.65    1.09
   1 -12 -10   44.14    3.47
   1 -12 -10   51.23    2.59
   1 -12 -10   46.41    2.94
  -1  12  10   45.13    3.91
  -1  12  10   44.03    4.34
   0 -12 -10   48.74    3.06
   0 -12 -10   50.24    2.70
   0 -12 -10   46.96    3.65
   0  12  10   59.41    4.75
   0  12  10   56.17    4.19
  -1 -12 -10    0.95    0.56
  -1 -12 -10    1.42    0.68
  -1 -12 -10    1.47    0.66
   1  12  10    1.38    1.01
   1  12  10   -0.71    1.11
   1  12  10    1.44    0.69
  -2 -12 -10  103.62    4.55
  -2 -12 -10   96.66    6.14
  -2 -12 -10   91.15    5.01
   2  12  10   93.44    5.53
   2  12  10   96.31    6.70
   2  12  10  107.68    7.24
  -3 -12 -10   64.07    3.69
  -3 -12 -10   69.10    3.38
   3  12  10   70.30    5.41
   3  12  10   67.10    4.16
   3  12  10   67.76    4.94
  -4 -12 -10    2.51    0.72
  -4 -12 -10    2.91    0.74
   4  12  10    3.74    1.00
   4  12  10    2.88    1.33
   4  12  10    3.55    1.14
  -5 -12 -10   34.23    2.10
  -5 -12 -10   32.54    2.19
   5  12  10   37.37    2.74
   5  12  10   33.00    3.06
   5  12  10   34.33    3.44
  -6 -12 -10   29.58    1.98
  -6 -12 -10   32.78    3.34
   6  12  10   33.06    2.70
   6  12  10   33.55    3.41
   6  12  10   29.45    2.96
  -7 -12 -10   -0.27    0.52
  -7 -12 -10   -0.43    0.81
   7  12  10   -0.07    1.05
   7  12  10    0.08    0.90
   3 -13 -10    9.53    1.60
   3 -13 -10    9.66    1.42
   3 -13 -10    9.13    1.14
  -3  13  10    8.60    2.30
   2 -13 -10   23.49    1.86
   2 -13 -10   23.50    2.41
   2 -13 -10   25.38    2.08
  -2  13  10   24.95    3.39
   1 -13 -10   88.75    4.24
   1 -13 -10   86.36    6.00
   1 -13 -10   84.66    4.85
  -1  13  10  102.23    7.15
   0 -13 -10    1.52    0.70
   0 -13 -10    1.44    0.76
   0 -13 -10    1.31    0.72
   0  13  10    0.13    1.34
  -1 -13 -10   40.94    2.62
  -1 -13 -10   39.63    3.03
  -1 -13 -10   35.55    2.27
   1  13  10   39.48    3.30
   1  13  10   45.38    4.09
  -2 -13 -10   48.77    3.04
  -2 -13 -10   56.47    2.85
   2  13  10   48.05    3.91
   2  13  10   50.03    3.32
   2  13  10   55.11    4.60
  -3 -13 -10    0.52    0.65
  -3 -13 -10    0.80    0.49
  -3 -13 -10    1.76    0.66
   3  13  10    0.82    0.74
   3  13  10    2.67    1.40
   3  13  10    0.37    0.84
  -4 -13 -10   62.82    3.16
  -4 -13 -10   58.61    3.39
   4  13  10   57.91    3.93
   4  13  10   62.49    5.03
   4  13  10   57.50    4.49
  -5 -13 -10   46.84    4.27
  -5 -13 -10   45.65    2.76
  -5 -13 -10   47.93    2.63
   5  13  10   41.89    3.67
   5  13  10   47.70    4.24
   5  13  10   43.07    3.31
  -6 -13 -10    5.56    1.58
  -6 -13 -10    5.49    1.03
   6  13  10    6.76    1.39
   6  13  10    6.89    1.70
   7  13  10   14.77    2.38
   2 -14 -10   73.44    5.43
   2 -14 -10   73.57    4.41
   2 -14 -10   78.05    3.82
  -2  14  10   82.80    6.47
   1 -14 -10   12.29    1.60
   1 -14 -10   12.68    1.39
   1 -14 -10   13.84    1.91
  -1  14  10   16.76    2.89
   0 -14 -10   12.06    1.33
   0 -14 -10   14.76    1.66
   0 -14 -10   14.02    1.86
   0  14  10   15.09    2.70
  -1 -14 -10   60.39    3.76
  -1 -14 -10   64.30    3.39
  -1 -14 -10   68.44    4.63
   1  14  10   71.15    5.62
  -2 -14 -10   15.92    1.65
  -2 -14 -10   18.32    1.66
   2  14  10   19.98    2.82
   2  14  10   14.43    1.75
  -3 -14 -10   10.20    1.32
  -3 -14 -10   10.11    1.27
  -3 -14 -10   10.46    1.37
   3  14  10   16.53    2.62
   3  14  10   10.52    1.50
  -4 -14 -10   25.94    1.87
  -4 -14 -10   22.51    1.87
   4  14  10   25.62    2.28
   4  14  10   25.11    3.11
  -5 -14 -10    8.96    1.95
  -5 -14 -10   13.15    1.44
   5  14  10   13.35    2.40
   5  14  10   12.37    1.80
   0 -15 -10   22.03    2.33
   0 -15 -10   24.60    2.03
   0 -15 -10   24.98    2.31
   0  15  10   29.84    3.66
  -1 -15 -10   18.06    1.92
  -1 -15 -10   21.12    1.87
   1  15  10   19.94    2.87
  -2 -15 -10   -0.11    0.68
  -2 -15 -10   -0.02    0.59
  -2 -15 -10   -1.04    0.49
   2  15  10    0.77    1.31
  -3 -15 -10   16.98    1.74
  -3 -15 -10   17.07    1.78
  -3 -15 -10   14.73    1.53
   3  15  10   16.38    1.93
   3  15  10   20.94    2.98
   1   7 -11    4.38    2.05
   1   7 -11    5.17    1.58
  -1  -7  11    4.92    1.76
   0   7 -11    4.46    1.54
   0   7 -11    3.11    1.85
   0  -7  11    4.41    1.71
  -1   7 -11   39.94    4.39
  -1   7 -11   40.73    4.50
  -1   7 -11   35.10    3.68
  -2   7 -11    7.08    2.02
  -2   7 -11    7.94    1.76
  -2   7 -11    5.67    2.01
  -3   7 -11    2.32    1.17
  -3   7 -11    1.11    1.39
  -3   7 -11    3.10    1.72
   3  -7  11    2.48    1.34
  -4   7 -11   27.27    3.96
  -4   7 -11   26.63    3.22
  -4   7 -11   33.36    4.06
   4  -7  11   31.08    3.19
  -5   7 -11    8.56    2.40
  -5   7 -11    7.87    1.73
  -5   7 -11    9.01    2.60
   5  -7  11   10.64    2.04
   2   6 -11    9.22    1.85
   2   6 -11    9.80    2.39
  -2  -6  11    6.97    1.90
  -2  -6  11    9.64    2.10
   1   6 -11    0.11    1.45
   1   6 -11    1.45    1.13
  -1  -6  11    1.15    1.35
   0   6 -11   33.59    4.13
   0   6 -11   35.87    3.47
   0  -6  11   33.65    3.53
  -1   6 -11   38.22    3.81
  -1   6 -11   46.62    4.52
  -1   6 -11   46.23    4.72
   1  -6  11   40.21    3.96
  -2   6 -11    1.39    1.40
  -2   6 -11    1.64    1.52
  -2   6 -11    1.48    1.14
  -3   6 -11   56.43    5.20
  -3   6 -11   48.54    5.07
  -3   6 -11   41.74    4.04
   3  -6  11   52.87    4.12
  -4   6 -11   49.44    4.38
  -4   6 -11   54.64    5.50
  -4   6 -11   62.00    5.74
   4  -6  11   57.69    4.51
  -5   6 -11    0.17    1.35
  -5   6 -11    0.50    0.85
  -5   6 -11   -0.66    1.45
   5  -6  11    2.06    1.37
  -6   6 -11   14.98    2.89
  -6   6 -11   27.19    2.62
  -6   6 -11   21.80    3.55
   6  -6  11   27.53    3.25
   3   5 -11   42.49    4.87
   3   5 -11   39.37    3.62
  -3  -5  11   30.47    3.87
  -3  -5  11   41.03    3.85
   2   5 -11   13.56    2.09
   2   5 -11   12.38    2.78
  -2  -5  11   10.59    2.19
  -2  -5  11   12.12    2.07
   1   5 -11   16.84    2.37
   1   5 -11   13.31    2.62
  -1  -5  11   13.35    2.23
  -1  -5  11   12.90    2.13
   0   5 -11   45.53    4.02
   0   5 -11   48.84    4.98
   0  -5  11   47.55    4.15
  -1   5 -11   15.88    2.47
  -1   5 -11   13.01    2.13
  -1   5 -11   14.33    2.60
   1  -5  11   15.94    2.22
  -2   5 -11   58.46    5.12
  -2   5 -11   43.53    4.14
  -2   5 -11   58.38    5.27
   2  -5  11   50.58    3.99
  -3   5 -11   53.56    5.07
  -3   5 -11   43.97    4.01
  -3   5 -11   55.54    5.15
   3  -5  11   51.26    4.03
  -4   5 -11    2.63    1.58
  -4   5 -11   -0.12    1.26
  -4   5 -11    2.81    1.14
   4  -5  11    2.72    1.25
  -5   5 -11   23.75    3.65
  -5   5 -11   28.71    3.82
  -5   5 -11   29.89    2.88
   5  -5  11   42.72    3.47
  -6   5 -11   38.98    4.56
  -6   5 -11   54.21    3.83
  -6   5 -11   40.73    4.89
  -7   5 -11   -0.43    1.43
  -7   5 -11    0.30    1.17
  -7   5 -11    1.42    0.88
   7  -5  11    0.76    1.45
   4   4 -11   31.77    3.22
   4   4 -11   28.86    4.49
  -4  -4  11   30.18    3.69
  -4  -4  11   31.76    3.39
   3   4 -11   32.92    3.22
   3   4 -11   35.50    4.43
  -3  -4  11   30.72    3.60
  -3  -4  11   34.67    3.43
   2   4 -11    7.13    1.51
   2   4 -11    5.81    2.01
  -2  -4  11    6.38    1.80
  -2  -4  11    9.49    1.76
   1   4 -11   77.06    5.60
   1   4 -11   76.18    6.84
  -1  -4  11   76.44    5.62
  -1  -4  11   75.81    5.36
  -1  -4  11   75.33    5.96
   0   4 -11   41.72    3.69
   0   4 -11   47.95    4.63
   0  -4  11   42.51    3.78
   0  -4  11   43.48    3.79
  -1   4 -11    6.99    1.92
  -1   4 -11    7.67    1.70
  -1   4 -11    7.29    1.53
   1  -4  11    7.99    1.61
  -2   4 -11   55.52    4.99
  -2   4 -11   51.30    4.24
  -2   4 -11   57.37    5.24
   2  -4  11   52.69    4.03
  -3   4 -11    9.68    2.11
  -3   4 -11   10.71    2.10
  -3   4 -11    7.07    1.51
   3  -4  11    8.67    1.58
  -4   4 -11    8.15    2.01
  -4   4 -11    9.57    1.70
  -4   4 -11    9.60    2.20
   4  -4  11   13.63    2.00
  -5   4 -11   22.85    3.32
  -5   4 -11   25.39    2.41
  -5   4 -11   17.93    2.91
  -6   4 -11    4.83    1.15
  -6   4 -11    0.93    1.40
  -6   4 -11    3.15    1.49
   6  -4  11    5.41    1.74
  -7   4 -11    3.23    1.50
  -7   4 -11    9.97    1.54
  -7   4 -11    3.37    1.82
   7  -4  11    3.86    1.79
  -8   4 -11   29.93    2.65
  -8   4 -11   26.78    3.50
  -8   4 -11   24.72    3.94
   8  -4  11   25.04    3.63
   5   3 -11    9.22    2.81
   5   3 -11   11.79    2.01
  -5  -3  11    9.85    2.34
  -5  -3  11   11.22    2.05
   4   3 -11   40.03    3.68
   4   3 -11   43.13    5.06
  -4  -3  11   46.57    3.88
  -4  -3  11   35.02    4.20
   3   3 -11   -0.32    1.49
   3   3 -11    0.26    0.87
  -3  -3  11    0.38    1.05
  -3  -3  11    1.56    1.57
   2   3 -11   41.20    3.45
   2   3 -11   39.15    4.38
  -2  -3  11   35.53    3.69
  -2  -3  11   38.50    3.49
   1   3 -11   50.04    4.05
   1   3 -11   56.52    5.16
  -1  -3  11   56.29    4.19
  -1  -3  11   48.12    3.84
  -1  -3  11   48.90    4.36
   0   3 -11    4.36    1.56
   0   3 -11    3.64    1.11
   0  -3  11    3.37    1.23
   0  -3  11    4.69    1.36
   0  -3  11    5.38    1.16
  -1   3 -11   68.94    5.71
  -1   3 -11   68.41    5.98
  -1   3 -11   63.15    4.88
   1  -3  11   65.82    4.88
   1  -3  11   64.42    5.01
   1  -3  11   72.16    4.84
  -2   3 -11   41.78    3.66
  -2   3 -11   46.79    4.32
  -2   3 -11   44.97    4.54
   2  -3  11   50.10    3.57
   2  -3  11   48.54    3.68
  -3   3 -11    1.00    1.11
  -3   3 -11    0.72    1.15
  -3   3 -11    0.97    0.79
   3  -3  11    0.24    0.85
   3  -3  11    2.37    1.02
  -4   3 -11   20.00    2.41
  -4   3 -11   16.61    2.78
   4  -3  11   25.72    2.46
   4  -3  11   22.20    2.33
  -5   3 -11   20.92    2.14
  -5   3 -11   16.18    2.79
  -5   3 -11   14.16    2.71
   5  -3  11   27.09    2.64
   5  -3  11   22.21    2.29
  -6   3 -11    2.01    1.43
  -6   3 -11    3.45    1.03
  -6   3 -11    1.73    1.24
   6  -3  11    3.65    1.48
  -7   3 -11   12.64    2.63
  -7   3 -11   13.91    2.53
  -7   3 -11   15.62    1.90
   7  -3  11   13.77    2.53
  -8   3 -11   13.01    1.74
  -8   3 -11    8.92    2.41
  -8   3 -11   11.68    2.42
   8  -3  11   11.35    2.56
   5   2 -11   62.42    4.81
   5   2 -11   46.50    5.86
  -5  -2  11   55.55    5.34
  -5  -2  11   58.34    4.73
   4   2 -11    7.52    2.50
   4   2 -11    8.39    1.74
  -4  -2  11    8.14    1.64
  -4  -2  11    6.01    1.87
   3   2 -11   19.42    3.27
   3   2 -11   18.89    2.41
  -3  -2  11   16.33    2.70
   2   2 -11   57.11    4.37
   2   2 -11   63.85    5.65
  -2  -2  11   50.72    4.77
  -2  -2  11   56.67    4.41
   1   2 -11    3.46    1.12
   1   2 -11    3.59    1.45
  -1  -2  11    1.43    1.21
  -1  -2  11    3.15    1.12
   0   2 -11   22.30    2.18
   0   2 -11   19.29    2.81
   0  -2  11   17.94    2.23
   0  -2  11   20.74    2.03
   0  -2  11   17.21    2.19
  -1   2 -11   27.23    3.19
  -1   2 -11   23.93    2.45
  -1   2 -11   27.19    2.75
   1  -2  11   25.92    2.52
   1  -2  11   27.04    2.51
   1  -2  11   27.75    2.44
  -2   2 -11    1.96    0.88
  -2   2 -11    2.51    1.24
  -2   2 -11    3.13    1.15
   2  -2  11    2.61    0.93
   2  -2  11    4.75    1.15
  -3   2 -11   14.32    1.92
  -3   2 -11   13.48    2.39
  -3   2 -11   16.89    2.38
   3  -2  11   14.22    1.99
   3  -2  11   18.18    1.93
  -4   2 -11   31.00    3.95
  -4   2 -11   43.27    3.39
  -4   2 -11   40.90    4.15
   4  -2  11   44.37    3.60
   4  -2  11   56.35    3.73
  -5   2 -11   17.62    2.82
  -5   2 -11   22.73    2.20
  -5   2 -11   18.85    2.89
   5  -2  11   24.77    2.67
   5  -2  11   28.02    2.55
  -6   2 -11    8.78    1.43
  -6   2 -11    9.66    2.08
  -6   2 -11   12.17    2.27
   6  -2  11   10.91    2.08
   6  -2  11   12.44    1.91
  -7   2 -11   79.09    5.21
  -7   2 -11   76.80    6.59
  -7   2 -11   73.82    6.79
   7  -2  11   71.72    5.98
   7  -2  11   78.31    5.69
  -8   2 -11   25.58    2.22
  -8   2 -11   23.40    3.03
  -8   2 -11   23.75    3.46
   8  -2  11   15.03    2.94
  -9   2 -11    9.37    2.44
  -9   2 -11   10.97    1.53
  -9   2 -11    8.34    2.09
   9  -2  11   10.14    2.63
   6   1 -11   41.65    3.97
  -6  -1  11   45.60    4.04
  -6  -1  11   32.98    4.23
   5   1 -11    4.01    2.12
   5   1 -11    8.75    1.75
  -5  -1  11    9.98    1.83
  -5  -1  11    7.67    2.16
   4   1 -11   11.61    2.04
   4   1 -11    6.31    2.31
  -4  -1  11    9.63    1.74
  -4  -1  11   10.52    2.21
   3   1 -11   71.14    5.04
   3   1 -11   65.74    6.28
  -3  -1  11   70.49    5.01
  -3  -1  11   55.71    5.38
   2   1 -11   29.31    3.56
   2   1 -11   26.61    2.67
  -2  -1  11   29.80    2.76
  -2  -1  11   26.62    2.98
   1   1 -11    5.35    1.72
   1   1 -11    6.26    1.26
  -1  -1  11    6.14    1.27
  -1  -1  11    5.04    1.42
   0   1 -11   62.49    4.43
   0   1 -11   62.37    5.48
   0  -1  11   59.73    4.38
   0  -1  11   59.31    4.39
   0  -1  11   61.12    4.77
  -1   1 -11   47.37    4.64
  -1   1 -11   50.45    3.78
   1  -1  11   52.71    3.78
   1  -1  11   51.70    3.85
   1  -1  11   50.15    4.03
  -2   1 -11    0.94    0.83
  -2   1 -11    0.92    0.69
  -2   1 -11    1.24    1.07
   2  -1  11    0.57    0.71
   2  -1  11    0.09    0.84
  -3   1 -11   39.78    4.35
  -3   1 -11   45.44    3.54
  -3   1 -11   45.08    4.25
   3  -1  11   49.62    3.87
   3  -1  11   58.43    3.74
  -4   1 -11   33.87    3.60
  -4   1 -11   38.46    2.98
  -4   1 -11   34.24    3.71
   4  -1  11   40.98    3.30
  -5   1 -11    1.36    0.69
  -5   1 -11    0.78    0.98
  -5   1 -11    0.55    1.03
   5  -1  11    0.94    0.97
   5  -1  11    1.58    1.02
  -6   1 -11   89.90    6.26
  -6   1 -11   94.78    7.97
  -6   1 -11   97.34    7.85
   6  -1  11  107.46    6.93
   6  -1  11   96.08    6.94
  -7   1 -11   60.02    5.30
  -7   1 -11   59.48    3.98
  -7   1 -11   54.37    5.04
   7  -1  11   57.54    4.48
   7  -1  11   43.00    4.58
  -8   1 -11   10.57    1.47
  -8   1 -11   12.49    2.35
  -8   1 -11   14.09    2.31
   8  -1  11    9.76    2.30
  -9   1 -11   72.74    6.69
  -9   1 -11   75.04    6.45
  -9   1 -11   71.41    4.86
   9  -1  11   67.99    6.02
   6   0 -11   44.54    4.04
   6   0 -11   28.98    2.87
  -6   0  11   34.74    4.10
  -6   0  11   39.48    3.90
   5   0 -11   -2.77    1.08
   5   0 -11    1.05    1.11
  -5   0  11   -0.22    1.47
  -5   0  11    1.47    1.19
   4   0 -11   22.53    2.71
   4   0 -11   16.67    3.24
  -4   0  11   24.00    2.79
  -4   0  11   14.55    2.54
   3   0 -11   43.59    2.71
   3   0 -11   49.83    3.94
   3   0 -11   43.79    4.88
  -3   0  11   44.57    4.19
  -3   0  11   48.21    3.87
   2   0 -11    0.43    0.75
   2   0 -11    1.21    0.54
   2   0 -11    0.14    1.19
  -2   0  11    0.19    1.10
  -2   0  11    1.22    0.91
   1   0 -11   56.58    5.23
   1   0 -11   57.60    4.26
  -1   0  11   60.75    4.28
  -1   0  11   53.79    4.59
   0   0 -11   84.02    6.83
   0   0 -11   81.70    5.55
   0   0  11   76.53    5.23
   0   0  11   84.56    5.55
   0   0  11   78.24    5.62
   0   0  11   88.45    6.15
  -1   0 -11    4.49    1.40
  -1   0 -11    4.95    1.03
   1   0  11    6.75    1.01
   1   0  11    4.84    1.05
   1   0  11    5.33    1.20
  -2   0 -11   75.31    6.34
  -2   0 -11   72.39    6.59
  -2   0 -11   82.70    5.40
   2   0  11   85.20    5.77
   2   0  11   89.87    5.42
  -3   0 -11  126.04    6.86
  -3   0 -11   85.84    8.16
  -3   0 -11   98.75    8.16
   3   0  11  111.95    7.31
  -4   0 -11   14.44    1.70
  -4   0 -11   13.01    2.01
  -4   0 -11   11.98    2.14
   4   0  11   19.65    1.98
   4   0  11   13.46    2.03
  -5   0 -11   60.25    5.17
  -5   0 -11   51.31    3.98
  -5   0 -11   56.43    5.07
   5   0  11   57.62    4.45
   5   0  11   71.06    4.74
  -6   0 -11   68.64    5.05
  -6   0 -11   77.83    6.45
  -6   0 -11   82.69    6.59
   6   0  11   88.87    5.86
   6   0  11   73.33    5.67
  -7   0 -11   -0.49    0.89
  -7   0 -11    0.80    0.54
  -7   0 -11    0.36    0.88
   7   0  11    0.13    1.14
   7   0  11    0.41    0.99
  -8   0 -11   41.07    4.02
  -8   0 -11   37.04    2.76
  -8   0 -11   35.31    3.73
   8   0  11   28.61    3.75
  -9   0 -11   33.97    4.00
  -9   0 -11   36.23    3.82
   9   0  11   33.98    4.26
 -10   0 -11    0.91    1.16
 -10   0 -11    0.02    1.33
  10   0  11   -2.63    1.32
   6  -1 -11    7.16    1.52
   6  -1 -11    9.21    2.01
  -6   1  11    7.83    2.27
  -6   1  11    7.10    1.81
   5  -1 -11   11.32    2.07
   5  -1 -11    6.16    2.32
  -5   1  11   11.09    2.41
  -5   1  11    9.28    2.00
   4  -1 -11   44.68    5.15
   4  -1 -11   52.03    4.32
  -4   1  11   50.28    4.23
  -4   1  11   54.46    4.68
   3  -1 -11   49.97    2.91
   3  -1 -11   43.38    4.95
   3  -1 -11   49.40    4.08
  -3   1  11   52.82    4.10
  -3   1  11   50.74    4.42
   2  -1 -11    6.60    1.87
   2  -1 -11    6.53    1.40
   2  -1 -11    5.99    0.94
  -2   1  11    6.45    1.62
  -2   1  11    6.60    1.29
   1  -1 -11   95.19    7.87
   1  -1 -11   98.52    6.53
  -1   1  11   92.90    6.45
  -1   1  11  101.60    7.20
   0  -1 -11   43.43    3.31
   0  -1 -11   41.83    4.02
   0   1  11   40.21    3.32
   0   1  11   39.46    3.00
   0   1  11   46.08    3.73
   0   1  11   44.16    3.32
  -1  -1 -11   16.72    1.77
  -1  -1 -11   16.59    2.35
   1   1  11   18.40    1.58
   1   1  11   15.13    1.53
   1   1  11   16.52    1.78
   1   1  11   17.41    1.96
  -2  -1 -11  134.08    8.18
  -2  -1 -11  117.66    9.93
   2   1  11  136.14    8.20
   2   1  11  135.05    8.76
  -3  -1 -11   26.80    2.06
  -3  -1 -11   16.67    2.61
  -3  -1 -11   21.29    2.32
   3   1  11   21.20    2.39
   3   1  11   28.33    2.19
  -4  -1 -11   45.46    4.56
  -4  -1 -11   59.21    3.68
  -4  -1 -11   51.67    4.48
   4   1  11   51.81    3.90
   4   1  11   53.78    4.23
  -5  -1 -11  114.26    8.48
  -5  -1 -11  110.39    8.43
  -5  -1 -11  100.80    6.70
   5   1  11  118.94    7.59
   5   1  11   97.21    7.17
  -6  -1 -11   18.90    2.29
  -6  -1 -11   18.21    2.23
  -6  -1 -11   14.90    1.53
   6   1  11   20.09    2.47
   6   1  11   16.26    2.28
  -7  -1 -11   12.81    2.09
  -7  -1 -11   12.69    2.07
  -7  -1 -11   11.68    1.38
   7   1  11    8.24    1.78
   7   1  11   16.09    2.25
  -8  -1 -11   44.55    4.24
  -8  -1 -11   44.98    4.36
   8   1  11   45.58    3.90
   8   1  11   39.88    4.02
  -9  -1 -11    4.25    1.58
  -9  -1 -11    7.05    1.71
   9   1  11    4.79    1.85
 -10  -1 -11    1.13    1.12
 -10  -1 -11    0.57    1.43
  10   1  11   -0.98    1.37
   6  -2 -11    9.05    2.14
   6  -2 -11   -0.49    0.81
  -6   2  11    0.05    1.55
  -6   2  11   -0.14    1.21
   5  -2 -11   31.91    2.61
   5  -2 -11   37.86    3.72
   5  -2 -11   34.76    4.25
  -5   2  11   42.52    3.80
  -5   2  11   40.80    4.10
   4  -2 -11   22.64    3.46
   4  -2 -11   22.84    2.84
   4  -2 -11   21.29    1.85
  -4   2  11   29.60    3.19
  -4   2  11   27.02    3.08
   3  -2 -11   -0.82    0.74
   3  -2 -11    0.87    0.62
   3  -2 -11   -1.21    1.01
  -3   2  11   -0.45    0.87
  -3   2  11    1.07    1.28
   2  -2 -11   99.19    5.23
   2  -2 -11   94.43    6.88
   2  -2 -11  105.62    8.40
  -2   2  11  109.68    6.98
  -2   2  11  101.52    7.60
   1  -2 -11   97.43    7.53
   1  -2 -11   95.77    4.81
   1  -2 -11   92.87    6.26
  -1   2  11   93.90    6.92
  -1   2  11   92.27    6.22
  -1   2  11   82.31    5.96
   0  -2 -11    1.06    0.96
   0  -2 -11    1.41    0.73
   0   2  11    0.92    0.70
   0   2  11    1.66    0.89
   0   2  11    2.40    0.84
  -1  -2 -11   57.63    5.08
  -1  -2 -11   62.31    4.24
   1   2  11   61.61    4.48
   1   2  11   58.49    3.93
   1   2  11   67.51    4.41
   1   2  11   55.86    4.06
  -2  -2 -11   63.48    5.74
  -2  -2 -11   81.08    4.80
   2   2  11   66.07    4.60
   2   2  11   70.42    4.68
   2   2  11   72.64    5.21
  -3  -2 -11    2.31    0.66
  -3  -2 -11    1.27    0.87
  -3  -2 -11    1.02    0.67
   3   2  11    0.18    0.89
   3   2  11    1.10    0.58
   3   2  11    1.44    0.71
  -4  -2 -11   32.59    2.29
  -4  -2 -11   29.55    3.03
  -4  -2 -11   31.85    2.81
   4   2  11   24.38    2.46
   4   2  11   27.54    2.86
  -5  -2 -11   27.07    2.69
  -5  -2 -11   31.00    2.12
  -5  -2 -11   25.65    2.80
   5   2  11   29.39    2.77
   5   2  11   22.06    2.41
  -6  -2 -11    2.04    0.93
  -6  -2 -11    1.31    0.50
  -6  -2 -11    1.96    0.93
   6   2  11    0.06    0.85
   6   2  11    1.61    1.04
  -7  -2 -11   38.66    3.70
  -7  -2 -11   39.31    3.66
   7   2  11   36.88    3.41
   7   2  11   35.94    3.44
  -8  -2 -11   20.64    2.56
  -8  -2 -11   20.67    2.61
   8   2  11   23.40    2.77
   8   2  11   19.28    2.74
  -9  -2 -11    3.51    1.40
  -9  -2 -11    4.40    1.39
   9   2  11    3.17    1.62
 -10  -2 -11   28.15    3.18
 -10  -2 -11   23.42    3.40
  10   2  11   18.18    3.04
   6  -3 -11    9.41    1.57
   6  -3 -11    5.97    1.83
  -6   3  11   12.85    2.59
  -6   3  11    9.03    2.10
   5  -3 -11   41.45    2.93
   5  -3 -11   41.12    4.03
  -5   3  11   47.40    4.50
  -5   3  11   47.48    4.19
   4  -3 -11    2.80    1.22
   4  -3 -11    2.65    1.52
   4  -3 -11    2.25    0.92
   4  -3 -11    3.94    0.93
  -4   3  11    3.39    1.35
  -4   3  11    5.32    1.87
   3  -3 -11   18.33    3.03
   3  -3 -11   18.17    1.82
   3  -3 -11   21.30    2.70
  -3   3  11   23.42    2.93
  -3   3  11   22.91    2.72
   2  -3 -11   52.92    3.33
   2  -3 -11   63.40    5.45
   2  -3 -11   57.58    4.52
  -2   3  11   65.10    4.63
   1  -3 -11    1.09    0.79
   1  -3 -11    0.80    0.59
   1  -3 -11    0.16    0.95
  -1   3  11    0.35    0.87
  -1   3  11    1.38    0.75
   0  -3 -11   51.89    2.98
   0  -3 -11   44.78    3.71
   0  -3 -11   54.85    4.55
   0   3  11   50.24    3.62
   0   3  11   47.86    3.82
   0   3  11   52.21    3.79
  -1  -3 -11   70.10    5.73
  -1  -3 -11   70.05    4.79
   1   3  11   69.54    4.76
   1   3  11   69.64    5.08
  -2  -3 -11   11.26    1.85
  -2  -3 -11   13.00    1.56
   2   3  11   12.13    1.89
   2   3  11   11.08    1.23
   2   3  11   13.88    1.51
  -3  -3 -11   26.81    2.97
   3   3  11   33.30    2.44
   3   3  11   31.65    2.99
   3   3  11   31.57    2.48
  -4  -3 -11   57.29    4.38
  -4  -3 -11   61.07    3.63
  -4  -3 -11   53.64    4.61
   4   3  11   44.02    3.65
   4   3  11   49.81    3.80
   4   3  11   56.78    4.33
  -5  -3 -11   20.54    1.58
  -5  -3 -11   22.25    2.36
  -5  -3 -11   18.13    2.04
   5   3  11   20.31    2.31
   5   3  11   16.86    2.10
  -6  -3 -11    6.70    0.78
  -6  -3 -11    5.51    1.27
  -6  -3 -11    5.01    1.19
   6   3  11    6.43    1.46
   6   3  11    5.09    1.27
  -7  -3 -11   32.06    3.35
  -7  -3 -11   35.18    3.37
   7   3  11   36.26    3.27
   7   3  11   37.05    3.29
  -8  -3 -11   11.08    1.96
  -8  -3 -11   11.12    1.97
   8   3  11   16.27    2.39
   8   3  11    9.72    1.89
  -9  -3 -11   18.77    2.76
  -9  -3 -11   21.80    2.62
   9   3  11   16.38    2.70
 -10  -3 -11   34.94    3.83
 -10  -3 -11   34.90    3.67
  10   3  11   24.78    3.45
   6  -4 -11   42.80    4.37
   6  -4 -11   51.99    3.26
  -6   4  11   58.81    5.22
  -6   4  11   41.62    4.38
   5  -4 -11   19.15    2.78
   5  -4 -11   21.74    2.08
  -5   4  11   16.42    2.50
  -5   4  11   22.76    3.29
   4  -4 -11    7.15    1.20
   4  -4 -11    8.32    1.80
   4  -4 -11    8.57    1.23
   4  -4 -11    7.79    1.88
  -4   4  11    4.90    1.53
   3  -4 -11   55.84    4.49
   3  -4 -11   58.11    5.16
   3  -4 -11   60.78    3.37
  -3   4  11   52.28    4.44
   2  -4 -11   20.26    2.60
   2  -4 -11   21.54    1.80
   2  -4 -11   21.10    2.81
  -2   4  11   32.80    2.76
  -2   4  11   26.72    2.42
   1  -4 -11    4.90    1.18
   1  -4 -11    4.58    0.95
   1  -4 -11    5.00    1.44
  -1   4  11    5.73    1.15
  -1   4  11    2.87    1.02
   0  -4 -11   57.68    4.48
   0  -4 -11   47.24    2.92
   0  -4 -11   40.65    3.58
   0   4  11   53.62    3.88
   0   4  11   52.59    3.68
   0   4  11   42.80    3.70
  -1  -4 -11   11.26    1.62
  -1  -4 -11   14.80    2.00
  -1  -4 -11   14.67    1.54
   1   4  11   15.12    2.04
   1   4  11   12.24    1.62
  -2  -4 -11    4.38    0.90
  -2  -4 -11    3.22    1.06
   2   4  11    5.13    1.09
   2   4  11    4.42    1.26
  -3  -4 -11   51.58    5.03
  -3  -4 -11   67.95    4.16
   3   4  11   58.83    4.76
   3   4  11   60.39    4.39
   3   4  11   70.85    4.20
  -4  -4 -11   26.40    2.02
  -4  -4 -11   29.02    2.82
   4   4  11   30.09    2.86
   4   4  11   23.35    2.29
   4   4  11   32.17    2.39
  -5  -4 -11    5.69    1.20
  -5  -4 -11    4.46    0.64
  -5  -4 -11    5.75    1.08
   5   4  11    6.33    1.18
   5   4  11    5.07    1.03
   5   4  11    5.57    1.40
  -6  -4 -11   80.43    6.01
  -6  -4 -11   73.68    5.95
   6   4  11   85.67    5.63
   6   4  11   62.40    5.03
   6   4  11   72.42    5.27
  -7  -4 -11   57.20    4.92
  -7  -4 -11   58.27    4.88
   7   4  11   55.92    4.54
   7   4  11   56.70    4.45
  -8  -4 -11    2.32    1.11
  -8  -4 -11    1.44    0.94
   8   4  11    2.45    1.30
   8   4  11    3.70    1.31
  -9  -4 -11   40.73    3.91
  -9  -4 -11   38.22    3.97
   9   4  11   38.42    3.80
 -10  -4 -11   32.29    3.59
 -10  -4 -11   34.91    3.84
  10   4  11   34.12    3.65
   6  -5 -11    7.69    1.91
   6  -5 -11   13.12    1.60
  -6   5  11    8.74    2.18
   5  -5 -11    0.02    0.75
   5  -5 -11   -0.27    0.95
   5  -5 -11   -0.59    0.62
  -5   5  11   -0.43    1.17
   4  -5 -11   39.25    2.60
   4  -5 -11   39.42    3.63
   4  -5 -11   43.77    2.63
  -4   5  11   34.80    3.56
   3  -5 -11   36.63    2.44
   3  -5 -11   32.82    2.29
   3  -5 -11   33.38    3.18
   3  -5 -11   37.42    3.60
  -3   5  11   31.27    3.22
  -3   5  11   40.85    3.23
   2  -5 -11    1.55    0.70
   2  -5 -11   -0.18    0.67
   2  -5 -11   -0.86    0.73
  -2   5  11    0.30    0.86
  -2   5  11    0.83    0.87
   1  -5 -11   37.67    2.64
   1  -5 -11   42.14    3.39
   1  -5 -11   41.27    3.97
  -1   5  11   39.85    3.36
  -1   5  11   49.02    3.49
  -1   5  11   46.48    3.49
   0  -5 -11   91.37    6.44
   0  -5 -11  110.85    7.83
   0  -5 -11   84.39    5.09
   0   5  11  108.46    6.78
   0   5  11  103.27    6.93
  -1  -5 -11   18.15    1.79
  -1  -5 -11   19.24    1.81
  -1  -5 -11   21.50    2.30
   1   5  11   19.73    2.23
   1   5  11   19.73    2.13
  -2  -5 -11   29.81    2.17
  -2  -5 -11   27.51    2.68
  -2  -5 -11   26.97    1.99
   2   5  11   22.18    2.59
   2   5  11   25.71    2.48
  -3  -5 -11  119.06    5.62
  -3  -5 -11  125.38    6.58
  -3  -5 -11   86.59    7.97
   3   5  11   92.66    6.99
   3   5  11  112.64    7.50
  -4  -5 -11    0.47    0.67
  -4  -5 -11   -0.16    0.26
   4   5  11   -0.35    0.62
   4   5  11   -0.34    0.83
   4   5  11    0.68    0.60
  -5  -5 -11   47.10    3.92
  -5  -5 -11   49.56    4.09
   5   5  11   48.09    3.90
   5   5  11   41.34    3.53
   5   5  11   51.08    3.59
  -6  -5 -11   70.63    5.47
  -6  -5 -11   68.91    5.45
   6   5  11   71.26    5.15
   6   5  11   67.96    4.84
   6   5  11   56.89    4.74
  -7  -5 -11    0.12    0.73
  -7  -5 -11    0.44    0.71
   7   5  11    0.33    0.93
   7   5  11    1.21    1.01
  -8  -5 -11   92.62    7.56
  -8  -5 -11   93.39    7.39
   8   5  11   94.40    6.78
   8   5  11   92.23    6.63
  -9  -5 -11   52.55    4.74
  -9  -5 -11   51.79    4.87
   9   5  11   52.44    4.47
 -10  -5 -11    0.35    0.98
 -10  -5 -11    0.16    1.06
  10   5  11   -0.85    1.12
   6  -6 -11   12.15    1.58
   6  -6 -11   11.27    2.14
  -6   6  11    9.53    2.17
   5  -6 -11   10.78    2.00
   5  -6 -11   10.83    1.40
   5  -6 -11    9.28    1.36
  -5   6  11    6.49    1.79
  -5   6  11   13.90    2.25
   4  -6 -11   39.99    3.57
   4  -6 -11   39.65    2.62
   4  -6 -11   37.72    2.47
  -4   6  11   41.06    3.58
  -4   6  11   35.14    3.56
   3  -6 -11   17.93    1.76
   3  -6 -11   19.92    2.38
   3  -6 -11   18.07    1.67
  -3   6  11   20.71    2.44
  -3   6  11   15.48    2.21
   2  -6 -11   14.03    1.52
   2  -6 -11   12.78    1.76
   2  -6 -11   12.42    1.93
   2  -6 -11   12.57    1.28
  -2   6  11   10.71    1.77
  -2   6  11   13.67    1.96
   1  -6 -11   84.82    3.94
   1  -6 -11   75.48    5.38
   1  -6 -11   77.72    4.29
   1  -6 -11   68.35    6.22
  -1   6  11   89.03    5.71
  -1   6  11   82.32    5.69
   0  -6 -11   23.80    2.57
   0  -6 -11   21.47    1.79
   0  -6 -11   25.64    2.18
   0   6  11   24.79    2.56
  -1  -6 -11   33.38    2.87
  -1  -6 -11   27.38    2.04
  -1  -6 -11   27.65    2.24
   1   6  11   25.04    2.65
   1   6  11   26.48    2.77
  -2  -6 -11  148.36    9.73
  -2  -6 -11  127.55    6.55
  -2  -6 -11  145.68    7.95
   2   6  11  116.13    8.50
   2   6  11  106.67    8.69
  -3  -6 -11   27.11    2.10
  -3  -6 -11   36.06    2.13
  -3  -6 -11   22.20    2.65
   3   6  11   33.19    2.95
   3   6  11   28.53    2.72
  -4  -6 -11   33.84    3.06
  -4  -6 -11   31.27    2.29
  -4  -6 -11   33.94    2.12
   4   6  11   27.34    2.81
   4   6  11   35.84    3.10
  -5  -6 -11   77.70    4.75
  -5  -6 -11   97.23    6.98
   5   6  11   82.34    6.16
   5   6  11   91.96    5.96
   5   6  11   99.06    6.50
  -6  -6 -11   18.52    1.96
  -6  -6 -11   17.48    2.00
   6   6  11   15.90    2.11
   6   6  11   17.92    2.36
   6   6  11   15.73    2.00
  -7  -6 -11   16.29    2.12
  -7  -6 -11   20.11    2.23
  -7  -6 -11   20.32    2.14
   7   6  11   23.45    2.72
   7   6  11   19.13    2.34
  -8  -6 -11   45.43    4.26
  -8  -6 -11   45.15    2.40
  -8  -6 -11   46.14    4.15
   8   6  11   50.44    4.06
   8   6  11   46.18    3.96
  -9  -6 -11    3.73    1.25
  -9  -6 -11    4.34    1.39
   9   6  11    6.04    1.64
 -10  -6 -11    9.49    2.09
 -10  -6 -11    9.68    1.91
  10   6  11   11.09    2.22
   6  -7 -11    6.41    1.21
   6  -7 -11    6.41    1.63
  -6   7  11    3.65    1.54
  -6   7  11    3.06    1.67
   5  -7 -11   38.78    2.67
   5  -7 -11   39.19    2.82
   5  -7 -11   43.44    3.90
  -5   7  11   55.95    4.23
  -5   7  11   38.42    3.93
   4  -7 -11   56.73    3.45
   4  -7 -11   58.45    3.22
   4  -7 -11   60.37    4.60
  -4   7  11   60.22    4.69
  -4   7  11   50.04    4.52
   3  -7 -11    0.51    0.74
   3  -7 -11    0.10    0.65
   3  -7 -11   -0.28    0.50
  -3   7  11   -0.03    1.10
  -3   7  11   -0.83    0.86
   2  -7 -11   78.86    5.44
   2  -7 -11   75.46    4.23
   2  -7 -11   77.84    3.88
  -2   7  11   78.98    5.70
   1  -7 -11   49.78    3.72
   1  -7 -11   47.92    3.00
   1  -7 -11   47.60    2.65
  -1   7  11   55.07    4.12
  -1   7  11   53.35    4.16
   0  -7 -11    0.27    0.53
   0  -7 -11    0.24    0.58
   0  -7 -11   -0.15    0.36
   0   7  11   -0.72    0.91
   0   7  11   -0.51    0.84
  -1  -7 -11  106.11    4.43
  -1  -7 -11  101.81    5.08
  -1  -7 -11  100.91    6.08
   1   7  11   80.36    6.73
   1   7  11   88.03    6.67
  -2  -7 -11   37.96    3.09
  -2  -7 -11   35.52    2.41
  -2  -7 -11   39.52    2.39
   2   7  11   28.04    3.07
   2   7  11   25.81    2.92
  -3  -7 -11   19.96    1.55
  -3  -7 -11   23.10    1.81
   3   7  11   23.59    1.69
   3   7  11   17.97    2.34
   3   7  11   21.53    2.39
  -4  -7 -11  112.12    8.61
  -4  -7 -11  115.68    5.93
  -4  -7 -11  114.62    6.77
   4   7  11  121.93    6.43
   4   7  11  106.38    7.76
   4   7  11  122.80    7.99
  -5  -7 -11   45.41    3.72
  -5  -7 -11   41.66    2.72
   5   7  11   44.82    3.65
   5   7  11   38.36    3.52
   5   7  11   43.33    2.90
  -6  -7 -11    1.79    0.77
  -6  -7 -11    0.83    0.59
  -6  -7 -11    1.05    0.67
   6   7  11    1.22    0.85
   6   7  11    0.85    1.00
   6   7  11    0.93    0.91
  -7  -7 -11   54.64    3.47
  -7  -7 -11   59.91    4.79
  -7  -7 -11   60.72    2.95
  -7  -7 -11   61.32    4.99
  -7  -7 -11   61.41    5.13
   7   7  11   60.24    4.80
   7   7  11   66.08    4.68
   7   7  11   59.43    4.74
  -8  -7 -11   48.90    3.14
  -8  -7 -11   49.65    4.56
  -8  -7 -11   55.91    2.69
  -8  -7 -11   57.11    4.85
   8   7  11   56.10    4.47
  -9  -7 -11   -0.29    0.70
  -9  -7 -11   -0.05    0.89
 -10  -7 -11   14.79    2.37
 -10  -7 -11   15.10    2.55
   6  -8 -11    6.95    1.76
   6  -8 -11    6.80    1.34
   6  -8 -11    7.34    1.29
  -6   8  11   10.27    2.23
   5  -8 -11   41.53    3.73
   5  -8 -11   39.23    2.59
   5  -8 -11   38.67    2.79
  -5   8  11   41.06    3.98
   4  -8 -11    0.52    0.83
   4  -8 -11    2.03    0.87
   4  -8 -11    0.50    0.57
  -4   8  11    1.77    1.39
   3  -8 -11   54.60    4.36
   3  -8 -11   55.54    3.42
   3  -8 -11   65.09    3.21
  -3   8  11   57.25    4.71
   2  -8 -11   89.36    4.71
   2  -8 -11   82.69    5.90
   2  -8 -11   86.13    4.24
  -2   8  11   92.92    6.46
  -2   8  11   88.35    6.29
   1  -8 -11    0.68    0.60
   1  -8 -11    0.47    0.41
   1  -8 -11    0.42    0.58
  -1   8  11   -0.89    1.09
  -1   8  11    1.25    1.11
   0  -8 -11   86.51    4.57
   0  -8 -11   82.33    5.53
   0  -8 -11   86.41    3.97
   0   8  11   82.93    6.22
   0   8  11   89.63    6.31
  -1  -8 -11   96.41    4.60
  -1  -8 -11   93.79    5.42
   1   8  11   74.17    6.05
   1   8  11   70.34    6.07
  -2  -8 -11    1.43    0.69
  -2  -8 -11    1.10    0.46
   2   8  11    0.00    1.01
   2   8  11    0.85    0.56
   2   8  11    0.46    1.02
  -3  -8 -11   50.94    3.04
  -3  -8 -11   53.37    3.28
   3   8  11   52.17    3.13
   3   8  11   44.23    4.05
   3   8  11   52.90    4.18
  -4  -8 -11   43.52    2.65
   4   8  11   39.31    3.60
   4   8  11   42.05    3.54
   4   8  11   39.88    2.72
  -5  -8 -11    0.51    0.60
   5   8  11    1.03    0.92
   5   8  11    0.84    0.95
   5   8  11    0.69    0.74
  -6  -8 -11   19.71    1.84
  -6  -8 -11   22.97    1.49
  -6  -8 -11   21.52    2.24
   6   8  11   25.16    2.07
   6   8  11   21.97    2.44
   6   8  11   20.92    2.62
  -7  -8 -11   53.15    4.27
  -7  -8 -11   49.89    4.41
  -7  -8 -11   48.47    2.56
  -7  -8 -11   45.57    2.96
  -7  -8 -11   50.46    4.23
   7   8  11   46.29    4.18
   7   8  11   49.08    4.12
   7   8  11   56.23    3.59
  -8  -8 -11    3.99    1.23
  -8  -8 -11    4.13    0.71
  -8  -8 -11    5.59    1.41
  -8  -8 -11    4.59    1.20
  -8  -8 -11    4.02    0.84
   8   8  11    5.91    1.52
   8   8  11    7.48    1.45
  -9  -8 -11   19.59    2.61
  -9  -8 -11   20.88    2.49
   5  -9 -11   20.07    2.51
   5  -9 -11   20.55    2.02
   5  -9 -11   15.89    1.70
  -5   9  11   18.16    2.80
   4  -9 -11    9.46    1.41
   4  -9 -11   12.16    1.32
   4  -9 -11    8.79    1.62
  -4   9  11   11.99    2.35
   3  -9 -11   39.70    3.41
   3  -9 -11   41.00    2.43
   3  -9 -11   42.63    2.78
  -3   9  11   41.83    3.97
   2  -9 -11    7.52    0.92
   2  -9 -11    6.19    1.19
   2  -9 -11    5.31    1.08
  -2   9  11    7.70    1.63
  -2   9  11    5.58    1.70
   1  -9 -11   28.78    2.43
   1  -9 -11   26.92    2.05
  -1   9  11   26.38    3.22
  -1   9  11   31.29    3.01
   0  -9 -11   73.11    3.72
   0  -9 -11   66.96    4.37
   0   9  11   55.04    5.08
   0   9  11   59.06    5.03
  -1  -9 -11   19.32    1.67
  -1  -9 -11   21.28    1.66
   1   9  11   16.69    2.51
   1   9  11   16.84    2.47
  -2  -9 -11   16.37    1.42
  -2  -9 -11   16.56    1.63
   2   9  11   16.45    1.39
   2   9  11   11.96    2.08
   2   9  11   18.60    2.44
  -3  -9 -11   85.35    4.30
  -3  -9 -11   73.69    4.83
   3   9  11   83.90    5.85
   3   9  11   74.67    5.86
   3   9  11   79.81    4.55
  -4  -9 -11   42.81    2.67
   4   9  11   45.38    3.87
   4   9  11   44.85    3.67
   4   9  11   41.03    2.83
  -5  -9 -11    0.00    0.47
  -5  -9 -11    0.47    0.45
   5   9  11    0.59    0.94
   5   9  11    0.28    0.73
   5   9  11   -0.43    0.93
  -6  -9 -11   45.60    2.49
  -6  -9 -11   50.31    2.90
   6   9  11   49.65    3.98
   6   9  11   44.73    4.07
   6   9  11   48.53    3.31
  -7  -9 -11   28.98    1.95
  -7  -9 -11   26.42    2.79
  -7  -9 -11   25.24    1.68
   7   9  11   30.29    2.86
   7   9  11   27.92    3.04
   7   9  11   19.94    2.29
  -8  -9 -11    6.83    0.94
  -8  -9 -11    7.26    1.61
   8   9  11    7.32    1.47
  -9  -9 -11   38.04    4.04
   9   9  11   42.47    3.38
   5 -10 -11    0.49    0.99
   5 -10 -11    0.45    0.91
   5 -10 -11   -0.18    0.61
  -5  10  11    0.89    1.60
   4 -10 -11   67.18    5.13
   4 -10 -11   67.08    3.61
   4 -10 -11   70.17    3.38
   4 -10 -11   64.44    4.02
  -4  10  11   72.14    5.82
   3 -10 -11   38.41    2.23
   3 -10 -11   38.52    3.33
   3 -10 -11   41.99    2.74
   3 -10 -11   36.68    2.34
  -3  10  11   39.28    3.63
  -3  10  11   41.93    4.11
   2 -10 -11    0.78    0.70
   2 -10 -11    0.02    0.64
   2 -10 -11    0.24    0.49
  -2  10  11    1.03    1.49
  -2  10  11    0.41    1.22
   1 -10 -11   29.27    2.40
   1 -10 -11   23.81    1.98
   1 -10 -11   25.49    1.69
  -1  10  11   30.13    3.07
  -1  10  11   20.97    3.08
   0 -10 -11   38.25    2.75
   0 -10 -11   40.24    2.43
   0  10  11   29.05    3.59
   0  10  11   27.25    3.23
  -1 -10 -11    1.60    0.60
  -1 -10 -11    2.99    0.79
  -1 -10 -11    1.58    0.61
   1  10  11    1.53    1.20
   1  10  11    2.19    1.39
  -2 -10 -11   26.18    1.91
  -2 -10 -11   24.59    1.96
  -2 -10 -11   26.49    1.68
   2  10  11   26.41    1.89
   2  10  11   25.94    2.69
   2  10  11   22.08    2.93
  -3 -10 -11   43.53    2.30
  -3 -10 -11   41.42    2.58
  -3 -10 -11   40.18    2.75
   3  10  11   37.34    3.70
   3  10  11   44.77    3.64
   3  10  11   40.01    2.70
  -4 -10 -11   -0.38    0.45
  -4 -10 -11   -0.02    0.42
   4  10  11    0.15    0.87
   4  10  11    0.01    0.63
   4  10  11   -0.68    1.01
  -5 -10 -11   37.31    2.34
  -5 -10 -11   35.16    2.07
   5  10  11   37.09    3.53
   5  10  11   35.77    3.25
   5  10  11   34.07    2.60
  -6 -10 -11   77.34    3.64
  -6 -10 -11   70.26    4.00
   6  10  11   74.30    5.83
   6  10  11   76.85    5.62
   6  10  11   75.95    4.71
  -7 -10 -11   -0.47    0.48
  -7 -10 -11   -0.25    0.52
  -7 -10 -11    0.78    0.90
   7  10  11    0.64    1.06
   7  10  11    1.24    1.13
   7  10  11    0.18    0.93
  -8 -10 -11   42.11    2.36
  -8 -10 -11   38.23    3.83
   8  10  11   44.27    3.32
   4 -11 -11   41.58    3.70
   4 -11 -11   40.69    2.95
   4 -11 -11   42.37    2.40
  -4  11  11   45.51    3.98
  -4  11  11   40.61    4.42
   3 -11 -11    3.18    0.75
   3 -11 -11    5.33    1.12
   3 -11 -11    4.44    1.19
  -3  11  11    5.24    1.67
  -3  11  11    1.38    1.72
   2 -11 -11   17.85    1.51
   2 -11 -11   17.13    1.75
   2 -11 -11   14.54    2.01
  -2  11  11   15.39    2.50
  -2  11  11   14.06    2.70
   1 -11 -11   57.14    2.89
   1 -11 -11   56.31    4.03
   1 -11 -11   58.99    3.39
  -1  11  11   49.43    4.86
  -1  11  11   52.86    4.59
   0 -11 -11   22.91    2.04
   0 -11 -11   22.69    1.59
   0 -11 -11   25.90    1.90
   0  11  11   17.02    2.62
   0  11  11   21.10    3.07
  -1 -11 -11    8.76    1.19
  -1 -11 -11    7.86    1.17
  -1 -11 -11    7.89    1.04
   1  11  11    7.16    1.84
   1  11  11    7.25    1.69
  -2 -11 -11   55.39    3.18
  -2 -11 -11   54.96    2.81
  -2 -11 -11   49.34    3.58
   2  11  11   60.30    4.40
   2  11  11   51.60    3.29
   2  11  11   52.96    4.65
  -3 -11 -11   16.18    1.43
  -3 -11 -11   20.02    1.63
  -3 -11 -11   18.24    1.73
   3  11  11   14.82    2.40
   3  11  11   15.52    2.15
   3  11  11   16.97    1.60
  -4 -11 -11    8.90    1.17
  -4 -11 -11   11.92    1.26
   4  11  11   10.82    2.15
   4  11  11   10.70    1.43
   4  11  11    9.96    1.75
  -5 -11 -11   50.84    3.05
  -5 -11 -11   57.37    2.82
   5  11  11   50.47    3.48
   5  11  11   52.94    4.61
   5  11  11   50.94    4.21
  -6 -11 -11    3.17    0.77
  -6 -11 -11    3.78    0.79
   6  11  11    2.20    1.18
   6  11  11    6.19    1.70
   6  11  11    3.33    1.09
  -7 -11 -11   25.96    2.95
  -7 -11 -11   23.61    1.76
   7  11  11   25.80    2.78
   7  11  11   24.83    3.19
   7  11  11   28.52    2.54
  -8 -11 -11   43.57    2.53
  -8 -11 -11   42.82    4.17
   8  11  11   50.33    3.64
   3 -12 -11    3.71    1.09
   3 -12 -11    1.87    0.96
   3 -12 -11    1.40    0.68
  -3  12  11    2.22    1.62
  -3  12  11   -0.37    1.68
   2 -12 -11   22.17    2.07
   2 -12 -11   15.94    2.00
   2 -12 -11   19.16    1.61
  -2  12  11   12.45    2.71
  -2  12  11   15.24    2.50
   1 -12 -11   21.99    1.61
   1 -12 -11   21.65    1.98
   1 -12 -11   22.89    2.15
  -1  12  11   17.04    2.89
  -1  12  11   17.42    2.68
   0 -12 -11    4.53    1.00
   0 -12 -11    4.14    0.85
   0 -12 -11    4.55    1.00
   0  12  11    4.87    1.87
   0  12  11    3.70    1.38
  -1 -12 -11   98.94    6.22
  -1 -12 -11   90.82    5.08
  -1 -12 -11   96.83    4.50
   1  12  11   97.59    6.89
   1  12  11   96.33    7.31
  -2 -12 -11   26.61    1.98
  -2 -12 -11   23.32    2.06
  -2 -12 -11   24.62    1.74
   2  12  11   28.61    3.38
   2  12  11   28.44    2.73
  -3 -12 -11    5.55    0.92
  -3 -12 -11    7.92    1.18
   3  12  11    8.66    1.97
   3  12  11    5.48    1.07
   3  12  11    7.57    1.54
  -4 -12 -11   77.29    4.22
  -4 -12 -11   78.01    3.82
   4  12  11   79.21    6.18
   4  12  11   75.48    5.68
   4  12  11   80.51    4.78
  -5 -12 -11   23.91    1.87
  -5 -12 -11   25.67    1.81
   5  12  11   29.28    3.20
   5  12  11   25.52    2.33
   5  12  11   26.55    2.74
  -6 -12 -11    0.46    0.59
  -6 -12 -11    1.24    0.99
  -6 -12 -11    1.72    0.67
   6  12  11    1.57    1.08
   6  12  11    0.76    0.90
   6  12  11    0.14    1.11
  -7 -12 -11   33.73    3.52
  -7 -12 -11   35.60    2.21
   7  12  11   33.85    3.71
   7  12  11   34.03    2.96
   2 -13 -11   29.96    2.76
   2 -13 -11   31.04    2.01
   2 -13 -11   32.48    2.47
  -2  13  11   19.82    3.31
   1 -13 -11    2.21    0.73
   1 -13 -11    1.20    0.77
   1 -13 -11    1.52    0.84
  -1  13  11    1.90    1.75
  -1  13  11    0.44    1.17
   0 -13 -11   33.24    2.84
   0 -13 -11   34.96    2.51
   0 -13 -11   35.93    2.20
   0  13  11   35.15    3.30
   0  13  11   36.22    4.03
  -1 -13 -11   30.67    1.96
  -1 -13 -11   26.01    2.33
  -1 -13 -11   25.94    2.12
   1  13  11   31.76    2.92
   1  13  11   25.38    3.41
  -2 -13 -11   -0.39    0.62
  -2 -13 -11   -0.54    0.43
  -2 -13 -11   -0.49    0.54
   2  13  11    0.35    0.96
   2  13  11    0.99    1.28
  -3 -13 -11   43.27    2.52
  -3 -13 -11   41.16    2.72
   3  13  11   46.61    4.32
   3  13  11   41.69    3.60
   3  13  11   42.54    3.03
  -4 -13 -11   41.67    2.69
  -4 -13 -11   44.26    2.53
   4  13  11   49.44    4.31
   4  13  11   37.67    3.55
   4  13  11   42.10    3.07
  -5 -13 -11    0.38    0.64
  -5 -13 -11    0.09    0.61
   5  13  11   -0.45    0.89
   5  13  11    0.25    1.23
   5  13  11    1.02    0.91
  -6 -13 -11   35.96    2.23
  -6 -13 -11   32.12    3.54
   6  13  11   33.04    3.25
   6  13  11   35.93    3.76
   6  13  11   35.17    2.91
   1 -14 -11   14.98    1.79
   1 -14 -11   11.84    1.72
   1 -14 -11   16.40    1.60
  -1  14  11   12.52    2.61
   0 -14 -11   60.46    3.63
   0 -14 -11   57.25    4.25
   0 -14 -11   56.69    3.14
   0  14  11   59.97    5.39
  -1 -14 -11   18.55    1.74
  -1 -14 -11   21.07    1.97
  -1 -14 -11   17.99    1.94
   1  14  11   22.14    3.32
  -2 -14 -11   15.29    1.66
  -2 -14 -11    8.83    1.22
   2  14  11   14.94    2.66
  -3 -14 -11   23.09    2.06
  -3 -14 -11   17.68    1.71
   3  14  11   25.68    3.40
   3  14  11   22.53    2.10
  -4 -14 -11   12.00    1.43
  -4 -14 -11   12.13    1.46
   4  14  11   14.42    2.48
   4  14  11    9.57    1.58
   0   6 -12   14.99    2.33
   0   6 -12   11.20    2.60
  -1   6 -12    2.15    1.21
  -1   6 -12    1.74    1.63
  -2   6 -12   48.80    5.15
  -2   6 -12   53.17    5.25
  -2   6 -12   47.74    4.28
   2  -6  12   44.83    3.94
  -3   6 -12   25.42    3.23
  -3   6 -12   30.98    4.00
  -3   6 -12   35.82    4.05
   3  -6  12   32.63    3.11
  -4   6 -12    0.03    1.44
  -4   6 -12    0.02    1.47
  -4   6 -12    0.75    0.97
   4  -6  12    1.09    1.21
   2   5 -12   14.19    2.87
   2   5 -12   16.02    2.36
  -2  -5  12   12.55    2.29
  -2  -5  12   18.70    2.74
   1   5 -12   54.15    4.34
   1   5 -12   43.94    5.08
  -1  -5  12   48.92    4.36
   0   5 -12    3.25    1.27
   0   5 -12    1.45    1.59
  -1   5 -12   29.06    3.88
  -1   5 -12   34.01    3.32
  -2   5 -12   39.78    3.79
  -2   5 -12   45.46    4.72
   2  -5  12   42.41    3.49
  -3   5 -12    0.42    0.93
  -3   5 -12    1.64    1.37
  -3   5 -12   -2.18    1.12
   3  -5  12    3.09    1.23
  -4   5 -12   20.75    2.82
  -4   5 -12   30.32    3.74
  -4   5 -12   29.06    3.60
   4  -5  12   26.63    2.83
  -5   5 -12   34.65    4.34
  -5   5 -12   33.37    4.22
  -5   5 -12   34.60    3.32
   5  -5  12   44.71    3.72
  -6   5 -12   -0.19    0.75
  -6   5 -12   -0.84    1.18
  -6   5 -12   -1.43    1.34
   6  -5  12    1.57    1.38
   3   4 -12   14.56    3.01
   3   4 -12   11.62    2.01
  -3  -4  12   15.63    2.39
  -3  -4  12   10.55    2.36
   2   4 -12   80.04    5.61
   2   4 -12   72.63    6.81
  -2  -4  12   67.34    5.94
  -2  -4  12   69.68    5.55
   1   4 -12   18.99    2.44
   1   4 -12   15.52    2.97
  -1  -4  12   18.79    2.57
  -1  -4  12   15.71    2.27
   0   4 -12   13.36    2.09
   0   4 -12   11.13    2.48
  -1   4 -12   57.90    4.61
  -1   4 -12   56.37    5.52
  -2   4 -12   10.23    2.33
  -2   4 -12   14.01    2.06
   2  -4  12   13.62    1.85
  -3   4 -12    4.16    1.75
  -3   4 -12    4.92    1.40
  -3   4 -12    6.37    1.82
   3  -4  12    5.90    1.39
  -4   4 -12   27.08    3.39
  -4   4 -12   18.66    2.55
  -4   4 -12   21.15    3.28
   4  -4  12   26.33    2.69
  -5   4 -12    2.44    1.58
  -5   4 -12    2.72    1.09
  -5   4 -12    1.03    1.40
   5  -4  12    3.96    1.38
  -6   4 -12    8.93    1.58
  -6   4 -12    6.08    2.06
  -6   4 -12    5.68    1.93
   6  -4  12   11.56    2.17
  -7   4 -12   27.53    2.58
  -7   4 -12   15.48    3.16
  -7   4 -12   20.70    3.27
   7  -4  12   37.01    3.49
   4   3 -12    0.43    0.99
  -4  -3  12    1.25    1.23
  -4  -3  12    0.32    1.52
   3   3 -12   38.52    3.61
   3   3 -12   40.19    4.76
  -3  -3  12   38.71    3.72
  -3  -3  12   39.29    4.13
   2   3 -12   19.39    2.53
   2   3 -12   21.33    3.39
  -2  -3  12   22.20    2.97
  -2  -3  12   18.54    2.48
   1   3 -12    3.91    1.28
   1   3 -12    2.77    1.62
  -1  -3  12    1.76    1.20
  -1  -3  12    3.01    1.41
  -1  -3  12    3.65    1.17
   0   3 -12   53.49    5.19
   0   3 -12   52.19    4.22
   0  -3  12   54.92    4.03
   0  -3  12   50.28    4.36
  -1   3 -12   24.96    2.69
  -1   3 -12   25.22    3.35
   1  -3  12   27.60    2.51
  -2   3 -12    0.95    1.32
  -2   3 -12    1.14    0.94
   2  -3  12    1.68    0.96
   2  -3  12    1.70    0.94
  -3   3 -12   27.22    3.62
  -3   3 -12   30.31    2.97
  -3   3 -12   32.98    3.57
   3  -3  12   36.27    2.89
   3  -3  12   31.60    3.11
  -4   3 -12   33.80    3.86
  -4   3 -12   29.13    3.80
  -4   3 -12   31.97    3.04
   4  -3  12   42.04    3.29
  -5   3 -12   -0.12    1.23
  -5   3 -12    1.82    0.90
  -5   3 -12   -0.07    1.07
   5  -3  12    0.78    1.10
  -6   3 -12   24.39    2.36
  -6   3 -12   17.18    3.07
  -6   3 -12   14.87    2.79
   6  -3  12   28.28    2.88
  -7   3 -12   16.33    3.12
  -7   3 -12   20.66    2.23
  -7   3 -12   20.43    3.20
   7  -3  12   26.47    3.42
  -8   3 -12   -0.79    1.44
  -8   3 -12   -1.31    1.05
   8  -3  12   -0.62    1.42
   4   2 -12   31.78    3.03
   4   2 -12   21.50    3.77
  -4  -2  12   20.62    2.70
  -4  -2  12   24.52    3.41
   3   2 -12   37.51    3.49
   3   2 -12   38.30    4.57
  -3  -2  12   41.84    3.60
  -3  -2  12   33.38    3.94
   2   2 -12    0.88    0.94
   2   2 -12    0.55    1.38
  -2  -2  12    1.51    1.38
  -2  -2  12    3.26    1.32
   1   2 -12   18.38    2.99
   1   2 -12   19.06    2.30
  -1  -2  12   18.78    2.11
  -1  -2  12   16.02    2.14
  -1  -2  12   15.80    2.35
   0   2 -12   15.42    2.13
   0   2 -12   12.19    2.40
   0  -2  12   14.43    2.07
   0  -2  12   16.98    2.01
  -1   2 -12    1.52    0.91
  -1   2 -12   -0.55    1.10
   1  -2  12    1.38    0.81
   1  -2  12    2.27    0.99
   1  -2  12    1.32    0.97
  -2   2 -12   14.09    1.98
  -2   2 -12   15.89    2.58
   2  -2  12   14.93    1.83
   2  -2  12   17.08    2.07
  -3   2 -12   33.10    4.02
  -3   2 -12   38.46    3.29
  -3   2 -12   40.63    4.12
   3  -2  12   42.70    3.49
   3  -2  12   39.28    3.17
  -4   2 -12    5.77    1.27
  -4   2 -12    4.16    1.65
  -4   2 -12    3.20    1.43
   4  -2  12    5.65    1.47
   4  -2  12    9.78    1.53
  -5   2 -12   18.09    2.26
  -5   2 -12   15.06    2.69
  -5   2 -12   16.26    2.75
   5  -2  12   20.13    2.55
   5  -2  12   26.92    2.61
  -6   2 -12   55.56    5.61
  -6   2 -12   56.66    4.44
  -6   2 -12   54.90    5.68
   6  -2  12   74.16    5.18
   6  -2  12   72.23    5.08
  -7   2 -12   12.12    2.35
  -7   2 -12   15.04    1.88
  -7   2 -12   11.52    2.51
   7  -2  12   13.55    2.42
   7  -2  12   15.87    2.54
  -8   2 -12   10.32    1.58
  -8   2 -12   10.04    2.15
  -8   2 -12   10.81    2.48
   8  -2  12    7.01    2.16
   5   1 -12    7.02    2.53
   5   1 -12    9.66    1.90
  -5  -1  12    9.04    2.40
  -5  -1  12    7.40    1.79
   4   1 -12   15.68    2.32
   4   1 -12   15.72    3.23
  -4  -1  12   14.45    2.20
  -4  -1  12   21.19    3.08
   3   1 -12    7.76    1.64
   3   1 -12    6.25    2.14
  -3  -1  12    4.77    1.72
  -3  -1  12    7.06    1.55
   2   1 -12    6.88    2.07
   2   1 -12    9.46    1.13
   2   1 -12    9.74    1.69
  -2  -1  12    6.32    1.76
  -2  -1  12    6.85    1.52
   1   1 -12   35.22    4.11
   1   1 -12   41.83    3.39
  -1  -1  12   41.24    3.38
  -1  -1  12   36.41    3.24
  -1  -1  12   39.90    3.67
   0   1 -12   37.85    4.02
   0   1 -12   38.82    3.21
   0  -1  12   39.67    3.47
   0  -1  12   36.86    3.18
  -1   1 -12   -0.43    0.62
  -1   1 -12   -0.25    0.99
   1  -1  12    0.17    0.70
   1  -1  12    0.47    0.87
  -2   1 -12   66.44    4.77
  -2   1 -12   68.52    5.97
   2  -1  12   65.01    4.62
   2  -1  12   68.83    4.97
  -3   1 -12   38.02    3.06
  -3   1 -12   30.86    3.78
   3  -1  12   34.84    3.21
   3  -1  12   41.42    3.08
  -4   1 -12    1.88    1.14
  -4   1 -12    1.68    0.84
  -4   1 -12    1.75    1.15
   4  -1  12    2.76    1.08
   4  -1  12    1.63    1.15
  -5   1 -12   56.64    5.43
  -5   1 -12   54.75    4.30
  -5   1 -12   55.12    5.46
   5  -1  12   76.44    4.88
   5  -1  12   64.17    4.92
  -6   1 -12   15.00    2.50
  -6   1 -12   12.59    1.74
  -6   1 -12   12.14    2.33
   6  -1  12   15.24    2.34
   6  -1  12   17.78    2.49
  -7   1 -12   20.01    2.96
  -7   1 -12   18.96    1.94
  -7   1 -12   16.87    2.84
   7  -1  12   24.95    2.92
   7  -1  12   13.59    2.43
  -8   1 -12   50.91    4.82
  -8   1 -12   46.30    4.91
  -8   1 -12   47.67    3.58
   8  -1  12   43.86    4.41
  -9   1 -12   15.31    2.56
  -9   1 -12   13.38    2.70
   9  -1  12   10.45    2.45
   5   0 -12   17.43    3.48
   5   0 -12   16.20    2.54
  -5   0  12   17.86    2.59
  -5   0  12   17.80    3.01
   4   0 -12   10.21    2.60
   4   0 -12   12.10    2.05
  -4   0  12   10.99    2.29
  -4   0  12   13.11    1.98
   3   0 -12   -0.56    1.39
   3   0 -12    1.04    1.00
  -3   0  12    0.45    1.31
  -3   0  12    1.49    1.08
   2   0 -12   26.68    2.73
   2   0 -12   26.14    1.93
   2   0 -12   29.35    3.56
  -2   0  12   30.16    2.83
  -2   0  12   25.99    3.03
   1   0 -12   57.81    4.34
   1   0 -12   61.42    5.40
  -1   0  12   57.95    4.29
  -1   0  12   54.83    4.29
  -1   0  12   53.77    4.71
   0   0 -12    0.98    1.12
   0   0 -12    1.12    0.75
   0   0  12    0.57    0.97
   0   0  12    0.95    0.95
  -1   0 -12   74.55    5.03
  -1   0 -12   71.02    6.17
   1   0  12   67.84    5.11
   1   0  12   73.66    4.77
  -2   0 -12  111.11    9.30
  -2   0 -12  119.80    7.60
   2   0  12  123.14    7.55
   2   0  12  117.93    8.00
  -3   0 -12    1.02    1.07
  -3   0 -12    1.16    0.70
   3   0  12    1.06    0.81
   3   0  12   -0.64    0.95
  -4   0 -12   45.92    4.26
  -4   0 -12   40.83    4.39
   4   0  12   51.35    4.03
  -5   0 -12   57.46    5.49
  -5   0 -12   56.40    5.37
  -5   0 -12   61.68    4.34
   5   0  12   70.19    4.85
   5   0  12   67.32    5.05
  -6   0 -12   -0.09    0.91
  -6   0 -12   -0.02    0.94
  -6   0 -12    0.20    0.54
   6   0  12   -0.99    0.97
   6   0  12    0.90    1.08
  -7   0 -12   32.36    3.46
  -7   0 -12   32.79    3.51
  -7   0 -12   25.15    2.39
   7   0  12   28.61    3.22
   7   0  12   35.41    3.23
  -8   0 -12   24.49    3.15
  -8   0 -12   23.87    3.00
   8   0  12   14.27    2.70
   8   0  12   28.54    2.93
  -9   0 -12   -0.84    1.22
  -9   0 -12    0.75    1.17
   9   0  12   -0.57    1.33
   5  -1 -12   44.06    4.16
   5  -1 -12   37.79    4.87
  -5   1  12   52.71    4.26
  -5   1  12   40.62    4.48
   4  -1 -12   18.06    2.50
   4  -1 -12   16.96    3.16
  -4   1  12   16.99    2.83
  -4   1  12   18.39    2.55
   3  -1 -12   13.14    2.03
   3  -1 -12   11.91    1.41
   3  -1 -12   11.30    2.58
  -3   1  12   14.79    2.51
  -3   1  12   13.99    2.09
   2  -1 -12  102.51    7.01
   2  -1 -12  104.38    8.50
   2  -1 -12  101.70    5.25
  -2   1  12  107.16    6.97
  -2   1  12   93.82    7.58
   1  -1 -12   35.99    3.80
   1  -1 -12   35.79    2.28
   1  -1 -12   37.75    3.13
  -1   1  12   38.21    3.10
  -1   1  12   31.93    2.69
  -1   1  12   31.93    2.97
  -1   1  12   35.99    3.44
   0  -1 -12   29.89    2.63
   0  -1 -12   28.15    3.21
   0   1  12   27.32    2.60
  -1  -1 -12  107.51    6.92
  -1  -1 -12  102.59    8.39
   1   1  12  107.81    7.21
  -2  -1 -12   10.26    1.48
  -2  -1 -12   11.70    2.07
   2   1  12   11.35    1.40
   2   1  12   12.50    1.87
  -3  -1 -12   58.70    5.95
  -3  -1 -12   77.88    4.87
   3   1  12   80.72    4.97
   3   1  12   67.49    5.37
  -4  -1 -12   67.36    6.81
  -4  -1 -12   95.00    5.58
   4   1  12  103.96    5.97
   4   1  12   72.53    6.12
  -5  -1 -12    6.04    0.99
  -5  -1 -12    5.69    1.37
  -5  -1 -12    3.76    1.34
   5   1  12    5.27    1.37
   5   1  12    4.52    1.50
  -6  -1 -12   23.48    2.13
  -6  -1 -12   26.86    3.05
  -6  -1 -12   27.85    3.01
   6   1  12   24.86    2.74
   6   1  12   33.37    3.09
  -7  -1 -12   73.09    5.93
  -7  -1 -12   71.34    5.96
  -7  -1 -12   60.62    4.40
   7   1  12   61.24    5.21
   7   1  12   73.03    5.44
  -8  -1 -12   16.20    2.51
  -8  -1 -12   17.52    2.64
   8   1  12   10.57    2.27
   8   1  12   15.58    2.44
  -9  -1 -12    2.92    1.56
  -9  -1 -12    2.61    1.36
   9   1  12    2.42    1.66
   5  -2 -12   28.72    2.74
   5  -2 -12   40.81    3.77
   5  -2 -12   23.37    4.06
  -5   2  12   38.77    4.02
  -5   2  12   38.90    3.72
   4  -2 -12    3.74    1.88
   4  -2 -12    7.07    1.73
  -4   2  12    8.95    1.89
  -4   2  12    8.52    2.10
   3  -2 -12   79.95    7.22
   3  -2 -12   74.93    4.37
   3  -2 -12   80.66    5.99
  -3   2  12   86.43    5.98
  -3   2  12   84.07    6.53
   2  -2 -12   63.09    3.73
   2  -2 -12   70.17    5.11
   2  -2 -12   69.03    6.15
  -2   2  12   70.23    5.06
  -2   2  12   65.05    5.50
   1  -2 -12   11.86    1.34
   1  -2 -12   12.21    2.17
   1  -2 -12   12.35    1.85
  -1   2  12   11.53    1.77
  -1   2  12   12.99    1.99
  -1   2  12   11.31    1.44
   0  -2 -12  151.55   11.34
   0  -2 -12  153.98    9.47
   0   2  12  142.96    9.72
   0   2  12  147.26    9.31
  -1  -2 -12   32.86    3.42
  -1  -2 -12   34.49    2.81
   1   2  12   32.69    2.58
   1   2  12   34.69    2.98
  -2  -2 -12    5.55    1.45
  -2  -2 -12    5.93    1.12
   2   2  12    5.04    1.38
  -3  -2 -12   73.61    4.43
  -3  -2 -12   51.85    5.36
   3   2  12   61.90    4.94
   3   2  12   67.61    4.47
  -4  -2 -12   15.35    1.39
  -4  -2 -12    8.53    1.79
   4   2  12   11.29    2.05
   4   2  12    9.84    1.52
  -5  -2 -12    0.97    0.53
  -5  -2 -12    0.68    0.80
  -5  -2 -12    0.02    0.79
   5   2  12   -0.32    1.07
   5   2  12    1.39    0.89
  -6  -2 -12   35.29    2.52
  -6  -2 -12   34.76    3.51
  -6  -2 -12   36.79    3.42
   6   2  12   38.83    3.49
   6   2  12   29.48    3.03
  -7  -2 -12   28.51    3.06
  -7  -2 -12   29.27    3.14
   7   2  12   33.84    3.22
   7   2  12   22.00    2.99
  -8  -2 -12   -0.24    0.85
  -8  -2 -12   -0.48    0.92
   8   2  12   -0.13    1.06
   8   2  12   -0.52    1.09
  -9  -2 -12   32.79    3.53
  -9  -2 -12   28.19    3.41
   9   2  12   22.47    3.28
   5  -3 -12    2.98    1.07
   5  -3 -12    4.08    1.78
   5  -3 -12    4.59    1.58
  -5   3  12    6.24    1.76
  -5   3  12    4.15    1.91
   4  -3 -12   15.09    1.83
   4  -3 -12   21.63    2.82
   4  -3 -12   18.69    3.17
   4  -3 -12   15.93    1.81
  -4   3  12   23.80    2.97
  -4   3  12   26.75    3.43
   3  -3 -12   38.08    3.68
   3  -3 -12   37.48    4.37
   3  -3 -12   35.15    2.65
  -3   3  12   46.95    3.85
  -3   3  12   49.43    4.25
   2  -3 -12    0.29    0.88
   2  -3 -12   -0.23    0.60
   2  -3 -12    0.36    1.16
  -2   3  12   -0.11    0.93
  -2   3  12   -0.11    0.82
   1  -3 -12   60.53    4.42
   1  -3 -12   59.51    3.37
   1  -3 -12   57.83    5.15
  -1   3  12   53.69    4.26
  -1   3  12   54.14    4.05
   0  -3 -12   46.37    3.49
   0  -3 -12   40.33    3.97
   0  -3 -12   44.16    2.69
   0   3  12   42.13    3.18
   0   3  12   39.19    3.40
  -1  -3 -12    0.87    0.99
  -1  -3 -12    1.34    0.71
   1   3  12    0.51    0.72
   1   3  12   -0.12    0.80
  -2  -3 -12   41.28    4.22
  -2  -3 -12   55.09    3.59
   2   3  12   49.11    3.98
   2   3  12   45.10    3.44
  -3  -3 -12   46.39    4.51
   3   3  12   57.09    4.37
  -4  -3 -12   15.58    1.42
  -4  -3 -12   10.26    1.94
   4   3  12   14.07    1.74
   4   3  12   10.29    2.05
  -5  -3 -12    5.79    1.43
  -5  -3 -12    6.42    0.89
   5   3  12    4.79    1.21
   5   3  12    7.19    1.75
  -6  -3 -12   47.45    4.08
  -6  -3 -12   44.95    4.20
   6   3  12   40.41    3.70
   6   3  12   49.38    4.07
  -7  -3 -12   10.69    1.84
  -7  -3 -12   11.23    1.91
   7   3  12   12.53    2.15
   7   3  12    8.79    1.82
  -8  -3 -12   17.76    2.57
  -8  -3 -12   16.80    2.49
   8   3  12   12.86    2.31
   8   3  12   22.34    2.83
  -9  -3 -12   31.86    3.38
  -9  -3 -12   30.42    3.29
   9   3  12   18.96    3.04
   5  -4 -12   11.46    1.67
   5  -4 -12   12.15    2.30
  -5   4  12   13.80    2.32
   4  -4 -12   51.08    3.21
   4  -4 -12   55.70    4.51
   4  -4 -12   46.39    3.14
   4  -4 -12   45.70    4.93
  -4   4  12   55.47    4.52
   3  -4 -12   11.12    1.47
   3  -4 -12   14.83    2.32
   3  -4 -12    8.53    2.12
  -3   4  12   11.67    1.98
  -3   4  12   14.49    1.92
   2  -4 -12    5.65    1.14
   2  -4 -12    9.84    2.06
   2  -4 -12    6.90    1.57
  -2   4  12    6.71    1.30
   1  -4 -12   32.48    2.30
   1  -4 -12   28.35    2.86
   1  -4 -12   34.24    3.47
  -1   4  12   29.24    2.80
  -1   4  12   33.70    2.75
   0  -4 -12   20.96    2.34
   0  -4 -12   25.61    2.85
   0  -4 -12   24.33    1.92
   0   4  12   26.76    2.50
   0   4  12   26.11    2.34
  -1  -4 -12    5.16    1.12
  -1  -4 -12    5.48    1.00
  -1  -4 -12    5.11    1.34
   1   4  12    5.06    1.17
   1   4  12    5.70    1.34
  -2  -4 -12   15.62    1.72
  -2  -4 -12   16.73    2.19
   2   4  12   17.68    2.35
   2   4  12   16.45    1.87
  -3  -4 -12   30.47    2.26
  -3  -4 -12   20.69    2.72
   3   4  12   25.45    3.10
   3   4  12   29.52    2.44
  -4  -4 -12    3.29    1.19
  -4  -4 -12    4.46    0.81
   4   4  12    4.59    1.48
   4   4  12    4.02    0.99
  -5  -4 -12   59.09    3.91
  -5  -4 -12   63.84    5.28
   5   4  12   58.23    4.42
   5   4  12   69.82    5.08
  -6  -4 -12   31.26    3.12
   6   4  12   31.53    3.15
   6   4  12   29.54    2.84
  -7  -4 -12    6.30    1.50
  -7  -4 -12    6.61    1.45
   7   4  12    7.54    1.63
   7   4  12    8.94    1.81
  -8  -4 -12   67.74    5.87
  -8  -4 -12   69.45    5.96
   8   4  12   67.44    5.41
   8   4  12   73.72    5.57
  -9  -4 -12   11.21    2.05
  -9  -4 -12    9.51    1.96
   9   4  12    7.55    1.95
   5  -5 -12   26.16    2.44
   5  -5 -12   24.74    3.46
  -5   5  12   24.79    3.33
   4  -5 -12   15.19    1.77
   4  -5 -12   17.31    1.83
   4  -5 -12   17.31    2.62
  -4   5  12   19.43    2.46
  -4   5  12   13.97    2.46
   3  -5 -12    1.26    1.07
   3  -5 -12    0.21    0.72
   3  -5 -12    1.32    1.12
   3  -5 -12    1.16    0.78
  -3   5  12    1.31    1.08
   2  -5 -12   29.48    2.31
   2  -5 -12   30.12    3.44
   2  -5 -12   29.11    3.01
  -2   5  12   40.88    3.03
   1  -5 -12   45.33    3.99
   1  -5 -12   45.26    3.14
   1  -5 -12   58.86    4.84
  -1   5  12   57.37    4.02
  -1   5  12   53.89    4.11
   0  -5 -12    4.01    0.94
   0  -5 -12    2.75    1.01
   0  -5 -12    3.55    1.27
   0   5  12    3.55    1.13
   0   5  12    5.55    1.42
  -1  -5 -12   29.84    2.89
  -1  -5 -12   21.76    2.28
  -1  -5 -12   25.59    2.03
   1   5  12   28.84    2.58
   1   5  12   29.80    2.78
  -2  -5 -12   70.64    5.79
  -2  -5 -12   64.68    4.71
  -2  -5 -12   75.78    4.08
   2   5  12   73.43    5.09
   2   5  12   74.64    5.50
  -3  -5 -12    1.91    0.94
  -3  -5 -12    1.86    0.82
  -3  -5 -12    1.88    0.61
   3   5  12    2.10    0.98
   3   5  12   -0.41    1.00
  -4  -5 -12   43.35    2.91
  -4  -5 -12   48.50    4.04
   4   5  12   42.51    3.85
   4   5  12   39.65    3.37
  -5  -5 -12   42.44    3.70
   5   5  12   44.59    3.75
   5   5  12   33.47    3.09
  -6  -5 -12    1.80    0.91
   6   5  12    0.79    0.96
   6   5  12    1.14    1.18
  -7  -5 -12  100.69    7.91
   7   5  12  107.12    7.42
   7   5  12   96.16    7.00
  -8  -5 -12   40.86    4.04
  -8  -5 -12   43.48    4.05
   8   5  12   41.41    3.87
   8   5  12   45.11    3.96
  -9  -5 -12    4.06    1.35
  -9  -5 -12    3.98    1.43
   9   5  12    3.79    1.52
   5  -6 -12   34.00    3.72
   5  -6 -12   40.02    2.74
   5  -6 -12   34.88    2.74
  -5   6  12   44.08    3.85
   4  -6 -12    5.14    1.09
   4  -6 -12    3.56    1.06
   4  -6 -12    3.27    1.34
  -4   6  12    6.25    1.66
   3  -6 -12    4.30    1.32
   3  -6 -12    3.34    1.04
   3  -6 -12    7.49    1.17
  -3   6  12    6.68    1.51
   2  -6 -12   45.17    2.67
   2  -6 -12   40.40    3.65
   2  -6 -12   42.47    2.89
  -2   6  12   47.65    3.75
   1  -6 -12    6.27    0.97
   1  -6 -12    4.37    1.02
   1  -6 -12    5.15    1.25
  -1   6  12    6.78    1.50
  -1   6  12    6.20    1.40
   0  -6 -12   45.85    3.62
   0  -6 -12   41.44    2.94
   0  -6 -12   51.15    4.33
   0   6  12   49.38    3.97
   0   6  12   51.56    3.92
  -1  -6 -12  103.54    6.99
  -1  -6 -12  119.09    8.47
  -1  -6 -12   94.46    5.67
   1   6  12  120.82    7.79
   1   6  12  112.57    7.48
  -2  -6 -12    3.12    1.08
  -2  -6 -12    3.36    0.77
  -2  -6 -12    4.69    1.02
   2   6  12    2.83    1.17
   2   6  12    1.68    1.23
  -3  -6 -12   50.20    4.73
  -3  -6 -12   63.68    3.56
  -3  -6 -12   62.67    3.78
   3   6  12   53.03    4.65
   3   6  12   57.62    4.40
  -4  -6 -12  120.94    5.93
  -4  -6 -12  100.53    8.43
  -4  -6 -12  120.25    6.65
   4   6  12  119.18    7.97
   4   6  12   94.73    7.38
  -5  -6 -12    7.66    1.22
  -5  -6 -12    7.83    1.49
   5   6  12    7.70    1.48
   5   6  12   11.43    2.02
  -6  -6 -12   41.52    3.59
   6   6  12   30.27    3.14
   6   6  12   44.58    3.70
  -7  -6 -12   40.29    3.62
   7   6  12   34.49    3.40
   7   6  12   40.29    3.65
  -8  -6 -12    5.26    1.30
   8   6  12    1.99    1.27
   8   6  12    5.75    1.58
  -9  -6 -12   10.41    2.02
  -9  -6 -12   13.67    2.16
   9   6  12    9.16    2.02
   5  -7 -12   17.96    2.61
   5  -7 -12   19.48    2.01
   5  -7 -12   19.22    2.08
  -5   7  12   28.42    3.02
   4  -7 -12    3.93    1.33
   4  -7 -12    2.32    0.88
   4  -7 -12    1.87    0.93
  -4   7  12    3.21    1.44
   3  -7 -12   48.06    3.97
   3  -7 -12   45.12    2.79
   3  -7 -12   44.66    3.04
   2  -7 -12   42.63    2.48
   2  -7 -12   35.87    3.32
   2  -7 -12   34.61    2.61
  -2   7  12   42.05    3.60
  -2   7  12   40.29    3.43
   1  -7 -12    3.29    0.99
   1  -7 -12    5.19    0.86
   1  -7 -12    3.18    0.93
  -1   7  12    3.97    1.33
  -1   7  12    6.80    1.52
   0  -7 -12   77.37    5.39
   0  -7 -12   73.96    4.41
   0  -7 -12   81.37    3.95
   0   7  12   82.58    5.85
   0   7  12   86.35    5.98
  -1  -7 -12   24.76    2.26
  -1  -7 -12   25.62    2.15
   1   7  12   25.50    2.76
   1   7  12   25.15    2.77
  -2  -7 -12   21.85    2.03
  -2  -7 -12   22.86    1.84
   2   7  12   20.17    2.92
   2   7  12   21.86    2.48
  -3  -7 -12  106.02    5.87
  -3  -7 -12   86.88    7.37
  -3  -7 -12   99.74    5.19
   3   7  12  100.25    7.03
   3   7  12   80.56    6.56
  -4  -7 -12   23.82    2.03
  -4  -7 -12   21.35    2.45
  -4  -7 -12   28.33    1.76
   4   7  12   24.12    2.79
   4   7  12   19.21    2.56
  -5  -7 -12   10.99    1.44
  -5  -7 -12   12.45    1.83
   5   7  12   15.21    2.27
   5   7  12    9.30    1.72
  -6  -7 -12   62.47    3.82
  -6  -7 -12   71.80    5.39
   6   7  12   52.73    4.80
   6   7  12   70.94    5.18
  -7  -7 -12   35.11    3.16
  -7  -7 -12   28.25    2.29
   7   7  12   34.88    3.29
   7   7  12   26.32    2.97
  -8  -7 -12   -0.25    0.61
  -8  -7 -12    0.69    0.81
  -8  -7 -12   -0.02    0.43
   8   7  12    0.65    1.14
  -9  -7 -12   19.22    2.48
   5  -8 -12    1.40    0.86
   5  -8 -12    2.00    1.29
   5  -8 -12   -1.47    0.76
  -5   8  12    0.81    1.50
   4  -8 -12   50.95    3.48
   4  -8 -12   55.02    3.21
   4  -8 -12   55.90    4.59
  -4   8  12   56.19    4.69
   3  -8 -12   35.78    2.33
   3  -8 -12   35.40    3.36
   3  -8 -12   40.35    2.71
  -3   8  12   35.59    3.54
   2  -8 -12    0.20    0.73
   2  -8 -12   -0.02    0.70
   2  -8 -12    0.18    0.51
  -2   8  12   -0.81    0.90
  -2   8  12   -1.14    1.13
   1  -8 -12   77.85    5.49
   1  -8 -12   78.78    4.49
   1  -8 -12   75.57    3.91
  -1   8  12   80.88    5.96
  -1   8  12   88.10    6.05
   0  -8 -12   86.46    4.78
   0  -8 -12   80.41    5.72
   0   8  12   95.06    6.50
   0   8  12   90.08    6.41
  -1  -8 -12   -0.48    0.61
  -1  -8 -12   -0.13    0.43
   1   8  12    0.45    1.13
   1   8  12   -0.83    1.19
  -2  -8 -12   30.88    2.25
  -2  -8 -12   33.70    2.30
   2   8  12   27.44    3.05
   2   8  12   25.58    3.01
  -3  -8 -12   46.93    3.07
  -3  -8 -12   47.64    3.00
   3   8  12   44.50    4.07
  -4  -8 -12    2.26    0.83
   4   8  12    3.45    0.88
   4   8  12    3.84    1.39
   4   8  12    0.77    1.04
  -5  -8 -12   21.63    1.99
   5   8  12   19.21    1.82
   5   8  12   12.41    2.13
   5   8  12   24.27    2.87
  -6  -8 -12   26.27    2.12
   6   8  12   26.67    2.90
   6   8  12   27.10    2.93
  -7  -8 -12   -0.23    0.45
  -7  -8 -12    2.41    0.83
  -7  -8 -12    0.38    0.76
   7   8  12   -0.14    0.97
   7   8  12    0.72    1.10
  -8  -8 -12   25.84    2.03
  -8  -8 -12   21.89    1.60
   8   8  12   24.49    3.00
   4  -9 -12   53.98    3.68
   4  -9 -12   59.70    3.37
   4  -9 -12   56.98    4.75
  -4   9  12   65.33    5.14
   3  -9 -12    3.86    1.23
   3  -9 -12    2.10    0.97
   3  -9 -12    2.48    0.78
  -3   9  12    3.19    1.64
  -3   9  12    5.78    1.65
   2  -9 -12   14.20    1.66
   2  -9 -12   13.27    2.00
  -2   9  12   11.39    2.19
  -2   9  12   16.66    2.45
   1  -9 -12   63.40    3.85
   1  -9 -12   63.80    4.66
  -1   9  12   67.62    5.26
  -1   9  12   70.71    5.37
   0  -9 -12    7.08    1.17
   0  -9 -12    8.98    1.31
   0   9  12    8.98    1.93
   0   9  12    8.31    1.95
  -1  -9 -12   19.72    1.93
  -1  -9 -12   17.95    1.64
   1   9  12   13.79    2.38
   1   9  12   12.40    2.29
  -2  -9 -12   49.52    2.96
  -2  -9 -12   50.76    3.14
   2   9  12   39.28    3.94
   2   9  12   34.18    3.83
  -3  -9 -12   44.71    2.80
  -3  -9 -12   44.03    2.80
   3   9  12   40.56    3.79
   3   9  12   44.24    2.74
   3   9  12   29.50    3.56
  -4  -9 -12    7.71    1.19
   4   9  12    6.54    1.61
   4   9  12    6.50    1.68
   4   9  12    7.00    1.11
  -5  -9 -12   51.80    3.11
  -5  -9 -12   47.83    2.60
   5   9  12   53.73    3.35
   5   9  12   42.62    4.12
   5   9  12   49.57    4.18
  -6  -9 -12   28.52    1.83
  -6  -9 -12   31.43    2.22
   6   9  12   27.14    2.96
   6   9  12   27.61    3.15
   6   9  12   30.14    2.44
  -7  -9 -12    3.97    0.83
  -7  -9 -12    5.49    1.47
  -7  -9 -12    5.24    1.00
   7   9  12    4.43    1.29
   7   9  12    4.64    1.59
   7   9  12    7.07    1.72
  -8  -9 -12   49.65    2.67
  -8  -9 -12   47.97    4.42
   8   9  12   52.35    4.40
   4 -10 -12   33.44    3.30
   4 -10 -12   30.49    2.08
   4 -10 -12   33.16    2.71
  -4  10  12   36.83    3.89
   3 -10 -12    1.31    0.95
   3 -10 -12    1.46    0.96
   3 -10 -12    1.57    0.67
  -3  10  12    0.73    1.27
  -3  10  12    1.53    1.68
   2 -10 -12   30.26    2.87
   2 -10 -12   32.12    2.46
  -2  10  12   32.12    3.61
  -2  10  12   34.22    3.40
   1 -10 -12   52.41    3.18
   1 -10 -12   45.88    3.67
  -1  10  12   50.59    4.33
  -1  10  12   46.43    4.46
   0 -10 -12    0.00    0.67
   0 -10 -12   -0.19    0.52
   0  10  12   -2.25    1.02
   0  10  12   -0.25    1.28
  -1 -10 -12   42.52    2.63
  -1 -10 -12   38.07    2.79
   1  10  12   33.35    3.54
   1  10  12   30.26    3.60
  -2 -10 -12   29.71    2.27
  -2 -10 -12   33.29    2.27
   2  10  12   24.61    3.40
   2  10  12   29.60    3.16
  -3 -10 -12    2.64    0.71
  -3 -10 -12    2.64    0.87
  -3 -10 -12    2.87    0.60
   3  10  12    0.37    1.24
   3  10  12    2.28    1.31
   3  10  12    2.35    0.81
  -4 -10 -12   76.57    4.26
  -4 -10 -12   78.91    3.72
   4  10  12   67.00    5.85
   4  10  12   79.74    4.60
   4  10  12   77.70    5.85
  -5 -10 -12   53.20    2.75
  -5 -10 -12   52.60    3.19
   5  10  12   52.82    4.38
   5  10  12   44.25    4.39
   5  10  12   53.68    3.47
  -6 -10 -12    2.36    0.80
  -6 -10 -12    1.93    0.64
   6  10  12    1.65    1.23
   6  10  12    1.48    1.29
   6  10  12    2.15    1.01
  -7 -10 -12   69.22    3.38
  -7 -10 -12   65.64    3.78
  -7 -10 -12   68.67    5.55
   7  10  12   69.59    5.36
   7  10  12   52.34    5.31
   7  10  12   74.53    4.54
  -8 -10 -12   32.32    3.54
  -8 -10 -12   35.55    2.20
   8  10  12   36.83    3.56
   8  10  12   40.74    3.23
   3 -11 -12   12.19    2.01
   3 -11 -12   14.78    1.42
   3 -11 -12   15.29    1.86
  -3  11  12   16.91    2.94
  -3  11  12   14.84    2.43
   2 -11 -12   37.10    2.29
   2 -11 -12   39.32    3.34
   2 -11 -12   40.13    2.80
  -2  11  12   40.92    3.88
  -2  11  12   34.89    4.03
   1 -11 -12    5.60    1.19
   1 -11 -12    7.36    1.30
   1 -11 -12    5.21    0.92
  -1  11  12    6.66    1.80
  -1  11  12    2.69    1.68
   0 -11 -12   29.96    2.27
   0 -11 -12   31.02    1.97
   0 -11 -12   29.56    2.48
   0  11  12   23.02    3.21
   0  11  12   27.39    3.66
  -1 -11 -12   69.41    3.87
  -1 -11 -12   65.03    4.43
  -1 -11 -12   71.80    3.37
   1  11  12   63.89    5.29
   1  11  12   54.61    5.35
  -2 -11 -12    7.60    1.20
  -2 -11 -12    6.62    1.03
  -2 -11 -12    8.54    1.04
   2  11  12    4.91    1.87
   2  11  12    7.11    1.85
  -3 -11 -12   24.47    1.90
  -3 -11 -12   18.81    1.63
  -3 -11 -12   21.19    1.73
   3  11  12   20.74    3.03
   3  11  12   22.07    2.83
  -4 -11 -12   81.05    4.35
  -4 -11 -12   72.89    3.78
   4  11  12   76.26    6.18
   4  11  12   78.83    4.71
   4  11  12   80.98    5.92
  -5 -11 -12    1.00    0.60
  -5 -11 -12    0.10    0.62
   5  11  12   -0.60    0.90
   5  11  12   -0.74    0.75
   5  11  12    0.78    1.31
  -6 -11 -12   38.71    2.20
  -6 -11 -12   30.45    2.31
   6  11  12   36.09    2.84
   6  11  12   32.15    3.31
   6  11  12   40.40    3.94
  -7 -11 -12   30.34    3.29
  -7 -11 -12   29.40    1.98
   7  11  12   29.66    3.67
   7  11  12   27.83    3.13
   7  11  12   31.12    2.71
  -3  12  12   24.29    3.28
   2 -12 -12   10.61    1.49
   2 -12 -12    8.88    1.51
   2 -12 -12    7.15    1.03
  -2  12  12   10.57    2.14
  -2  12  12    5.43    2.21
   1 -12 -12    4.21    1.11
   1 -12 -12    3.47    0.80
   1 -12 -12    2.13    0.92
  -1  12  12    2.71    1.55
  -1  12  12    0.87    1.61
   0 -12 -12   62.64    3.61
   0 -12 -12   65.63    4.21
   0 -12 -12   61.17    3.08
   0  12  12   50.95    4.77
   0  12  12   39.41    4.87
  -1 -12 -12   16.98    1.71
  -1 -12 -12   15.03    1.45
  -1 -12 -12   18.15    1.82
   1  12  12   17.99    2.65
   1  12  12    9.51    2.40
  -2 -12 -12   20.48    1.81
  -2 -12 -12   19.77    1.74
  -2 -12 -12   24.27    2.15
   2  12  12   13.51    2.72
   2  12  12   18.61    2.69
  -3 -12 -12   50.86    3.20
  -3 -12 -12   54.63    2.90
   3  12  12   56.55    4.50
   3  12  12   46.82    4.79
  -4 -12 -12   25.01    1.96
  -4 -12 -12   23.74    1.93
   4  12  12   24.17    3.25
   4  12  12   20.89    2.04
   4  12  12   24.76    2.76
  -5 -12 -12    7.11    1.08
  -5 -12 -12    6.78    1.16
   5  12  12    4.68    1.74
   5  12  12    6.28    1.26
   5  12  12    4.55    1.48
  -6 -12 -12   22.60    1.85
  -6 -12 -12   16.82    1.71
   6  12  12   20.64    3.05
   6  12  12   20.51    2.22
   6  12  12   21.29    2.81
   1 -13 -12   30.32    2.81
   1 -13 -12   32.48    2.15
   1 -13 -12   35.80    2.61
  -1  13  12   27.55    3.89
  -1  13  12   30.37    3.38
   0 -13 -12   25.59    2.01
   0 -13 -12   26.82    2.20
   0 -13 -12   23.09    2.28
   0  13  12   21.46    2.94
  -1 -13 -12    0.49    0.62
  -1 -13 -12   -0.73    0.67
  -1 -13 -12   -0.10    0.55
   1  13  12   -1.60    1.53
   1  13  12   -1.12    1.02
  -2 -13 -12   11.80    1.31
  -2 -13 -12   11.57    1.45
  -2 -13 -12   12.05    1.55
   2  13  12   15.18    2.28
   2  13  12   14.66    2.65
  -3 -13 -12   20.11    1.75
  -3 -13 -12   22.70    2.08
   3  13  12   15.85    2.86
   3  13  12   22.18    2.81
  -4 -13 -12    0.32    0.64
  -4 -13 -12    0.82    0.70
   4  13  12    0.61    1.39
   4  13  12    0.27    0.97
   4  13  12    0.72    0.86
  -5 -13 -12   21.40    1.83
  -5 -13 -12   22.12    1.84
   5  13  12   22.27    2.15
   5  13  12   20.09    3.02
   5  13  12   24.05    2.70
  -1 -14 -12    9.60    1.43
  -1 -14 -12    8.67    1.22
  -1 -14 -12   10.94    1.53
   1  14  12    9.43    2.31
  -2 -14 -12   36.69    2.33
  -2 -14 -12   34.54    2.56
   2  14  12   33.64    4.29
  -3 -14 -12    4.15    1.02
  -3 -14 -12    4.21    1.01
   3  14  12    3.72    1.84
  -1   5 -13   34.35    3.48
  -1   5 -13   37.71    4.31
   1  -5  13   30.90    3.05
  -2   5 -13    0.15    1.57
  -2   5 -13    0.92    1.08
   2  -5  13    1.43    1.14
  -3   5 -13   34.93    4.31
  -3   5 -13   27.65    3.36
   3  -5  13   31.91    3.04
   1   4 -13   15.11    2.31
   1   4 -13   16.57    2.93
   0   4 -13   48.33    4.06
   0   4 -13   42.07    4.81
  -1   4 -13    4.03    1.82
  -1   4 -13    5.21    1.48
   1  -4  13    3.46    1.23
  -2   4 -13   11.00    2.50
  -2   4 -13   10.94    1.99
   2  -4  13    9.05    1.66
  -3   4 -13   22.33    2.81
  -3   4 -13   20.95    3.29
   3  -4  13   20.75    2.47
  -4   4 -13    2.20    1.62
  -4   4 -13    2.00    1.14
   4  -4  13    3.04    1.30
  -5   4 -13   10.08    1.87
  -5   4 -13    8.44    2.34
   5  -4  13   13.48    2.07
   2   3 -13    4.26    1.38
   2   3 -13    5.65    2.08
  -2  -3  13    4.50    1.79
   1   3 -13   38.29    3.47
   1   3 -13   37.25    4.33
  -1  -3  13   33.76    3.62
   0   3 -13    8.39    2.26
   0   3 -13    9.24    1.78
  -1   3 -13    7.62    2.18
  -1   3 -13    8.06    1.64
   1  -3  13    5.14    1.26
  -2   3 -13   56.26    4.32
  -2   3 -13   49.79    5.20
   2  -3  13   48.86    3.90
  -3   3 -13   23.88    3.46
  -3   3 -13   25.28    2.74
   3  -3  13   26.36    2.50
  -4   3 -13    1.72    1.02
  -4   3 -13    0.58    1.37
   4  -3  13    1.81    1.12
  -5   3 -13   21.46    3.53
  -5   3 -13   25.73    2.72
   5  -3  13   31.98    3.00
  -6   3 -13   19.85    3.20
  -6   3 -13   13.31    2.67
  -6   3 -13   22.77    2.34
   3   2 -13    1.05    1.02
   3   2 -13   -0.25    1.52
  -3  -2  13    1.45    1.57
   2   2 -13   19.16    3.24
   2   2 -13   27.63    2.72
  -2  -2  13   17.03    2.38
  -2  -2  13   17.48    2.76
   1   2 -13   26.73    2.76
   1   2 -13   24.28    3.63
  -1  -2  13   21.96    2.93
  -1  -2  13   26.77    2.63
   0   2 -13   -0.02    0.84
   0   2 -13   -0.49    1.32
   0  -2  13    1.38    1.06
   0  -2  13   -0.15    1.05
  -1   2 -13   14.11    2.03
  -1   2 -13   12.93    2.50
   1  -2  13   13.40    1.86
  -2   2 -13   39.76    3.44
  -2   2 -13   40.29    4.32
   2  -2  13   40.83    3.40
   2  -2  13   37.82    3.14
  -3   2 -13    1.92    1.09
  -3   2 -13    0.98    1.40
   3  -2  13    1.06    1.06
   3  -2  13    1.46    1.00
  -4   2 -13   23.28    3.60
  -4   2 -13   28.96    2.77
   4  -2  13   33.97    2.85
   4  -2  13   25.80    2.89
  -5   2 -13   36.92    4.58
  -5   2 -13   43.89    3.72
   5  -2  13   58.64    4.08
  -6   2 -13    2.37    1.51
  -6   2 -13    4.07    1.16
   6  -2  13    4.08    1.52
  -7   2 -13   16.62    2.94
  -7   2 -13   15.10    2.81
  -7   2 -13   16.65    2.17
   7  -2  13   24.73    3.06
   3   1 -13    5.33    1.52
   3   1 -13    6.17    2.23
  -3  -1  13    7.67    2.08
   2   1 -13   43.01    4.77
   2   1 -13   47.16    3.87
  -2  -1  13   41.66    4.21
   1   1 -13   20.24    3.03
   1   1 -13   17.87    2.32
  -1  -1  13   19.00    2.60
  -1  -1  13   16.89    2.23
   0   1 -13    4.76    1.73
   0   1 -13    3.48    1.16
   0  -1  13    3.93    1.25
   0  -1  13    1.95    1.25
  -1   1 -13   42.39    4.39
  -1   1 -13   41.31    3.44
   1  -1  13   41.12    3.40
  -2   1 -13   47.68    3.69
  -2   1 -13   43.68    4.59
   2  -1  13   49.01    3.77
   2  -1  13   40.68    3.46
  -3   1 -13    5.44    1.28
  -3   1 -13    5.40    1.80
   3  -1  13    6.29    1.51
   3  -1  13    8.47    1.38
  -4   1 -13   36.07    2.97
  -4   1 -13   30.09    3.79
   4  -1  13   26.15    3.10
   4  -1  13   39.23    3.08
  -5   1 -13    5.76    1.78
  -5   1 -13    9.79    1.55
   5  -1  13   12.35    1.89
   5  -1  13    8.22    1.88
  -6   1 -13    9.02    2.22
  -6   1 -13   12.20    1.74
   6  -1  13   10.55    2.13
   6  -1  13   11.92    2.15
  -7   1 -13   46.37    4.76
  -7   1 -13   41.92    3.54
  -7   1 -13   41.65    4.68
   7  -1  13   55.85    4.41
   7  -1  13   47.97    4.27
  -8   1 -13    3.83    1.07
  -8   1 -13    3.19    1.73
  -8   1 -13    3.74    1.65
   8  -1  13    5.81    1.86
   4   0 -13    1.00    1.08
   4   0 -13    0.43    1.58
  -4   0  13    1.19    1.60
  -4   0  13    1.61    1.31
   3   0 -13   23.17    2.75
   3   0 -13   19.76    3.37
  -3   0  13   16.91    2.83
   2   0 -13   35.72    3.27
   2   0 -13   32.63    3.97
   2   0 -13   34.86    2.28
  -2   0  13   30.86    3.49
   1   0 -13   -0.16    1.28
   1   0 -13    0.30    0.83
   1   0 -13    0.74    0.54
  -1   0  13    1.25    1.12
  -1   0  13    0.08    1.20
   0   0 -13   47.83    3.75
   0   0 -13   46.20    4.62
   0   0  13   44.64    3.73
  -1   0 -13   41.18    3.37
  -1   0 -13   40.34    4.24
   1   0  13   42.12    3.49
  -2   0 -13    2.21    0.85
  -2   0 -13   -0.08    1.08
   2   0  13    1.71    1.05
  -3   0 -13   61.30    5.88
  -3   0 -13   67.70    4.67
   3   0  13   65.35    5.03
   3   0  13   67.28    4.72
  -4   0 -13   28.78    3.93
  -4   0 -13   41.92    3.14
   4   0  13   35.48    3.51
   4   0  13   45.64    3.31
  -5   0 -13    0.73    0.67
  -5   0 -13   -0.49    0.93
   5   0  13   -1.60    0.96
   5   0  13    0.53    1.03
  -6   0 -13   30.08    2.57
  -6   0 -13   25.43    3.38
   6   0  13   32.26    3.33
   6   0  13   32.33    3.08
  -7   0 -13   20.51    1.94
  -7   0 -13   13.88    2.62
   7   0  13   20.00    2.82
   7   0  13   19.16    2.68
  -8   0 -13   -0.32    1.19
  -8   0 -13   -1.11    0.90
   8   0  13    0.37    1.33
   8   0  13    1.05    1.39
   4  -1 -13   13.14    2.21
   4  -1 -13   15.67    3.02
  -4   1  13   14.65    2.66
   3  -1 -13   65.05    6.30
   3  -1 -13   67.60    5.15
  -3   1  13   63.76    5.59
   2  -1 -13   11.91    1.94
   2  -1 -13   11.97    2.48
   2  -1 -13   10.96    1.35
  -2   1  13   10.56    2.15
   1  -1 -13   25.47    1.89
   1  -1 -13   24.22    2.57
   1  -1 -13   26.85    3.29
  -1   1  13   23.74    2.53
   0  -1 -13   64.27    5.74
   0  -1 -13   67.98    4.74
   0   1  13   59.90    4.72
  -1  -1 -13    0.73    1.19
  -1  -1 -13    1.49    0.81
   1   1  13    3.88    1.19
  -2  -1 -13   39.20    3.18
  -2  -1 -13   38.88    4.10
   2   1  13   44.22    3.55
  -3  -1 -13   83.78    5.43
  -3  -1 -13   74.29    6.79
   3   1  13   82.33    5.98
  -4  -1 -13   -0.08    1.00
  -4  -1 -13    0.38    0.62
   4   1  13    0.67    0.86
   4   1  13   -0.84    0.97
  -5  -1 -13   24.21    3.25
  -5  -1 -13   34.26    2.49
   5   1  13   25.75    3.06
  -6  -1 -13   53.15    5.34
  -6  -1 -13   63.91    4.11
   6   1  13   59.49    4.71
   6   1  13   58.32    4.96
  -7  -1 -13   17.48    2.73
   7   1  13   19.86    2.81
   7   1  13   16.85    2.47
  -8  -1 -13   13.57    2.48
  -8  -1 -13   15.44    2.88
   8   1  13   12.97    2.40
   4  -2 -13   53.88    5.91
   4  -2 -13   65.84    5.10
  -4   2  13   61.41    5.49
   3  -2 -13   16.30    1.74
   3  -2 -13   17.11    3.02
   3  -2 -13   16.06    2.35
  -3   2  13   12.58    2.44
   2  -2 -13   26.09    1.97
   2  -2 -13   22.92    2.73
   2  -2 -13   23.92    3.42
  -2   2  13   20.80    2.25
   1  -2 -13  118.19    7.57
   1  -2 -13  118.05    5.77
   1  -2 -13  114.59    9.07
  -1   2  13  100.46    7.30
  -1   2  13  109.51    7.63
   0  -2 -13   27.93    3.27
   0  -2 -13   27.87    2.06
   0  -2 -13   29.72    2.73
   0   2  13   29.70    2.84
  -1  -2 -13   10.35    2.08
  -1  -2 -13   13.56    1.76
   1   2  13   13.88    1.95
  -2  -2 -13   67.76    6.13
  -2  -2 -13   71.65    4.96
   2   2  13   77.09    5.46
  -3  -2 -13   39.33    2.80
  -3  -2 -13   26.01    3.45
   3   2  13   35.96    3.31
  -4  -2 -13    2.44    1.19
  -4  -2 -13    4.82    0.95
   4   2  13    2.58    1.34
  -5  -2 -13   29.19    3.60
  -5  -2 -13   39.09    2.68
   5   2  13   36.06    3.09
   5   2  13   31.68    3.45
  -6  -2 -13   28.61    3.28
  -6  -2 -13   30.13    2.25
   6   2  13   26.20    3.35
   6   2  13   29.03    2.90
  -7  -2 -13    6.11    1.64
   7   2  13    5.90    1.68
   7   2  13    6.42    1.82
  -8  -2 -13   51.37    4.84
   8   2  13   53.70    4.61
   8   2  13   42.83    4.34
  -9  -2 -13   30.14    3.36
   9   2  13   17.42    2.91
   4  -3 -13   29.87    3.92
   4  -3 -13   27.02    3.35
   4  -3 -13   30.97    2.70
   3  -3 -13    0.28    0.78
   3  -3 -13    2.72    1.28
   3  -3 -13    0.54    1.38
  -3   3  13   -0.30    0.99
   2  -3 -13   56.60    4.44
   2  -3 -13   56.33    3.32
   2  -3 -13   54.40    5.20
  -2   3  13   49.75    3.99
   1  -3 -13   26.46    2.72
   1  -3 -13   27.75    2.11
   1  -3 -13   25.86    3.28
  -1   3  13   25.63    2.41
  -1   3  13   27.93    2.76
   0  -3 -13    0.11    0.60
   0  -3 -13    0.08    0.98
   0  -3 -13   -0.08    0.68
   0   3  13    1.01    0.97
   0   3  13   -0.22    0.70
  -1  -3 -13   45.52    2.77
  -1  -3 -13   42.87    3.46
  -1  -3 -13   41.37    4.16
   1   3  13   44.80    3.65
  -2  -3 -13   70.47    6.45
  -2  -3 -13   82.27    5.37
   2   3  13   83.40    5.86
  -3  -3 -13    3.50    1.38
  -3  -3 -13    6.72    1.13
   3   3  13    6.54    1.75
  -4  -3 -13   16.52    2.55
   4   3  13   21.70    2.85
  -5  -3 -13   70.75    4.16
  -5  -3 -13   53.33    5.36
   5   3  13   57.04    5.10
  -6  -3 -13    3.47    1.28
   6   3  13    4.33    1.44
   6   3  13    4.39    1.56
  -7  -3 -13   27.78    3.18
   7   3  13   36.39    3.48
   7   3  13   24.02    3.08
  -8  -3 -13   51.54    4.71
   8   3  13   54.01    4.59
   8   3  13   40.24    4.22
  -9  -3 -13    0.38    1.10
   9   3  13    0.83    1.46
   5  -4 -13   36.78    2.86
   4  -4 -13    2.89    1.02
   4  -4 -13    3.60    1.41
   4  -4 -13    1.66    1.58
  -4   4  13    6.37    1.58
   3  -4 -13   11.91    2.45
   3  -4 -13    7.92    1.36
   3  -4 -13   11.82    2.07
  -3   4  13   11.22    1.77
   2  -4 -13   40.05    2.79
   2  -4 -13   41.72    4.23
   2  -4 -13   39.60    3.65
  -2   4  13   39.66    3.35
   1  -4 -13   18.82    1.90
   1  -4 -13   19.17    2.81
   1  -4 -13   21.49    2.55
  -1   4  13   19.05    2.43
  -1   4  13   18.88    2.11
   0  -4 -13    4.09    0.97
   0  -4 -13    2.31    0.96
   0  -4 -13    3.03    1.32
   0   4  13    2.82    1.18
   0   4  13    1.89    0.95
  -1  -4 -13   38.83    3.28
  -1  -4 -13   44.39    2.74
  -1  -4 -13   40.64    3.92
   1   4  13   38.86    3.19
   1   4  13   41.93    3.57
  -2  -4 -13   14.07    1.56
  -2  -4 -13   11.68    2.05
  -2  -4 -13   12.22    1.71
   2   4  13   10.58    1.53
   2   4  13   14.73    2.13
  -3  -4 -13    8.83    1.84
  -3  -4 -13   12.91    1.57
   3   4  13   13.33    2.31
  -4  -4 -13   50.16    4.65
   4   4  13   51.52    4.47
  -5  -4 -13    8.94    1.06
  -5  -4 -13    8.35    1.73
   5   4  13    7.91    1.90
  -6  -4 -13   24.83    2.94
   6   4  13   27.52    3.42
  -7  -4 -13   66.16    5.97
   7   4  13   77.68    5.87
  -8  -4 -13   11.08    2.02
   8   4  13   12.00    2.31
   8   4  13    7.01    1.78
  -9  -4 -13    5.82    1.67
   9   4  13    6.66    1.98
  -5   5  13    6.18    1.70
   4  -5 -13    0.14    1.13
   4  -5 -13   -0.86    0.80
   4  -5 -13    0.68    0.82
  -4   5  13    1.42    1.23
   3  -5 -13   11.12    2.08
   3  -5 -13    8.22    1.40
   3  -5 -13   12.04    1.62
  -3   5  13   14.77    1.98
   2  -5 -13   24.82    2.34
   2  -5 -13   27.99    3.28
   2  -5 -13   22.28    2.90
  -2   5  13   27.89    2.60
   1  -5 -13    0.39    1.03
   1  -5 -13   -0.30    0.74
   1  -5 -13   -0.19    0.66
  -1   5  13    0.38    0.90
  -1   5  13    2.50    1.11
   0  -5 -13   43.86    4.15
   0  -5 -13   48.69    2.98
   0  -5 -13   34.18    3.40
   0   5  13   48.08    3.55
   0   5  13   45.59    3.71
  -1  -5 -13   46.10    4.14
  -1  -5 -13   63.64    5.12
  -1  -5 -13   61.92    3.58
   1   5  13   59.35    4.62
   1   5  13   63.32    4.38
  -2  -5 -13    0.24    0.88
  -2  -5 -13    0.35    0.68
  -2  -5 -13    0.27    0.60
   2   5  13   -0.36    0.80
   2   5  13    0.63    1.14
  -3  -5 -13   70.79    3.80
  -3  -5 -13   56.94    5.22
  -3  -5 -13   52.04    4.12
   3   5  13   60.56    5.05
   3   5  13   75.82    4.68
  -4  -5 -13   16.31    2.46
  -4  -5 -13   19.61    1.64
   4   5  13   21.28    2.98
  -5  -5 -13    5.18    1.39
   5   5  13    2.89    1.49
  -6  -5 -13   50.25    4.72
   6   5  13   57.75    4.76
  -7  -5 -13   19.19    2.45
   7   5  13   21.92    2.99
  -8  -5 -13    4.52    1.38
   8   5  13    5.26    1.65
  -9  -5 -13   28.88    3.35
   9   5  13   33.53    3.54
   4  -6 -13    2.97    1.37
   4  -6 -13    4.94    1.15
   4  -6 -13    1.61    1.07
  -4   6  13    4.01    1.47
   3  -6 -13   15.60    2.47
   3  -6 -13   17.84    2.02
   3  -6 -13   16.24    1.82
  -3   6  13   19.12    2.40
   2  -6 -13    9.63    1.81
   2  -6 -13   10.68    1.40
   2  -6 -13    8.85    1.44
  -2   6  13   13.55    2.04
  -2   6  13   10.67    1.76
   1  -6 -13   28.21    2.45
   1  -6 -13   29.58    3.00
  -1   6  13   37.81    3.06
  -1   6  13   33.99    3.12
   0  -6 -13   50.46    4.35
   0  -6 -13   55.50    3.61
   0   6  13   67.47    4.60
   0   6  13   68.11    4.81
  -1  -6 -13    0.76    0.65
  -1  -6 -13    0.99    0.75
  -1  -6 -13    0.85    0.93
   1   6  13    1.36    1.15
   1   6  13   -0.97    0.92
  -2  -6 -13   78.80    6.00
  -2  -6 -13   70.73    4.21
  -2  -6 -13   64.93    4.83
   2   6  13   77.09    5.34
   2   6  13   74.20    5.69
  -3  -6 -13   81.43    5.49
  -3  -6 -13   83.32    6.90
  -3  -6 -13   97.20    4.94
   3   6  13   76.33    6.47
   3   6  13   99.68    6.23
  -4  -6 -13    0.03    0.74
  -4  -6 -13    0.98    0.43
  -4  -6 -13    1.42    0.78
   4   6  13   -0.27    0.84
   4   6  13   -0.77    1.17
  -5  -6 -13   26.88    2.99
  -5  -6 -13   31.11    2.35
   5   6  13   28.72    3.20
  -6  -6 -13   39.13    3.79
  -6  -6 -13   39.92    2.81
   6   6  13   40.56    3.86
  -7  -6 -13    2.81    1.15
   7   6  13    3.35    1.51
  -8  -6 -13    6.52    1.57
   8   6  13    8.87    1.93
  -9  -6 -13   15.37    2.41
   4  -7 -13   49.82    3.20
   4  -7 -13   47.24    3.38
   4  -7 -13   48.30    4.48
  -4   7  13   56.84    4.47
   3  -7 -13   24.06    2.39
   3  -7 -13   20.04    2.88
   3  -7 -13   22.90    2.10
  -3   7  13   27.41    2.92
   2  -7 -13    7.37    1.58
   2  -7 -13    8.80    1.45
   2  -7 -13    5.41    1.06
  -2   7  13   11.25    1.98
  -2   7  13    9.80    1.81
   1  -7 -13   70.85    5.29
   1  -7 -13   65.57    3.77
   1  -7 -13   65.36    4.20
  -1   7  13   75.83    5.53
  -1   7  13   87.44    5.61
   0  -7 -13   21.46    2.17
   0  -7 -13   20.81    2.17
   0  -7 -13   19.12    1.71
   0   7  13   22.70    2.54
  -1  -7 -13   23.23    2.24
  -1  -7 -13   20.07    2.04
   1   7  13   23.13    2.65
   1   7  13   25.03    2.75
  -2  -7 -13   50.33    3.28
  -2  -7 -13   46.54    3.51
   2   7  13   54.19    4.20
   2   7  13   53.81    4.49
  -3  -7 -13    9.15    1.10
  -3  -7 -13    8.90    1.41
   3   7  13    5.15    1.79
   3   7  13    9.06    1.72
  -4  -7 -13   14.01    1.70
   4   7  13   14.88    2.09
   4   7  13   11.26    2.25
  -5  -7 -13   43.53    2.95
   5   7  13   46.64    4.11
   5   7  13   37.69    3.60
  -6  -7 -13   23.65    2.64
  -6  -7 -13   21.72    2.18
   6   7  13   33.18    3.68
   6   7  13   19.80    2.62
  -7  -7 -13    1.18    0.77
  -7  -7 -13    1.13    0.91
   7   7  13    1.07    1.26
  -8  -7 -13   40.34    2.35
  -8  -7 -13   43.16    3.89
  -8  -7 -13   29.92    2.65
   8   7  13   43.29    3.95
   4  -8 -13   29.47    2.81
   4  -8 -13   36.87    2.55
   4  -8 -13   34.95    3.66
  -4   8  13   38.10    3.74
   3  -8 -13    4.62    1.45
   3  -8 -13    5.45    1.07
   3  -8 -13    5.26    1.32
  -3   8  13    6.13    1.71
  -3   8  13    4.09    1.59
   2  -8 -13   71.21    4.46
   2  -8 -13   73.68    5.60
   2  -8 -13   73.58    3.99
  -2   8  13   83.12    5.84
  -2   8  13   78.15    5.80
   1  -8 -13   54.98    4.49
   1  -8 -13   56.17    3.73
  -1   8  13   65.35    4.90
  -1   8  13   66.12    4.92
   0  -8 -13    3.46    0.99
   0  -8 -13    1.60    0.88
   0   8  13    3.34    1.46
   0   8  13    3.01    1.32
  -1  -8 -13   54.45    4.02
  -1  -8 -13   53.92    3.57
   1   8  13   60.77    4.85
   1   8  13   61.58    4.71
  -2  -8 -13   28.51    2.33
  -2  -8 -13   31.90    2.34
   2   8  13   27.18    2.99
   2   8  13   25.46    3.31
  -3  -8 -13    0.54    0.75
  -3  -8 -13    1.12    0.48
   3   8  13   -1.84    0.99
   3   8  13    0.30    1.14
  -4  -8 -13   24.97    2.34
   4   8  13   22.69    3.04
   4   8  13   19.09    2.62
  -5  -8 -13   15.83    1.87
   5   8  13   18.67    2.46
   5   8  13   23.50    3.09
  -6  -8 -13    0.66    0.77
   6   8  13    1.83    1.35
   6   8  13   -0.76    1.00
  -7  -8 -13   31.65    2.53
  -7  -8 -13   34.97    2.08
   7   8  13   41.36    3.71
   7   8  13   27.25    3.63
  -8  -8 -13   44.98    2.57
  -8  -8 -13   44.71    3.12
   8   8  13   53.25    4.46
   3  -9 -13   20.27    2.28
   3  -9 -13   24.45    3.03
  -3   9  13   25.74    3.17
  -3   9  13   24.46    3.21
   2  -9 -13   29.46    2.95
   2  -9 -13   28.93    2.48
  -2   9  13   31.58    3.47
  -2   9  13   33.40    3.30
   1  -9 -13    1.77    0.91
   1  -9 -13    0.17    0.70
  -1   9  13    2.63    1.40
  -1   9  13    0.99    1.38
   0  -9 -13   25.92    2.42
   0  -9 -13   22.40    2.26
   0   9  13   26.25    3.13
   0   9  13   27.70    3.09
  -1  -9 -13   38.65    3.06
  -1  -9 -13   41.76    2.89
   1   9  13   43.73    3.98
   1   9  13   42.37    3.98
  -2  -9 -13    6.62    1.03
  -2  -9 -13    8.97    1.37
   2   9  13    7.65    1.83
   2   9  13    3.63    1.66
  -3  -9 -13   10.83    1.09
  -3  -9 -13   11.81    1.61
   3   9  13    7.26    1.85
   3   9  13    6.97    1.93
  -4  -9 -13   90.16    4.63
   4   9  13   80.56    6.17
   4   9  13   65.52    5.89
  -5  -9 -13   20.17    2.02
   5   9  13   16.66    2.53
   5   9  13   22.52    2.99
  -6  -9 -13    8.29    1.34
  -6  -9 -13    8.56    1.05
   6   9  13    8.14    1.89
   6   9  13    4.06    1.61
  -7  -9 -13   54.28    2.87
  -7  -9 -13   55.99    3.40
   7   9  13   63.64    4.87
   7   9  13   40.71    4.45
  -8  -9 -13    4.78    0.91
  -8  -9 -13    6.91    1.16
   8   9  13   10.86    2.18
   3 -10 -13   27.74    2.71
   3 -10 -13   30.46    3.16
  -3  10  13   38.62    4.14
  -3  10  13   31.19    3.40
   2 -10 -13   21.13    2.65
   2 -10 -13   21.44    2.26
  -2  10  13   20.38    2.95
  -2  10  13   26.81    3.21
   1 -10 -13   -0.16    0.78
   1 -10 -13    0.02    0.65
  -1  10  13   -0.63    1.37
  -1  10  13    1.71    1.38
   0 -10 -13   24.12    2.35
   0 -10 -13   25.81    2.43
   0  10  13   31.11    3.38
   0  10  13   27.80    3.16
  -1 -10 -13   24.04    2.20
  -1 -10 -13   27.57    2.24
   1  10  13   25.86    3.49
   1  10  13   24.54    3.27
  -2 -10 -13    1.14    0.57
  -2 -10 -13    1.25    0.85
   2  10  13   -2.93    1.15
   2  10  13   -2.38    1.13
  -3 -10 -13   63.98    3.59
   3  10  13   55.63    4.82
   3  10  13   41.52    4.47
  -4 -10 -13   30.86    2.07
  -4 -10 -13   39.04    2.63
   4  10  13   36.63    3.60
   4  10  13   27.45    3.67
  -5 -10 -13    6.78    1.00
  -5 -10 -13    6.38    1.20
   5  10  13    3.68    1.64
   5  10  13    6.72    1.78
   5  10  13    6.44    1.25
  -6 -10 -13   77.07    4.35
  -6 -10 -13   77.99    3.73
   6  10  13   77.66    4.78
   6  10  13   84.98    6.07
   6  10  13   56.43    5.70
  -7 -10 -13   31.23    3.40
  -7 -10 -13   33.84    2.11
  -7 -10 -13   31.21    2.42
   7  10  13   23.97    3.42
   7  10  13   36.28    2.89
   7  10  13   34.79    3.50
   2 -11 -13    0.25    0.93
   2 -11 -13   -0.61    0.77
   2 -11 -13    2.54    0.76
  -2  11  13    2.84    1.80
  -2  11  13    1.46    1.42
   1 -11 -13   33.72    2.68
   1 -11 -13   33.43    2.23
   1 -11 -13   33.32    3.00
  -1  11  13   36.25    4.11
  -1  11  13   34.02    3.54
   0 -11 -13   52.65    3.36
   0 -11 -13   47.74    3.70
   0 -11 -13   53.29    2.85
   0  11  13   44.34    4.59
   0  11  13   46.72    4.51
  -1 -11 -13   10.28    1.21
  -1 -11 -13   10.22    1.53
  -1 -11 -13    7.97    1.27
   1  11  13    5.23    1.91
   1  11  13    8.58    2.15
  -2 -11 -13   28.44    2.00
  -2 -11 -13   35.41    2.51
  -2 -11 -13   31.92    2.42
   2  11  13   29.26    3.39
   2  11  13   23.46    3.49
  -3 -11 -13   50.09    3.14
  -3 -11 -13   48.45    2.66
   3  11  13   51.42    4.47
   3  11  13   34.05    4.21
  -4 -11 -13    3.34    0.95
  -4 -11 -13    0.50    0.57
   4  11  13    2.35    1.46
   4  11  13    3.51    1.70
  -5 -11 -13   41.15    2.76
  -5 -11 -13   40.42    2.40
   5  11  13   30.63    3.96
   5  11  13   41.39    2.94
   5  11  13   38.43    3.77
  -6 -11 -13   20.63    1.77
  -6 -11 -13   20.39    1.96
   6  11  13   15.67    2.77
   6  11  13   22.20    2.98
   6  11  13   25.46    2.27
   1 -12 -13   42.96    2.60
   1 -12 -13   45.61    3.18
   1 -12 -13   42.09    3.51
  -1  12  13   43.19    4.19
  -1  12  13   39.41    4.50
   0 -12 -13   12.23    1.39
   0 -12 -13   14.31    1.84
   0 -12 -13   14.21    1.80
   0  12  13   12.51    2.62
   0  12  13    6.10    1.97
  -1 -12 -13   27.19    1.89
  -1 -12 -13   28.68    2.55
  -1 -12 -13   25.43    2.24
   1  12  13   17.79    3.11
   1  12  13   21.84    3.12
  -2 -12 -13   67.43    3.39
  -2 -12 -13   66.14    3.91
  -2 -12 -13   63.86    4.29
   2  12  13   70.71    5.46
   2  12  13   44.47    5.34
  -3 -12 -13   12.33    1.41
  -3 -12 -13   13.50    1.61
   3  12  13   11.43    2.24
   3  12  13    7.13    2.19
  -4 -12 -13   13.98    1.47
  -4 -12 -13   19.94    1.97
   4  12  13   16.46    2.59
   4  12  13   15.90    2.87
  -5 -12 -13   37.55    2.38
  -5 -12 -13   38.00    2.67
   5  12  13   41.00    3.83
   5  12  13   33.11    4.25
   5  12  13   41.50    2.98
   0 -13 -13    1.80    0.78
   0 -13 -13    1.21    0.97
   0  13  13    2.52    1.60
   0  13  13   -0.20    1.71
  -1 -13 -13   19.24    1.93
  -1 -13 -13   23.25    1.95
  -1 -13 -13   17.16    2.05
   1  13  13   12.14    2.79
   1  13  13   19.27    2.95
  -2 -13 -13   16.26    1.91
  -2 -13 -13   15.44    1.63
  -2 -13 -13   13.93    1.49
   2  13  13   11.44    2.56
   2  13  13   17.17    2.74
  -3 -13 -13    4.22    1.08
  -3 -13 -13    4.58    0.92
   3  13  13    3.42    1.98
   3  13  13    5.03    1.68
  -4 -13 -13   32.36    2.15
  -4 -13 -13   31.76    2.38
   4  13  13   30.92    3.28
   4  13  13   24.26    3.61
  -1   3 -14   28.70    2.95
  -1   3 -14   22.41    3.58
  -2   3 -14   17.98    2.42
  -2   3 -14   16.45    3.01
  -3   3 -14    1.13    1.51
  -3   3 -14    3.53    1.34
  -4   3 -14   18.27    3.39
  -4   3 -14   22.10    2.71
   4  -3  14   24.85    2.55
   1   2 -14   -0.21    1.38
   1   2 -14    0.87    1.03
  -1  -2  14    0.38    1.10
  -1  -2  14    3.57    1.61
   0   2 -14   13.77    2.09
   0   2 -14   12.41    2.62
   0  -2  14   11.75    1.85
  -1   2 -14   20.19    3.30
  -1   2 -14   26.63    2.77
   1  -2  14   27.72    2.73
  -2   2 -14    0.26    1.45
  -2   2 -14    1.32    1.01
  -3   2 -14   36.82    3.35
  -3   2 -14   34.94    4.27
  -4   2 -14   32.24    2.99
  -4   2 -14   24.72    3.81
  -5   2 -14    1.41    0.92
  -5   2 -14   -0.48    1.31
   5  -2  14    2.08    1.15
   2   1 -14    7.28    1.66
   2   1 -14    6.35    2.13
  -2  -1  14    6.20    1.94
  -2  -1  14    7.00    1.68
   1   1 -14    9.00    2.33
   1   1 -14   12.43    1.99
  -1  -1  14   10.30    2.04
  -1  -1  14    8.39    1.78
   0   1 -14   63.79    6.06
   0   1 -14   67.48    4.99
   0  -1  14   63.29    4.87
  -1   1 -14   21.67    3.31
  -1   1 -14   25.19    2.64
   1  -1  14   24.34    2.49
  -2   1 -14   13.98    2.03
  -2   1 -14   17.25    2.96
   2  -1  14   17.39    2.25
  -3   1 -14   65.96    4.86
  -3   1 -14   65.05    6.18
   3  -1  14   65.24    5.07
  -4   1 -14    7.58    1.46
  -4   1 -14    6.75    2.08
   4  -1  14    6.58    1.66
  -5   1 -14   14.55    1.97
  -5   1 -14    9.54    2.49
   5  -1  14   15.29    2.13
   5  -1  14   14.10    2.36
  -6   1 -14   53.74    4.09
   6  -1  14   58.18    4.52
   6  -1  14   46.22    4.65
   2   0 -14    1.92    1.09
   2   0 -14    2.07    1.63
  -2   0  14    1.53    1.56
  -2   0  14    2.51    1.36
   1   0 -14   45.13    3.86
   1   0 -14   47.84    4.90
   1   0 -14   45.21    2.84
  -1   0  14   44.93    3.88
   0   0 -14   29.44    3.67
   0   0 -14   32.25    2.98
   0   0  14   29.14    2.85
  -1   0 -14    9.42    2.21
  -1   0 -14   12.23    1.82
   1   0  14   10.12    1.74
  -2   0 -14   79.44    5.50
  -2   0 -14   71.21    6.79
   2   0  14   81.71    5.74
  -3   0 -14   34.21    2.93
  -3   0 -14   29.51    3.93
   3   0  14   34.16    3.16
  -4   0 -14    5.51    1.23
  -4   0 -14    3.47    1.63
   4   0  14    3.28    1.41
  -5   0 -14   42.24    3.09
  -5   0 -14   26.85    3.89
   5   0  14   37.03    3.68
  -6   0 -14   18.74    1.93
  -6   0 -14   10.89    2.44
   6   0  14   20.49    2.67
   6   0  14   11.81    2.43
  -7   0 -14    0.28    1.17
  -7   0 -14    0.33    0.69
   7   0  14   -0.18    1.36
   7   0  14    0.96    1.19
   3  -1 -14    2.57    1.77
   3  -1 -14    1.23    0.99
  -3   1  14    1.90    1.65
   2  -1 -14   18.61    2.47
   2  -1 -14   20.48    3.21
   2  -1 -14   17.33    1.72
  -2   1  14   19.59    2.56
   1  -1 -14   39.12    4.31
   1  -1 -14   36.25    2.48
   1  -1 -14   40.11    3.47
  -1   1  14   36.04    3.44
   0  -1 -14    2.92    1.54
   0  -1 -14    4.58    1.25
   0   1  14    3.36    1.30
  -1  -1 -14   29.43    2.79
  -1  -1 -14   30.35    3.59
   1   1  14   30.57    2.94
  -2  -1 -14   21.14    2.24
  -2  -1 -14   19.21    3.03
   2   1  14   24.60    2.58
  -3  -1 -14    0.38    1.29
  -3  -1 -14    0.49    0.69
   3   1  14    1.00    1.05
  -4  -1 -14   24.29    2.22
  -4  -1 -14   20.45    3.21
   4   1  14   22.11    2.88
  -5  -1 -14   30.35    2.36
  -5  -1 -14   17.00    3.04
   5   1  14   25.46    3.34
  -6  -1 -14    3.74    0.89
  -6  -1 -14    2.76    1.42
   6   1  14    2.28    1.50
  -7  -1 -14   15.19    2.66
   7   1  14   15.79    2.55
   7   1  14   12.05    2.44
   3  -2 -14   10.74    2.59
   3  -2 -14   13.08    2.11
   2  -2 -14   53.66    5.14
   2  -2 -14   51.81    3.13
   2  -2 -14   48.60    4.17
  -2   2  14   45.02    4.12
   1  -2 -14   16.56    2.27
   1  -2 -14   17.99    1.76
   1  -2 -14   21.77    3.13
  -1   2  14   19.53    2.51
   0  -2 -14   16.45    2.15
   0  -2 -14   14.16    2.55
   0  -2 -14   17.87    1.70
   0   2  14   14.91    2.15
  -1  -2 -14   39.43    4.13
  -1  -2 -14   41.89    3.35
   1   2  14   38.04    3.42
  -2  -2 -14   17.45    2.82
  -2  -2 -14   19.68    2.08
   2   2  14   20.40    2.51
  -3  -2 -14    0.42    1.22
  -3  -2 -14    3.30    0.91
   3   2  14    2.05    1.20
  -4  -2 -14   21.10    1.93
  -4  -2 -14   14.44    2.64
   4   2  14   18.84    2.68
  -5  -2 -14    7.18    1.95
  -5  -2 -14   15.69    1.54
   5   2  14   11.84    2.37
  -6  -2 -14    0.80    1.13
   6   2  14    0.98    1.47
  -7  -2 -14   31.10    3.66
   7   2  14   32.68    3.72
  -8  -2 -14   12.58    2.45
   8   2  14   14.35    2.71
   3  -3 -14   22.24    2.91
   3  -3 -14   21.77    3.34
  -3   3  14   17.82    2.26
   2  -3 -14   30.44    3.67
   2  -3 -14   29.07    3.01
   2  -3 -14   26.22    2.19
  -2   3  14   27.05    2.94
   1  -3 -14    1.86    1.09
   1  -3 -14    0.99    1.36
   1  -3 -14    3.17    0.89
  -1   3  14    1.53    1.28
   0  -3 -14   36.64    3.93
   0  -3 -14   39.81    3.32
   0  -3 -14   35.58    2.51
   0   3  14   34.95    3.27
  -1  -3 -14   49.38    4.67
  -1  -3 -14   48.42    3.82
  -1  -3 -14   50.32    3.10
   1   3  14   48.09    4.00
  -2  -3 -14   -0.19    1.02
  -2  -3 -14    0.00    0.66
   2   3  14    1.50    1.16
  -3  -3 -14   44.53    4.80
  -3  -3 -14   51.88    3.77
   3   3  14   58.79    4.56
  -4  -3 -14   69.58    4.21
  -4  -3 -14   46.09    5.26
   4   3  14   59.66    5.02
  -5  -3 -14    3.24    1.42
  -5  -3 -14    5.03    0.93
   5   3  14    2.03    1.53
  -6  -3 -14   39.54    4.18
   6   3  14   42.49    4.22
  -7  -3 -14   37.80    4.17
   7   3  14   47.65    4.41
  -8  -3 -14    0.11    0.98
   8   3  14    0.91    1.47
   3  -4 -14   41.21    3.91
   3  -4 -14   40.05    2.91
  -3   4  14   42.87    3.63
   2  -4 -14   12.80    1.65
   2  -4 -14   12.92    2.50
   2  -4 -14   11.37    1.99
  -2   4  14   12.92    2.11
  -2   4  14   12.95    1.83
   1  -4 -14   14.14    2.41
   1  -4 -14   15.41    1.70
   1  -4 -14   13.72    2.04
  -1   4  14    9.16    1.57
  -1   4  14   12.11    2.01
   0  -4 -14   75.59    6.37
   0  -4 -14   72.41    5.36
   0  -4 -14   76.31    4.24
   0   4  14   70.85    5.46
  -1  -4 -14    5.55    1.12
  -1  -4 -14    5.18    1.54
  -1  -4 -14    5.30    1.29
   1   4  14    6.46    1.59
  -2  -4 -14   21.57    2.22
  -2  -4 -14   23.51    1.95
  -2  -4 -14   20.23    2.88
   2   4  14   25.47    2.78
  -3  -4 -14   81.09    7.02
  -3  -4 -14   84.50    5.61
   3   4  14   87.26    6.46
  -4  -4 -14    4.83    1.50
  -4  -4 -14    8.23    1.17
   4   4  14    5.68    1.82
  -5  -4 -14   43.51    4.35
   5   4  14   44.39    4.30
  -6  -4 -14   71.27    6.40
   6   4  14   79.34    6.23
  -7  -4 -14    5.61    1.64
   7   4  14    3.53    1.77
  -8  -4 -14   24.60    3.15
   8   4  14   25.65    3.53
   3  -5 -14   10.34    1.61
   3  -5 -14    8.07    1.44
   3  -5 -14    7.79    1.92
  -3   5  14   10.72    1.78
   2  -5 -14    2.05    1.08
   2  -5 -14    2.69    1.02
  -2   5  14    2.68    1.18
  -2   5  14    2.32    1.38
   1  -5 -14   75.99    5.45
   1  -5 -14   71.94    4.23
  -1   5  14   67.84    5.08
  -1   5  14   69.28    5.36
   0  -5 -14   40.15    2.70
   0  -5 -14   37.52    3.82
   0  -5 -14   33.98    3.24
   0   5  14   34.54    3.33
   0   5  14   39.44    3.20
  -1  -5 -14    4.09    1.00
  -1  -5 -14    3.98    1.09
  -1  -5 -14    3.56    1.38
   1   5  14    6.16    1.51
   1   5  14    3.23    1.15
  -2  -5 -14   66.61    3.70
  -2  -5 -14   59.93    5.23
  -2  -5 -14   52.14    4.22
   2   5  14   61.86    4.87
  -3  -5 -14   40.44    2.62
  -3  -5 -14   31.85    3.52
  -3  -5 -14   31.29    2.68
   3   5  14   35.80    3.55
  -4  -5 -14    8.44    1.17
  -4  -5 -14   11.01    1.43
  -4  -5 -14    8.25    1.83
   4   5  14    6.49    2.06
  -5  -5 -14   26.80    3.15
   5   5  14   32.17    3.52
  -6  -5 -14   15.07    2.43
   6   5  14   14.93    2.68
  -7  -5 -14   14.54    2.35
   7   5  14   12.11    2.45
  -8  -5 -14   36.29    3.97
   8   5  14   43.47    4.22
   3  -6 -14    0.30    1.07
   3  -6 -14    0.62    0.96
   3  -6 -14    0.73    0.77
  -3   6  14    1.82    1.28
   2  -6 -14   19.25    2.07
   2  -6 -14   15.52    1.82
   2  -6 -14   19.01    2.62
  -2   6  14   23.39    2.52
  -2   6  14   20.43    2.56
   1  -6 -14   36.52    3.55
   1  -6 -14   41.41    2.93
  -1   6  14   42.67    3.64
  -1   6  14   38.76    3.43
   0  -6 -14    1.16    0.87
   0  -6 -14    1.15    0.87
   0   6  14    0.74    1.09
   0   6  14    0.05    1.01
  -1  -6 -14   63.28    3.72
  -1  -6 -14   47.26    4.20
   1   6  14   59.88    4.45
   1   6  14   66.38    4.83
  -2  -6 -14   31.64    2.45
  -2  -6 -14   23.84    2.45
   2   6  14   37.48    3.35
   2   6  14   31.87    2.90
  -3  -6 -14    0.48    0.98
  -3  -6 -14    0.17    0.50
  -3  -6 -14    1.38    0.82
   3   6  14   -0.77    1.24
  -4  -6 -14   30.42    3.13
   4   6  14   21.63    3.22
  -5  -6 -14   21.40    2.70
   5   6  14   24.67    3.26
  -6  -6 -14    0.61    0.93
  -6  -6 -14    1.85    0.89
   6   6  14    1.76    1.53
  -7  -6 -14    7.57    1.66
  -7  -6 -14    7.64    1.27
   7   6  14    7.32    2.06
  -8  -6 -14   13.25    2.23
   8   6  14   12.05    2.48
   3  -7 -14   13.86    2.46
   3  -7 -14    9.19    1.62
   3  -7 -14   10.57    1.52
  -3   7  14   15.15    2.16
  -3   7  14   12.66    2.21
   2  -7 -14   41.24    2.81
   2  -7 -14   37.21    3.01
   2  -7 -14   41.16    3.88
  -2   7  14   46.87    3.91
  -2   7  14   45.97    3.78
   1  -7 -14    4.90    1.24
   1  -7 -14    4.46    1.01
   1  -7 -14    5.68    1.45
  -1   7  14    8.85    1.91
  -1   7  14    8.26    1.69
   0  -7 -14   11.01    1.67
   0  -7 -14    9.26    1.66
   0   7  14   14.41    2.01
   0   7  14   12.70    2.09
  -1  -7 -14   22.79    2.43
  -1  -7 -14   31.03    2.42
   1   7  14   30.41    3.12
   1   7  14   30.24    2.93
  -2  -7 -14    4.55    1.22
  -2  -7 -14    3.27    0.89
   2   7  14    5.10    1.64
   2   7  14    4.75    1.41
  -3  -7 -14    6.28    1.01
  -3  -7 -14    8.37    1.44
   3   7  14    6.35    1.89
   3   7  14    9.64    1.75
  -4  -7 -14   43.17    2.89
   4   7  14   39.46    3.50
   4   7  14   29.02    4.02
  -5  -7 -14   11.64    1.68
   5   7  14    9.02    2.22
  -6  -7 -14    5.17    1.16
   6   7  14    4.19    1.81
  -7  -7 -14   41.66    3.10
   7   7  14   49.77    4.54
  -8  -7 -14   18.69    2.08
   8   7  14   22.82    3.35
   3  -8 -14   33.70    2.93
   3  -8 -14   41.39    2.85
   3  -8 -14   37.97    3.85
  -3   8  14   44.22    3.86
  -3   8  14   42.12    3.84
   2  -8 -14   10.22    1.92
   2  -8 -14   10.04    1.70
  -2   8  14   11.33    2.07
  -2   8  14   10.96    2.02
   1  -8 -14    4.20    1.23
   1  -8 -14    3.14    1.25
  -1   8  14    4.51    1.53
  -1   8  14    2.52    1.42
   0  -8 -14   32.24    2.79
   0  -8 -14   33.67    3.21
   0   8  14   45.49    3.80
   0   8  14   46.96    3.82
  -1  -8 -14   32.39    2.80
  -1  -8 -14   35.39    3.03
   1   8  14   42.50    3.80
   1   8  14   41.92    3.59
  -2  -8 -14    1.12    0.93
  -2  -8 -14    0.66    0.57
   2   8  14   -0.40    1.11
   2   8  14   -0.43    1.23
  -3  -8 -14   18.40    1.62
  -3  -8 -14   18.42    2.04
   3   8  14   13.19    2.60
   3   8  14   19.97    2.57
  -4  -8 -14   41.82    3.07
   4   8  14   37.33    4.17
   4   8  14   49.19    4.04
  -5  -8 -14   -0.64    0.74
   5   8  14   -0.02    1.07
   5   8  14   -2.42    1.20
  -6  -8 -14   26.54    2.56
   6   8  14   32.22    3.59
  -7  -8 -14   21.59    2.26
   7   8  14   29.71    3.76
   2  -9 -14    0.55    0.92
   2  -9 -14   -0.41    0.96
  -2   9  14   -0.74    1.29
  -2   9  14    0.61    1.30
   1  -9 -14   12.66    1.90
   1  -9 -14   11.38    1.93
  -1   9  14   18.44    2.62
  -1   9  14   16.71    2.49
   0  -9 -14   29.69    2.82
   0  -9 -14   29.60    2.77
   0   9  14   32.85    3.52
   0   9  14   39.14    3.61
  -1  -9 -14    5.18    1.32
  -1  -9 -14    3.66    0.96
   1   9  14    3.57    1.65
   1   9  14    3.92    1.62
  -2  -9 -14   12.30    1.57
  -2  -9 -14   19.07    2.17
   2   9  14   14.39    2.59
   2   9  14   16.46    2.50
  -3  -9 -14   75.27    4.37
   3   9  14   58.09    5.70
   3   9  14   76.07    5.65
  -4  -9 -14   12.70    1.76
   4   9  14   13.13    2.31
   4   9  14   12.34    2.56
  -5  -9 -14   27.63    2.63
   5   9  14   26.09    3.46
   5   9  14   25.21    3.13
  -6  -9 -14   38.77    3.04
   6   9  14   43.67    4.14
   6   9  14   49.68    4.45
  -7  -9 -14    3.16    1.04
  -7  -9 -14    5.35    0.96
   7   9  14    6.70    1.98
   2 -10 -14   -0.20    0.98
   2 -10 -14   -0.09    0.82
  -2  10  14   -0.15    1.30
  -2  10  14   -0.80    1.38
   1 -10 -14   32.07    2.73
   1 -10 -14   29.07    2.98
  -1  10  14   33.30    3.66
  -1  10  14   39.82    3.61
   0 -10 -14   30.12    2.80
   0 -10 -14   27.93    2.67
   0  10  14   27.13    3.41
   0  10  14   35.54    3.58
  -1 -10 -14    1.81    1.01
  -1 -10 -14    1.02    0.74
   1  10  14    1.41    1.54
   1  10  14    1.71    1.54
  -2 -10 -14   58.26    3.60
  -2 -10 -14   50.31    3.60
   2  10  14   43.52    4.65
   2  10  14   52.42    4.72
  -3 -10 -14   15.14    1.97
   3  10  14   12.67    2.30
   3  10  14    6.95    2.29
  -4 -10 -14   18.60    2.11
   4  10  14   17.33    2.85
   4  10  14   11.67    2.40
  -5 -10 -14   65.61    4.15
  -5 -10 -14   65.70    3.47
   5  10  14   76.42    5.87
   5  10  14   59.31    5.40
  -6 -10 -14   13.29    1.73
  -6 -10 -14   10.51    1.26
   6  10  14   12.13    2.35
   6  10  14    9.13    2.16
   1 -11 -14   42.83    3.81
   1 -11 -14   50.18    2.92
   1 -11 -14   41.40    3.31
  -1  11  14   49.19    4.70
  -1  11  14   52.21    4.49
   0 -11 -14   -0.59    0.88
   0 -11 -14    0.21    0.75
   0  11  14   -1.51    1.48
   0  11  14   -0.09    1.44
  -1 -11 -14   48.15    3.65
  -1 -11 -14   54.86    3.53
   1  11  14   44.05    4.62
   1  11  14   51.86    4.77
  -2 -11 -14   47.29    3.29
  -2 -11 -14   52.04    3.36
  -2 -11 -14   43.13    2.66
   2  11  14   45.94    4.49
   2  11  14   31.29    4.39
  -3 -11 -14    0.26    0.82
  -3 -11 -14   -0.07    0.58
   3  11  14   -1.35    1.25
   3  11  14   -1.97    1.34
  -4 -11 -14   35.43    2.77
  -4 -11 -14   35.31    2.27
   4  11  14   31.84    4.00
   4  11  14   35.79    4.00
  -5 -11 -14   13.91    1.79
  -5 -11 -14   14.82    1.44
   5  11  14   11.22    2.45
   5  11  14   15.38    2.75
  -1 -12 -14   60.45    3.23
  -1 -12 -14   55.46    4.04
  -1 -12 -14   61.73    3.84
   1  12  14   57.05    5.25
   1  12  14   43.00    4.85
  -2 -12 -14    0.23    0.86
  -2 -12 -14    0.15    0.65
   2  12  14   -0.13    1.68
   2  12  14   -0.68    1.45
  -3 -12 -14   20.25    1.79
  -3 -12 -14   21.60    2.22
   3  12  14   15.89    2.81
   3  12  14   19.65    3.18
  -4 -12 -14   41.26    2.57
  -4 -12 -14   39.44    2.97
   4  12  14   46.77    4.28
   4  12  14   37.01    4.58
  -1   1 -15   13.44    2.08
  -1   1 -15   12.26    2.69
   1  -1  15   12.47    1.98
  -2   1 -15   34.55    4.38
  -2   1 -15   38.63    3.45
   2  -1  15   38.63    3.41
  -3   1 -15    7.18    2.20
  -3   1 -15    8.62    1.61
   3  -1  15    7.03    1.61
  -4   1 -15   13.23    2.82
  -4   1 -15   14.17    2.03
   0   0 -15    6.55    2.05
   0   0 -15   10.69    1.83
   0   0  15   11.22    1.88
  -1   0 -15   50.02    3.91
  -1   0 -15   43.80    4.79
   1   0  15   42.70    3.81
  -2   0 -15   16.99    3.02
  -2   0 -15   15.71    2.09
   2   0  15   12.86    2.05
  -3   0 -15    3.96    1.14
  -3   0 -15    1.66    1.65
   3   0  15    3.37    1.35
  -4   0 -15   51.07    3.82
  -4   0 -15   38.03    4.81
   4   0  15   50.60    4.26
  -5   0 -15   17.51    2.13
  -5   0 -15   12.89    2.74
   5   0  15   21.94    2.85
   1  -1 -15   -0.83    1.31
   1  -1 -15    0.78    0.90
   1  -1 -15    0.03    0.66
  -1   1  15    1.92    1.28
   0  -1 -15   29.62    2.99
   0  -1 -15   34.08    3.94
   0  -1 -15   31.51    2.26
   0   1  15   28.63    3.03
  -1  -1 -15   19.57    3.02
  -1  -1 -15   19.49    2.39
   1   1  15   16.59    2.31
  -2  -1 -15   -0.66    1.30
  -2  -1 -15    0.45    0.80
   2   1  15    1.40    1.09
  -3  -1 -15   25.46    3.72
  -3  -1 -15   28.36    2.62
   3   1  15   27.78    2.88
  -4  -1 -15   33.71    4.11
  -4  -1 -15   35.58    2.98
   4   1  15   34.68    3.48
  -5  -1 -15   -1.25    1.10
  -5  -1 -15   -0.08    0.69
   5   1  15   -0.02    1.29
  -6  -1 -15    9.17    2.23
  -6  -1 -15   12.94    1.64
   6   1  15   13.07    2.42
   1  -2 -15   23.86    2.02
   1  -2 -15   26.94    2.75
   1  -2 -15   23.51    3.43
  -1   2  15   21.06    2.75
   0  -2 -15   43.84    2.86
   0  -2 -15   45.96    3.73
   0  -2 -15   44.43    4.55
   0   2  15   39.19    3.66
  -1  -2 -15    9.08    2.14
  -1  -2 -15   10.68    1.38
  -1  -2 -15    8.66    1.58
   1   2  15    9.45    1.85
  -2  -2 -15    2.28    1.58
  -2  -2 -15    1.32    0.86
   2   2  15    1.51    1.19
  -3  -2 -15   41.72    4.65
  -3  -2 -15   42.95    3.43
   3   2  15   45.61    3.93
  -4  -2 -15   11.45    1.58
  -4  -2 -15   10.33    2.34
   4   2  15   14.53    2.42
  -5  -2 -15    2.56    1.55
  -5  -2 -15    6.28    1.12
   5   2  15    4.14    1.67
  -6  -2 -15   14.63    2.65
   6   2  15   22.39    3.11
   2  -3 -15    0.62    0.82
   2  -3 -15    2.08    1.09
   2  -3 -15    0.88    1.37
  -2   3  15    2.89    1.50
   1  -3 -15   24.23    2.21
   1  -3 -15   19.50    3.15
   1  -3 -15   25.22    2.73
  -1   3  15   27.21    2.93
   0  -3 -15   11.01    2.22
   0  -3 -15   12.41    1.96
   0  -3 -15   10.26    1.40
   0   3  15   10.63    1.94
  -1  -3 -15    0.52    0.71
  -1  -3 -15   -0.64    1.06
  -1  -3 -15    2.07    0.93
   1   3  15    0.76    1.20
  -2  -3 -15   35.97    3.07
  -2  -3 -15   41.12    2.62
  -2  -3 -15   30.06    3.89
   2   3  15   37.31    3.43
  -3  -3 -15   51.77    3.83
  -3  -3 -15   47.43    4.99
   3   3  15   53.12    4.48
  -4  -3 -15   -0.13    1.21
  -4  -3 -15    0.67    0.67
   4   3  15    0.80    1.34
  -5  -3 -15   41.14    2.89
  -5  -3 -15   26.91    3.76
   5   3  15   37.03    3.93
  -6  -3 -15   15.84    2.68
   6   3  15   19.36    3.03
  -7  -3 -15    0.94    1.21
   7   3  15   -1.27    1.51
   2  -4 -15   11.67    2.07
   2  -4 -15   10.63    1.54
  -2   4  15   12.19    2.21
   1  -4 -15   37.73    3.47
   1  -4 -15   34.07    2.63
   1  -4 -15   38.23    4.09
  -1   4  15   36.83    3.57
   0  -4 -15    5.03    1.67
   0  -4 -15    3.65    1.04
   0  -4 -15    6.39    1.39
   0   4  15    6.50    1.61
  -1  -4 -15   17.73    1.87
  -1  -4 -15   18.15    2.23
  -1  -4 -15   15.32    2.55
   1   4  15   18.43    2.39
  -2  -4 -15   38.98    3.14
  -2  -4 -15   35.57    2.59
  -2  -4 -15   32.93    3.86
   2   4  15   36.44    3.48
  -3  -4 -15    0.47    1.31
  -3  -4 -15    1.99    0.81
  -3  -4 -15    3.49    0.91
   3   4  15    2.20    1.42
  -4  -4 -15   66.91    4.52
  -4  -4 -15   61.51    5.92
   4   4  15   68.70    5.58
  -5  -4 -15   31.95    3.89
   5   4  15   42.22    4.07
  -6  -4 -15   -0.19    0.85
   6   4  15   -0.29    1.59
  -7  -4 -15   29.18    3.54
   7   4  15   28.84    4.09
   2  -5 -15   42.97    3.81
   2  -5 -15   35.76    2.85
  -2   5  15   38.91    3.64
  -2   5  15   36.94    3.69
   1  -5 -15   28.78    2.89
   1  -5 -15   21.84    2.21
  -1   5  15   23.48    3.00
   0  -5 -15   11.96    1.86
   0  -5 -15   11.43    1.55
   0   5  15   11.53    2.04
  -1  -5 -15   70.10    5.18
  -1  -5 -15   73.32    4.24
   1   5  15   71.15    5.49
  -2  -5 -15   27.04    2.24
  -2  -5 -15   23.39    3.19
  -2  -5 -15   28.30    2.59
   2   5  15   34.41    3.21
  -3  -5 -15   17.85    1.87
  -3  -5 -15   16.28    1.76
  -3  -5 -15   12.72    2.37
   3   5  15   15.83    2.50
  -4  -5 -15   81.35    4.14
  -4  -5 -15   62.58    5.79
  -4  -5 -15   57.74    4.33
   4   5  15   63.90    5.50
  -5  -5 -15    3.83    1.45
   5   5  15    5.05    1.96
  -6  -5 -15    4.02    1.47
   6   5  15    5.71    2.12
  -7  -5 -15   32.59    3.75
   7   5  15   39.93    4.25
   2  -6 -15   33.04    2.72
   2  -6 -15   33.01    2.52
   2  -6 -15   30.49    3.42
  -2   6  15   36.63    3.22
  -2   6  15   33.24    3.40
   1  -6 -15    2.71    0.88
   1  -6 -15    1.92    1.15
   1  -6 -15    2.04    1.10
  -1   6  15    1.16    1.16
  -1   6  15    2.13    1.37
   0  -6 -15   56.42    4.65
   0  -6 -15   63.89    3.85
   0   6  15   60.60    4.64
   0   6  15   59.84    4.82
  -1  -6 -15   49.97    3.19
  -1  -6 -15   39.51    3.58
   1   6  15   46.02    4.05
  -2  -6 -15    1.25    0.80
  -2  -6 -15    3.37    1.03
   2   6  15    2.33    1.36
  -3  -6 -15   72.36    3.94
  -3  -6 -15   48.27    4.08
   3   6  15   71.29    5.32
  -4  -6 -15   57.41    3.58
   4   6  15   50.70    4.90
  -5  -6 -15    0.03    0.68
   5   6  15   -1.14    1.32
  -6  -6 -15   12.68    1.60
   6   6  15   10.19    2.54
  -7  -6 -15   29.50    2.36
  -7  -6 -15   20.99    3.15
   7   6  15   24.83    3.76
   2  -7 -15    0.32    1.01
  -2   7  15    2.25    1.40
  -2   7  15    3.67    1.67
   1  -7 -15   14.94    2.35
   1  -7 -15   16.19    2.00
  -1   7  15   17.24    2.30
  -1   7  15   22.52    2.75
   0  -7 -15   39.28    2.95
   0  -7 -15   28.26    3.08
   0   7  15   33.75    3.25
   0   7  15   40.89    3.52
  -1  -7 -15    3.03    1.06
  -1  -7 -15    7.13    1.36
   1   7  15    4.69    1.43
   1   7  15    5.26    1.57
  -2  -7 -15   12.08    1.66
  -2  -7 -15    6.92    1.28
   2   7  15   13.14    2.26
  -3  -7 -15   20.10    1.97
  -3  -7 -15   29.73    2.37
   3   7  15   23.96    3.20
  -4  -7 -15    5.85    1.31
   4   7  15    4.55    1.91
  -5  -7 -15    9.58    1.49
   5   7  15    4.19    2.07
  -6  -7 -15   38.06    2.86
   6   7  15   31.25    4.12
   1  -8 -15   23.17    2.99
   1  -8 -15   28.18    2.73
  -1   8  15   32.37    3.21
  -1   8  15   31.34    3.07
   0  -8 -15   13.33    2.12
   0  -8 -15   20.55    2.30
   0   8  15   22.60    2.65
   0   8  15   24.10    2.93
  -1  -8 -15    1.46    1.01
  -1  -8 -15   -0.39    0.59
   1   8  15    0.03    1.16
   1   8  15    2.55    1.36
  -2  -8 -15   24.68    2.43
  -2  -8 -15   17.64    1.98
   2   8  15   29.31    3.15
   2   8  15   22.94    2.69
  -3  -8 -15   20.18    2.20
   3   8  15   16.76    2.54
   3   8  15   17.52    3.05
  -4  -8 -15   -0.63    0.79
   4   8  15   -2.97    1.35
  -5  -8 -15   23.27    2.33
   5   8  15   15.81    3.07
  -6  -8 -15   12.43    1.72
   6   8  15   11.03    2.54
   1  -9 -15   14.09    2.06
   1  -9 -15   12.74    2.13
  -1   9  15   18.38    2.51
  -1   9  15   17.28    2.42
   0  -9 -15    0.01    0.72
   0  -9 -15   -1.07    0.91
   0   9  15   -0.47    1.23
   0   9  15   -0.12    1.22
  -1  -9 -15   15.04    2.08
  -1  -9 -15   18.13    2.25
   1   9  15   23.88    2.85
   1   9  15   21.21    2.98
  -2  -9 -15   27.04    2.57
  -2  -9 -15   33.46    3.07
   2   9  15   40.05    3.90
   2   9  15   39.30    3.52
  -3  -9 -15    1.76    1.07
   3   9  15    0.83    1.36
   3   9  15    1.91    1.82
  -4  -9 -15   36.99    2.80
   4   9  15   30.68    3.41
   4   9  15   23.72    3.63
  -5  -9 -15   40.04    3.09
   5   9  15   40.07    4.92
   0 -10 -15    3.14    1.33
   0 -10 -15    4.16    1.17
   0  10  15    5.70    1.78
   0  10  15    5.92    1.80
  -1 -10 -15   38.87    3.16
  -1 -10 -15   36.00    3.22
   1  10  15   50.02    4.23
   1  10  15   44.64    4.21
  -2 -10 -15    8.04    1.27
  -2 -10 -15    8.72    1.70
   2  10  15   10.80    2.39
   2  10  15   13.16    2.32
  -3 -10 -15   19.31    2.24
   3  10  15   17.41    3.20
   3  10  15   19.06    2.78
  -4 -10 -15   44.64    3.38
   4  10  15   48.69    4.49
   4  10  15   44.63    4.70
  -5 -10 -15    6.52    1.50
   5  10  15    8.87    2.09
   5  10  15    8.31    2.34
   2  11  15   -0.65    1.42
   2  11  15   -0.77    1.43
   3  11  15   17.79    3.19
   1   2  16   10.57    1.93
  -2  -2 -16   24.72    3.66
  -2  -2 -16   26.97    2.71
   2   2  16   30.13    2.96
  -3  -2 -16    3.46    1.82
  -3  -2 -16    4.50    1.13
   3   2  16    6.59    1.63
   4   2  16    8.24    1.96
  -1  -3 -16   30.67    2.33
  -1  -3 -16   27.18    3.62
  -1  -3 -16   29.17    2.82
   1   3  16   27.73    3.05
  -2  -3 -16   14.54    1.88
  -2  -3 -16    9.31    2.24
  -2  -3 -16   10.78    1.45
  -3  -3 -16    2.20    1.62
  -3  -3 -16    2.18    0.86
   3   3  16    3.47    1.39
  -4  -3 -16   21.81    3.52
  -4  -3 -16   27.88    2.44
   4   3  16   29.83    3.24
   0   4  16   15.10    2.43
  -1  -4 -16   33.25    2.52
  -1  -4 -16   33.97    3.07
  -1  -4 -16   29.78    3.75
   1   4  16   35.28    3.42
  -2  -4 -16   -0.44    0.61
  -2  -4 -16   -0.20    1.21
  -2  -4 -16    0.90    0.78
  -3  -4 -16   24.91    2.42
  -3  -4 -16   26.34    2.22
  -3  -4 -16   25.66    3.38
   3   4  16   29.09    3.18
  -4  -4 -16   37.62    4.39
  -4  -4 -16   42.25    3.18
   4   4  16   41.41    4.08
  -5  -4 -16   -0.50    1.19
   5   4  16    0.86    1.58
   0  -5 -16   61.13    4.81
   0  -5 -16   62.63    3.84
   0   5  16   60.60    4.95
  -1  -5 -16   16.90    1.86
  -1  -5 -16   13.58    2.04
   1   5  16   17.86    2.41
  -2  -5 -16   20.56    2.16
  -2  -5 -16   16.85    1.89
   2   5  16   17.48    2.54
  -3  -5 -16   51.30    3.85
  -3  -5 -16   50.80    3.38
   3   5  16   52.49    4.63
  -4  -5 -16   13.63    1.68
   4   5  16   13.62    2.54
  -5  -5 -16    6.15    1.19
  -5  -5 -16    3.77    1.66
   5   5  16    6.59    2.16
   0  -6 -16   21.13    2.26
   0   6  16   22.70    2.87
  -1  -6 -16    9.41    1.70
  -1  -6 -16    9.65    1.53
   1   6  16   10.99    2.06
  -2  -6 -16   53.58    4.33
  -2  -6 -16   60.53    3.80
   2   6  16   65.60    5.06
  -3  -6 -16   29.56    2.43
  -3  -6 -16   24.15    2.36
   3   6  16   31.31    3.33
  -4  -6 -16    0.65    0.76
   4   6  16    0.67    1.38
  -5  -6 -16   41.26    2.88
   5   6  16   30.08    4.07
  -1  -7 -16   11.42    1.83
  -1  -7 -16   12.65    1.76
   1   7  16   15.52    2.37
  -2  -7 -16   15.90    2.03
  -2  -7 -16   23.72    2.33
   2   7  16   18.91    2.64
  -3  -7 -16   -0.29    0.86
   3   7  16    1.12    1.46
  -4  -7 -16   15.74    1.94
   4   7  16   13.85    2.62
   1   8  16   40.04    3.94
  -2  -8 -16   20.29    2.21
  -2  -8 -16    8.29    1.44
   2   8  16   14.77    2.48
  -3  -8 -16   -0.05    0.90
   3   8  16    0.01    1.38
  -4  -8 -16   29.93    2.86
   4   8  16   24.77    3.61
   0   0   0    0.00    0.00
;
_shelx_hkl_checksum              38819
#END Tags that were not found in dictionaries
loop_
_space_group_symop_operation_xyz
'x, y, z'
'-x, -y, -z'
loop_
_atom_site_type_symbol
_atom_site_label
_atom_site_fract_x
_atom_site_fract_y
_atom_site_fract_z
_atom_site_U_iso_or_equiv
_atom_site_adp_type
_atom_site_calc_flag
_atom_site_refinement_flags_adp
_atom_site_refinement_flags_posn
_atom_site_occupancy
W W1 0.83413(2) 0.39695(2) 0.31318(2) 0.01012(4) Uani d . . 1
C C1 1.0846(3) 0.3594(2) 0.2676(3) 0.0160(5) Uani d . . 1
C C2 0.8461(3) 0.5279(3) 0.1348(3) 0.0145(5) Uani d . . 1
C C3 0.8848(3) 0.5356(2) 0.3787(3) 0.0156(5) Uani d . . 1
C C4 0.5855(3) 0.4319(3) 0.3641(3) 0.0160(5) Uani d . . 1
C C5 0.8246(3) 0.2628(2) 0.4878(3) 0.0138(5) Uani d . . 1
C C6 0.5653(3) 0.1348(2) 0.3292(3) 0.0138(5) Uani d . . 1
H H6A 0.5605 0.1001 0.4221 0.017 Uiso calc U R 1
H H6B 0.4743 0.1978 0.3153 0.017 Uiso calc U R 1
C C7 0.5409(3) 0.0274(2) 0.2793(3) 0.0160(5) Uani d . . 1
C C8 0.4070(3) 0.0481(3) 0.2049(3) 0.0233(6) Uani d . . 1
H H8A 0.4345 0.1233 0.1288 0.035 Uiso calc U R 1
H H8B 0.3 0.0616 0.2582 0.035 Uiso calc U R 1
H H8C 0.3987 -0.0272 0.1788 0.035 Uiso calc U R 1
C C9 0.7787(3) -0.0748(2) 0.3717(3) 0.0183(5) Uani d . . 1
H H9A 0.8405 -0.1564 0.382 0.022 Uiso calc U R 1
H H9B 0.7234 -0.0723 0.4581 0.022 Uiso calc U R 1
C C10 0.6468(3) -0.0726(2) 0.2980(3) 0.0185(5) Uani d . . 1
C C11 0.6489(4) -0.1823(3) 0.2469(4) 0.0321(8) Uani d . . 1
H H11A 0.5668 -0.1672 0.1931 0.048 Uiso calc U R 1
H H11B 0.621 -0.2616 0.3183 0.048 Uiso calc U R 1
H H11C 0.7605 -0.1897 0.196 0.048 Uiso calc U R 1
C C12 0.7619(3) 0.2445(2) 0.0794(3) 0.0130(4) Uani d . . 1
C C13 0.6541(3) 0.3407(3) 0.0282(3) 0.0183(5) Uani d . . 1
H H13 0.5912 0.388 0.0796 0.022 Uiso calc U R 1
C C14 0.6383(4) 0.3678(3) -0.0971(3) 0.0205(5) Uani d . . 1
H H14 0.5632 0.4321 -0.1307 0.025 Uiso calc U R 1
C C15 0.7324(4) 0.3008(3) -0.1733(3) 0.0217(6) Uani d . . 1
H H15 0.7238 0.3207 -0.2598 0.026 Uiso calc U R 1
C C16 0.8387(4) 0.2048(3) -0.1233(3) 0.0229(6) Uani d . . 1
H H16 0.9021 0.1584 -0.1753 0.027 Uiso calc U R 1
C C17 0.8532(3) 0.1760(3) 0.0029(3) 0.0175(5) Uani d . . 1
H H17 0.9255 0.1094 0.0369 0.021 Uiso calc U R 1
O O1 1.2241(3) 0.3374(2) 0.2463(3) 0.0270(5) Uani d . . 1
O O2 0.8514(3) 0.6023(2) 0.0373(2) 0.0255(5) Uani d . . 1
O O3 0.9135(3) 0.61396(18) 0.4173(2) 0.0200(4) Uani d . . 1
O O4 0.4466(3) 0.4521(2) 0.3940(2) 0.0264(5) Uani d . . 1
O O5 0.8214(3) 0.1854(2) 0.5838(2) 0.0233(4) Uani d . . 1
P P1 0.76940(7) 0.21482(6) 0.24640(7) 0.01035(11) Uani d . . 1
S S1 0.93019(7) 0.05955(6) 0.29501(7) 0.01453(12) Uani d . . 1
loop_
_atom_site_aniso_label
_atom_site_aniso_U_11
_atom_site_aniso_U_22
_atom_site_aniso_U_33
_atom_site_aniso_U_12
_atom_site_aniso_U_13
_atom_site_aniso_U_23
W1 0.01121(5) 0.00904(5) 0.01127(6) 0.00052(3) -0.00336(4) -0.00424(4)
C1 0.0178(12) 0.0116(11) 0.0194(14) -0.0004(9) -0.0057(10) -0.0046(10)
C2 0.0147(11) 0.0167(11) 0.0124(12) -0.0016(9) 0.0011(9) -0.0076(10)
C3 0.0149(11) 0.0151(11) 0.0168(13) 0.0032(9) -0.0060(10) -0.0040(10)
C4 0.0193(12) 0.0165(12) 0.0146(12) 0.0020(9) -0.0059(10) -0.0072(10)
C5 0.0146(11) 0.0152(11) 0.0131(12) -0.0004(9) -0.0010(9) -0.0077(10)
C6 0.0096(10) 0.0131(11) 0.0167(13) -0.0005(8) 0.0008(9) -0.0042(10)
C7 0.0107(10) 0.0137(11) 0.0221(14) -0.0022(9) -0.0025(10) -0.0037(10)
C8 0.0149(12) 0.0190(13) 0.0380(19) -0.0014(10) -0.0109(12) -0.0081(13)
C9 0.0148(11) 0.0119(11) 0.0265(15) -0.0001(9) -0.0074(11) -0.0020(11)
C10 0.0134(11) 0.0124(11) 0.0299(16) -0.0032(9) -0.0059(11) -0.0057(11)
C11 0.0261(15) 0.0175(13) 0.064(3) 0.0042(11) -0.0215(16) -0.0208(16)
C12 0.0126(10) 0.0128(11) 0.0145(12) -0.0023(8) -0.0014(9) -0.0062(9)
C13 0.0242(13) 0.0177(12) 0.0161(13) 0.0061(10) -0.0070(11) -0.0090(11)
C14 0.0271(14) 0.0188(13) 0.0177(14) 0.0027(11) -0.0096(11) -0.0058(11)
C15 0.0246(13) 0.0264(14) 0.0180(14) -0.0043(11) -0.0060(11) -0.0104(12)
C16 0.0227(13) 0.0321(16) 0.0189(15) 0.0037(12) -0.0017(11) -0.0174(13)
C17 0.0159(11) 0.0203(12) 0.0198(14) 0.0031(9) -0.0034(10) -0.0119(11)
O1 0.0148(9) 0.0262(11) 0.0397(15) 0.0016(8) -0.0058(9) -0.0105(10)
O2 0.0312(11) 0.0230(10) 0.0175(11) -0.0026(9) -0.0053(9) 0.0005(9)
O3 0.0264(10) 0.0141(9) 0.0251(11) 0.0017(7) -0.0131(9) -0.0088(8)
O4 0.0160(9) 0.0400(13) 0.0267(12) 0.0066(9) -0.0039(9) -0.0172(11)
O5 0.0333(11) 0.0185(10) 0.0170(11) -0.0009(8) -0.0085(9) -0.0017(8)
P1 0.0093(3) 0.0094(3) 0.0128(3) 0.0004(2) -0.0019(2) -0.0046(2)
S1 0.0101(2) 0.0116(3) 0.0225(3) 0.0014(2) -0.0048(2) -0.0056(2)
loop_
_atom_type_symbol
_atom_type_description
_atom_type_scat_dispersion_real
_atom_type_scat_dispersion_imag
_atom_type_scat_source
C C 0.0033 0.0016 'International Tables Vol C Tables 4.2.6.8 and 6.1.1.4'
H H 0.0000 0.0000 'International Tables Vol C Tables 4.2.6.8 and 6.1.1.4'
O O 0.0106 0.0060 'International Tables Vol C Tables 4.2.6.8 and 6.1.1.4'
P P 0.1023 0.0942 'International Tables Vol C Tables 4.2.6.8 and 6.1.1.4'
S S 0.1246 0.1234 'International Tables Vol C Tables 4.2.6.8 and 6.1.1.4'
W W -0.8490 6.8722 'International Tables Vol C Tables 4.2.6.8 and 6.1.1.4'
loop_
_geom_angle_atom_site_label_1
_geom_angle_atom_site_label_2
_geom_angle_atom_site_label_3
_geom_angle
C3 W1 C4 89.27(10)
C3 W1 C5 91.25(10)
C4 W1 C5 90.22(11)
C3 W1 C1 90.18(10)
C4 W1 C1 178.27(10)
C5 W1 C1 88.15(11)
C3 W1 C2 90.25(11)
C4 W1 C2 90.64(11)
C5 W1 C2 178.29(8)
C1 W1 C2 91.00(11)
C3 W1 P1 176.21(8)
C4 W1 P1 90.50(7)
C5 W1 P1 84.98(7)
C1 W1 P1 89.95(7)
C2 W1 P1 93.53(7)
O1 C1 W1 177.8(3)
O2 C2 W1 178.5(2)
O3 C3 W1 179.4(2)
O4 C4 W1 179.0(2)
O5 C5 W1 178.1(2)
C7 C6 P1 110.52(17)
C7 C6 H6A 109.5
P1 C6 H6A 109.5
C7 C6 H6B 109.5
P1 C6 H6B 109.5
H6A C6 H6B 108.1
C10 C7 C8 126.2(2)
C10 C7 C6 118.1(2)
C8 C7 C6 115.5(2)
C7 C8 H8A 109.5
C7 C8 H8B 109.5
H8A C8 H8B 109.5
C7 C8 H8C 109.5
H8A C8 H8C 109.5
H8B C8 H8C 109.5
C10 C9 S1 113.8(2)
C10 C9 H9A 108.8
S1 C9 H9A 108.8
C10 C9 H9B 108.8
S1 C9 H9B 108.8
H9A C9 H9B 107.7
C7 C10 C11 125.3(3)
C7 C10 C9 118.8(2)
C11 C10 C9 115.9(2)
C10 C11 H11A 109.5
C10 C11 H11B 109.5
H11A C11 H11B 109.5
C10 C11 H11C 109.5
H11A C11 H11C 109.5
H11B C11 H11C 109.5
C17 C12 C13 119.1(2)
C17 C12 P1 124.1(2)
C13 C12 P1 116.78(18)
C14 C13 C12 120.5(2)
C14 C13 H13 119.7
C12 C13 H13 119.7
C15 C14 C13 120.0(3)
C15 C14 H14 120.0
C13 C14 H14 120.0
C16 C15 C14 119.9(3)
C16 C15 H15 120.0
C14 C15 H15 120.0
C15 C16 C17 120.4(2)
C15 C16 H16 119.8
C17 C16 H16 119.8
C16 C17 C12 120.1(2)
C16 C17 H17 119.9
C12 C17 H17 119.9
C12 P1 C6 101.02(12)
C12 P1 S1 106.88(8)
C6 P1 S1 99.94(8)
C12 P1 W1 118.73(8)
C6 P1 W1 115.81(8)
S1 P1 W1 112.27(3)
C9 S1 P1 101.15(8)
loop_
_geom_bond_atom_site_label_1
_geom_bond_atom_site_label_2
_geom_bond_distance
W1 C3 2.010(3)
W1 C4 2.039(3)
W1 C5 2.042(3)
W1 C1 2.053(3)
W1 C2 2.056(3)
W1 P1 2.4960(6)
C1 O1 1.143(3)
C2 O2 1.137(4)
C3 O3 1.148(3)
C4 O4 1.143(3)
C5 O5 1.141(4)
C6 C7 1.513(3)
C6 P1 1.853(3)
C6 H6A 0.99
C6 H6B 0.99
C7 C10 1.350(3)
C7 C8 1.496(4)
C8 H8A 0.98
C8 H8B 0.98
C8 H8C 0.98
C9 C10 1.506(4)
C9 S1 1.856(3)
C9 H9A 0.99
C9 H9B 0.99
C10 C11 1.501(4)
C11 H11A 0.98
C11 H11B 0.98
C11 H11C 0.98
C12 C17 1.393(3)
C12 C13 1.399(3)
C12 P1 1.827(3)
C13 C14 1.388(4)
C13 H13 0.95
C14 C15 1.387(4)
C14 H14 0.95
C15 C16 1.385(4)
C15 H15 0.95
C16 C17 1.391(4)
C16 H16 0.95
C17 H17 0.95
P1 S1 2.0974(8)
