#------------------------------------------------------------------------------
#$Date: 2016-03-21 15:08:08 +0200 (Mon, 21 Mar 2016) $
#$Revision: 178738 $
#$URL: svn://www.crystallography.net/cod/cif/4/08/49/4084910.cif $
#------------------------------------------------------------------------------
#
# This file is available in the Crystallography Open Database (COD),
# http://www.crystallography.net/
#
# All data on this site have been placed in the public domain by the
# contributors.
#
data_4084910
loop_
_publ_author_name
'Proutiere, Fabien'
'Lyngvi, Eirik'
'Aufiero, Marialuisa'
'Sanhueza, Italo A.'
'Schoenebeck, Franziska'
_publ_section_title
;
 Combining the Reactivity Properties of PCy3and PtBu3into a Single Ligand,
 P(iPr)(tBu)2. Reaction via Mono- or Bisphosphine Palladium(0) Centers and
 Palladium(I) Dimer Formation
;
_journal_issue                   23
_journal_name_full               Organometallics
_journal_page_first              6879
_journal_paper_doi               10.1021/om5009605
_journal_volume                  33
_journal_year                    2014
_chemical_formula_moiety         'C22 H50 P2 Pd'
_chemical_formula_sum            'C22 H50 P2 Pd'
_chemical_formula_weight         482.96
_chemical_name_systematic
;
 ?
;
_space_group_crystal_system      triclinic
_space_group_IT_number           2
_space_group_name_Hall           '-P 1'
_space_group_name_H-M_alt        'P -1'
_symmetry_space_group_name_Hall  '-P 1'
_symmetry_space_group_name_H-M   'P -1'
_atom_sites_solution_hydrogens   geom
_atom_sites_solution_primary     direct
_audit_creation_date             2014-09-19
_audit_creation_method
;
Olex2 1.2
(compiled 2014.08.28 svn.r2986 for OlexSys, GUI svn.r4874)
;
_cell_angle_alpha                98.158(16)
_cell_angle_beta                 103.103(18)
_cell_angle_gamma                117.742(16)
_cell_formula_units_Z            1
_cell_length_a                   8.036(3)
_cell_length_b                   8.385(3)
_cell_length_c                   11.704(4)
_cell_measurement_reflns_used    4334
_cell_measurement_temperature    100.0(2)
_cell_measurement_theta_max      27.45
_cell_measurement_theta_min      2.91
_cell_volume                     651.2(4)
_computing_cell_refinement       'Bruker SAINT'
_computing_data_collection       'Bruker APEX2'
_computing_data_reduction        'Bruker SAINT'
_computing_molecular_graphics    'Olex2 (Dolomanov et al., 2009)'
_computing_publication_material  'Olex2 (Dolomanov et al., 2009)'
_computing_structure_refinement  'XL (Sheldrick, 2008)'
_computing_structure_solution    'XS (Sheldrick, 2008)'
_diffrn_ambient_temperature      100.0(2)
_diffrn_detector                 'Bruker APEX2 area detector'
_diffrn_detector_area_resol_mean 8.33
_diffrn_detector_type            'CCD area detector'
_diffrn_measured_fraction_theta_full 0.983
_diffrn_measured_fraction_theta_max 0.973
_diffrn_measurement_device       'kappa-stage diffractometer'
_diffrn_measurement_device_type  'Bruker/Nonius Kappa Apex2'
_diffrn_measurement_method       '\w and \f scans'
_diffrn_radiation_monochromator  graphite
_diffrn_radiation_probe          x-ray
_diffrn_radiation_type           MoK\a
_diffrn_radiation_wavelength     0.71073
_diffrn_reflns_av_R_equivalents  0.0565
_diffrn_reflns_av_unetI/netI     0.0591
_diffrn_reflns_Laue_measured_fraction_full 0.983
_diffrn_reflns_Laue_measured_fraction_max 0.973
_diffrn_reflns_limit_h_max       10
_diffrn_reflns_limit_h_min       -10
_diffrn_reflns_limit_k_max       10
_diffrn_reflns_limit_k_min       -8
_diffrn_reflns_limit_l_max       15
_diffrn_reflns_limit_l_min       -15
_diffrn_reflns_number            10290
_diffrn_reflns_point_group_measured_fraction_full 0.983
_diffrn_reflns_point_group_measured_fraction_max 0.973
_diffrn_reflns_theta_full        25.242
_diffrn_reflns_theta_max         27.740
_diffrn_reflns_theta_min         2.865
_diffrn_source                   'sealed tube'
_diffrn_standards_number         0
_exptl_absorpt_coefficient_mu    0.839
_exptl_absorpt_correction_T_max  0.7456
_exptl_absorpt_correction_T_min  0.5770
_exptl_absorpt_correction_type   multi-scan
_exptl_absorpt_process_details
;
SADABS-2008/1 (Bruker,2008) was used for absorption correction.
wR2(int) was 0.1004 before and 0.0712 after correction.
The Ratio of minimum to maximum transmission is 0.7739.
The \l/2 correction factor is 0.0000.
;
_exptl_crystal_colour            'clear orange'
_exptl_crystal_colour_lustre     clear
_exptl_crystal_colour_primary    orange
_exptl_crystal_density_diffrn    1.231
_exptl_crystal_description       plate
_exptl_crystal_F_000             258
_exptl_crystal_size_max          0.26
_exptl_crystal_size_mid          0.16
_exptl_crystal_size_min          0.03
_refine_diff_density_max         0.760
_refine_diff_density_min         -0.741
_refine_diff_density_rms         0.085
_refine_ls_extinction_method     none
_refine_ls_goodness_of_fit_ref   1.054
_refine_ls_hydrogen_treatment    constr
_refine_ls_matrix_type           full
_refine_ls_number_parameters     240
_refine_ls_number_reflns         2980
_refine_ls_number_restraints     330
_refine_ls_restrained_S_all      1.065
_refine_ls_R_factor_all          0.0634
_refine_ls_R_factor_gt           0.0436
_refine_ls_shift/su_max          0.000
_refine_ls_shift/su_mean         0.000
_refine_ls_structure_factor_coef Fsqd
_refine_ls_weighting_details
'w=1/[\s^2^(Fo^2^)+(0.0579P)^2^+0.1992P] where P=(Fo^2^+2Fc^2^)/3'
_refine_ls_weighting_scheme      calc
_refine_ls_wR_factor_gt          0.1048
_refine_ls_wR_factor_ref         0.1156
_reflns_Friedel_coverage         0.000
_reflns_number_gt                2259
_reflns_number_total             2980
_reflns_threshold_expression     'I > 2\s(I)'
_cod_data_source_file            om5009605_si_003.cif
_cod_data_source_block           sb090213_0m
_cod_depositor_comments
'Adding full bibliography for 4084910--4084911.cif.'
_cod_original_cell_volume        651.3(4)
_cod_database_code               4084910
#BEGIN Tags that were not found in dictionaries:
_shelxl_version_number           2014-3
_shelx_space_group_comment
;
The symmetry employed for this shelxl refinement is uniquely defined
by the following loop, which should always be used as a source of
symmetry information in preference to the above space-group names.
They are only intended as comments.
;
_shelx_estimated_absorpt_t_max   0.975
_shelx_estimated_absorpt_t_min   0.811
_olex2_refinement_description
;
1. Fixed Uiso
 At 1.2 times of:
  All C(H) groups
 At 1.5 times of:
  All C(H,H,H) groups
2. Restrained distances
 P1A-C5A = P1-C5 = P1-C1 = P1A-C1A = P1A-C9A = P1-C9
 1.86 with sigma of 0.02
 C7A-C5A = C6A-C5A = C6-C5 = C7-C5 = C5-C8 = C1A-C3A = C1A-C2A = C1-C4 = C1-C3
 = C1-C2 = C10-C9 = C9-C11 = C11A-C9A = C10A-C9A = C8A-C9A = C1A-C4A
 1.53 with sigma of 0.02
 C7-C8
 2.48 with sigma of 0.04
 P1-C4
 2.83 with sigma of 0.04
 C7-P1
 2.83 with sigma of 0.04
 C8-P1
 2.83 with sigma of 0.04
 C2-P1
 2.83 with sigma of 0.04
 P1-C3
 2.83 with sigma of 0.04
 C2A-C3A = C2A-C4A = C3A-C4A
 2.48 with sigma of 0.04
 P1-C10
 2.83 with sigma of 0.04
 P1-C11
 2.83 with sigma of 0.04
 C6A-P1A
 2.83 with sigma of 0.04
 C7A-P1A
 2.83 with sigma of 0.04
 C3A-P1A
 2.83 with sigma of 0.04
 C2A-P1A
 2.83 with sigma of 0.04
 C4A-P1A
 2.83 with sigma of 0.04
 P1A-C10A = P1A-C8A
 2.83 with sigma of 0.04
 P1A-C11A
 2.83 with sigma of 0.04
 C6-C8
 2.48 with sigma of 0.04
 C6-P1
 2.83 with sigma of 0.04
 C11A-C10A = C10-C11 = C7A-C6A = C6-C7 = C8A-C11A
 2.48 with sigma of 0.04
3. Rigid bond restraints
 All non-hydrogen atoms
 with sigma for 1-2 distances of 0.01 and sigma for 1-3 distances of 0.01
4. Uiso/Uaniso restraints and constraints
Uanis(C11A) \\sim Ueq, Uanis(C3A) \\sim Ueq, Uanis(C7A) \\sim Ueq: with sigma
of 0.01 and sigma for terminal atoms of 0.02
5. Rigid body (RIGU) restrains
 All non-hydrogen atoms
 with sigma for 1-2 distances of 0.004 and sigma for 1-3 distances of 0.004
6. Others
 Sof(P1A)=Sof(C1A)=Sof(C2A)=Sof(H2AA)=Sof(H2AB)=Sof(H2AC)=Sof(C3A)=Sof(H3AA)=
 Sof(H3AB)=Sof(H3AC)=Sof(C4A)=Sof(H4AA)=Sof(H4AB)=Sof(H4AC)=Sof(C5A)=Sof(H5A)=
 Sof(C6A)=Sof(H6AA)=Sof(H6AB)=Sof(H6AC)=Sof(C7A)=Sof(H7AA)=Sof(H7AB)=Sof(H7AC)=
 Sof(C8A)=Sof(H8AA)=Sof(H8AB)=Sof(H8AC)=Sof(C9A)=Sof(C10A)=Sof(H10D)=Sof(H10E)=
 Sof(H10F)=Sof(C11A)=Sof(H11D)=Sof(H11E)=Sof(H11F)=1-FVAR(1)
 Sof(P1)=Sof(C1)=Sof(C2)=Sof(H2A)=Sof(H2B)=Sof(H2C)=Sof(C3)=Sof(H3A)=Sof(H3B)=
 Sof(H3C)=Sof(C4)=Sof(H4A)=Sof(H4B)=Sof(H4C)=Sof(C5)=Sof(C6)=Sof(H6A)=Sof(H6B)=
 Sof(H6C)=Sof(C7)=Sof(H7A)=Sof(H7B)=Sof(H7C)=Sof(C8)=Sof(H8A)=Sof(H8B)=Sof(H8C)=
 Sof(C9)=Sof(H9)=Sof(C10)=Sof(H10A)=Sof(H10B)=Sof(H10C)=Sof(C11)=Sof(H11A)=
 Sof(H11B)=Sof(H11C)=FVAR(1)
7.a Ternary CH refined with riding coordinates:
 C5A(H5A), C9(H9)
7.b Idealised Me refined as rotating group:
 C2(H2A,H2B,H2C), C2A(H2AA,H2AB,H2AC), C3(H3A,H3B,H3C), C3A(H3AA,H3AB,H3AC),
 C4(H4A,H4B,H4C), C4A(H4AA,H4AB,H4AC), C6(H6A,H6B,H6C), C6A(H6AA,H6AB,H6AC),
 C7(H7A,H7B,H7C), C7A(H7AA,H7AB,H7AC), C8(H8A,H8B,H8C), C8A(H8AA,H8AB,H8AC),
 C10(H10A,H10B,H10C), C10A(H10D,H10E,H10F), C11(H11A,H11B,H11C), C11A(H11D,H11E,
 H11F)
;
_shelx_res_file
;
TITL
CELL 0.71073 8.0363 8.3852 11.7045 98.158 103.103 117.742
ZERR 1 0.0029 0.0029 0.0042 0.016 0.018 0.016
LATT 1

SFAC C H P Pd
UNIT 22 50 2 1
DFIX 1.86 P1A C5A P1 C5 P1 C1 P1A C1A P1A C9A P1 C9
DFIX 1.53 C7A C5A C6A C5A C6 C5 C7 C5 C5 C8 C1A C3A C1A C2A C1 C4 C1 C3 C1 =
 C2 C10 C9 C9 C11 C11A C9A C10A C9A C8A C9A C1A C4A
DANG 2.48 C7 C8
DANG 2.83 P1 C4
DANG 2.83 C7 P1
DANG 2.83 C8 P1
DANG 2.83 C2 P1
DANG 2.83 P1 C3
DANG 2.48 C2A C3A C2A C4A C3A C4A
DANG 2.83 P1 C10
DANG 2.83 P1 C11
DANG 2.83 C6A P1A
DANG 2.83 C7A P1A
DANG 2.83 C3A P1A
DANG 2.83 C2A P1A
DANG 2.83 C4A P1A
DANG 2.83 P1A C10A P1A C8A
DANG 2.83 P1A C11A
DANG 2.48 C6 C8
DANG 2.83 C6 P1
DANG 2.48 C11A C10A C10 C11 C7A C6A C6 C7 C8A C11A
DELU
RIGU
ISOR 0.01 0.02 C11A C3A C7A

L.S. 12
PLAN  -8 0 0
SIZE 0.03 0.16 0.26
TEMP -173.1(2)
BOND $H
CONF
MORE -1
fmap 2
acta
OMIT 0 0 1
REM <HKL>D:/SMoCC_Strukturen/sb090213/sb090213_0m.hkl</HKL>

WGHT    0.057900    0.199200
FVAR       0.33909   0.61251
PD1   4    0.500000    0.500000    0.000000    10.50000    0.04712    0.02346 =
         0.03749    0.00546   -0.01689    0.00962
PART 1
P1    3    0.269601    0.428696   -0.182319    21.00000    0.03179    0.01575 =
         0.02407    0.00331   -0.00901    0.00741
PART 0
PART 2
P1A   3    0.283489    0.426751   -0.188883   -21.00000    0.06323    0.04757 =
         0.05220    0.00032   -0.02009    0.02695
PART 0
PART 1
C1    1    0.347177    0.350470   -0.312800    21.00000    0.04803    0.04714 =
         0.04034    0.01464   -0.00085    0.02297
PART 0
PART 2
C1A   1    0.380459    0.389836   -0.310346   -21.00000    0.06556    0.06745 =
         0.06085    0.01943   -0.00220    0.03485
PART 0
PART 1
C2    1    0.575848    0.473547   -0.281534    21.00000    0.05527    0.06951 =
         0.05834    0.02213    0.00636    0.03404
AFIX 137
H2A   2    0.614454    0.605727   -0.269554    21.00000   -1.50000
H2B   2    0.614136    0.433625   -0.348952    21.00000   -1.50000
H2C   2    0.643661    0.459174   -0.206312    21.00000   -1.50000
AFIX   0
PART 0
PART 2
C2A   1    0.257219    0.317170   -0.444607   -21.00000    0.08380    0.09124 =
         0.06701    0.00234   -0.00495    0.06428
AFIX 137
H2AA  2    0.121543    0.216839   -0.456414   -21.00000   -1.50000
H2AB  2    0.317818    0.267495   -0.491737   -21.00000   -1.50000
H2AC  2    0.252354    0.420039   -0.472762   -21.00000   -1.50000
AFIX   0
PART 0
PART 1
C3    1    0.308618    0.150516   -0.312031    21.00000    0.06790    0.04164 =
         0.05593    0.00192   -0.00647    0.02963
AFIX 137
H3A   2    0.371318    0.153263   -0.228965    21.00000   -1.50000
H3B   2    0.365634    0.111476   -0.367957    21.00000   -1.50000
H3C   2    0.164658    0.061080   -0.338688    21.00000   -1.50000
AFIX   0
PART 0
PART 2
C3A   1    0.551882    0.590721   -0.294229   -21.00000    0.09319    0.08261 =
         0.07697    0.01805    0.01044    0.02830
AFIX 137
H3AA  2    0.495527    0.665827   -0.321464   -21.00000   -1.50000
H3AB  2    0.633343    0.583378   -0.343312   -21.00000   -1.50000
H3AC  2    0.635161    0.649971   -0.207720   -21.00000   -1.50000
AFIX   0
PART 0
PART 1
C4    1    0.232436    0.336910   -0.440227    21.00000    0.06697    0.07059 =
         0.03328    0.00636    0.00633    0.04846
AFIX 137
H4A   2    0.091927    0.238798   -0.462589    21.00000   -1.50000
H4B   2    0.288962    0.305310   -0.499486    21.00000   -1.50000
H4C   2    0.242569    0.457894   -0.440620    21.00000   -1.50000
AFIX   0
PART 0
PART 2
C4A   1    0.471096    0.272579   -0.281841   -21.00000    0.08153    0.10408 =
         0.08192    0.02807    0.01672    0.06170
AFIX 137
H4AA  2    0.587945    0.344076   -0.207150   -21.00000   -1.50000
H4AB  2    0.511798    0.240019   -0.350144   -21.00000   -1.50000
H4AC  2    0.372655    0.157173   -0.269641   -21.00000   -1.50000
AFIX   0
PART 0
PART 1
C5    1    0.254101    0.641756   -0.202431    21.00000    0.07976    0.02856 =
         0.05512   -0.00066   -0.02861    0.02520
PART 0
PART 2
C5A   1    0.203507    0.606940   -0.194695   -21.00000    0.04622    0.04952 =
         0.04946    0.00617   -0.00682    0.01903
AFIX  13
H5A   2    0.089980    0.569595   -0.162215   -21.00000   -1.20000
AFIX   0
PART 0
PART 1
C6    1    0.442294    0.792648   -0.203710    21.00000    0.08481    0.04439 =
         0.11115    0.03411    0.00316    0.02662
AFIX 137
H6A   2    0.548766    0.826733   -0.127695    21.00000   -1.50000
H6B   2    0.430780    0.902518   -0.210489    21.00000   -1.50000
H6C   2    0.473926    0.750193   -0.273806    21.00000   -1.50000
AFIX   0
PART 0
PART 2
C6A   1    0.374216    0.800538   -0.113256   -21.00000    0.06828    0.03091 =
         0.03115    0.00769   -0.00234    0.02505
AFIX 137
H6AA  2    0.443773    0.787961   -0.037836   -21.00000   -1.50000
H6AB  2    0.320916    0.880635   -0.092830   -21.00000   -1.50000
H6AC  2    0.467782    0.857566   -0.156709   -21.00000   -1.50000
AFIX   0
PART 0
PART 1
C7    1    0.214585    0.709403   -0.083561    21.00000    0.11766    0.06688 =
         0.05875   -0.00164   -0.00501    0.06788
AFIX 137
H7A   2    0.092922    0.606661   -0.078268    21.00000   -1.50000
H7B   2    0.198480    0.817532   -0.087803    21.00000   -1.50000
H7C   2    0.327873    0.745925   -0.010970    21.00000   -1.50000
AFIX   0
PART 0
PART 2
C7A   1    0.135908    0.629210   -0.324780   -21.00000    0.11236    0.05630 =
         0.05018   -0.00639   -0.01984    0.05619
AFIX 137
H7AA  2    0.247354    0.671842   -0.356655   -21.00000   -1.50000
H7AB  2    0.094067    0.721906   -0.319128   -21.00000   -1.50000
H7AC  2    0.023964    0.507829   -0.380029   -21.00000   -1.50000
AFIX   0
PART 0
PART 1
C8    1    0.073804    0.604804   -0.307810    21.00000    0.06421    0.04363 =
         0.04412    0.01240   -0.00434    0.03454
AFIX 137
H8A   2    0.090692    0.571878   -0.386410    21.00000   -1.50000
H8B   2    0.064909    0.718291   -0.299589    21.00000   -1.50000
H8C   2   -0.048722    0.500769   -0.304373    21.00000   -1.50000
AFIX   0
PART 0
PART 2
C8A   1   -0.139593    0.167914   -0.320582   -21.00000    0.06188    0.04270 =
         0.07690   -0.00883   -0.01433    0.01129
AFIX 137
H8AA  2   -0.153050    0.278482   -0.318701   -21.00000   -1.50000
H8AB  2   -0.264402    0.061758   -0.321411   -21.00000   -1.50000
H8AC  2   -0.110317    0.135428   -0.394366   -21.00000   -1.50000
AFIX   0
PART 0
PART 1
C9    1    0.011168    0.245264   -0.201974    21.00000    0.03924    0.04790 =
         0.04744    0.00294   -0.00409    0.01907
AFIX  13
H9    2   -0.039205    0.315398   -0.158395    21.00000   -1.20000
AFIX   0
PART 0
PART 2
C9A   1    0.031015    0.211858   -0.206730   -21.00000    0.05561    0.05629 =
         0.06620   -0.00477   -0.00866    0.01908
PART 0
PART 1
C10   1   -0.151353    0.135309   -0.326305    21.00000    0.04235    0.04378 =
         0.05481    0.00117   -0.01076    0.01192
AFIX 137
H10A  2   -0.153065    0.222539   -0.373465    21.00000   -1.50000
H10B  2   -0.280987    0.066234   -0.315037    21.00000   -1.50000
H10C  2   -0.124798    0.046254   -0.370582    21.00000   -1.50000
AFIX   0
PART 0
PART 2
C10A  1    0.047814    0.038644   -0.213046   -21.00000    0.05909    0.05139 =
         0.09697    0.00840   -0.00477    0.01345
AFIX 137
H10D  2    0.065358    0.001409   -0.290623   -21.00000   -1.50000
H10E  2   -0.073938   -0.064247   -0.207952   -21.00000   -1.50000
H10F  2    0.162900    0.066592   -0.144653   -21.00000   -1.50000
AFIX   0
PART 0
PART 1
C11   1    0.015583    0.111511   -0.127632    21.00000    0.05362    0.03248 =
         0.06693    0.01636    0.00022    0.00432
AFIX 137
H11A  2    0.062834    0.035515   -0.164740    21.00000   -1.50000
H11B  2   -0.119021    0.028685   -0.126733    21.00000   -1.50000
H11C  2    0.105781    0.184206   -0.043554    21.00000   -1.50000
AFIX   0
PART 0
PART 2
C11A  1   -0.034119    0.250626   -0.094104   -21.00000    0.07287    0.12607 =
         0.07643   -0.01625    0.00528    0.02875
AFIX 137
H11D  2    0.062594    0.265550   -0.019033   -21.00000   -1.50000
H11E  2   -0.166265    0.144607   -0.105257   -21.00000   -1.50000
H11F  2   -0.039327    0.365908   -0.087752   -21.00000   -1.50000
AFIX   0
HKLF 4

REM
REM R1 =  0.0436 for    2259 Fo > 4sig(Fo)  and  0.0634 for all    2980 data
REM    240 parameters refined using    330 restraints

END

WGHT      0.0579      0.1992

REM Highest difference peak  0.760,  deepest hole -0.741,  1-sigma level  0.085
Q1    1   0.5628  0.4965  0.1098  11.00000  0.05    0.59
Q2    1   0.3540  0.6631 -0.2471  11.00000  0.05    0.58
Q3    1   0.6183  0.4471  0.0282  11.00000  0.05    0.50
Q4    1   0.1072  0.3364 -0.2144  11.00000  0.05    0.48
Q5    1   0.5848  0.5160  0.1890  11.00000  0.05    0.45
Q6    1   0.6346  0.6128  0.1411  11.00000  0.05    0.42
Q7    1   0.5064  0.5789  0.0813  11.00000  0.05    0.40
Q8    1   0.4155  0.4013  0.0641  11.00000  0.05    0.37
;
_shelx_res_checksum              73574
_shelx_hkl_file
;
  -1   0   0  115.96    7.14
  -1   0   0  106.58    7.13
   1   0   0  109.08    7.13
   1   0   0  111.16    7.13
  -2   0   0   77.07    5.06
  -2   0   0   72.67    5.03
  -2   0   0   67.63    6.74
   2   0   0   76.89    4.21
   2   0   0   73.21    5.03
   2   0   0   80.95    5.07
   2   0   0   76.43    6.73
  -3   0   0   19.24    2.63
  -3   0   0   23.58    2.01
   3   0   0   18.89    1.41
   3   0   0   18.21    2.50
   3   0   0   20.81    2.04
  -4   0   0  148.74    9.41
   4   0   0  137.46    9.38
   4   0   0  138.72   12.48
   4   0   0  137.71    7.87
  -5   0   0   44.24    3.41
  -5   0   0   33.72    4.62
   5   0   0   42.08    3.42
   5   0   0   42.63    2.64
  -6   0   0    5.96    1.56
   6   0   0    8.97    1.09
   6   0   0    6.00    0.97
   6   0   0    9.04    1.57
   6   0   0    6.01    1.61
  -7   0   0    0.90    1.35
   7   0   0    1.23    0.79
   7   0   0    0.11    1.25
   7   0   0   -1.50    1.32
  -8   0   0    9.10    1.92
   8   0   0    8.01    1.94
   8   0   0    4.64    1.69
   9  -1   0    4.43    1.65
   9  -1   0    4.88    1.83
  -9   1   0    3.87    1.77
   8  -1   0    1.50    1.33
   8  -1   0    3.60    1.61
  -8   1   0    2.58    1.54
   7  -1   0    4.07    1.56
   7  -1   0    3.91    1.40
   7  -1   0    6.50    0.96
   7  -1   0    3.85    0.85
  -7   1   0    4.79    1.44
   6  -1   0    3.22    0.75
   6  -1   0    5.46    0.83
   6  -1   0    4.23    1.24
   6  -1   0    4.06    1.35
  -6   1   0    1.54    1.51
  -6   1   0    3.23    1.23
   5  -1   0   90.11    5.99
   5  -1   0   87.74    6.07
   5  -1   0   91.72    4.98
   5  -1   0   86.44    4.96
  -5   1   0   92.38    6.09
  -5   1   0   70.75    8.05
   4  -1   0   57.55    3.92
   4  -1   0   54.86    3.21
   4  -1   0   56.68    4.04
   4  -1   0   57.93    3.22
  -4   1   0   44.84    5.29
  -4   1   0   59.60    4.02
   3  -1   0   19.44    1.74
   3  -1   0   16.48    1.11
   3  -1   0   15.84    1.48
   3  -1   0   15.02    1.72
   3  -1   0   18.60    1.12
  -3   1   0   15.22    1.59
  -3   1   0   16.59    1.65
  -3   1   0   13.67    1.93
   2  -1   0  129.13    7.15
   2  -1   0  129.68    8.47
   2  -1   0  143.21    8.48
   2  -1   0  130.98    8.45
   2  -1   0  126.17    7.15
  -2   1   0  120.10    8.42
  -2   1   0  135.55    8.47
  -2   1   0  135.23    8.47
  -2   1   0  131.82    7.18
  -2   1   0  128.48    8.23
   1  -1   0  540.27   30.91
  -1   1   0  492.58   31.93
  -1   1   0  476.69   31.93
   0  -1   0  863.07   55.54
   0  -1   0  879.87   55.54
   0   1   0  879.33   55.57
  -1  -1   0  335.38   22.81
  -1  -1   0  364.33   22.84
   1   1   0  340.82   22.82
   1   1   0  402.21   30.49
   1   1   0  343.78   22.82
  -2  -1   0    1.59    0.85
  -2  -1   0    2.71    0.86
   2   1   0    2.47    0.70
   2   1   0    2.10    0.76
   2   1   0    2.28    1.03
  -3  -1   0  101.32    6.88
   3   1   0  109.47    9.23
   3   1   0   97.21    5.74
   3   1   0   96.16    6.87
  -4  -1   0  157.39   10.21
   4   1   0  150.04    8.58
   4   1   0  148.89   10.21
   4   1   0  153.09   13.61
  -5  -1   0   27.39    2.65
   5   1   0   27.11    2.74
   5   1   0   26.64    2.04
  -6  -1   0    1.22    1.40
   6   1   0    2.04    0.82
   6   1   0    1.95    1.45
  -7  -1   0    2.89    1.61
   7   1   0    1.52    1.43
   7   1   0    5.33    1.82
  -8  -1   0    5.35    1.82
   8   1   0    2.07    1.67
   8   1   0    4.10    1.92
   9  -2   0    4.01    1.67
  -9   2   0    9.24    1.90
   8  -2   0    2.08    1.35
   8  -2   0   -0.39    1.29
  -8   2   0   -0.49    1.16
   7  -2   0   -0.65    0.56
   7  -2   0    0.04    0.54
   7  -2   0    1.07    1.15
   7  -2   0    0.37    1.16
  -7   2   0    1.76    1.27
  -7   2   0    0.86    1.45
   6  -2   0   23.66    2.17
   6  -2   0   22.99    1.56
   6  -2   0   23.73    1.55
   6  -2   0   23.63    2.41
  -6   2   0   24.37    2.38
  -6   2   0   17.87    3.07
   5  -2   0   75.38    5.12
   5  -2   0   70.70    4.12
   5  -2   0   72.21    4.14
   5  -2   0   83.80    5.17
  -5   2   0   61.64    6.82
  -5   2   0   76.99    5.14
   4  -2   0   78.99    4.50
   4  -2   0   77.19    4.50
   4  -2   0   79.48    5.51
   4  -2   0   83.20    5.53
  -4   2   0   86.23    5.54
  -4   2   0   84.85    5.53
   3  -2   0   17.10    1.53
   3  -2   0   17.50    1.49
   3  -2   0   17.31    1.57
  -3   2   0   17.85    1.14
  -3   2   0   17.31    1.53
  -3   2   0   20.34    1.55
  -3   2   0   17.09    1.11
  -3   2   0   17.69    1.45
   2  -2   0  249.32   14.83
  -2   2   0  239.15   15.24
  -2   2   0  228.14   15.31
  -2   2   0  240.08   15.24
   1  -2   0  485.94   28.62
  -1   2   0  446.12   28.61
   0  -2   0   93.73    6.19
   0  -2   0   93.57    6.19
   0   2   0   98.63    6.21
   0   2   0   94.37    6.20
  -1  -2   0   53.38    3.91
  -1  -2   0   54.59    3.90
   1   2   0   66.42    5.38
   1   2   0   53.33    3.92
   1   2   0   54.45    3.91
  -2  -2   0    9.63    1.63
  -2  -2   0   10.51    1.30
   2   2   0    7.14    1.48
   2   2   0    7.89    1.25
  -3  -2   0  103.89    9.02
  -3  -2   0   84.09    6.56
   3   2   0   95.10    6.67
   3   2   0  103.58    8.95
  -4  -2   0   42.10    3.64
  -4  -2   0   53.77    5.20
   4   2   0   41.68    2.92
   4   2   0   43.79    3.79
   4   2   0   48.72    5.05
  -5  -2   0   26.16    2.92
   5   2   0   28.20    2.95
   5   2   0   29.22    2.24
  -6  -2   0    0.36    1.47
   6   2   0   -1.05    1.47
  -7  -2   0    5.31    1.83
   7   2   0    4.90    1.92
   9  -3   0    4.36    1.61
  -9   3   0    4.03    1.58
   8  -3   0   -1.48    1.16
   8  -3   0    1.15    1.26
  -8   3   0   -0.53    1.19
  -8   3   0    0.03    1.38
   7  -3   0   -2.04    1.01
   7  -3   0    0.86    1.16
  -7   3   0   -1.10    1.07
  -7   3   0   -1.16    1.08
   6  -3   0   53.27    3.86
   6  -3   0   51.70    3.88
  -6   3   0   49.41    3.86
   5  -3   0   72.20    4.91
   5  -3   0   74.22    5.03
  -5   3   0   78.96    4.98
  -5   3   0   74.80    4.94
  -5   3   0   58.51    6.51
   4  -3   0   15.79    1.60
   4  -3   0   17.29    1.45
   4  -3   0   17.11    1.52
  -4   3   0   12.70    1.84
  -4   3   0   17.32    1.11
  -4   3   0   18.74    1.56
  -4   3   0   16.38    1.06
  -4   3   0   17.54    1.56
  -3   3   0   15.09    1.17
  -3   3   0   14.95    1.15
  -3   3   0   11.47    1.21
  -3   3   0   11.78    1.26
   2  -3   0  496.70   30.51
  -2   3   0  494.99   30.51
   1  -3   0  408.29   25.31
  -1   3   0  418.70   26.23
  -1   3   0  373.57   26.21
  -1   3   0  447.37   34.97
   0  -3   0  136.55    9.06
   0  -3   0  140.39    9.07
   0   3   0  145.59    9.11
   0   3   0  135.25    9.07
  -1  -3   0   38.40    3.00
   1   3   0   38.06    3.00
   1   3   0   42.38    4.11
   1   3   0   35.56    3.12
  -2  -3   0   36.33    3.08
   2   3   0   36.03    3.13
   2   3   0   41.89    4.22
  -3  -3   0   84.72    6.14
   3   3   0   95.57    8.32
   3   3   0   79.51    6.15
  -4  -3   0   33.71    3.37
   4   3   0   41.24    2.66
   4   3   0   37.10    3.42
  -5  -3   0    3.90    1.55
   5   3   0    3.13    1.60
  -6  -3   0    2.72    1.64
   6   3   0    4.82    1.90
  10  -4   0    5.58    1.67
 -10   4   0    4.52    1.69
   9  -4   0    2.37    1.42
  -9   4   0    1.75    1.33
   8  -4   0    0.46    1.23
  -8   4   0    0.53    1.18
  -8   4   0    0.22    1.30
   7  -4   0    5.29    1.12
   7  -4   0    3.70    1.35
  -7   4   0    7.02    1.34
  -7   4   0    4.07    1.59
   6  -4   0   55.25    3.58
  -6   4   0   51.28    3.65
  -6   4   0   40.59    4.75
  -5   4   0   44.68    2.69
  -5   4   0   43.67    2.66
  -5   4   0   48.63    3.31
  -5   4   0   50.59    3.33
  -4   4   0   24.69    2.67
  -4   4   0   33.43    2.15
  -4   4   0   31.41    2.11
   3  -4   0    9.41    1.05
  -3   4   0    8.62    0.95
   2  -4   0  316.09   18.41
  -2   4   0  281.08   18.38
   1  -4   0  174.31   11.62
  -1   4   0  189.63   11.72
  -1   4   0  187.76   15.61
  -1   4   0  173.82   11.67
   0  -4   0   15.88    1.71
   0   4   0   16.57    1.95
   0   4   0   16.43    1.71
  -1  -4   0   30.28    2.48
   1   4   0   30.74    3.49
   1   4   0   24.80    2.65
  -2  -4   0   58.39    4.65
   2   4   0   73.77    6.47
   2   4   0   60.33    4.82
  -3  -4   0   82.72    6.08
   3   4   0   77.26    6.17
   3   4   0   92.54    8.29
  -4  -4   0   29.24    3.08
   4   4   0   32.24    3.17
  -5  -4   0   -0.52    1.38
   5   4   0   -0.50    1.44
  -6  -4   0    0.27    1.60
   6   4   0    0.38    1.72
 -10   5   0    2.53    1.48
  -9   5   0    0.35    1.47
  -9   5   0    1.29    1.27
  -8   5   0    0.37    1.24
  -8   5   0   -1.01    1.05
  -7   5   0   12.76    1.54
  -7   5   0   10.20    1.98
  -6   5   0   59.65    3.68
  -6   5   0   63.35    4.47
  -6   5   0   71.56    3.74
  -5   5   0   29.69    3.00
  -5   5   0   34.95    2.33
   3  -5   0   49.07    3.17
  -3   5   0   47.02    3.14
  -2   5   0   51.37    3.56
  -2   5   0   53.65    3.63
  -2   5   0   54.32    4.78
  -1   5   0  110.89    9.30
  -1   5   0   98.41    6.86
  -1   5   0  103.79    6.95
   0  -5   0   15.24    1.55
   0   5   0   15.22    1.68
   0   5   0   10.61    1.38
   0   5   0   15.41    2.11
  -1  -5   0   14.17    1.76
   1   5   0   14.04    2.31
   1   5   0   15.21    1.90
  -2  -5   0   53.45    4.38
   2   5   0   54.09    4.47
   2   5   0   65.72    6.12
  -3  -5   0   40.61    3.66
   3   5   0   42.88    3.78
  -4  -5   0   10.40    2.09
   4   5   0   11.05    2.23
  -5  -5   0    0.67    1.59
   5   5   0    3.29    1.86
 -10   6   0    1.86    1.90
 -10   6   0   -0.02    1.32
  -9   6   0    0.02    1.36
  -9   6   0   -0.43    1.11
  -8   6   0    0.34    1.02
  -8   6   0    1.06    1.28
  -7   6   0   18.21    1.84
  -7   6   0   14.41    2.24
  -6   6   0   33.04    3.22
  -3   6   0   48.53    4.35
  -2   6   0   70.93    4.67
  -2   6   0   66.38    4.58
  -2   6   0   67.50    6.20
  -1   6   0   85.94    7.84
  -1   6   0   89.12    5.86
  -1   6   0   79.54    5.74
   0  -6   0   15.29    1.68
   0   6   0   16.65    1.92
   0   6   0   15.73    2.38
  -1  -6   0   19.86    2.22
   1   6   0   19.18    2.35
   1   6   0   21.61    3.05
  -2  -6   0   24.39    2.80
   2   6   0   32.26    3.24
  -3  -6   0   24.65    2.94
   3   6   0   26.79    3.11
   4   6   0    2.31    1.75
 -10   7   0    0.61    1.55
 -10   7   0   -0.03    1.28
  -9   7   0    0.20    1.11
  -9   7   0   -1.26    1.17
  -8   7   0    6.37    1.11
  -8   7   0    4.05    1.51
  -6   7   0   16.36    1.75
  -3   7   0   23.17    2.53
  -2   7   0   55.32    3.93
  -2   7   0   52.64    5.26
  -1   7   0   32.02    2.88
  -1   7   0   31.97    3.82
   0   7   0   10.70    1.64
   0   7   0    6.55    1.82
   1   7   0   17.98    3.06
   1   7   0   23.65    2.63
   2   7   0   34.31    3.58
   3   7   0   15.21    2.54
  -9   8   0   -0.40    1.17
  -8   8   0    4.92    1.46
  -7   8   0    9.11    1.38
  -4   8   0    4.02    1.05
  -3   8   0   21.09    2.96
  -3   8   0   30.76    2.23
  -2   8   0   24.07    2.33
  -2   8   0   18.87    2.97
  -1   8   0    4.88    1.25
  -1   8   0    4.36    1.57
   0   8   0    7.59    1.99
   0   8   0    8.28    1.66
   1   8   0   10.66    2.08
  -9   9   0   -0.26    1.07
  -8   9   0    2.78    1.15
  -5   9   0    0.72    0.78
  -4   9   0    4.52    1.24
  -3   9   0   44.32    3.23
  -3   9   0   38.52    4.42
  -2   9   0   21.56    2.41
  -2   9   0   18.82    3.03
  -1   9   0    2.42    1.29
  -1   9   0    1.81    1.46
   0   9   0    2.97    1.49
  -8  10   0    2.71    0.93
  -5  10   0   -0.22    0.79
  -4  10   0    7.60    1.69
  -3  10   0   22.29    3.16
  -2  10   0   12.03    1.75
  -2  10   0   11.84    2.34
  -2  10  -1   21.46    3.06
  -2  10  -1   21.58    2.57
  -3  10  -1   12.19    2.09
  -4  10  -1    1.19    0.92
  -5  10  -1    0.68    0.72
  -8  10  -1    1.12    0.80
   0   9  -1    3.58    1.51
  -1   9  -1   13.89    2.57
  -1   9  -1   17.87    2.08
  -2   9  -1   38.72    4.34
  -2   9  -1   39.97    3.30
  -3   9  -1   20.51    1.96
  -3   9  -1   16.45    2.54
  -4   9  -1    1.87    0.94
  -8   9  -1   -0.78    0.82
  -9   9  -1    0.51    1.12
   2   8  -1   18.75    2.74
   1   8  -1    2.83    1.49
   0   8  -1    3.59    1.42
   0   8  -1    2.84    1.52
  -1   8  -1   22.21    2.35
  -1   8  -1   22.06    3.04
  -2   8  -1   50.30    5.40
  -2   8  -1   59.45    4.09
  -3   8  -1    9.42    1.60
  -7   8  -1    9.54    1.49
  -8   8  -1   -0.91    0.97
  -9   8  -1    0.93    1.29
   3   7  -1   26.10    3.25
   2   7  -1   17.75    2.55
   1   7  -1    9.78    1.82
   1   7  -1    9.85    2.14
   0   7  -1   25.91    2.50
   0   7  -1   19.51    3.18
  -1   7  -1   53.37    5.18
  -1   7  -1   47.00    3.87
  -2   7  -1   62.97    4.11
  -2   7  -1   51.67    5.40
  -3   7  -1    9.52    1.44
  -6   7  -1   23.05    2.33
  -7   7  -1   11.00    1.18
  -7   7  -1    8.57    1.65
  -8   7  -1   -1.65    0.88
  -8   7  -1    0.13    1.10
  -9   7  -1   -0.12    1.06
  -9   7  -1    2.33    1.54
   4   6  -1   10.94    2.24
   3   6  -1   27.63    3.07
  -3  -6   1   30.02    3.02
   2   6  -1   21.01    3.18
   2   6  -1   21.25    2.59
  -2  -6   1   18.78    2.32
   1   6  -1   13.35    2.41
   1   6  -1   13.01    1.91
  -1  -6   1   16.73    1.88
   0   6  -1   59.86    5.37
   0   6  -1   46.90    4.05
   0  -6   1   49.32    3.77
  -1   6  -1  127.89    8.73
  -1   6  -1  130.80    8.74
  -1   6  -1  139.49   11.78
  -2   6  -1   60.50    3.95
  -2   6  -1   50.99    5.31
  -2   6  -1   62.60    3.94
  -5   6  -1   53.09    4.67
  -6   6  -1   19.84    2.29
  -7   6  -1    1.62    0.97
  -7   6  -1    1.21    1.20
  -8   6  -1   -0.16    1.13
  -8   6  -1    0.04    1.06
  -9   6  -1    3.47    1.32
  -9   6  -1    5.62    1.95
   5   5  -1    2.04    1.80
  -5  -5   1    3.99    1.71
   4   5  -1   40.03    3.66
  -4  -5   1   30.51    3.30
   3   5  -1   28.70    3.07
  -3  -5   1   23.84    2.74
   2   5  -1   15.24    2.03
   2   5  -1   16.45    2.56
  -2  -5   1   13.41    1.92
   1   5  -1   -0.58    0.87
   1   5  -1    1.06    1.08
  -1  -5   1    0.36    0.95
   0   5  -1   97.31    8.00
   0   5  -1   82.97    5.91
   0   5  -1   84.03    5.89
   0  -5   1   81.71    5.81
   0  -5   1   86.88    5.43
  -1   5  -1  171.82   11.24
  -1   5  -1  168.65   11.23
  -1   5  -1  179.93   15.06
  -2   5  -1   85.74    7.42
  -3   5  -1   27.38    1.89
  -5   5  -1   94.20    6.07
  -5   5  -1   90.10    6.05
  -6   5  -1   23.63    1.54
  -6   5  -1   22.27    1.98
  -6   5  -1   20.97    2.03
  -7   5  -1    0.10    0.56
  -7   5  -1    1.62    1.21
  -7   5  -1    0.39    0.98
  -8   5  -1    1.71    1.49
  -8   5  -1    1.61    1.16
  -9   5  -1    4.90    2.06
  -9   5  -1    5.80    1.51
   6   4  -1    1.84    1.73
  -6  -4   1    0.16    1.50
   5   4  -1   11.86    2.17
  -5  -4   1    7.25    1.90
   4   4  -1   43.69    3.82
  -4  -4   1   39.28    3.66
   3   4  -1   50.23    5.16
   3   4  -1   42.95    3.84
  -3  -4   1   43.26    3.70
   2   4  -1    3.83    1.34
   2   4  -1    2.91    1.03
  -2  -4   1    5.09    1.21
   1   4  -1    8.65    1.37
   1   4  -1   10.76    1.76
  -1  -4   1    9.52    1.39
  -1  -4   1   10.72    1.15
   0   4  -1  201.42   13.92
   0   4  -1  248.53   18.69
   0   4  -1  207.46   13.94
   0  -4   1  215.54   13.31
   0  -4   1  205.17   13.89
  -1   4  -1  359.62   22.83
  -1   4  -1  371.68   22.86
  -1   4  -1  341.69   30.47
  -2   4  -1   20.87    1.41
  -3   4  -1    2.76    0.59
  -4   4  -1   50.27    3.37
  -4   4  -1   48.45    3.35
  -5   4  -1  109.03    6.15
  -5   4  -1  112.27    7.31
  -6   4  -1   24.80    1.61
  -6   4  -1   16.12    2.64
  -6   4  -1   22.57    2.05
   6  -4   1   21.12    2.01
  -7   4  -1   -0.37    1.03
  -7   4  -1    0.24    1.23
   7  -4   1   -0.72    0.87
  -8   4  -1    8.68    2.21
  -8   4  -1    7.71    1.56
  -9   4  -1    5.77    1.61
   7   3  -1    1.01    1.84
  -7  -3   1    0.93    1.63
   6   3  -1    0.48    1.59
  -6  -3   1    2.32    1.60
   5   3  -1   23.04    2.84
  -5  -3   1   23.92    2.79
   4   3  -1   45.94    3.72
  -4  -3   1   38.41    3.47
   3   3  -1   17.17    2.08
   3   3  -1   21.56    2.81
  -3  -3   1   19.26    2.16
   2   3  -1   27.38    2.54
   2   3  -1   30.75    3.47
  -2  -3   1   31.04    2.58
   1   3  -1   75.74    5.69
   1   3  -1   81.58    5.73
   1   3  -1   96.32    7.69
  -1  -3   1   82.39    5.35
  -1  -3   1   82.15    5.68
   0   3  -1  469.99   34.62
   0   3  -1  400.36   25.93
   0   3  -1  405.84   25.92
   0  -3   1  384.21   25.88
   0  -3   1  402.89   24.94
   0  -3   1  372.26   25.88
  -1   3  -1  662.59   54.46
  -1   3  -1  648.35   40.87
  -1   3  -1  618.50   40.87
  -2   3  -1   -0.11    0.34
  -3   3  -1   34.34    2.33
  -3   3  -1   31.84    2.33
  -3   3  -1   31.54    2.36
  -4   3  -1   98.92   10.32
  -4   3  -1  128.70    7.77
  -4   3  -1  124.18    6.54
   4  -3   1  120.50    7.71
  -5   3  -1   81.39    4.58
  -5   3  -1   64.45    7.29
  -5   3  -1   84.76    5.50
  -5   3  -1   86.10    5.50
   5  -3   1   79.84    5.52
   5  -3   1   82.98    5.45
  -6   3  -1    6.38    1.77
  -6   3  -1    7.80    1.32
   6  -3   1    9.55    1.39
   6  -3   1   10.63    1.54
  -7   3  -1    0.72    1.15
  -7   3  -1    1.07    1.48
   7  -3   1   -0.10    1.15
   7  -3   1    0.60    1.11
  -8   3  -1    7.73    1.71
   8  -3   1    9.72    1.77
   8  -3   1   11.50    1.87
  -9   3  -1    6.50    1.75
   9  -3   1    6.78    1.78
   7   2  -1    0.62    1.69
  -7  -2   1    0.31    1.52
   6   2  -1    2.51    1.61
  -6  -2   1    1.50    1.38
   5   2  -1   37.88    2.56
   5   2  -1   33.03    3.27
  -5  -2   1   34.43    3.21
   4   2  -1   51.98    5.27
   4   2  -1   47.09    3.98
  -4  -2   1   45.88    3.89
  -4  -2   1   53.89    5.37
   3   2  -1   10.86    1.47
   3   2  -1   10.12    1.74
  -3  -2   1   10.75    1.50
  -3  -2   1   10.18    1.85
   2   2  -1    1.01    1.09
   2   2  -1    1.19    0.78
  -2  -2   1    2.47    0.88
  -2  -2   1    2.53    1.10
   1   2  -1  509.21   32.55
   1   2  -1  495.55   32.55
   1   2  -1  595.62   43.48
  -1  -2   1  509.65   31.39
  -1  -2   1  488.92   32.53
  -1  -2   1  460.69   32.51
   0   2  -1  111.49    7.22
   0   2  -1  107.27    7.21
   0  -2   1  112.36    6.88
   0  -2   1  103.14    7.19
   0  -2   1  119.77    9.57
   0  -2   1  115.12    9.60
   0  -2   1  110.38    7.21
  -2   2  -1  134.32    8.30
  -2   2  -1  128.19    8.36
  -2   2  -1  124.79    8.30
  -3   2  -1  140.86    8.70
  -3   2  -1  111.81   11.54
  -3   2  -1  137.51    8.65
  -3   2  -1  140.00    7.33
   3  -2   1  137.28    8.65
   3  -2   1  130.74    8.66
  -4   2  -1  138.35   14.30
  -4   2  -1  177.19   10.75
  -4   2  -1  166.25    9.07
  -4   2  -1  174.69   10.73
   4  -2   1  162.00    8.98
   4  -2   1  162.10    8.98
   4  -2   1  167.60   10.70
   4  -2   1  162.54   10.68
  -5   2  -1   66.17    7.46
  -5   2  -1   83.72    5.58
   5  -2   1   80.21    4.52
   5  -2   1   82.04    4.52
   5  -2   1   81.93    5.51
   5  -2   1   84.19    5.59
  -6   2  -1    8.01    1.38
  -6   2  -1    6.02    1.88
   6  -2   1    7.24    0.83
   6  -2   1    7.32    0.82
   6  -2   1    5.60    1.37
   6  -2   1    9.08    1.47
  -7   2  -1    4.29    1.45
  -7   2  -1    6.16    2.10
   7  -2   1    6.29    0.87
   7  -2   1    6.52    1.50
   7  -2   1    6.87    0.86
   7  -2   1    9.86    1.71
  -8   2  -1    7.89    1.82
   8  -2   1   14.58    2.16
   8  -2   1   13.59    2.06
  -9   2  -1    4.04    1.82
   9  -2   1    3.45    1.48
   8   1  -1    2.41    1.62
   8   1  -1    5.17    1.85
  -8  -1   1    4.17    1.76
   7   1  -1   -3.10    1.28
   7   1  -1   -2.75    1.37
  -7  -1   1   -0.34    1.29
   6   1  -1   26.10    2.69
   6   1  -1   19.80    1.88
  -6  -1   1   20.92    2.52
   5   1  -1   48.41    4.02
   5   1  -1   53.49    3.20
   5   1  -1   47.86    5.21
  -5  -1   1   49.60    4.02
   4   1  -1   46.94    4.94
   4   1  -1   50.76    3.78
  -4  -1   1   50.77    3.80
   3   1  -1    3.32    1.16
   3   1  -1    1.59    0.86
  -3  -1   1    2.12    0.94
   2   1  -1   56.38    3.82
   2   1  -1   49.86    5.00
   2   1  -1   50.48    3.84
  -2  -1   1   55.00    3.80
  -2  -1   1   55.73    3.59
  -2  -1   1   54.04    3.82
   1   1  -1  653.66   39.92
   1   1  -1  701.59   55.13
   1   1  -1  629.57   41.33
   1   1  -1  600.69   41.33
  -1  -1   1  634.07   41.33
  -1  -1   1  725.66   55.14
  -1  -1   1  599.40   41.32
  -1  -1   1  650.79   39.92
   0   1  -1  599.15   47.52
   0   1  -1  544.27   34.40
   0   1  -1  516.50   35.67
   0   1  -1  610.47   47.51
   0   1  -1  506.75   35.68
   0  -1   1  504.65   35.62
   0  -1   1  554.97   34.40
   0  -1   1  637.56   47.51
   0  -1   1  551.19   35.63
   0  -1   1  582.50   47.51
  -1   1  -1   44.41    2.34
  -1   1  -1   45.21    2.82
  -1   1  -1   37.42    3.76
  -1   1  -1   42.93    2.81
   1  -1   1   43.01    3.67
   1  -1   1   48.54    2.82
   1  -1   1   36.12    3.71
  -2   1  -1   59.88    3.40
  -2   1  -1   63.33    4.09
  -2   1  -1   48.57    5.45
  -2   1  -1   62.60    4.11
  -2   1  -1   60.53    4.00
   2  -1   1   64.04    4.01
   2  -1   1   59.09    3.38
   2  -1   1   59.72    4.09
   2  -1   1   68.05    4.10
  -3   1  -1  211.76   12.62
  -3   1  -1  194.52   10.68
  -3   1  -1  165.50   16.83
  -3   1  -1  193.22   12.59
   3  -1   1  203.60   12.52
   3  -1   1  193.93   12.59
   3  -1   1  195.40   10.65
  -4   1  -1  171.19   10.53
  -4   1  -1  139.54   14.10
   4  -1   1  160.82    8.84
   4  -1   1  158.91   10.50
   4  -1   1  165.78   10.43
  -5   1  -1   46.14    3.33
  -5   1  -1   32.65    4.54
   5  -1   1   43.42    3.37
   5  -1   1   41.11    2.58
   5  -1   1   43.67    3.15
  -6   1  -1   20.22    3.21
  -6   1  -1   18.59    2.23
   6  -1   1   17.35    1.90
   6  -1   1   18.71    1.49
   6  -1   1   17.72    1.51
   6  -1   1   21.80    2.36
  -7   1  -1    3.83    1.53
   7  -1   1    6.49    1.47
   7  -1   1    4.72    0.91
   7  -1   1    4.82    0.92
   7  -1   1    2.90    1.50
  -8   1  -1   11.28    2.07
   8  -1   1    8.56    1.79
   8  -1   1   13.16    2.23
   8   0  -1    0.86    1.42
   8   0  -1    1.44    1.61
  -8   0   1    1.17    1.47
   7   0  -1    1.23    1.29
   7   0  -1    2.45    0.82
   7   0  -1   -0.50    1.34
  -7   0   1    1.66    1.37
   6   0  -1   15.08    2.08
   6   0  -1   16.21    1.48
   6   0  -1   12.82    1.93
   6   0  -1   14.19    1.35
  -6   0   1   13.34    2.63
  -6   0   1   16.82    2.09
   5   0  -1   71.19    4.18
   5   0  -1   73.40    5.16
   5   0  -1   72.58    4.20
  -5   0   1   64.35    6.88
  -5   0   1   71.49    5.12
   4   0  -1   24.47    2.27
   4   0  -1   27.19    1.74
   4   0  -1   25.71    2.97
   4   0  -1   26.28    1.80
  -4   0   1   25.69    2.34
  -4   0   1   26.97    3.18
   3   0  -1    3.79    1.07
   3   0  -1    4.85    0.64
   3   0  -1    5.46    0.97
  -3   0   1    4.63    0.93
  -3   0   1    4.12    1.11
  -3   0   1    5.84    1.09
   2   0  -1  320.45   29.75
   2   0  -1  353.66   19.04
   2   0  -1  362.79   22.36
   2   0  -1  373.62   21.64
   2   0  -1  362.84   22.37
  -2   0   1  353.03   21.62
  -2   0   1  336.62   29.78
  -2   0   1  336.59   22.34
  -2   0   1  345.54   22.35
   1   0  -1  971.65   60.40
   1   0  -1  974.03   51.65
   1   0  -1  943.28   60.39
   1   0  -1 1000.00   58.38
   1   0  -1  848.81   80.56
  -1   0   1  976.81   58.37
  -1   0   1  912.01   60.39
  -1   0   1  981.25   60.39
   0   0  -1   23.28    1.54
  -1   0  -1   43.20    2.78
  -1   0  -1   39.05    2.78
  -1   0  -1   41.02    2.29
   1   0   1   33.09    3.70
   1   0   1   41.03    2.81
   1   0   1   40.29    2.28
   1   0   1   41.81    2.75
  -2   0  -1  117.22    7.25
  -2   0  -1  115.27    6.11
  -2   0  -1   96.00    9.69
  -2   0  -1  112.86    7.26
   2   0   1  112.63    7.26
   2   0   1  113.33    6.10
   2   0   1   91.12    9.62
   2   0   1  118.16    7.25
  -3   0  -1  117.83   10.90
  -3   0  -1  128.02    8.07
   3   0   1  106.27   10.74
   3   0   1  129.14    8.11
   3   0   1  123.73    6.78
  -4   0  -1  237.14   14.33
  -4   0  -1  185.82   19.13
   4   0   1  228.77   12.10
   4   0   1  232.09   14.33
   4   0   1  205.98   19.07
  -5   0  -1    1.77    1.46
  -5   0  -1    2.45    1.25
   5   0   1    2.81    1.25
   5   0   1    3.98    1.14
   5   0   1    1.85    0.67
  -6   0  -1   10.74    1.93
   6   0   1    8.79    1.81
   6   0   1   11.65    1.74
   6   0   1   11.45    1.25
  -7   0  -1    9.15    1.87
   7   0   1    4.99    1.50
   7   0   1    5.85    1.08
   7   0   1    7.40    1.83
  -8   0  -1    7.80    1.94
   8   0   1    6.07    1.67
   8   0   1    7.03    2.10
   9  -1  -1    1.22    1.51
   9  -1  -1    0.55    1.54
  -9   1   1    1.55    1.52
   8  -1  -1    0.66    1.30
   8  -1  -1    0.52    1.45
  -8   1   1    0.27    1.33
   7  -1  -1    3.11    0.81
   7  -1  -1    4.60    0.86
   7  -1  -1    6.57    1.52
   7  -1  -1    5.48    1.48
  -7   1   1    4.31    1.49
   6  -1  -1   27.50    2.49
   6  -1  -1   29.14    2.76
   6  -1  -1   27.15    1.92
   6  -1  -1   29.96    1.92
  -6   1   1   21.19    3.57
  -6   1   1   31.09    2.67
   5  -1  -1   54.16    3.81
   5  -1  -1   48.24    2.97
   5  -1  -1   50.14    2.96
   5  -1  -1   45.51    3.64
  -5   1   1   51.65    3.77
   4  -1  -1   12.07    1.43
   4  -1  -1   14.77    1.49
   4  -1  -1   11.49    0.95
   4  -1  -1   11.86    0.99
  -4   1   1   11.73    1.36
  -4   1   1   11.22    1.80
   3  -1  -1   93.15    9.20
   3  -1  -1  105.32    5.86
   3  -1  -1  116.33    7.02
   3  -1  -1  108.89    7.00
   3  -1  -1  112.07    7.01
   3  -1  -1   95.52    6.81
   3  -1  -1  112.62    5.88
  -3   1   1  117.02    7.03
  -3   1   1   88.50    9.24
  -3   1   1  113.50    7.02
   2  -1  -1    2.03    0.45
   2  -1  -1    1.54    0.42
   2  -1  -1    2.18    0.29
   2  -1  -1    2.07    0.55
   2  -1  -1    1.74    0.57
   2  -1  -1    2.25    0.62
  -2   1   1    3.58    0.57
  -2   1   1    2.93    0.52
  -2   1   1    1.85    0.58
  -2   1   1    2.38    0.61
  -2   1   1    2.42    0.32
  -2   1   1    1.68    0.51
   1  -1  -1  611.42   34.62
   1  -1  -1  566.07   35.74
   1  -1  -1  519.21   35.77
  -1   1   1  600.79   34.61
  -1   1   1  569.10   30.53
  -1   1   1  535.24   35.77
  -1   1   1  532.49   35.77
  -1   1   1  572.68   35.74
   0  -1  -1   16.31    1.24
   0  -1  -1   13.61    1.26
   0   1   1   12.57    1.29
   0   1   1   12.76    0.94
   0   1   1   17.88    1.71
   0   1   1   15.10    1.19
  -1  -1  -1  145.74    9.38
  -1  -1  -1  132.28    9.37
  -1  -1  -1  148.50   12.55
   1   1   1  167.01   12.61
   1   1   1  139.92    9.39
   1   1   1  133.36    9.35
  -2  -1  -1  159.76   10.48
   2   1   1  151.37   10.48
   2   1   1  176.41   14.05
   2   1   1  151.71    8.84
  -3  -1  -1  297.12   19.04
   3   1   1  282.01   16.14
   3   1   1  286.10   19.03
   3   1   1  308.91   25.45
  -4  -1  -1   76.39    5.53
   4   1   1   74.94    4.51
   4   1   1   81.57    7.41
   4   1   1   72.09    5.51
  -5  -1  -1   24.30    2.56
   5   1   1   19.53    1.75
   5   1   1   23.19    2.56
  -6  -1  -1   -0.29    1.29
   6   1   1   -2.26    1.12
   6   1   1   -1.78    1.29
   6   1   1    0.45    0.77
  -7  -1  -1   15.17    2.35
   7   1   1   14.81    2.48
   7   1   1   14.67    2.17
   9  -2  -1    0.28    1.49
   9  -2  -1    0.61    1.41
  -9   2   1   -0.33    1.30
   8  -2  -1   -1.46    1.14
   8  -2  -1    0.69    0.65
   8  -2  -1    0.54    1.32
  -8   2   1   -0.03    1.28
   7  -2  -1    5.28    1.43
   7  -2  -1    5.85    0.79
   7  -2  -1    5.06    1.39
   7  -2  -1    3.84    0.77
  -7   2   1    3.91    1.72
  -7   2   1    5.01    1.33
   6  -2  -1   58.28    4.21
   6  -2  -1   54.32    3.26
   6  -2  -1   60.03    4.27
   6  -2  -1   56.32    3.27
  -6   2   1   61.08    4.21
  -6   2   1   46.90    5.54
   5  -2  -1   47.65    3.53
   5  -2  -1   52.37    3.54
   5  -2  -1   48.04    2.73
   5  -2  -1   46.31    2.72
  -5   2   1   50.62    3.54
  -5   2   1   38.77    4.60
   4  -2  -1    4.80    0.50
   4  -2  -1    5.63    0.88
   4  -2  -1    5.43    1.09
   4  -2  -1    5.07    1.00
  -4   2   1    4.35    1.03
  -4   2   1    5.05    0.93
  -4   2   1    5.07    0.61
  -4   2   1    4.86    0.97
   3  -2  -1  102.32    6.22
   3  -2  -1   93.73    6.37
   3  -2  -1   94.05    6.28
   3  -2  -1   99.17    6.29
  -3   2   1   98.73    6.32
  -3   2   1   87.44    6.33
  -3   2   1   94.16    5.30
  -3   2   1  101.79    6.33
   2  -2  -1  114.66    6.87
  -2   2   1  118.00    6.88
  -2   2   1  101.60    7.01
  -2   2   1  107.66    7.02
  -2   2   1  104.68    7.10
   1  -2  -1    5.74    0.65
   1  -2  -1    4.63    0.55
  -1   2   1    5.00    0.73
  -1   2   1    5.49    0.62
  -1   2   1    5.13    0.54
   0  -2  -1  221.44   14.16
   0  -2  -1  219.97   14.15
   0   2   1  214.68   14.14
   0   2   1  225.85   14.19
  -1  -2  -1   21.76    2.16
  -1  -2  -1   29.25    2.94
   1   2   1   23.86    2.29
   1   2   1   23.39    2.15
   1   2   1   26.58    3.05
  -2  -2  -1  108.14    7.95
  -2  -2  -1  135.54   10.78
   2   2   1  103.89    7.97
   2   2   1  129.33   10.75
  -3  -2  -1  179.35   12.16
  -3  -2  -1  201.18   16.37
   3   2   1  176.54   12.18
   3   2   1  167.54   10.25
   3   2   1  195.78   16.34
  -4  -2  -1   56.61    4.22
   4   2   1   50.09    3.32
   4   2   1   47.72    4.18
   4   2   1   56.53    5.65
  -5  -2  -1    9.50    1.92
   5   2   1   10.83    1.98
  -6  -2  -1    6.43    1.79
   6   2   1    6.71    1.90
  -7  -2  -1   12.88    2.33
   7   2   1   12.19    2.51
  10  -3  -1    3.84    1.72
 -10   3   1    2.80    1.55
   9  -3  -1    1.41    1.41
  -9   3   1    0.49    1.37
   8  -3  -1    1.54    1.25
   8  -3  -1   -0.13    1.28
  -8   3   1   -1.46    1.16
  -8   3   1    1.27    1.38
   7  -3  -1   24.76    2.52
   7  -3  -1   32.50    2.69
  -7   3   1   18.70    3.20
  -7   3   1   28.66    2.56
   6  -3  -1   44.67    3.53
   6  -3  -1   53.01    3.50
  -6   3   1   45.70    3.46
  -6   3   1   37.73    4.51
   5  -3  -1   41.37    3.24
   5  -3  -1   43.98    3.17
  -5   3   1   46.56    3.21
  -5   3   1   40.03    2.53
  -5   3   1   44.86    3.18
   4  -3  -1   20.01    1.70
   4  -3  -1   19.39    1.61
   4  -3  -1   17.20    1.77
   4  -3  -1   21.74    1.80
  -4   3   1   23.55    1.76
  -4   3   1   22.44    1.73
  -4   3   1   18.14    2.07
  -4   3   1   19.28    1.23
   3  -3  -1   82.97    4.99
  -3   3   1   65.61    6.57
  -3   3   1   70.84    4.99
  -3   3   1   89.94    5.00
  -3   3   1   78.21    5.01
   2  -3  -1  436.33   26.43
  -2   3   1  421.30   26.42
   1  -3  -1   82.02    5.25
   1  -3  -1   74.67    5.24
   1  -3  -1   87.12    5.08
  -1   3   1   84.31    5.33
  -1   3   1   73.50    5.26
   0  -3  -1   56.09    3.73
   0   3   1   52.55    3.84
   0   3   1   49.78    3.66
  -1  -3  -1   45.34    3.51
   1   3   1   53.19    4.86
   1   3   1   44.08    3.60
  -2  -3  -1  114.22    8.00
   2   3   1  113.27    6.74
   2   3   1  133.46   10.84
   2   3   1  113.67    8.05
  -3  -3  -1   80.43    6.05
   3   3   1   90.85    8.27
   3   3   1   83.87    6.14
  -4  -3  -1   27.41    2.87
   4   3   1   27.54    2.95
  -5  -3  -1    1.15    1.44
   5   3   1    0.13    1.48
  -6  -3  -1    3.85    1.74
   6   3   1    7.04    2.05
  10  -4  -1   -0.89    1.42
 -10   4   1    0.43    1.31
   9  -4  -1    1.04    1.39
  -9   4   1    1.51    1.34
   8  -4  -1    0.70    1.32
  -8   4   1   -2.02    1.06
  -8   4   1    0.35    1.30
   7  -4  -1   41.61    3.15
   7  -4  -1   34.32    3.23
  -7   4   1   38.80    3.12
   6  -4  -1   45.71    3.20
   6  -4  -1   39.52    3.38
  -6   4   1   40.39    2.58
  -6   4   1   44.95    3.28
  -6   4   1   47.20    3.29
   5  -4  -1   23.14    2.00
  -5   4   1   28.07    1.95
  -5   4   1   26.01    1.91
  -5   4   1   21.03    1.38
  -5   4   1   18.71    2.32
   4  -4  -1   20.47    1.79
  -4   4   1   23.39    1.68
  -4   4   1   19.26    2.02
  -4   4   1   24.45    1.69
   3  -4  -1   90.23    5.83
  -3   4   1   91.72    5.82
   2  -4  -1  153.06    8.88
  -2   4   1  126.70    9.12
  -2   4   1  147.06    9.17
   1  -4  -1   65.83    4.74
   1  -4  -1   74.02    4.76
   1  -4  -1   77.22    4.56
  -1   4   1   66.03    4.77
  -1   4   1   71.48    4.87
   0  -4  -1   40.63    3.13
   0   4   1   38.98    3.31
   0   4   1   52.63    4.45
   0   4   1   38.80    3.15
  -1  -4  -1   63.45    4.60
   1   4   1   69.41    6.34
   1   4   1   60.09    4.71
  -2  -4  -1  134.37    9.43
   2   4   1  134.02    9.51
   2   4   1  158.86   12.81
   2   4   1  133.32    7.96
  -3  -4  -1   48.99    4.19
   3   4   1   55.71    4.34
  -4  -4  -1    2.56    1.58
   4   4   1    1.81    1.52
  -5  -4  -1    5.79    1.92
   5   4   1    5.66    1.98
 -10   5   1    0.42    1.37
  -9   5   1    0.78    1.41
  -9   5   1    0.16    1.29
  -8   5   1    4.66    1.60
  -8   5   1    3.38    1.24
  -7   5   1   19.48    2.50
  -6   5   1   35.02    1.99
  -6   5   1   27.46    3.26
  -6   5   1   37.43    2.59
   5  -5  -1   14.17    1.47
  -5   5   1   12.30    1.50
  -5   5   1   14.80    1.33
  -5   5   1   16.48    1.37
   4  -5  -1    5.10    0.93
   3  -5  -1   59.17    3.83
  -3   5   1   65.14    5.13
  -3   5   1   50.04    3.78
   2  -5  -1  127.51    8.00
  -2   5   1  112.03    8.27
  -2   5   1  147.02   11.16
  -2   5   1  125.50    8.33
   1  -5  -1   27.15    1.88
   1  -5  -1   23.46    2.11
  -1   5   1   26.35    2.16
  -1   5   1   25.74    2.36
  -1   5   1   29.84    3.03
   0  -5  -1    9.89    1.28
   0   5   1   10.05    1.42
   0   5   1    8.44    1.73
  -1  -5  -1   49.65    4.00
   1   5   1   61.71    5.66
   1   5   1   48.45    4.16
  -2  -5  -1   49.45    4.28
   2   5   1   50.75    4.40
   2   5   1   64.80    6.02
  -3  -5  -1   27.57    3.13
   3   5   1   34.68    3.34
  -4  -5  -1    0.28    1.60
   4   5   1    1.18    1.59
  -5  -5  -1    2.95    1.77
   5   5   1    2.49    2.00
 -10   6   1    1.48    1.38
 -10   6   1    1.08    1.60
  -9   6   1   -0.47    1.29
  -9   6   1   -1.35    1.18
  -8   6   1    5.32    1.56
  -8   6   1    6.57    1.29
  -7   6   1   22.15    2.63
  -6   6   1   13.18    1.64
   5  -6  -1    0.51    0.83
  -5   6   1    1.10    0.42
   4  -6  -1   18.52    1.55
   3  -6  -1   70.42    4.80
  -3   6   1   79.63    6.71
   2  -6  -1  119.59    7.38
  -2   6   1  119.18    7.79
  -2   6   1  127.47   10.44
  -2   6   1  105.09    7.69
   1  -6  -1   12.18    1.17
   1  -6  -1   15.32    1.43
  -1   6   1   13.96    1.41
  -1   6   1   15.42    2.16
  -1   6   1   15.01    1.66
   0  -6  -1   -0.23    0.77
   0   6   1   -0.46    0.99
   0   6   1    1.97    1.18
  -1  -6  -1   34.21    3.19
   1   6   1   41.42    4.63
   1   6   1   36.26    3.43
  -2  -6  -1   30.70    3.13
   2   6   1   33.05    3.38
  -3  -6  -1    6.25    1.83
   3   6   1    8.10    2.02
   4   6   1    2.37    1.80
 -10   7   1    0.29    1.17
 -10   7   1   -0.24    1.45
  -9   7   1    1.91    1.19
  -9   7   1   -0.01    1.26
  -8   7   1    8.21    1.68
  -7   7   1    6.36    1.23
  -6   7   1   11.09    1.35
   4  -7  -1   43.59    3.08
  -4   7   1   47.43    4.28
  -3   7   1   56.68    3.99
  -3   7   1   58.56    5.42
  -2   7   1   44.48    3.40
  -2   7   1   43.69    4.53
  -1   7   1    7.36    1.75
  -1   7   1    8.15    1.41
   0   7   1   13.90    2.00
   0   7   1   14.74    2.53
   1   7   1   34.03    3.51
   2   7   1   29.07    3.39
  -9   8   1    1.04    1.25
  -8   8   1    6.83    1.49
  -7   8   1    6.16    1.10
  -6   8   1    2.01    0.58
  -5   8   1    6.23    1.21
  -3   8   1   31.27    3.69
  -3   8   1   36.92    2.72
  -2   8   1    8.63    1.87
  -2   8   1    8.60    1.34
  -1   8   1    3.02    1.50
  -1   8   1    3.17    1.23
   0   8   1   20.60    2.48
   0   8   1   18.07    3.08
   1   8   1   28.27    3.30
  -9   9   1    0.27    1.15
  -8   9   1    7.06    1.33
  -7   9   1    3.56    0.80
  -6   9   1   -0.10    0.92
  -5   9   1    2.87    1.14
  -4   9   1   28.58    3.28
  -3   9   1   28.37    2.45
  -3   9   1   24.03    3.44
  -2   9   1   -0.67    0.98
  -2   9   1    0.34    1.33
  -1   9   1    6.79    1.92
  -1   9   1    3.14    1.30
   0   9   1    6.38    1.68
  -8  10   1    5.95    1.37
  -8  10   1    5.14    1.07
  -6  10   1   -0.01    0.80
  -5  10   1    4.94    1.34
  -4  10   1   19.92    3.01
  -3  10   1   11.44    2.32
  -2  10   1   -0.07    1.46
  -1  10  -2   14.63    2.01
  -1  10  -2   10.56    2.37
  -2  10  -2    7.94    1.92
  -2  10  -2   11.01    1.53
  -3  10  -2    2.20    1.19
  -4  10  -2   -0.24    0.80
  -8  10  -2    0.00    0.68
   0   9  -2    5.97    1.97
   0   9  -2    8.43    1.77
  -1   9  -2   29.46    4.03
  -1   9  -2   35.47    3.14
  -2   9  -2   29.46    2.64
  -2   9  -2   25.27    3.33
  -3   9  -2    3.11    1.10
  -4   9  -2    3.07    0.91
  -7   9  -2    2.48    0.84
  -8   9  -2    0.72    0.97
   2   8  -2    3.06    1.61
   1   8  -2    1.30    1.38
   0   8  -2   23.67    2.45
   0   8  -2   17.76    2.94
  -1   8  -2   53.72    4.09
  -1   8  -2   50.03    5.31
  -2   8  -2   33.14    3.76
  -2   8  -2   38.01    2.95
  -3   8  -2    5.31    1.14
  -6   8  -2   29.94    2.86
  -7   8  -2    0.86    0.90
  -8   8  -2    1.07    1.11
  -9   8  -2    4.07    1.60
   3   7  -2   18.67    2.80
   2   7  -2    2.10    1.52
   1   7  -2   11.03    1.83
   1   7  -2    7.46    2.03
   0   7  -2   27.21    3.48
   0   7  -2   24.93    2.36
  -1   7  -2   73.29    6.81
  -1   7  -2   71.24    5.02
  -2   7  -2   12.48    2.06
  -2   7  -2   16.54    1.48
  -3   7  -2    6.84    1.06
  -7   7  -2    1.92    1.12
  -7   7  -2    0.41    0.84
  -8   7  -2    2.29    1.06
  -8   7  -2    1.23    1.30
  -9   7  -2   10.41    2.45
  -9   7  -2   18.70    2.03
   4   6  -2   29.83    3.49
  -4  -6   2   25.32    3.03
   3   6  -2   10.82    2.07
  -3  -6   2    8.31    1.81
   2   6  -2    5.01    1.69
   2   6  -2    5.06    1.56
  -2  -6   2    3.56    1.36
   1   6  -2   24.37    2.38
   1   6  -2   26.12    3.41
  -1  -6   2   23.24    2.37
   0   6  -2   85.69    6.30
   0   6  -2  101.99    8.55
   0  -6   2   89.71    6.21
  -1   6  -2   85.77    5.89
  -1   6  -2   92.18    7.96
  -1   6  -2   84.71    5.88
  -2   6  -2   37.94    2.68
  -2   6  -2   40.85    2.71
  -2   6  -2   35.13    3.63
  -5   6  -2   36.86    3.47
  -6   6  -2    6.56    0.66
  -6   6  -2    5.35    1.35
  -6   6  -2    7.38    1.02
  -7   6  -2    4.92    1.54
  -7   6  -2    4.77    1.06
  -8   6  -2    5.96    1.30
  -8   6  -2    6.42    1.83
  -9   6  -2   10.85    1.68
  -9   6  -2   10.02    2.47
   5   5  -2   14.10    2.61
  -5  -5   2   15.17    2.34
   4   5  -2   27.73    3.11
  -4  -5   2   23.92    2.87
   3   5  -2   10.14    1.81
  -3  -5   2   10.38    1.85
   2   5  -2    0.45    1.03
   2   5  -2   -0.20    1.07
  -2  -5   2   -0.52    1.03
   1   5  -2   51.60    3.94
   1   5  -2   59.24    5.49
  -1  -5   2   50.61    3.87
  -1  -5   2   50.78    3.46
   0   5  -2  270.14   17.59
   0   5  -2  260.80   17.56
   0   5  -2  288.20   23.50
   0  -5   2  268.79   17.51
  -1   5  -2   55.86    3.84
  -1   5  -2   55.97    5.18
  -1   5  -2   55.99    3.85
  -2   5  -2   30.15    3.18
  -2   5  -2   39.23    3.14
  -3   5  -2   31.48    2.15
  -4   5  -2  112.11    9.68
  -5   5  -2   51.96    3.34
  -5   5  -2   38.51    4.44
  -5   5  -2   52.68    3.36
  -6   5  -2   10.13    0.96
  -6   5  -2   10.18    1.27
  -6   5  -2    8.02    1.78
  -7   5  -2    3.16    0.71
  -7   5  -2    5.26    1.69
  -7   5  -2    4.25    1.16
  -8   5  -2   19.21    2.09
  -8   5  -2   13.15    2.81
  -9   5  -2    3.81    1.50
   6   4  -2    0.08    1.70
  -6  -4   2    0.74    1.55
   5   4  -2   26.41    3.09
  -5  -4   2   24.15    2.89
   4   4  -2   17.70    2.46
  -4  -4   2   19.53    2.40
   3   4  -2    6.97    1.45
   3   4  -2    5.95    1.67
  -3  -4   2    5.81    1.45
   2   4  -2   15.29    2.37
   2   4  -2   16.14    1.90
  -2  -4   2   15.56    1.85
   1   4  -2  139.11    9.46
   1   4  -2  163.74   12.72
  -1  -4   2  136.86    9.40
  -1  -4   2  133.04    8.92
   0   4  -2  237.76   16.33
   0   4  -2  278.82   21.84
   0   4  -2  244.12   16.32
   0  -4   2  253.32   16.30
  -1   4  -2   37.54    2.54
  -1   4  -2   34.56    2.52
  -1   4  -2   35.00    3.39
  -2   4  -2   15.84    1.15
  -3   4  -2   83.05    6.01
  -3   4  -2   95.91    8.15
  -3   4  -2  103.00    8.10
  -4   4  -2  199.92   12.23
  -4   4  -2  201.89   12.26
  -4   4  -2  167.05   16.31
  -5   4  -2   71.99    4.68
  -5   4  -2   60.83    6.28
  -5   4  -2   68.32    3.86
  -5   4  -2   69.08    4.65
   5  -4   2   66.72    4.55
  -6   4  -2    6.47    1.22
  -6   4  -2    7.60    0.87
  -6   4  -2    6.56    1.73
   6  -4   2    4.60    1.02
  -7   4  -2   19.12    3.02
  -7   4  -2   18.33    2.14
   7  -4   2   18.28    2.09
  -8   4  -2   14.51    2.90
  -8   4  -2   12.61    1.84
  -9   4  -2    3.29    1.44
   7   3  -2   -1.78    1.61
  -7  -3   2    1.01    1.57
   6   3  -2    7.84    2.05
  -6  -3   2    8.42    1.83
   5   3  -2   30.25    3.08
  -5  -3   2   25.90    2.85
   4   3  -2   27.45    3.47
   4   3  -2   24.54    2.64
  -4  -3   2   25.68    2.70
   3   3  -2   21.98    2.91
   3   3  -2   18.79    2.11
  -3  -3   2   16.51    2.07
   2   3  -2   82.86    5.97
   2   3  -2   94.72    8.02
  -2  -3   2   81.78    5.92
   1   3  -2  235.17   15.92
   1   3  -2  279.59   21.30
   1   3  -2  248.42   15.94
  -1  -3   2  233.64   15.89
  -1  -3   2  236.20   15.26
   0   3  -2  200.52   12.54
   0   3  -2  194.92   12.54
   0  -3   2  180.16   12.49
   0  -3   2  196.05   11.99
   0  -3   2  201.31   12.52
  -1   3  -2   10.39    1.06
  -1   3  -2   10.88    1.34
  -1   3  -2   12.59    1.34
  -1   3  -2   12.06    1.06
  -2   3  -2   42.10    2.75
  -2   3  -2   41.47    2.75
  -2   3  -2   43.48    3.56
  -2   3  -2   36.09    3.64
  -3   3  -2   77.87    5.12
  -3   3  -2   78.27    4.24
  -3   3  -2   80.67    5.10
  -3   3  -2   69.49    6.83
  -4   3  -2  138.03    7.63
  -4   3  -2  123.84   12.14
  -4   3  -2  149.50    9.07
  -4   3  -2  138.74    9.07
   4  -3   2  139.51    8.99
  -5   3  -2   55.28    6.21
  -5   3  -2   68.72    4.63
  -5   3  -2   67.59    3.82
   5  -3   2   67.55    4.56
  -6   3  -2    3.07    1.57
  -6   3  -2    2.17    0.66
  -6   3  -2    2.04    1.09
   6  -3   2    0.24    0.94
  -7   3  -2   23.68    2.51
  -7   3  -2   21.91    3.63
   7  -3   2   26.75    2.57
   7  -3   2   23.61    2.27
  -8   3  -2   15.34    2.21
   8  -3   2   20.50    2.12
  -9   3  -2    3.74    1.62
   7   2  -2   -0.86    1.55
  -7  -2   2   -0.31    1.39
   6   2  -2   25.70    2.92
  -6  -2   2   23.54    2.73
   5   2  -2   43.75    3.64
  -5  -2   2   40.89    3.59
   4   2  -2   14.58    1.84
   4   2  -2   13.56    2.16
  -4  -2   2   15.62    1.89
  -4  -2   2   15.05    2.36
   3   2  -2   35.17    2.93
   3   2  -2   37.46    3.81
  -3  -2   2   37.80    3.90
  -3  -2   2   31.44    2.87
   2   2  -2  221.88   15.19
   2   2  -2  247.56   20.28
  -2  -2   2  213.87   15.15
  -2  -2   2  254.29   20.29
   1   2  -2  263.75   16.50
   1   2  -2  265.27   17.14
   1   2  -2  250.14   17.13
   1   2  -2  287.41   22.86
  -1  -2   2  262.83   17.13
  -1  -2   2  259.83   16.49
  -1  -2   2  300.26   22.87
  -1  -2   2  244.38   17.11
   0   2  -2  167.16   11.58
   0   2  -2  178.48   11.58
   0   2  -2  182.80   11.13
   0   2  -2  191.95   15.43
   0   2  -2  189.99   15.45
   0   2  -2  166.71   11.57
   0  -2   2  196.54   15.42
   0  -2   2  198.91   15.44
   0  -2   2  172.13   11.13
   0  -2   2  179.04   11.58
   0  -2   2  161.26   11.55
  -1   2  -2  100.01    7.69
  -1   2  -2   88.90    5.80
  -1   2  -2   75.79    7.73
  -1   2  -2   87.77    5.79
   1  -2   2   92.47    5.79
   1  -2   2   92.14    7.63
  -2   2  -2  109.16    6.78
  -2   2  -2  104.37    6.77
  -2   2  -2   93.18    9.07
  -2   2  -2  107.59    5.71
   2  -2   2  105.06    8.90
   2  -2   2  104.09    6.75
  -3   2  -2  205.84   13.30
  -3   2  -2  203.07   13.22
  -3   2  -2  220.44   13.31
  -3   2  -2  208.92   11.28
  -3   2  -2  185.50   17.80
   3  -2   2  205.61   11.21
   3  -2   2  209.43   13.27
  -4   2  -2   81.83    5.19
  -4   2  -2   75.44    4.28
  -4   2  -2   61.81    6.93
   4  -2   2   73.85    5.05
   4  -2   2   77.81    4.20
   4  -2   2   77.49    5.15
   4  -2   2   72.91    4.19
  -5   2  -2   41.84    5.20
  -5   2  -2   52.04    3.08
  -5   2  -2   54.72    3.83
   5  -2   2   51.04    3.78
   5  -2   2   51.71    2.95
   5  -2   2   49.04    3.61
   5  -2   2   49.14    2.95
  -6   2  -2    8.29    2.28
  -6   2  -2    7.91    1.56
   6  -2   2   11.72    1.58
   6  -2   2    9.25    0.98
   6  -2   2   10.46    1.01
   6  -2   2   11.68    1.68
  -7   2  -2    6.24    1.58
   7  -2   2    8.08    0.99
   7  -2   2    7.68    1.63
   7  -2   2   11.71    1.70
  -8   2  -2   12.84    2.04
   8  -2   2   14.53    2.30
   8  -2   2   15.12    2.15
  -9   2  -2    0.29    1.56
   8   1  -2   -0.44    1.48
   8   1  -2   -1.00    1.58
  -8  -1   2   -0.99    1.38
   7   1  -2    2.28    1.60
  -7  -1   2    2.44    1.48
   6   1  -2   28.56    2.18
   6   1  -2   28.14    2.98
   6   1  -2   26.61    2.09
  -6  -1   2   32.33    2.91
   5   1  -2   34.92    2.43
   5   1  -2   40.58    3.21
   5   1  -2   37.33    4.17
  -5  -1   2   35.73    3.17
   4   1  -2   25.57    3.02
   4   1  -2   27.33    1.81
   4   1  -2   24.71    2.42
  -4  -1   2   27.02    2.43
   3   1  -2    5.68    1.12
   3   1  -2    5.85    1.19
  -3  -1   2    7.45    1.15
   2   1  -2  666.40   41.81
   2   1  -2  651.68   55.72
   2   1  -2  682.71   40.40
   2   1  -2  626.26   41.80
  -2  -1   2  653.44   41.80
  -2  -1   2  630.93   55.71
  -2  -1   2  689.76   40.40
  -2  -1   2  642.27   41.79
   1   1  -2   16.86    1.40
   1   1  -2   15.27    1.69
   1   1  -2   15.04    1.40
   1   1  -2   15.07    1.14
   1   1  -2   16.37    1.00
  -1  -1   2   14.79    1.18
  -1  -1   2   13.15    1.39
  -1  -1   2   13.83    1.38
  -1  -1   2   13.49    1.65
  -1  -1   2   12.35    1.37
   0   1  -2    3.19    0.46
   0   1  -2    2.54    0.47
   0   1  -2    1.43    0.63
   0   1  -2    2.83    0.43
   0   1  -2    2.38    0.32
   0  -1   2    2.18    0.66
   0  -1   2    2.26    0.45
   0  -1   2    2.31    0.28
   0  -1   2    2.18    0.44
   0  -1   2    1.81    0.39
  -1   1  -2    1.04    0.68
  -1   1  -2    1.55    0.31
  -1   1  -2    0.72    0.43
  -1   1  -2    0.85    0.45
   1  -1   2    0.90    0.49
   1  -1   2    0.44    0.58
   1  -1   2    0.70    0.25
   1  -1   2    0.62    0.40
  -2   1  -2  153.78    9.82
  -2   1  -2  152.00    8.42
  -2   1  -2  166.17    9.96
  -2   1  -2  129.83   13.29
  -2   1  -2  152.56    9.95
   2  -1   2  156.65    9.93
   2  -1   2  156.07    9.83
   2  -1   2  160.26    9.94
   2  -1   2  160.74    8.41
   2  -1   2  142.08   13.28
  -3   1  -2  163.66   15.73
  -3   1  -2  201.53   11.77
  -3   1  -2  183.33    9.93
   3  -1   2  150.02   15.59
   3  -1   2  187.30   11.60
   3  -1   2  185.05    9.90
   3  -1   2  186.66   11.73
  -4   1  -2  151.83    8.73
  -4   1  -2  167.00   10.39
   4  -1   2  151.23    8.68
   4  -1   2  157.85   10.34
   4  -1   2  154.36   10.18
  -5   1  -2   10.40    1.59
  -5   1  -2    6.26    1.99
   5  -1   2   11.09    1.06
   5  -1   2   10.12    1.38
   5  -1   2   12.62    1.65
  -6   1  -2   18.14    2.14
  -6   1  -2   15.20    2.96
   6  -1   2   14.67    1.43
   6  -1   2   14.17    1.67
   6  -1   2   20.42    2.24
  -7   1  -2    9.57    1.89
   7  -1   2   10.38    1.27
   7  -1   2   13.48    2.10
   7  -1   2   14.16    1.89
  -8   1  -2    9.90    2.00
   8  -1   2   12.37    2.26
   8  -1   2    9.63    1.87
   9   0  -2    2.43    1.67
   9   0  -2    1.01    1.56
  -9   0   2    0.67    1.49
   8   0  -2   -0.30    1.46
   8   0  -2    0.76    1.36
  -8   0   2   -1.50    1.28
   7   0  -2    8.52    1.82
   7   0  -2   12.22    2.05
   7   0  -2   11.57    1.31
  -7   0   2   12.10    1.95
   6   0  -2   34.49    2.20
   6   0  -2   30.37    2.81
   6   0  -2   28.14    2.07
  -6   0   2   29.74    2.83
  -6   0   2   25.73    3.83
   5   0  -2   36.19    3.02
   5   0  -2   36.19    2.34
  -5   0   2   37.77    3.06
  -5   0   2   35.36    4.08
   4   0  -2   37.74    2.23
   4   0  -2   37.48    2.88
   4   0  -2   38.37    3.67
  -4   0   2   27.52    3.64
  -4   0   2   36.07    2.84
   3   0  -2  104.57    5.70
   3   0  -2   98.18    8.97
   3   0  -2  104.71    6.60
   3   0  -2  102.52    6.83
  -3   0   2   99.84    6.80
  -3   0   2   93.85    8.99
  -3   0   2  108.54    6.84
   2   0  -2   86.00    7.80
   2   0  -2   88.49    5.91
   2   0  -2   88.59    5.91
   2   0  -2   89.48    5.71
   2   0  -2   90.74    4.97
  -2   0   2   88.10    5.90
  -2   0   2   89.70    5.92
  -2   0   2   93.49    5.72
   1   0  -2  303.17   26.60
   1   0  -2  307.31   19.97
   1   0  -2  324.53   19.97
   1   0  -2  324.62   19.32
   1   0  -2  320.62   17.03
  -1   0   2  307.85   19.97
  -1   0   2  329.73   19.32
  -1   0   2  320.60   19.97
  -1   0   2  279.57   26.64
   0   0  -2  105.91    5.30
   0   0  -2   95.63    6.23
   0   0  -2   97.52    6.23
   0   0   2   93.37    6.22
   0   0   2  100.45    6.24
   0   0   2   83.55    8.36
  -1   0  -2   13.58    1.00
  -1   0  -2   15.03    1.45
  -1   0  -2   14.80    1.42
   1   0   2   10.88    1.82
   1   0   2   11.75    1.37
   1   0   2   15.04    0.98
   1   0   2   14.54    1.01
   1   0   2   13.94    1.44
  -2   0  -2  108.58    5.95
  -2   0  -2  107.25    7.08
  -2   0  -2  116.02    7.10
  -2   0  -2   87.02    9.43
   2   0   2  110.19    5.94
   2   0   2  115.77    6.87
   2   0   2  107.68    7.09
   2   0   2   95.12    9.48
  -3   0  -2  222.05   12.19
  -3   0  -2  233.94   14.41
  -3   0  -2  199.01   19.27
   3   0   2  212.94   19.24
   3   0   2  230.10   14.41
   3   0   2  221.69   12.18
   3   0   2  223.97   14.18
  -4   0  -2   34.13    2.70
  -4   0  -2   25.84    3.68
   4   0   2   31.15    2.72
   4   0   2   20.34    3.28
   4   0   2   28.19    1.95
   4   0   2   30.73    2.23
  -5   0  -2    7.46    1.53
  -5   0  -2    5.18    1.85
   5   0   2    6.50    1.29
   5   0   2    5.27    0.89
   5   0   2    6.38    1.54
  -6   0  -2   11.89    1.97
   6   0   2   13.28    2.06
   6   0   2   10.72    1.28
   6   0   2   11.82    1.72
  -7   0  -2   25.11    2.73
   7   0   2   24.80    2.91
   7   0   2   18.44    2.15
  -8   0  -2    7.40    1.99
   8   0   2    7.45    2.12
   9  -1  -2    1.01    1.60
   9  -1  -2   -0.13    1.37
  -9   1   2   -0.94    1.38
   8  -1  -2    2.48    1.51
   8  -1  -2    0.54    1.36
  -8   1   2    0.00    1.38
   7  -1  -2   11.08    1.13
   7  -1  -2    9.37    1.10
   7  -1  -2   14.34    1.91
   7  -1  -2    7.22    1.70
  -7   1   2    9.30    1.68
   6  -1  -2   42.17    3.65
   6  -1  -2   49.55    2.94
   6  -1  -2   47.65    3.72
   6  -1  -2   52.70    2.97
  -6   1   2   49.87    3.80
  -6   1   2   43.68    5.06
   5  -1  -2   31.62    2.61
   5  -1  -2   31.58    2.02
   5  -1  -2   33.59    2.67
   5  -1  -2   33.64    2.07
  -5   1   2   29.13    3.54
  -5   1   2   33.72    2.71
   4  -1  -2   30.63    2.97
   4  -1  -2   26.61    1.74
   4  -1  -2   30.10    2.31
   4  -1  -2   29.30    2.37
   4  -1  -2   29.04    2.31
  -4   1   2   29.07    2.41
  -4   1   2   24.23    2.99
   3  -1  -2  104.37    6.50
   3  -1  -2   96.33    8.75
   3  -1  -2  103.09    6.67
   3  -1  -2  103.97    6.66
   3  -1  -2  107.15    6.68
   3  -1  -2   97.17    5.57
  -3   1   2  100.50    6.66
  -3   1   2  105.57    6.68
  -3   1   2   93.42    8.79
  -3   1   2   97.46    5.59
   2  -1  -2   44.85    3.15
   2  -1  -2   46.46    2.59
   2  -1  -2   46.53    3.16
   2  -1  -2   42.89    4.09
   2  -1  -2   47.44    3.08
   2  -1  -2   48.53    3.16
  -2   1   2   43.93    4.10
  -2   1   2   49.50    3.11
  -2   1   2   44.87    2.61
  -2   1   2   43.67    3.15
  -2   1   2   47.84    3.19
  -2   1   2   50.37    3.18
   1  -1  -2  365.92   22.35
   1  -1  -2  359.81   19.09
   1  -1  -2  326.32   22.38
   1  -1  -2  335.21   29.87
   1  -1  -2  372.43   21.69
   1  -1  -2  341.34   22.39
  -1   1   2  314.88   22.38
  -1   1   2  341.56   22.40
  -1   1   2  354.19   21.67
  -1   1   2  362.38   19.11
  -1   1   2  377.06   29.90
  -1   1   2  366.94   22.35
   0  -1  -2   96.10    6.60
   0  -1  -2  106.80    5.58
   0  -1  -2  102.37    6.59
   0   1   2   94.83    6.58
   0   1   2  104.48    6.61
  -1  -1  -2  141.94    7.87
  -1  -1  -2  130.03    9.30
  -1  -1  -2  143.62    9.31
  -1  -1  -2  143.78   12.50
   1   1   2  138.40    9.32
   1   1   2  162.47   12.52
   1   1   2  137.70    9.28
  -2  -1  -2   91.89    6.37
   2   1   2  102.75    8.64
   2   1   2   89.56    6.40
   2   1   2   90.85    5.30
  -3  -1  -2  249.95   15.89
   3   1   2  247.37   21.25
   3   1   2  230.32   13.42
   3   1   2  244.64   15.89
  -4  -1  -2    4.41    1.35
   4   1   2    5.12    1.37
   4   1   2    4.41    0.82
   4   1   2    5.68    1.46
  -5  -1  -2    5.17    1.61
   5   1   2    3.98    1.61
   5   1   2    7.02    1.02
  -6  -1  -2   12.52    2.14
   6   1   2   15.79    2.38
   6   1   2   13.37    1.89
  -7  -1  -2   19.52    2.69
   7   1   2   20.02    2.85
   9  -2  -2    1.90    1.51
   9  -2  -2    0.26    1.33
  -9   2   2    2.79    1.56
   8  -2  -2    6.61    1.56
   8  -2  -2    3.73    1.51
   8  -2  -2    4.07    0.77
  -8   2   2    2.68    1.36
   7  -2  -2   21.56    1.57
   7  -2  -2   23.62    2.53
   7  -2  -2   21.12    1.53
   7  -2  -2   21.68    2.33
  -7   2   2   26.30    2.44
  -7   2   2   20.05    3.19
   6  -2  -2   38.25    2.20
   6  -2  -2   34.05    2.16
   6  -2  -2   38.38    2.89
   6  -2  -2   31.74    2.93
  -6   2   2   32.41    3.87
  -6   2   2   39.69    2.97
   5  -2  -2   17.65    1.17
   5  -2  -2   18.18    1.74
   5  -2  -2   19.32    1.79
   5  -2  -2   19.24    1.81
   5  -2  -2   17.02    1.15
  -5   2   2   20.67    1.88
  -5   2   2   12.68    2.12
   4  -2  -2   26.17    2.12
   4  -2  -2   23.82    1.49
   4  -2  -2   27.37    2.09
   4  -2  -2   26.53    1.51
   4  -2  -2   27.38    2.11
  -4   2   2   27.81    2.18
  -4   2   2   27.76    2.17
  -4   2   2   23.99    1.58
  -4   2   2   20.65    2.57
   3  -2  -2   57.51    3.70
   3  -2  -2   50.12    3.68
   3  -2  -2   56.83    3.67
   3  -2  -2   57.55    3.78
  -3   2   2   53.60    3.71
  -3   2   2   57.14    3.75
  -3   2   2   51.02    4.82
  -3   2   2   53.61    3.06
   2  -2  -2  277.43   18.54
   2  -2  -2  301.07   18.59
   2  -2  -2  284.32   18.54
   2  -2  -2  310.49   18.01
   2  -2  -2  286.50   18.54
  -2   2   2  277.19   18.55
  -2   2   2  308.31   18.01
  -2   2   2  300.39   15.81
  -2   2   2  288.73   18.58
  -2   2   2  273.65   18.54
   1  -2  -2  163.51    9.43
   1  -2  -2  140.62    9.69
   1  -2  -2  146.36    9.71
  -1   2   2  163.59    8.26
  -1   2   2  134.77    9.69
  -1   2   2  155.56    9.73
   0  -2  -2   15.45    1.53
   0  -2  -2   13.32    1.57
   0   2   2   14.42    1.16
   0   2   2   15.14    1.65
   0   2   2   15.78    1.50
   0   2   2   20.53    2.18
  -1  -2  -2   81.99    6.60
  -1  -2  -2   62.06    4.83
   1   2   2   63.44    4.88
   1   2   2   72.01    6.52
  -2  -2  -2  277.19   21.55
  -2  -2  -2  221.99   15.99
   2   2   2  224.03   16.01
   2   2   2  262.72   21.51
  -3  -2  -2   81.98    7.11
  -3  -2  -2   69.26    5.13
   3   2   2   63.61    4.17
   3   2   2   75.98    6.99
   3   2   2   64.26    5.15
  -4  -2  -2   29.90    2.92
   4   2   2   28.05    2.15
   4   2   2   30.90    3.06
  -5  -2  -2    0.19    1.31
   5   2   2   -1.65    1.38
  -6  -2  -2   28.15    3.00
   6   2   2   19.76    2.57
   6   2   2   28.23    3.13
  -7  -2  -2   11.52    2.42
   7   2   2   10.21    2.34
  10  -3  -2   -0.03    1.41
 -10   3   2   -1.02    1.36
   9  -3  -2    1.46    1.53
  -9   3   2   -1.44    1.32
   8  -3  -2    5.01    1.55
   8  -3  -2    3.85    1.36
  -8   3   2    6.20    1.85
  -8   3   2    2.59    1.35
   7  -3  -2   37.96    3.00
   7  -3  -2   28.05    2.90
  -7   3   2   34.31    2.91
  -7   3   2   31.00    3.81
   6  -3  -2   21.18    2.28
   6  -3  -2   26.61    2.36
  -6   3   2   28.56    2.36
   5  -3  -2    9.63    1.11
   5  -3  -2    8.48    1.33
   5  -3  -2    9.05    1.33
  -5   3   2    7.02    1.30
  -5   3   2   10.77    1.18
  -5   3   2    8.69    0.77
  -5   3   2    8.82    1.14
   4  -3  -2   31.12    2.08
   4  -3  -2   25.20    2.07
   4  -3  -2   29.67    2.20
   4  -3  -2   28.07    2.25
  -4   3   2   30.98    2.18
  -4   3   2   25.38    2.64
  -4   3   2   26.21    1.64
  -4   3   2   27.26    2.15
   3  -3  -2  207.74   11.88
   3  -3  -2  178.94   12.10
  -3   3   2  191.80   12.15
  -3   3   2  186.01   12.14
  -3   3   2  182.57   16.14
   2  -3  -2  117.46    6.92
   2  -3  -2  105.94    7.06
  -2   3   2   94.14    7.06
  -2   3   2  103.82    6.88
  -2   3   2  110.95    7.18
  -2   3   2  123.36    9.47
  -2   3   2  109.19    7.10
   1  -3  -2   83.09    5.87
   1  -3  -2   87.42    5.84
   1  -3  -2   93.88    5.68
  -1   3   2   99.01    4.96
  -1   3   2   80.43    5.85
  -1   3   2   88.02    5.91
   0  -3  -2   15.00    1.64
   0   3   2   17.34    2.35
   0   3   2   13.72    1.21
   0   3   2   16.73    1.61
   0   3   2   13.16    1.59
  -1  -3  -2   64.63    4.63
   1   3   2   65.19    3.85
   1   3   2   65.97    4.74
  -2  -3  -2  163.54   11.36
   2   3   2  153.49   11.39
   2   3   2  198.47   15.43
  -3  -3  -2   25.45    2.59
   3   3   2   17.30    2.84
   3   3   2   18.57    2.34
  -4  -3  -2    0.31    1.54
   4   3   2    2.89    1.58
  -5  -3  -2   13.63    2.37
   5   3   2   13.06    2.42
  -6  -3  -2   17.05    2.76
   6   3   2   20.41    2.99
  10  -4  -2   -1.20    1.40
 -10   4   2   -2.06    1.38
   9  -4  -2    2.98    1.55
  -9   4   2   -0.07    1.23
  -9   4   2    1.45    1.53
   8  -4  -2    5.82    1.67
  -8   4   2    8.15    2.03
  -8   4   2    7.57    1.51
   7  -4  -2   24.49    2.50
   7  -4  -2   28.86    2.39
  -7   4   2   19.78    2.89
  -7   4   2   25.80    2.32
   6  -4  -2   11.54    1.68
   6  -4  -2   11.68    1.69
   6  -4  -2   14.42    1.55
  -6   4   2   12.08    0.94
  -6   4   2   14.03    1.58
  -6   4   2   10.25    1.64
  -6   4   2    9.07    1.33
   5  -4  -2    8.37    1.23
  -5   4   2    5.73    0.60
  -5   4   2    8.24    0.97
  -5   4   2    6.05    1.02
  -5   4   2    7.14    0.95
   4  -4  -2   12.43    1.24
  -4   4   2    9.90    1.23
  -4   4   2   10.85    1.18
  -4   4   2   11.20    1.31
   3  -4  -2  229.84   13.96
  -3   4   2  252.93   19.15
  -3   4   2  215.22   14.33
  -3   4   2  197.41   14.31
   2  -4  -2   79.46    4.89
  -2   4   2   68.71    5.01
  -2   4   2   79.36    5.07
   1  -4  -2   26.58    2.21
   1  -4  -2   29.04    2.09
  -1   4   2   27.16    2.36
  -1   4   2   33.02    3.10
  -1   4   2   25.17    2.20
   0  -4  -2   55.32    4.09
   0   4   2   58.20    3.44
   0   4   2   54.12    4.23
   0   4   2   62.68    5.59
  -1  -4  -2   99.19    7.44
   1   4   2  108.04    6.31
   1   4   2  129.11   10.27
   1   4   2  106.38    7.58
  -2  -4  -2   55.67    4.50
   2   4   2   64.10    6.13
   2   4   2   56.27    3.66
   2   4   2   59.57    4.66
  -3  -4  -2   10.32    1.96
   3   4   2   10.86    2.04
  -4  -4  -2   -3.06    1.46
   4   4   2   -0.39    1.48
  -5  -4  -2   13.93    2.49
   5   4   2   14.96    2.65
 -10   5   2    0.58    1.50
   9  -5  -2    1.17    1.48
  -9   5   2   -0.78    1.26
  -9   5   2   -0.32    1.17
  -8   5   2    6.59    1.71
  -8   5   2    7.68    1.39
  -7   5   2   16.21    2.33
  -7   5   2   17.97    1.29
   6  -5  -2    1.78    1.08
  -6   5   2    2.88    0.47
  -6   5   2    2.72    0.84
  -6   5   2    0.72    0.85
  -6   5   2    1.08    0.81
   5  -5  -2   -0.06    0.81
  -5   5   2   -0.14    0.62
  -5   5   2   -0.39    0.54
  -5   5   2    0.45    0.50
   4  -5  -2   62.34    3.71
  -4   5   2   49.22    3.62
  -4   5   2   51.25    3.61
   3  -5  -2  154.75    9.14
  -3   5   2  131.27    9.32
  -3   5   2  148.15    9.37
   2  -5  -2   64.66    4.25
  -2   5   2   57.68    4.39
  -2   5   2   75.35    6.05
  -2   5   2   64.39    4.47
   1  -5  -2    2.52    0.73
   1  -5  -2    3.41    0.80
  -1   5   2    3.60    1.13
  -1   5   2    2.42    0.68
  -1   5   2    2.12    0.91
   0  -5  -2   31.46    2.82
   0   5   2   36.33    2.36
   0   5   2   33.42    3.09
   0   5   2   38.86    4.10
  -1  -5  -2   94.85    6.76
   1   5   2   95.03    6.92
   1   5   2  105.06    9.30
   1   5   2   93.77    5.69
  -2  -5  -2   36.27    3.38
   2   5   2   38.83    3.65
  -3  -5  -2    4.87    1.70
   3   5   2    5.60    1.82
  -4  -5  -2   10.93    2.23
   4   5   2    6.93    2.08
 -10   6   2   -1.56    1.32
 -10   6   2   -2.49    1.29
  -9   6   2    1.12    1.26
  -9   6   2    1.75    1.43
  -8   6   2    3.57    1.36
  -8   6   2    5.48    1.24
  -8   6   2    6.22    0.82
  -7   6   2    8.28    1.45
  -7   6   2    8.18    0.77
  -7   6   2    7.98    1.22
   6  -6  -2    0.80    1.01
  -6   6   2    1.15    0.73
  -6   6   2    0.10    0.59
   5  -6  -2    5.89    1.12
  -5   6   2    4.64    0.80
   4  -6  -2   88.82    6.06
  -4   6   2   97.58    8.23
   3  -6  -2  118.62    7.25
  -3   6   2  116.03    7.48
  -3   6   2  106.60    7.43
   2  -6  -2   16.15    1.34
  -2   6   2   14.36    1.62
  -2   6   2   14.17    1.73
  -2   6   2   15.97    2.34
   1  -6  -2    0.02    0.66
   1  -6  -2    0.63    0.69
  -1   6   2    0.01    0.90
  -1   6   2    0.98    0.99
   0  -6  -2   37.73    3.17
   0   6   2   37.50    2.65
   0   6   2   49.18    4.75
   0   6   2   33.58    3.46
  -1  -6  -2   46.90    4.06
   1   6   2   58.92    5.81
   1   6   2   49.26    4.35
  -2  -6  -2   24.46    2.86
   2   6   2   26.46    3.07
   3   6   2    0.86    1.66
 -10   7   2   -2.02    1.28
 -10   7   2    0.29    1.33
  -9   7   2    2.38    1.38
  -9   7   2    3.18    1.22
  -8   7   2    6.31    1.17
  -8   7   2    6.72    1.51
  -7   7   2    1.87    0.90
  -7   7   2    2.71    0.86
   6  -7  -2    5.47    1.26
   5  -7  -2   25.00    2.21
  -5   7   2   32.04    3.01
   4  -7  -2   57.11    4.00
  -4   7   2   62.64    5.63
   3  -7  -2   28.81    2.07
  -3   7   2   26.33    2.36
  -3   7   2   29.79    3.25
   2  -7  -2   16.83    1.45
  -2   7   2   18.29    2.75
  -2   7   2   18.63    1.98
   1  -7  -2    5.54    0.93
  -1   7   2    4.05    1.59
  -1   7   2    4.39    0.84
  -1   7   2    4.22    1.26
   0   7   2   44.79    4.08
   0   7   2   49.88    5.50
   1   7   2   33.69    3.51
   2   7   2    5.17    1.87
  -9   8   2    3.02    1.35
  -8   8   2    3.60    1.12
  -7   8   2    2.31    0.80
  -6   8   2    0.97    1.02
  -6   8   2   -0.07    0.59
  -4   8   2   34.13    2.67
  -4   8   2   34.04    3.69
  -3   8   2    4.93    1.47
  -3   8   2    6.05    1.14
  -2   8   2    5.28    1.23
  -2   8   2    5.54    0.87
  -2   8   2    4.42    1.63
  -1   8   2   19.44    3.00
  -1   8   2   18.24    2.19
   0   8   2   20.70    2.54
   1   8   2   22.95    2.87
  -9   9   2    1.32    1.14
  -8   9   2    4.03    1.05
  -7   9   2   -0.02    0.64
  -7   9   2    1.13    1.14
  -6   9   2    1.02    1.18
  -5   9   2   17.44    2.47
  -4   9   2   29.86    3.47
  -4   9   2   26.72    2.46
  -3   9   2    0.38    1.02
  -3   9   2    1.37    1.37
  -2   9   2    0.99    1.38
  -2   9   2   -0.42    1.01
  -1   9   2   15.04    2.06
  -8  10   2    1.07    1.25
  -8  10   2    0.92    0.85
  -7  10   2    0.35    0.71
  -7  10   2   -0.37    1.00
  -6  10   2    1.65    1.22
  -5  10   2    7.23    1.70
  -4  10   2    9.80    2.14
  -3  10   2    1.27    1.50
  -1  10  -3   12.44    2.44
  -1  10  -3   15.30    2.02
  -2  10  -3    4.93    1.51
  -3  10  -3    1.30    1.03
  -4  10  -3   10.43    1.67
  -5  10  -3   30.89    2.93
   1   9  -3    5.51    1.75
   0   9  -3   31.22    4.12
   0   9  -3   31.71    3.35
  -1   9  -3   21.61    3.29
  -1   9  -3   27.01    2.74
  -2   9  -3    5.90    1.22
  -2   9  -3    6.40    1.51
  -3   9  -3    0.19    0.86
  -4   9  -3   14.57    1.75
  -6   9  -3    4.28    0.86
  -7   9  -3    0.28    0.77
  -8   9  -3    3.48    1.25
   2   8  -3    1.95    1.56
   1   8  -3   12.44    2.09
   0   8  -3   54.13    5.33
   0   8  -3   45.52    3.78
  -1   8  -3   37.75    3.06
  -1   8  -3   40.79    4.27
  -2   8  -3    2.84    0.91
  -2   8  -3    2.45    1.10
  -3   8  -3   11.61    1.67
  -4   8  -3   40.64    3.69
  -6   8  -3    2.04    0.79
  -7   8  -3    0.27    0.90
  -8   8  -3    7.02    1.70
  -9   8  -3    5.61    1.65
   3   7  -3    1.60    1.64
   2   7  -3    1.01    1.29
   1   7  -3   28.28    3.73
   1   7  -3   26.33    2.60
   0   7  -3   31.23    2.76
   0   7  -3   34.39    3.87
  -1   7  -3   31.83    2.68
  -1   7  -3   36.23    3.74
  -2   7  -3    0.98    0.80
  -2   7  -3    1.80    0.88
  -3   7  -3   38.54    3.26
  -3   7  -3   29.87    3.16
  -4   7  -3   62.04    4.81
  -4   7  -3   47.22    4.84
  -5   7  -3   27.02    2.65
  -6   7  -3    3.97    0.85
  -6   7  -3    4.20    1.14
  -7   7  -3    5.32    1.55
  -7   7  -3    6.84    1.12
  -8   7  -3   12.76    2.48
  -8   7  -3   19.14    1.93
  -9   7  -3    5.23    2.07
  -9   7  -3    5.57    1.50
   4   6  -3   15.16    2.41
  -4  -6   3   10.47    2.14
   3   6  -3   -0.13    1.20
  -3  -6   3   -1.63    1.27
   2   6  -3   17.08    2.80
   2   6  -3   15.40    2.19
  -2  -6   3   20.57    2.21
   1   6  -3   59.99    5.84
   1   6  -3   55.81    4.27
  -1  -6   3   54.57    4.17
   0   6  -3   76.07    7.25
   0   6  -3   79.26    5.44
   0  -6   3   77.29    5.31
  -1   6  -3    7.69    1.13
  -1   6  -3    5.70    1.23
  -1   6  -3    5.40    0.91
  -2   6  -3   13.94    1.71
  -2   6  -3   14.28    1.74
  -2   6  -3   13.27    1.33
  -2   6  -3   12.92    1.33
  -3   6  -3   30.99    3.17
  -3   6  -3   37.73    3.14
  -4   6  -3   38.07    3.96
  -4   6  -3   49.16    3.90
  -5   6  -3   20.64    1.75
  -5   6  -3   13.51    2.09
  -5   6  -3   21.38    1.62
  -6   6  -3   20.68    1.79
  -6   6  -3   20.13    1.34
  -6   6  -3   13.50    2.31
  -7   6  -3    7.25    1.78
  -7   6  -3    6.09    1.23
  -8   6  -3   17.93    3.13
  -8   6  -3   24.46    2.34
  -9   6  -3    3.03    1.42
  -9   6  -3    4.20    2.07
   5   5  -3   21.71    2.99
  -5  -5   3   22.28    2.83
   4   5  -3    5.18    1.57
  -4  -5   3    2.10    1.35
   3   5  -3    5.66    1.51
  -3  -5   3    4.62    1.46
   2   5  -3   37.43    4.02
   2   5  -3   30.41    2.91
  -2  -5   3   30.60    2.89
   1   5  -3  173.77   11.47
   1   5  -3  193.66   15.35
  -1  -5   3  159.69   10.79
  -1  -5   3  167.77   11.37
   0   5  -3   62.43    5.59
   0   5  -3   57.28    4.13
   0   5  -3   53.56    4.14
   0  -5   3   61.63    4.10
  -1   5  -3   11.56    1.30
  -1   5  -3   12.16    1.69
  -1   5  -3   12.93    1.35
  -2   5  -3   14.52    1.31
  -2   5  -3   14.46    1.57
  -2   5  -3   14.60    1.62
  -2   5  -3   12.53    1.26
  -3   5  -3  159.70   12.49
  -3   5  -3  150.64    9.41
  -3   5  -3  127.16   12.53
  -4   5  -3   93.45    9.22
  -4   5  -3  115.76    6.93
  -4   5  -3  107.09    6.89
  -5   5  -3    8.57    0.73
  -5   5  -3    8.31    1.05
  -5   5  -3    6.74    1.48
  -5   5  -3    7.60    1.05
  -6   5  -3   20.01    1.44
  -6   5  -3   18.09    2.70
  -6   5  -3   17.75    1.91
  -7   5  -3   10.42    2.30
  -7   5  -3   16.69    1.90
  -7   5  -3   12.88    1.27
  -8   5  -3   13.07    2.91
  -8   5  -3   20.93    1.82
  -8   5  -3   19.34    2.25
  -9   5  -3    6.56    1.71
   6   4  -3    9.28    2.14
  -6  -4   3    4.93    1.69
   5   4  -3   11.38    1.97
  -5  -4   3   10.58    2.03
   4   4  -3    9.54    1.79
  -4  -4   3   13.55    2.07
   3   4  -3   13.89    2.27
   3   4  -3   13.06    1.82
  -3  -4   3   10.24    1.75
   2   4  -3   66.08    4.87
   2   4  -3   71.84    6.50
  -2  -4   3   62.54    4.77
   1   4  -3  196.33   15.54
   1   4  -3  172.87   11.62
  -1  -4   3  171.18   11.05
  -1  -4   3  169.51   11.56
   0   4  -3   23.84    2.00
   0   4  -3   21.22    1.99
   0   4  -3   24.92    2.62
   0  -4   3   24.81    1.96
  -1   4  -3   13.96    1.43
  -1   4  -3   14.96    1.46
  -1   4  -3   18.16    1.86
  -1   4  -3   17.49    1.81
   1  -4   3   14.52    1.32
  -2   4  -3   59.69    5.89
  -2   4  -3   66.17    4.42
  -2   4  -3   74.82    5.82
  -2   4  -3   65.81    4.42
  -3   4  -3  201.97   19.34
  -3   4  -3  236.55   14.49
  -3   4  -3  238.62   14.50
  -4   4  -3  154.48    9.76
  -4   4  -3  148.82    8.24
  -4   4  -3  159.35    9.79
  -4   4  -3  136.06   13.09
  -5   4  -3   14.91    2.40
  -5   4  -3   17.84    1.30
  -5   4  -3   19.19    1.80
  -5   4  -3   17.75    1.67
   5  -4   3   15.98    1.64
  -6   4  -3    4.27    0.72
  -6   4  -3    5.28    1.65
  -6   4  -3    4.29    1.17
   6  -4   3    3.08    0.96
  -7   4  -3   37.01    2.53
  -7   4  -3   30.01    4.30
  -7   4  -3   39.00    3.12
  -8   4  -3   12.63    1.94
  -9   4  -3    1.23    1.56
   7   3  -3    2.08    1.79
  -7  -3   3    2.58    1.54
   6   3  -3   18.48    2.68
  -6  -3   3   16.34    2.41
   5   3  -3   14.14    2.08
  -5  -3   3   13.17    2.10
   4   3  -3    4.55    1.44
   4   3  -3    5.72    1.38
  -4  -3   3    5.38    1.44
   3   3  -3   59.51    5.34
   3   3  -3   49.50    4.03
  -3  -3   3   48.62    3.95
   2   3  -3   83.24    7.01
   2   3  -3   73.20    5.27
  -2  -3   3   69.56    5.19
   1   3  -3  116.05    7.02
   1   3  -3  116.25    9.84
   1   3  -3  113.27    7.40
   1   3  -3  105.27    7.39
  -1  -3   3  109.24    7.38
  -1  -3   3  106.73    7.00
   0   3  -3  118.39    7.70
   0   3  -3  114.84    7.71
   0   3  -3  121.49    7.34
   0   3  -3  130.32   10.26
   0  -3   3  103.21    7.64
   0  -3   3  118.79    7.69
  -1   3  -3    6.78    1.15
  -1   3  -3    9.22    0.87
  -1   3  -3   10.73    0.89
  -1   3  -3    7.82    1.09
   1  -3   3    8.07    0.97
   1  -3   3    7.86    0.79
  -2   3  -3  111.24    5.67
  -2   3  -3  105.77    6.74
  -2   3  -3   87.42    9.00
  -2   3  -3  105.05    6.74
  -2   3  -3  106.35    8.91
   2  -3   3  102.65    6.69
  -3   3  -3  127.55    6.73
  -3   3  -3  125.01    7.98
  -3   3  -3  105.16   10.67
  -3   3  -3  125.92    7.99
   3  -3   3  124.51    7.93
  -4   3  -3  131.93    8.53
  -4   3  -3  130.71    7.16
  -4   3  -3  137.10    8.52
  -4   3  -3  112.79   11.43
   4  -3   3  129.86    8.45
  -5   3  -3    8.98    0.91
  -5   3  -3    8.50    1.89
  -5   3  -3    8.49    1.28
   5  -3   3    6.16    1.17
  -6   3  -3   11.96    2.51
  -6   3  -3   12.74    1.28
  -6   3  -3   13.51    1.73
   6  -3   3   16.00    1.78
  -7   3  -3   25.44    3.92
  -7   3  -3   26.33    2.71
   7  -3   3   30.99    2.87
  -9   3  -3    0.46    1.55
   8   2  -3    0.57    1.72
  -8  -2   3    1.30    1.56
   7   2  -3    4.68    1.86
  -7  -2   3    3.28    1.60
   6   2  -3   17.69    2.35
  -6  -2   3   21.52    2.50
   5   2  -3   16.87    2.11
   5   2  -3   15.61    1.45
  -5  -2   3   15.80    2.12
   4   2  -3    7.90    1.42
   4   2  -3    9.63    1.07
   4   2  -3    6.90    1.53
  -4  -2   3    9.52    1.78
  -4  -2   3    8.64    1.52
   3   2  -3   60.67    4.45
   3   2  -3   63.52    5.85
   3   2  -3   60.47    3.62
   3   2  -3   59.16    4.17
  -3  -2   3   65.61    5.90
  -3  -2   3   56.63    4.38
   2   2  -3  244.65   20.88
   2   2  -3  227.51   15.67
   2   2  -3  238.88   15.11
   2   2  -3  250.56   13.34
  -2  -2   3  259.90   20.91
  -2  -2   3  230.97   15.66
   1   2  -3  139.14   11.56
   1   2  -3  129.58    8.69
   1   2  -3  131.01    8.33
   1   2  -3  126.03    8.69
   1   2  -3  140.66    7.37
  -1  -2   3  139.06   11.60
  -1  -2   3  125.60    8.67
  -1  -2   3  132.13    8.33
  -1  -2   3  129.31    8.69
  -1  -2   3  137.33   11.54
   0   2  -3  136.83    6.87
   0   2  -3  122.70    8.09
   0   2  -3  125.25   10.82
   0   2  -3  129.90   10.75
   0   2  -3  118.54    8.09
   0   2  -3  122.64    7.78
   0  -2   3  128.85   10.73
   0  -2   3  111.00    8.06
   0  -2   3  122.17    8.08
   0  -2   3  129.61   10.85
  -1   2  -3   95.41    6.19
  -1   2  -3   93.73    6.18
  -1   2  -3   96.31    8.19
  -1   2  -3   86.84    8.33
  -1   2  -3  102.31    5.22
   1  -2   3   83.37    8.26
   1  -2   3   93.99    6.18
   1  -2   3   98.37    6.19
   1  -2   3  100.66    8.16
  -2   2  -3  135.13    8.72
  -2   2  -3  144.39    7.38
  -2   2  -3  116.20   11.68
  -2   2  -3  133.11    8.72
   2  -2   3  139.17    7.32
   2  -2   3  133.87    8.70
  -3   2  -3   99.11    6.64
  -3   2  -3  100.32    5.55
  -3   2  -3   83.93    8.86
  -3   2  -3   96.98    6.47
  -3   2  -3  104.75    6.64
   3  -2   3  103.09    5.49
   3  -2   3  103.50    6.61
  -4   2  -3   87.51    4.86
  -4   2  -3   69.17    7.85
  -4   2  -3   92.72    5.88
   4  -2   3   89.77    5.83
   4  -2   3   84.42    4.78
  -5   2  -3    0.97    1.03
  -5   2  -3    0.72    1.19
  -5   2  -3    0.71    0.55
   5  -2   3   -0.19    0.50
   5  -2   3    1.06    0.80
   5  -2   3   -0.56    0.92
  -6   2  -3    6.84    2.15
  -6   2  -3    9.77    1.66
   6  -2   3    8.83    0.99
   6  -2   3    9.83    0.99
   6  -2   3   12.21    1.75
   6  -2   3   10.17    1.53
  -7   2  -3   30.75    2.98
   7  -2   3   29.89    3.09
   7  -2   3   31.06    2.63
   7  -2   3   28.94    2.07
  -8   2  -3    5.66    1.77
   8  -2   3    5.41    1.75
   8  -2   3   11.24    1.77
   8   1  -3   -2.86    1.49
   8   1  -3   -1.01    1.53
  -8  -1   3    0.38    1.51
   7   1  -3   13.29    2.24
  -7  -1   3   10.38    1.96
   6   1  -3   15.15    1.46
   6   1  -3   15.37    2.12
  -6  -1   3   18.94    2.20
   5   1  -3   10.17    1.15
   5   1  -3    8.52    1.68
   5   1  -3   10.52    1.56
  -5  -1   3    8.82    1.56
   4   1  -3   12.03    1.10
   4   1  -3   10.41    1.73
   4   1  -3   13.62    1.65
   4   1  -3   12.68    1.62
  -4  -1   3   12.09    1.56
   3   1  -3  103.35    6.67
   3   1  -3  102.90    5.80
   3   1  -3  106.15    6.95
   3   1  -3   97.97    9.12
  -3  -1   3  102.03    6.91
   2   1  -3  273.66   16.48
   2   1  -3  262.71   14.00
   2   1  -3  253.03   21.91
   2   1  -3  245.41   16.46
   2   1  -3  252.32   15.90
  -2  -1   3  248.09   16.45
  -2  -1   3  259.10   16.47
  -2  -1   3  254.11   16.45
  -2  -1   3  267.79   15.91
  -2  -1   3  238.38   21.88
   1   1  -3  141.26    8.61
   1   1  -3  139.37    8.92
   1   1  -3  137.09   11.85
   1   1  -3  136.58    8.91
   1   1  -3  144.40    7.57
  -1  -1   3  137.23    8.60
  -1  -1   3  138.09    8.92
  -1  -1   3  136.15    8.92
  -1  -1   3  119.30   11.90
  -1  -1   3  140.59    7.56
  -1  -1   3  141.27   11.85
   0   1  -3   71.44    6.15
   0   1  -3   61.87    6.28
   0   1  -3   71.59    4.67
   0   1  -3   70.06    4.66
   0   1  -3   77.17    3.92
   0  -1   3   66.03    4.64
   0  -1   3   71.78    6.13
   0  -1   3   72.09    4.67
   0  -1   3   74.26    3.91
   0  -1   3   64.51    6.29
  -1   1  -3   60.44    4.14
  -1   1  -3   50.16    5.55
  -1   1  -3   62.53    4.14
  -1   1  -3   65.50    3.46
   1  -1   3   61.59    4.14
   1  -1   3   63.58    3.43
   1  -1   3   63.29    4.14
  -2   1  -3  729.58   46.94
  -2   1  -3  737.24   46.72
  -2   1  -3  627.28   62.65
  -2   1  -3  786.67   46.96
  -2   1  -3  751.02   40.04
   2  -1   3  705.13   62.67
   2  -1   3  770.20   46.95
   2  -1   3  783.86   40.03
  -3   1  -3   85.26    9.23
  -3   1  -3  102.57    5.75
  -3   1  -3  111.05    6.91
   3  -1   3  102.30    6.65
   3  -1   3  103.94    6.87
   3  -1   3  104.36    5.72
  -4   1  -3   17.40    1.44
  -4   1  -3   17.74    2.69
  -4   1  -3   20.62    2.02
   4  -1   3   15.74    1.97
   4  -1   3   17.09    1.32
   4  -1   3   18.33    1.52
  -5   1  -3    4.22    1.74
  -5   1  -3    4.68    1.36
   5  -1   3    4.40    1.25
   5  -1   3    6.65    0.85
   5  -1   3    6.71    1.17
  -6   1  -3   18.26    2.38
   6  -1   3   19.10    1.87
   6  -1   3   24.17    2.54
   6  -1   3   19.72    1.62
  -7   1  -3   26.52    2.96
   7  -1   3   26.19    2.42
   7  -1   3   30.82    3.09
  -8   1  -3    5.22    1.91
   8  -1   3    6.08    1.98
   9   0  -3   -1.57    1.52
   9   0  -3    0.87    1.54
  -9   0   3   -1.20    1.39
   8   0  -3    1.30    1.48
   8   0  -3    0.82    1.42
  -8   0   3    1.82    1.48
   7   0  -3   12.35    1.30
   7   0  -3    8.07    1.83
   7   0  -3   11.55    1.90
  -7   0   3   12.42    1.88
   6   0  -3   16.86    1.44
   6   0  -3   19.32    2.22
  -6   0   3   18.34    2.15
  -6   0   3   15.82    2.66
   5   0  -3   14.96    1.23
   5   0  -3   15.61    1.76
   5   0  -3   14.63    1.74
  -5   0   3   15.19    1.73
  -5   0   3   14.61    2.28
   4   0  -3    2.26    0.86
   4   0  -3    3.82    1.00
   4   0  -3    3.29    1.00
   4   0  -3    4.86    0.65
  -4   0   3    2.02    0.95
  -4   0   3    4.27    1.02
   3   0  -3  158.99    9.47
   3   0  -3  147.57    8.22
   3   0  -3  150.39    9.76
   3   0  -3  146.89   12.89
  -3   0   3  139.80   12.91
  -3   0   3  148.58    9.75
   2   0  -3  213.46   11.64
   2   0  -3  203.22   18.19
   2   0  -3  193.75   13.24
   2   0  -3  213.73   13.70
   2   0  -3  211.84   13.69
  -2   0   3  229.38   13.28
  -2   0   3  214.82   13.69
  -2   0   3  220.66   13.71
   1   0  -3  203.04   18.95
   1   0  -3  233.10   13.81
   1   0  -3  233.50   12.14
   1   0  -3  230.70   14.26
   1   0  -3  219.14   14.24
  -1   0   3  214.86   13.79
  -1   0   3  226.27   14.26
  -1   0   3  217.65   14.24
   0   0  -3   69.24    4.66
   0   0  -3   71.13    4.67
   0   0  -3   75.67    3.92
   0   0   3   69.14    4.66
   0   0   3   57.68    6.29
   0   0   3   74.20    3.93
   0   0   3   70.92    4.68
  -1   0  -3  203.30   10.96
  -1   0  -3  201.96   12.90
  -1   0  -3  199.63   12.91
   1   0   3  211.24   12.92
   1   0   3  212.68   10.97
   1   0   3  167.56   17.24
   1   0   3  200.58   12.90
  -2   0  -3  205.53   11.47
  -2   0  -3  211.65   13.55
   2   0   3  219.71   13.56
   2   0   3  210.94   13.28
   2   0   3  193.39   18.14
   2   0   3  207.20   11.47
  -3   0  -3  160.67    8.88
  -3   0  -3  130.77   14.09
  -3   0  -3  170.22   10.58
   3   0   3  162.40   10.55
   3   0   3  167.36   10.26
   3   0   3  166.12    8.88
   3   0   3  151.75   14.14
  -4   0  -3    5.91    1.40
  -4   0  -3    4.94    1.75
   4   0   3    5.01    1.40
   4   0   3    8.10    1.05
   4   0   3    4.89    0.82
   4   0   3    5.16    1.33
  -5   0  -3   34.87    3.15
   5   0   3   34.82    2.35
   5   0   3   35.72    3.17
   5   0   3   30.13    2.57
  -6   0  -3   35.74    3.45
   6   0   3   40.22    2.65
   6   0   3   34.76    2.90
   6   0   3   37.75    3.49
  -7   0  -3   18.55    2.73
   7   0   3   24.10    2.90
   9  -1  -3   -2.28    1.28
   9  -1  -3   -3.20    1.39
  -9   1   3    0.12    1.51
   8  -1  -3    2.61    1.49
   8  -1  -3    3.19    1.57
  -8   1   3    4.95    1.49
   7  -1  -3   17.94    1.49
   7  -1  -3   12.79    2.10
   7  -1  -3   19.59    1.56
   7  -1  -3   21.24    2.20
  -7   1   3   20.47    2.26
   6  -1  -3   16.00    1.86
   6  -1  -3   17.23    1.35
   6  -1  -3   17.19    1.99
   6  -1  -3   16.87    1.31
  -6   1   3   15.19    1.89
  -6   1   3   15.61    2.49
   5  -1  -3    6.00    1.20
   5  -1  -3    4.38    1.10
   5  -1  -3    4.45    1.10
   5  -1  -3    4.27    0.65
  -5   1   3    3.76    1.17
  -5   1   3    3.29    1.07
   4  -1  -3   30.17    3.01
   4  -1  -3   30.05    1.86
   4  -1  -3   27.20    2.34
   4  -1  -3   31.15    2.44
   4  -1  -3   33.55    2.50
  -4   1   3   31.45    2.51
  -4   1   3   29.87    1.90
   3  -1  -3  114.74   10.44
   3  -1  -3  123.77    7.94
   3  -1  -3  112.46    7.69
   3  -1  -3  119.10    6.67
   3  -1  -3  124.57    7.93
  -3   1   3  119.19   10.49
  -3   1   3  130.75    7.96
  -3   1   3  127.71    7.96
  -3   1   3  114.99    6.68
  -3   1   3  120.40    7.92
   2  -1  -3  777.49   46.01
   2  -1  -3  759.52   47.47
   2  -1  -3  717.34   47.53
   2  -1  -3  732.56   63.35
   2  -1  -3  767.91   40.55
   2  -1  -3  730.05   47.53
  -2   1   3  809.92   46.01
  -2   1   3  732.59   47.53
  -2   1   3  708.64   63.35
  -2   1   3  727.55   47.53
  -2   1   3  754.66   40.56
   1  -1  -3   83.49    5.78
   1  -1  -3   92.57    5.63
   1  -1  -3   83.76    5.78
   1  -1  -3   87.91    5.69
   1  -1  -3   86.94    4.87
  -1   1   3   80.33    5.76
  -1   1   3  101.36    7.84
  -1   1   3   86.97    5.80
  -1   1   3   89.61    4.89
   0  -1  -3   75.07    5.20
   0  -1  -3   75.19    5.21
   0  -1  -3   79.11    4.36
   0   1   3   70.63    5.18
   0   1   3   79.77    4.98
   0   1   3   85.69    7.05
   0   1   3   78.52    5.23
  -1  -1  -3  248.46   13.81
  -1  -1  -3  262.51   21.83
  -1  -1  -3  249.10   16.27
   1   1   3  243.40   21.75
   1   1   3  255.68   16.29
  -2  -1  -3  180.66    9.72
  -2  -1  -3  188.35   11.55
  -2  -1  -3  156.64   15.43
   2   1   3  163.03   15.43
   2   1   3  185.14   11.54
   2   1   3  174.06    9.72
  -3  -1  -3   25.62    2.39
   3   1   3   21.65    3.05
   3   1   3   19.88    2.34
   3   1   3   21.23    1.66
  -4  -1  -3   -0.15    1.28
   4   1   3    0.80    0.93
   4   1   3    1.78    0.68
   4   1   3    3.65    1.33
  -5  -1  -3   18.27    2.43
   5   1   3   16.86    2.35
   5   1   3   14.78    1.83
   5   1   3   15.99    1.58
  -6  -1  -3   32.14    3.28
   6   1   3   30.70    3.27
   6   1   3   30.55    2.63
  -7  -1  -3    8.07    2.16
   7   1   3   12.35    2.43
   9  -2  -3   -0.48    1.41
   9  -2  -3    0.22    1.35
  -9   2   3    1.76    1.36
   8  -2  -3    5.81    1.54
   8  -2  -3    4.19    1.49
   8  -2  -3    4.15    0.79
  -8   2   3    5.24    1.49
   7  -2  -3   16.77    1.29
   7  -2  -3   16.85    1.32
   7  -2  -3   19.87    2.05
   7  -2  -3   13.52    2.08
  -7   2   3   18.27    2.82
  -7   2   3   18.76    2.09
   6  -2  -3    6.87    0.70
   6  -2  -3    6.90    1.40
   6  -2  -3    4.67    1.19
   6  -2  -3    4.82    0.67
   6  -2  -3    6.73    1.38
  -6   2   3    4.33    1.20
  -6   2   3    6.24    1.44
   5  -2  -3    0.40    0.78
   5  -2  -3    0.05    0.41
   5  -2  -3    0.77    0.39
   5  -2  -3   -0.50    0.86
   5  -2  -3    0.59    0.91
  -5   2   3    0.12    0.49
  -5   2   3    1.06    0.84
  -5   2   3   -0.69    0.80
   4  -2  -3   69.66    3.92
   4  -2  -3   71.79    4.77
   4  -2  -3   69.28    4.73
   4  -2  -3   75.05    4.90
  -4   2   3   66.65    6.29
  -4   2   3   70.05    4.80
  -4   2   3   64.13    3.96
  -4   2   3   76.45    4.86
   3  -2  -3  258.58   16.46
   3  -2  -3  261.84   13.92
   3  -2  -3  265.56   16.42
   3  -2  -3  247.45   16.40
   3  -2  -3  261.87   15.96
  -3   2   3  248.36   16.41
  -3   2   3  236.53   21.82
  -3   2   3  261.20   13.97
  -3   2   3  259.67   16.43
   2  -2  -3  247.82   12.69
   2  -2  -3  219.17   14.93
   2  -2  -3  226.10   14.93
   2  -2  -3  238.35   14.95
   2  -2  -3  252.04   14.53
  -2   2   3  240.36   12.73
  -2   2   3  230.59   14.96
  -2   2   3  223.54   19.97
  -2   2   3  216.82   14.93
  -2   2   3  234.48   14.94
   1  -2  -3   21.35    1.86
   1  -2  -3   24.37    1.83
   1  -2  -3   20.90    1.93
   1  -2  -3   23.29    1.42
   1  -2  -3   29.56    2.60
  -1   2   3   22.27    1.69
  -1   2   3   20.02    1.84
  -1   2   3   27.58    2.66
  -1   2   3   20.97    1.91
  -1   2   3   22.91    1.49
   0  -2  -3   57.58    4.07
   0   2   3   62.50    3.39
   0   2   3   51.98    4.03
   0   2   3   59.72    4.12
  -1  -2  -3  240.77   19.13
  -1  -2  -3  200.22   14.20
   1   2   3  205.53   14.23
   1   2   3  229.01   19.08
  -2  -2  -3  182.61   15.69
  -2  -2  -3  171.41   11.65
   2   2   3  170.69   11.68
   2   2   3  179.88   15.67
  -3  -2  -3    7.40    1.57
  -3  -2  -3    4.44    1.70
   3   2   3    4.45    1.39
   3   2   3    4.99    1.66
   3   2   3    3.99    0.79
  -4  -2  -3    8.12    1.82
   4   2   3    5.94    1.02
   4   2   3    7.04    1.74
  -5  -2  -3   23.61    2.87
   5   2   3   20.59    2.77
  -6  -2  -3   23.97    3.15
   6   2   3   27.32    3.24
  10  -3  -3   -0.01    1.50
 -10   3   3    0.48    1.49
   9  -3  -3    0.21    1.38
  -9   3   3    0.48    1.34
   8  -3  -3   10.47    1.70
   8  -3  -3    5.80    1.62
  -8   3   3    7.99    2.07
  -8   3   3    4.71    1.41
   7  -3  -3    7.62    1.57
   7  -3  -3    7.81    1.35
  -7   3   3    7.24    1.38
  -7   3   3    7.99    1.76
   6  -3  -3    0.36    0.95
   6  -3  -3    0.48    0.82
   6  -3  -3   -0.55    0.85
  -6   3   3   -0.20    0.78
  -6   3   3   -0.40    0.86
  -6   3   3    0.71    0.52
   5  -3  -3    8.03    1.32
   5  -3  -3    6.81    1.23
   5  -3  -3    9.26    1.13
  -5   3   3    7.29    0.75
  -5   3   3   10.84    1.20
  -5   3   3    7.74    1.28
  -5   3   3    7.97    1.11
   4  -3  -3   61.19    4.23
   4  -3  -3   61.43    4.07
   4  -3  -3   60.88    4.09
  -4   3   3   58.60    3.40
  -4   3   3   54.62    5.35
  -4   3   3   58.74    4.12
  -4   3   3   66.10    4.18
   3  -3  -3  205.52   12.67
   3  -3  -3  194.64   12.97
   3  -3  -3  207.11   12.98
  -3   3   3  204.50   11.05
  -3   3   3  197.77   13.00
  -3   3   3  197.32   17.29
  -3   3   3  206.92   17.40
  -3   3   3  201.65   13.01
   2  -3  -3   32.85    2.52
   2  -3  -3   33.64    2.60
   2  -3  -3   35.95    2.52
  -2   3   3   35.91    2.62
  -2   3   3   38.54    2.12
  -2   3   3   32.59    2.56
  -2   3   3   39.12    2.61
   1  -3  -3   22.81    1.96
  -1   3   3   20.57    1.93
  -1   3   3   28.53    2.74
  -1   3   3   22.33    1.54
  -1   3   3   22.33    2.06
   0  -3  -3   69.48    5.19
   0   3   3   74.54    4.36
   0   3   3   74.05    5.26
   0   3   3   86.49    7.12
  -1  -3  -3  150.39   10.42
   1   3   3  172.31   14.07
   1   3   3  154.04    8.82
   1   3   3  153.63   10.49
  -2  -3  -3   24.48    2.55
   2   3   3   24.74    2.67
   2   3   3   26.29    3.55
  -3  -3  -3   13.19    2.10
   3   3   3   11.65    1.34
   3   3   3   16.59    2.16
  -4  -3  -3   11.12    2.05
   4   3   3    5.04    1.83
  -5  -3  -3   33.24    3.54
   5   3   3   35.96    3.66
  -6  -3  -3   11.83    2.50
   6   3   3   12.59    2.43
  10  -4  -3   -0.02    1.39
 -10   4   3   -0.80    1.35
   9  -4  -3   -0.20    1.34
  -9   4   3   -0.30    1.34
  -9   4   3    1.60    1.29
   8  -4  -3    8.37    1.80
  -8   4   3   13.48    2.25
  -8   4   3   10.65    1.63
   7  -4  -3    0.60    1.06
   7  -4  -3    3.13    1.00
   7  -4  -3    1.39    1.23
  -7   4   3    2.12    1.07
  -7   4   3    3.50    0.69
  -7   4   3    3.79    1.13
   6  -4  -3   -1.83    0.85
   6  -4  -3   -1.85    0.87
   6  -4  -3   -0.73    0.70
  -6   4   3   -1.39    0.79
  -6   4   3   -0.21    0.43
  -6   4   3   -0.17    0.74
  -6   4   3   -1.41    0.85
   5  -4  -3    9.16    1.05
   5  -4  -3    8.94    1.40
   5  -4  -3    9.37    1.30
  -5   4   3    7.79    1.07
  -5   4   3    8.28    1.25
  -5   4   3    9.84    1.12
  -5   4   3    7.48    0.72
   4  -4  -3  139.25    8.31
  -4   4   3  132.14    8.42
  -4   4   3  123.13   11.14
  -4   4   3  126.89    8.41
  -4   4   3  125.03    7.10
   3  -4  -3   56.10    4.08
   3  -4  -3   62.33    4.09
  -3   4   3   66.87    5.58
  -3   4   3   56.70    4.12
  -3   4   3   60.51    4.16
  -3   4   3   63.68    3.45
   2  -4  -3   24.45    1.87
   2  -4  -3   22.55    1.87
  -2   4   3   29.27    2.82
  -2   4   3   19.66    1.92
  -2   4   3   23.72    2.01
  -2   4   3   25.14    1.54
   1  -4  -3   40.85    3.16
  -1   4   3   46.24    2.67
  -1   4   3   53.42    4.48
  -1   4   3   35.77    3.16
  -1   4   3   43.66    3.27
   0  -4  -3   73.92    5.30
   0   4   3   85.33    7.26
   0   4   3   74.08    4.46
   0   4   3   72.92    5.39
  -1  -4  -3   90.48    7.02
   1   4   3  102.31    7.16
   1   4   3   98.21    5.91
   1   4   3  120.12    9.71
  -2  -4  -3   15.66    2.08
   2   4   3   11.54    2.36
   2   4   3   13.39    2.02
  -3  -4  -3    6.31    1.76
   3   4   3    4.56    1.65
  -4  -4  -3   25.45    3.05
   4   4   3   17.92    2.82
  -5  -4  -3   20.64    2.92
   5   4   3   16.68    2.77
  10  -5  -3    0.98    1.51
 -10   5   3   -1.52    1.32
   9  -5  -3    1.34    1.48
  -9   5   3    2.61    1.49
  -9   5   3    0.58    1.18
   8  -5  -3    5.88    1.61
  -8   5   3    8.03    0.96
  -8   5   3    6.47    1.34
  -8   5   3    5.88    1.56
   7  -5  -3   -0.85    1.12
  -7   5   3    0.82    0.94
  -7   5   3    1.19    0.54
  -7   5   3    0.28    0.87
   6  -5  -3    0.77    0.98
  -6   5   3   -0.06    0.67
  -6   5   3   -0.42    0.72
  -6   5   3   -1.17    0.76
  -6   5   3    0.62    0.43
   5  -5  -3   18.83    1.71
  -5   5   3   17.71    1.73
  -5   5   3   17.70    1.66
  -5   5   3   16.83    1.17
  -5   5   3   18.18    1.94
   4  -5  -3  154.00    9.40
  -4   5   3  139.71    9.55
  -4   5   3  148.37    9.57
   3  -5  -3   43.58    3.06
  -3   5   3   47.69    2.57
  -3   5   3   39.14    3.09
  -3   5   3   44.40    3.16
   2  -5  -3   -0.27    0.50
   2  -5  -3   -0.68    0.71
  -2   5   3   -0.80    0.73
  -2   5   3   -0.90    0.48
  -2   5   3    0.41    0.44
   1  -5  -3   31.61    2.49
   1  -5  -3   29.08    2.58
  -1   5   3   33.80    2.18
  -1   5   3   42.05    3.80
  -1   5   3   29.05    2.71
   0  -5  -3  100.97    7.19
   0   5   3  102.56    7.28
   0   5   3  113.28    9.82
   0   5   3  104.90    6.10
  -1  -5  -3   50.07    4.26
   1   5   3   56.62    3.56
   1   5   3   64.78    6.18
   1   5   3   52.08    4.44
  -2  -5  -3   23.80    2.63
   2   5   3   17.16    2.55
  -3  -5  -3    2.82    1.60
   3   5   3    1.57    1.61
  -4  -5  -3   16.54    2.74
   4   5   3   16.70    2.71
 -10   6   3   -1.62    1.39
 -10   6   3   -1.33    1.29
  -9   6   3    2.43    1.37
  -9   6   3    0.60    1.21
  -8   6   3    1.10    1.10
  -8   6   3    3.98    1.34
  -8   6   3    3.38    0.70
   7  -6  -3   -1.53    1.09
  -7   6   3   -0.21    0.46
  -7   6   3    0.41    0.88
  -7   6   3    0.95    0.93
   6  -6  -3    6.31    1.29
  -6   6   3    3.97    0.92
  -6   6   3    4.03    0.90
  -6   6   3    2.27    0.49
   5  -6  -3   41.64    3.02
  -5   6   3   39.05    3.80
  -5   6   3   43.20    2.95
  -5   6   3   38.02    2.93
   4  -6  -3   45.65    3.07
  -4   6   3   38.10    3.06
  -4   6   3   45.28    3.13
   3  -6  -3   22.21    1.96
  -3   6   3   28.18    1.69
  -3   6   3   22.42    2.06
  -3   6   3   21.94    2.14
  -3   6   3   32.23    3.11
   2  -6  -3   -0.42    0.53
   2  -6  -3   -0.45    0.71
  -2   6   3    0.10    1.01
  -2   6   3   -1.09    0.47
  -2   6   3   -1.01    0.81
  -2   6   3    0.86    0.64
   1  -6  -3   22.16    2.15
   1  -6  -3   22.63    2.02
  -1   6   3   26.18    3.29
  -1   6   3   24.70    1.85
  -1   6   3   22.11    2.35
   0  -6  -3   81.05    6.04
   0   6   3   87.64    5.13
   0   6   3   84.89    6.17
   0   6   3   88.33    8.39
  -1  -6  -3   29.42    2.89
   1   6   3   27.40    2.95
   2   6   3    1.88    1.45
   3   6   3    7.90    2.00
 -10   7   3   -0.34    1.27
 -10   7   3   -0.24    1.44
  -9   7   3    2.37    1.30
  -9   7   3    2.36    1.17
  -8   7   3    0.68    1.02
  -8   7   3    2.52    1.13
   7  -7  -3    1.75    1.15
  -7   7   3    0.40    0.47
  -7   7   3    2.09    0.91
  -7   7   3    0.90    0.82
   6  -7  -3    7.54    1.35
  -6   7   3    6.12    1.43
  -6   7   3    6.64    1.01
  -6   7   3    5.59    1.04
   5  -7  -3   24.31    2.11
  -5   7   3   29.79    3.01
  -5   7   3   23.10    2.10
   4  -7  -3   13.00    1.49
  -4   7   3   12.48    1.42
  -4   7   3   11.51    1.04
  -4   7   3   15.96    2.36
   3  -7  -3   11.05    1.27
  -3   7   3    7.70    1.71
  -3   7   3    9.19    1.30
  -3   7   3    9.63    0.94
   2  -7  -3    9.13    1.23
  -2   7   3    9.52    1.44
  -2   7   3    9.73    1.05
  -2   7   3    9.74    1.92
   1  -7  -3   21.75    1.90
  -1   7   3   28.35    3.60
  -1   7   3   19.37    2.36
   0   7   3   40.02    4.79
   0   7   3   31.95    3.18
   1   7   3   11.49    2.03
   2   7   3   -0.02    1.40
  -9   8   3    5.54    1.58
  -8   8   3   -0.69    0.89
   7  -8  -3   -0.28    1.08
  -7   8   3   -0.26    0.73
  -7   8   3   -0.19    1.20
   6  -8  -3    9.20    1.44
  -6   8   3    8.08    1.65
  -6   8   3    5.49    1.18
   5  -8  -3   23.31    2.09
  -5   8   3   27.05    2.25
  -5   8   3   27.29    3.22
  -4   8   3    3.75    1.42
  -4   8   3    1.89    0.60
  -4   8   3    3.28    0.96
  -3   8   3    3.63    1.48
  -3   8   3    3.61    0.73
  -3   8   3    5.34    1.15
  -2   8   3    5.70    1.37
  -2   8   3    7.18    1.89
  -1   8   3   25.41    2.82
  -1   8   3   33.96    4.30
   0   8   3   17.23    2.31
  -9   9   3    0.50    1.04
  -8   9   3   -0.05    0.86
  -8   9   3    0.92    1.33
  -7   9   3   -0.25    0.77
  -7   9   3    0.19    1.31
  -6   9   3    6.78    1.74
  -5   9   3   13.90    2.29
  -4   9   3    2.03    1.05
  -4   9   3    3.45    1.51
  -3   9   3   -0.09    1.35
  -3   9   3   -0.57    0.94
  -2   9   3   11.74    2.50
  -2   9   3   10.69    1.68
  -1   9   3   16.67    2.20
  -7  10   3    1.30    1.54
  -7  10   3    0.60    0.89
  -6  10   3    2.16    1.47
  -5  10   3    5.14    1.74
  -4  10   3    1.76    1.47
  -1  10  -4    8.35    2.00
  -1  10  -4   10.23    1.71
  -2  10  -4    3.25    1.30
  -3  10  -4    9.14    1.67
  -4  10  -4   30.39    3.16
  -5  10  -4   14.27    1.65
  -6  10  -4    2.82    0.92
  -7  10  -4    2.71    1.00
   1   9  -4   12.68    2.20
   0   9  -4   26.75    2.55
   0   9  -4   26.04    3.56
  -1   9  -4    2.29    1.13
  -1   9  -4    5.11    1.51
  -2   9  -4    0.93    0.97
  -2   9  -4    0.18    1.01
  -3   9  -4   13.62    1.96
  -4   9  -4   44.31    4.12
  -5   9  -4   12.68    1.49
  -6   9  -4    2.23    0.88
  -7   9  -4    4.73    1.21
  -8   9  -4    5.64    1.56
   2   8  -4    4.81    1.59
   1   8  -4   30.82    4.07
   1   8  -4   32.91    2.96
   0   8  -4   27.87    3.52
   0   8  -4   29.36    2.60
  -1   8  -4    8.68    1.75
  -1   8  -4   10.61    1.46
  -2   8  -4    8.66    1.50
  -2   8  -4    7.13    1.22
  -3   8  -4   32.33    3.21
  -4   8  -4   59.18    5.01
  -4   8  -4   50.22    4.86
  -5   8  -4    9.05    1.40
  -6   8  -4   -0.10    0.79
  -7   8  -4    8.66    1.79
  -7   8  -4   15.14    1.52
  -8   8  -4    8.46    1.87
   3   7  -4    2.15    1.50
   2   7  -4   19.40    2.45
   1   7  -4   35.95    3.14
   1   7  -4   37.15    4.18
   0   7  -4   32.59    2.90
   0   7  -4   36.35    3.90
  -1   7  -4    9.34    1.35
  -1   7  -4    9.73    1.62
  -2   7  -4   28.23    2.27
  -2   7  -4   27.71    2.93
  -3   7  -4   65.15    6.00
  -3   7  -4   69.61    6.08
  -4   7  -4   36.66    3.98
  -4   7  -4   46.52    3.84
  -5   7  -4   22.66    2.48
  -6   7  -4    1.27    0.86
  -6   7  -4    1.69    1.08
  -7   7  -4   13.79    1.56
  -7   7  -4    7.54    1.80
  -8   7  -4   10.88    2.30
  -8   7  -4   15.78    1.80
  -9   7  -4    1.05    1.33
  -9   7  -4    0.36    1.51
   5   6  -4    7.15    2.24
   4   6  -4    0.00    1.36
  -4  -6   4    0.10    1.33
   3   6  -4    3.26    1.46
  -3  -6   4    3.06    1.36
   2   6  -4   45.48    3.75
   2   6  -4   50.05    5.03
  -2  -6   4   41.81    3.64
   1   6  -4   44.48    4.62
   1   6  -4   42.95    3.49
  -1  -6   4   41.93    3.37
   0   6  -4   23.02    2.83
   0   6  -4   23.78    2.20
   0  -6   4   23.92    2.12
  -1   6  -4    4.88    0.93
  -1   6  -4    6.26    1.09
  -1   6  -4    5.75    1.17
  -2   6  -4   51.72    4.57
  -2   6  -4   45.55    3.46
  -2   6  -4   53.57    4.66
  -2   6  -4   47.32    3.47
  -3   6  -4   86.83    5.47
  -3   6  -4   69.82    7.28
  -3   6  -4   89.05    7.21
  -3   6  -4   83.48    5.46
  -4   6  -4   54.10    3.49
  -4   6  -4   42.53    4.58
  -4   6  -4   52.48    3.45
  -5   6  -4   19.38    1.27
  -5   6  -4   24.21    1.82
  -5   6  -4   15.94    2.35
  -6   6  -4   14.86    1.58
  -6   6  -4   10.47    2.00
  -6   6  -4   12.56    1.14
  -7   6  -4    6.27    1.87
  -7   6  -4   12.86    1.56
  -8   6  -4   15.06    1.87
  -8   6  -4   12.05    2.52
  -9   6  -4    2.43    1.47
   5   5  -4    8.64    1.95
  -5  -5   4    6.18    1.67
   4   5  -4    0.60    1.30
  -4  -5   4    1.74    1.36
   3   5  -4   16.35    2.12
   3   5  -4   13.84    2.50
  -3  -5   4   14.24    2.00
   2   5  -4   65.01    6.14
   2   5  -4   63.45    4.67
  -2  -5   4   56.69    4.51
   1   5  -4   87.77    6.20
   1   5  -4  100.18    8.29
  -1  -5   4   81.94    5.69
  -1  -5   4   90.41    6.11
   0   5  -4    5.53    1.05
   0   5  -4    3.33    1.03
   0   5  -4    2.89    0.80
   0  -5   4    3.30    0.84
  -1   5  -4   47.44    4.25
  -1   5  -4   47.34    4.33
  -1   5  -4   44.71    3.24
  -1   5  -4   42.32    3.25
  -2   5  -4  102.53    8.47
  -2   5  -4   96.07    8.58
  -2   5  -4   92.68    6.37
  -2   5  -4   96.73    6.40
  -3   5  -4  203.85   16.75
  -3   5  -4  200.22   12.60
  -3   5  -4  208.09   12.62
  -3   5  -4  169.57   16.82
  -4   5  -4   10.55    1.70
  -4   5  -4   12.15    0.86
  -4   5  -4   13.78    1.52
  -4   5  -4   12.85    1.36
  -5   5  -4    7.93    1.19
  -5   5  -4    8.35    0.82
  -5   5  -4    7.11    1.57
  -5   5  -4    8.76    1.14
  -6   5  -4    7.25    1.29
  -6   5  -4    6.11    1.73
  -6   5  -4    7.51    0.89
  -7   5  -4   34.05    2.78
  -7   5  -4   22.30    3.61
  -7   5  -4   32.49    2.22
  -8   5  -4    8.04    1.69
  -8   5  -4    8.75    2.36
  -9   5  -4    0.07    1.43
   6   4  -4   11.42    2.12
  -6  -4   4   10.11    2.11
   5   4  -4    2.41    1.44
  -5  -4   4   -0.69    1.34
   4   4  -4   10.20    1.74
  -4  -4   4    6.35    1.56
   3   4  -4   20.26    2.35
   3   4  -4   18.22    2.91
  -3  -4   4   22.32    2.30
   2   4  -4   81.21    5.89
   2   4  -4   93.01    7.87
  -2  -4   4   77.85    5.80
   1   4  -4   59.91    5.11
   1   4  -4   52.17    3.88
   1   4  -4   53.02    3.50
  -1  -4   4   49.85    3.49
  -1  -4   4   51.31    3.80
   0   4  -4   55.08    3.53
   0   4  -4   59.36    5.09
   0   4  -4   54.34    3.87
   0   4  -4   52.13    3.85
   0  -4   4   53.22    3.81
  -1   4  -4   37.20    2.76
  -1   4  -4   41.46    2.25
  -1   4  -4   36.71    2.77
  -1   4  -4   35.85    3.65
  -1   4  -4   37.27    2.52
  -1   4  -4   41.46    3.57
   1  -4   4   37.14    2.70
  -2   4  -4  225.96   14.66
  -2   4  -4  238.55   19.51
  -2   4  -4  244.29   12.46
  -2   4  -4  204.30   19.62
  -2   4  -4  226.64   14.66
  -3   4  -4  210.17   20.67
  -3   4  -4  250.66   15.48
  -3   4  -4  257.27   15.49
  -3   4  -4  242.90   13.13
  -4   4  -4    6.48    1.04
  -4   4  -4    8.14    1.05
  -4   4  -4    6.22    1.40
  -4   4  -4    6.53    0.67
   4  -4   4    6.36    0.89
  -5   4  -4    0.63    0.88
  -5   4  -4    0.66    0.50
  -5   4  -4    1.43    1.16
   5  -4   4    0.32    0.79
  -6   4  -4   31.47    2.65
  -6   4  -4   22.41    3.57
  -6   4  -4   31.55    2.07
   6  -4   4   30.02    2.60
  -7   4  -4   31.20    2.25
  -7   4  -4   30.14    2.78
  -7   4  -4   23.02    3.74
  -8   4  -4    5.26    1.63
  -9   4  -4   -1.00    1.52
   7   3  -4    2.78    1.83
  -7  -3   4    4.64    1.73
   6   3  -4    7.95    1.77
  -6  -3   4    5.53    1.72
   5   3  -4    2.67    1.30
  -5  -3   4    0.39    1.25
   4   3  -4    2.93    1.19
   4   3  -4    3.38    1.33
   4   3  -4    2.39    0.76
  -4  -3   4    1.66    1.31
   3   3  -4   27.11    2.11
   3   3  -4   25.99    3.17
   3   3  -4   23.06    2.44
   3   3  -4   26.95    1.84
  -3  -3   4   23.17    2.37
   2   3  -4   99.22    8.34
   2   3  -4   91.02    5.92
   2   3  -4   85.28    6.25
   2   3  -4   92.78    5.24
  -2  -3   4   88.31    6.22
   1   3  -4   67.57    4.26
   1   3  -4   60.80    4.55
   1   3  -4   73.40    6.03
   1   3  -4   62.49    4.55
   1   3  -4   69.02    3.79
  -1  -3   4   62.28    4.24
  -1  -3   4   61.85    4.53
   0   3  -4   28.78    2.72
   0   3  -4   30.49    1.73
   0   3  -4   27.69    1.92
   0   3  -4   28.75    2.91
   0   3  -4   26.70    2.19
   0   3  -4   24.17    2.16
   0  -3   4   25.87    2.16
  -1   3  -4   93.34    4.76
  -1   3  -4   72.05    7.61
  -1   3  -4   84.47    5.66
  -1   3  -4   89.85    7.48
  -1   3  -4   81.72    5.65
   1  -3   4   88.18    5.64
   1  -3   4   86.42    5.65
  -2   3  -4  147.08    9.13
  -2   3  -4  140.96    9.12
  -2   3  -4  118.18   12.20
  -2   3  -4  149.20    7.72
   2  -3   4  144.04    9.10
  -3   3  -4  181.31   18.04
  -3   3  -4  212.24   13.46
  -3   3  -4  211.48   11.43
  -3   3  -4  223.55   13.49
   3  -3   4  210.56   13.43
  -4   3  -4   27.94    1.81
  -4   3  -4   23.60    3.23
  -4   3  -4   27.57    2.33
   4  -3   4   29.73    2.30
  -5   3  -4    0.61    0.54
  -5   3  -4    0.43    1.00
  -5   3  -4    0.35    1.14
   5  -3   4   -0.45    0.88
   5  -3   4    0.14    0.38
  -6   3  -4   53.58    6.73
  -6   3  -4   69.29    4.98
  -6   3  -4   73.74    4.12
   6  -3   4   68.65    4.95
  -7   3  -4   32.05    3.04
   7  -3   4   30.44    3.11
  -8   3  -4    4.65    1.69
   8   2  -4    1.28    1.73
  -8  -2   4    2.58    1.72
   7   2  -4   12.31    2.13
  -7  -2   4   11.62    2.10
   6   2  -4    5.88    1.59
  -6  -2   4    8.23    1.74
   5   2  -4    0.46    1.07
   5   2  -4    0.03    0.67
  -5  -2   4   -1.96    1.08
   4   2  -4   12.03    1.60
   4   2  -4   10.66    1.84
   4   2  -4    9.35    1.53
   4   2  -4   11.32    1.19
  -4  -2   4   10.06    1.59
  -4  -2   4    8.43    1.76
   3   2  -4   69.67    6.16
   3   2  -4   64.00    3.83
   3   2  -4   65.63    4.41
   3   2  -4   58.86    4.63
  -3  -2   4   68.80    6.18
  -3  -2   4   62.02    4.63
   2   2  -4   87.63    5.50
   2   2  -4   90.08    4.84
   2   2  -4   88.26    7.63
   2   2  -4   81.61    5.77
  -2  -2   4   82.58    5.75
  -2  -2   4   85.64    7.60
  -2  -2   4   74.65    7.69
   1   2  -4   83.65    4.21
   1   2  -4   73.45    5.03
   1   2  -4   71.02    5.00
   1   2  -4   75.16    4.77
   1   2  -4   74.63    6.59
   1   2  -4   71.93    5.03
  -1  -2   4   72.28    5.01
  -1  -2   4   76.64    6.58
  -1  -2   4   64.17    6.65
  -1  -2   4   75.60    4.78
   0   2  -4    2.62    0.87
   0   2  -4    4.45    0.53
   0   2  -4    4.65    0.72
   0   2  -4    3.39    0.70
   0   2  -4    4.19    0.78
   0   2  -4    3.85    0.68
   0  -2   4    3.27    0.47
   0  -2   4    3.35    0.70
   0  -2   4    3.21    0.91
   0  -2   4    3.43    0.63
   0  -2   4    3.72    0.76
  -1   2  -4  281.55   18.54
  -1   2  -4  267.65   24.84
  -1   2  -4  296.83   24.70
  -1   2  -4  282.76   18.55
  -1   2  -4  308.75   15.80
   1  -2   4  292.11   18.55
   1  -2   4  284.92   18.54
   1  -2   4  301.45   15.76
   1  -2   4  283.48   24.81
   1  -2   4  292.17   24.66
  -2   2  -4  278.99   17.21
  -2   2  -4  232.01   23.01
  -2   2  -4  269.03   17.20
  -2   2  -4  279.55   14.63
   2  -2   4  274.41   14.58
   2  -2   4  267.93   17.19
  -3   2  -4   40.65    2.83
  -3   2  -4   34.25    4.20
  -3   2  -4   44.18    3.14
  -3   2  -4   40.06    2.48
   3  -2   4   42.69    2.40
   3  -2   4   43.15    3.08
  -4   2  -4   11.13    1.07
  -4   2  -4   13.52    1.52
  -4   2  -4    7.84    1.91
   4  -2   4   10.57    1.43
   4  -2   4   10.96    0.91
  -5   2  -4   13.07    2.61
  -5   2  -4   13.77    1.44
  -5   2  -4   17.38    2.03
   5  -2   4   14.83    1.20
   5  -2   4   18.16    1.96
  -6   2  -4   50.10    6.14
  -6   2  -4   58.85    3.60
  -6   2  -4   57.63    4.40
   6  -2   4   59.84    4.39
   6  -2   4   51.49    3.34
  -7   2  -4   29.73    3.10
   7  -2   4   30.79    3.19
   7  -2   4   31.66    2.16
  -8   2  -4    4.17    1.69
   8   1  -4    2.46    1.68
  -8  -1   4    0.98    1.55
   7   1  -4    6.60    1.70
  -7  -1   4    7.83    1.71
   6   1  -4    5.69    1.53
   6   1  -4    6.00    0.96
  -6  -1   4    5.81    1.47
   5   1  -4   -0.40    0.91
   5   1  -4    0.63    0.99
   5   1  -4    1.44    1.05
   5   1  -4    0.07    0.60
  -5  -1   4    0.28    1.06
   4   1  -4    9.71    1.01
   4   1  -4    8.60    1.57
   4   1  -4   10.10    1.41
   4   1  -4    7.84    1.36
  -4  -1   4   11.21    1.52
   3   1  -4  183.29   10.22
   3   1  -4  186.65   12.08
   3   1  -4  187.40   16.05
   3   1  -4  183.01   11.67
  -3  -1   4  181.29   12.06
   2   1  -4   78.06    5.07
   2   1  -4   82.44    5.30
   2   1  -4   75.41    6.92
   2   1  -4   82.05    4.42
  -2  -1   4   67.90    7.06
  -2  -1   4   82.37    5.30
  -2  -1   4   77.87    6.95
  -2  -1   4   75.37    4.39
   1   1  -4   53.05    4.88
   1   1  -4   51.42    3.62
   1   1  -4   51.74    3.64
   1   1  -4   55.03    4.75
   1   1  -4   51.67    3.45
   1   1  -4   55.78    3.01
  -1  -1   4   46.20    4.86
  -1  -1   4   47.91    3.45
  -1  -1   4   54.29    4.71
  -1  -1   4   51.86    3.63
  -1  -1   4   51.89    3.61
  -1  -1   4   55.78    3.00
   0   1  -4  136.83    7.21
   0   1  -4  130.19    8.50
   0   1  -4  131.94    8.50
   0   1  -4  138.55   11.29
   0   1  -4  110.70   11.40
   0  -1   4  123.92    8.48
   0  -1   4  124.48   11.46
   0  -1   4  135.79    8.52
   0  -1   4  137.44    7.20
   0  -1   4  132.73   11.26
  -1   1  -4  571.72   37.05
  -1   1  -4  551.36   49.54
  -1   1  -4  590.34   37.06
  -1   1  -4  615.04   31.60
   1  -1   4  601.91   37.06
   1  -1   4  596.91   31.59
   1  -1   4  596.13   49.36
   1  -1   4  520.88   49.48
  -2   1  -4  193.50   12.04
  -2   1  -4  186.29   10.19
  -2   1  -4  188.34   11.78
  -2   1  -4  166.25   16.14
   2  -1   4  194.59   10.18
   2  -1   4  192.92   12.03
   2  -1   4  167.23   16.11
  -3   1  -4   24.48    1.62
  -3   1  -4   16.67    2.90
  -3   1  -4   23.10    2.21
   3  -1   4   25.17    1.57
   3  -1   4   23.45    2.21
  -4   1  -4    5.05    1.72
  -4   1  -4    4.64    0.78
  -4   1  -4    6.37    1.35
   4  -1   4    6.09    1.24
   4  -1   4    6.10    0.81
  -5   1  -4   63.92    4.61
  -5   1  -4   58.69    3.69
  -5   1  -4   52.50    6.33
   5  -1   4   59.73    4.12
   5  -1   4   56.98    3.58
   5  -1   4   61.87    4.57
  -6   1  -4   57.22    4.60
   6  -1   4   62.75    4.63
   6  -1   4   55.18    4.07
   6  -1   4   55.23    3.55
  -7   1  -4    4.90    1.75
   7  -1   4    8.34    1.94
  -8   1  -4   -0.44    1.59
   8  -1   4    1.20    1.72
   9   0  -4    0.11    1.62
   9   0  -4    0.58    1.57
  -9   0   4    0.16    1.51
   8   0  -4    9.74    1.82
   8   0  -4    3.02    1.61
  -8   0   4    4.22    1.58
   7   0  -4   10.13    1.79
   7   0  -4    8.52    1.12
  -7   0   4    7.18    1.61
   6   0  -4    0.67    0.62
   6   0  -4    2.14    1.23
  -6   0   4    1.54    1.14
  -6   0   4    1.31    1.26
   5   0  -4    0.41    0.56
   5   0  -4    0.13    0.88
   5   0  -4    1.32    1.05
   5   0  -4   -0.06    0.71
  -5   0   4   -0.23    0.95
  -5   0   4   -0.60    0.85
   4   0  -4   32.92    2.53
   4   0  -4   31.95    2.63
   4   0  -4   32.27    2.04
   4   0  -4   32.02    3.28
  -4   0   4   29.73    3.35
  -4   0   4   34.28    2.68
   3   0  -4  157.51   10.12
   3   0  -4  165.13   13.85
   3   0  -4  162.91    8.83
   3   0  -4  159.65   10.44
  -3   0   4  159.07   10.44
  -3   0   4  152.52   13.84
   2   0  -4  116.11    7.71
   2   0  -4  112.98    7.46
   2   0  -4  126.46    7.73
   2   0  -4  114.91    6.51
   2   0  -4  115.08   10.20
  -2   0   4  114.87   10.34
  -2   0   4  121.85    7.72
  -2   0   4  116.63    7.71
   1   0  -4   47.48    3.03
   1   0  -4   43.01    3.15
   1   0  -4   47.96    2.59
   1   0  -4   42.07    3.10
   1   0  -4   42.30    4.06
  -1   0   4   40.55    3.10
  -1   0   4   47.48    3.16
  -1   0   4   44.88    2.57
   0   0  -4   95.77    6.54
   0   0  -4  101.45    5.52
   0   0  -4   98.64    6.54
   0   0   4   98.74    6.56
   0   0   4   95.34    6.52
   0   0   4  102.89    5.53
  -1   0  -4  463.25   25.32
  -1   0  -4  456.80   29.73
   1   0   4  469.75   25.33
   1   0   4  464.01   39.75
   1   0   4  467.97   29.73
  -2   0  -4   92.43    5.24
  -2   0  -4   96.67    6.32
   2   0   4   84.19    8.50
   2   0   4   92.24    5.23
   2   0   4   94.19    6.31
  -3   0  -4   14.50    1.73
  -3   0  -4   13.82    1.18
  -3   0  -4   11.97    2.20
   3   0   4   11.45    2.06
   3   0   4   12.46    1.05
   3   0   4   11.18    1.18
   3   0   4   12.98    1.69
  -4   0  -4   44.62    3.43
  -4   0  -4   35.33    4.53
   4   0   4   37.60    2.57
   4   0   4   41.76    3.36
   4   0   4   38.50    2.78
  -5   0  -4   83.49    5.99
   5   0   4   81.13    5.92
   5   0   4   77.22    5.41
   5   0   4   79.37    4.80
  -6   0  -4   31.91    3.24
   6   0   4   29.02    3.14
   6   0   4   31.35    2.38
  -7   0  -4    3.48    1.77
   7   0   4    2.15    1.68
   9  -1  -4   -0.86    1.46
   9  -1  -4   -2.53    1.26
  -9   1   4    0.69    1.49
   8  -1  -4    5.95    1.75
   8  -1  -4    5.69    1.59
  -8   1   4    8.22    1.64
   7  -1  -4    6.37    0.91
   7  -1  -4    5.99    1.58
   7  -1  -4    6.80    0.93
   7  -1  -4   10.34    1.63
  -7   1   4    6.67    1.44
   6  -1  -4    0.10    0.94
   6  -1  -4   -0.06    1.06
   6  -1  -4   -0.72    0.50
   6  -1  -4   -1.88    0.98
  -6   1   4   -2.00    0.91
  -6   1   4   -1.36    0.85
   5  -1  -4    0.64    0.94
   5  -1  -4    1.14    0.95
   5  -1  -4    2.13    0.94
   5  -1  -4    0.99    0.50
  -5   1   4    0.79    0.54
  -5   1   4    0.61    0.86
  -5   1   4    0.67    0.89
   4  -1  -4   95.31    5.99
   4  -1  -4  100.46    6.14
   4  -1  -4   90.78    6.12
   4  -1  -4   90.45    5.06
  -4   1   4   81.44    8.01
  -4   1   4   81.91    5.07
  -4   1   4   91.77    6.10
   3  -1  -4  193.71   10.97
   3  -1  -4  193.13   17.17
   3  -1  -4  205.67   12.96
   3  -1  -4  200.97   12.96
   3  -1  -4  202.51   12.59
  -3   1   4  219.44   12.99
  -3   1   4  187.59   17.18
  -3   1   4  202.93   12.95
  -3   1   4  194.78   10.99
   2  -1  -4   15.08    1.29
   2  -1  -4   14.67    0.98
   2  -1  -4   13.51    1.28
   2  -1  -4   12.70    1.43
   2  -1  -4   12.24    1.39
  -2   1   4   14.37    1.00
  -2   1   4   12.13    1.64
  -2   1   4   13.99    1.43
  -2   1   4   12.61    1.42
   1  -1  -4   15.13    1.53
   1  -1  -4   15.52    1.09
   1  -1  -4   14.24    1.17
   1  -1  -4   14.15    2.06
   1  -1  -4   15.67    1.50
   1  -1  -4   18.17    1.48
  -1   1   4   14.19    1.45
  -1   1   4   17.17    2.21
  -1   1   4   14.45    1.53
   0  -1  -4  246.58   14.31
   0  -1  -4  246.66   16.84
   0  -1  -4  300.33   22.69
   0   1   4  254.78   16.87
   0   1   4  240.14   16.82
   0   1   4  284.07   22.60
  -1  -1  -4  116.39    6.84
  -1  -1  -4  120.85    8.16
  -1  -1  -4  131.94   11.08
   1   1   4  117.26    6.86
   1   1   4  126.06   11.02
   1   1   4  123.07    8.18
  -2  -1  -4  127.04   12.31
  -2  -1  -4  136.14    9.14
  -2  -1  -4  130.96    7.63
   2   1   4  150.39   12.38
   2   1   4  133.64    7.66
   2   1   4  139.51    9.15
  -3  -1  -4   -0.50    1.01
   3   1   4   -0.12    0.99
   3   1   4   -0.66    1.02
   3   1   4   -0.70    0.59
   3   1   4   -0.08    0.57
  -4  -1  -4   49.27    4.03
   4   1   4   50.14    3.98
   4   1   4   49.41    3.12
   4   1   4   45.21    3.37
  -5  -1  -4   51.17    4.28
   5   1   4   46.94    3.53
   5   1   4   51.55    4.21
  -6  -1  -4   19.08    2.80
   6   1   4   18.63    2.66
  -7  -1  -4    2.92    1.91
   7   1   4    0.56    1.74
  10  -2  -4   -0.43    1.43
   9  -2  -4    4.99    1.61
   9  -2  -4    2.14    1.49
  -9   2   4    3.05    1.44
   8  -2  -4    2.53    1.36
   8  -2  -4    4.71    1.42
   8  -2  -4    4.14    0.72
  -8   2   4    2.00    1.28
   7  -2  -4    3.61    1.30
   7  -2  -4    2.16    0.58
   7  -2  -4    2.93    1.28
   7  -2  -4    1.05    0.61
   7  -2  -4    1.97    1.25
  -7   2   4    2.04    1.20
  -7   2   4    1.43    1.22
   6  -2  -4   -0.58    0.94
   6  -2  -4   -1.25    0.46
   6  -2  -4   -0.13    0.90
   6  -2  -4   -0.72    0.44
   6  -2  -4    0.74    1.07
  -6   2   4   -0.80    0.92
  -6   2   4    0.51    0.87
  -6   2   4   -1.49    0.47
   5  -2  -4   33.83    2.65
   5  -2  -4   37.73    2.69
   5  -2  -4   32.72    1.99
   5  -2  -4   34.06    2.76
  -5   2   4   30.77    3.37
  -5   2   4   30.01    2.06
  -5   2   4   35.95    2.69
   4  -2  -4   76.93    5.04
   4  -2  -4   72.37    4.06
   4  -2  -4   76.27    4.93
   4  -2  -4   69.21    4.85
  -4   2   4   66.76    6.45
  -4   2   4   68.18    4.10
  -4   2   4   76.39    5.01
  -4   2   4   73.36    4.95
   3  -2  -4  131.14    8.64
   3  -2  -4  135.62    8.66
   3  -2  -4  126.18    8.44
   3  -2  -4  136.46    7.29
   3  -2  -4  139.57    8.70
  -3   2   4  130.76    8.67
  -3   2   4  133.21   11.65
  -3   2   4  125.23   11.47
  -3   2   4  130.01    7.33
  -3   2   4  135.88    8.68
   2  -2  -4    0.99    0.61
   2  -2  -4    1.04    0.63
   2  -2  -4    0.35    0.84
   2  -2  -4    0.78    0.77
   2  -2  -4    1.01    0.35
  -2   2   4    0.96    0.90
  -2   2   4   -0.24    0.42
  -2   2   4    1.46    0.58
  -2   2   4    0.40    0.67
  -2   2   4    0.31    0.69
   1  -2  -4   15.38    1.16
   1  -2  -4   18.35    2.37
   1  -2  -4   17.64    1.56
   1  -2  -4   17.22    1.68
  -1   2   4   15.39    1.65
  -1   2   4   16.30    1.33
  -1   2   4   16.06    1.72
  -1   2   4   20.76    2.48
  -1   2   4   15.38    1.20
   0  -2  -4  257.60   17.90
   0  -2  -4  260.92   15.20
   0  -2  -4  320.98   24.13
   0   2   4  261.42   15.23
   0   2   4  303.80   24.05
   0   2   4  265.11   17.93
  -1  -2  -4  181.72   14.61
  -1  -2  -4  153.28   10.74
   1   2   4  158.16   14.43
   1   2   4  160.11   10.79
  -2  -2  -4   32.66    3.93
  -2  -2  -4   35.29    3.01
   2   2   4   32.51    2.27
   2   2   4   38.78    4.19
   2   2   4   31.00    2.92
  -3  -2  -4   24.46    2.56
   3   2   4   22.82    2.48
   3   2   4   17.51    1.68
  -4  -2  -4   25.77    2.91
   4   2   4   26.41    2.87
  -5  -2  -4   41.21    4.01
   5   2   4   45.00    4.01
  -6  -2  -4    8.77    2.25
   6   2   4    8.31    2.12
  10  -3  -4   -0.74    1.44
 -10   3   4    0.37    1.47
   9  -3  -4    1.94    1.44
  -9   3   4    0.70    1.35
   8  -3  -4    3.07    1.27
   8  -3  -4    2.54    1.41
  -8   3   4    2.89    1.42
  -8   3   4    1.88    1.22
   7  -3  -4    0.23    1.01
   7  -3  -4    0.31    1.01
   7  -3  -4   -0.34    1.01
  -7   3   4   -0.34    1.04
  -7   3   4    0.58    0.61
  -7   3   4   -0.83    0.88
   6  -3  -4    0.41    0.92
   6  -3  -4    0.87    0.96
   6  -3  -4    1.91    0.97
  -6   3   4    0.35    0.95
  -6   3   4   -0.18    0.50
  -6   3   4    0.36    0.84
   5  -3  -4   55.19    4.03
   5  -3  -4   52.26    3.90
   5  -3  -4   58.37    3.86
  -5   3   4   52.56    3.19
  -5   3   4   60.73    3.94
  -5   3   4   50.26    5.02
   4  -3  -4   64.20    4.34
   4  -3  -4   61.47    4.20
   4  -3  -4   63.64    4.22
  -4   3   4   59.35    3.52
  -4   3   4   66.60    4.30
  -4   3   4   56.99    5.53
  -4   3   4   60.32    4.26
   3  -3  -4   14.19    1.39
   3  -3  -4   13.27    1.34
   3  -3  -4   15.77    1.44
  -3   3   4   14.65    1.04
  -3   3   4   14.47    1.49
  -3   3   4   13.45    1.50
  -3   3   4   12.99    1.78
  -3   3   4   14.33    2.02
   2  -3  -4   35.72    2.83
   2  -3  -4   40.57    2.81
  -2   3   4   34.17    2.84
  -2   3   4   37.77    2.78
  -2   3   4   40.74    2.36
  -2   3   4   46.53    4.04
  -2   3   4   39.33    2.91
   1  -3  -4   51.31    3.88
  -1   3   4   55.20    3.23
  -1   3   4   55.75    3.73
  -1   3   4   47.57    3.84
  -1   3   4   54.64    3.93
  -1   3   4   66.70    5.41
   0  -3  -4  102.79    7.18
   0   3   4   98.11    7.20
   0   3   4  105.16    6.06
   0   3   4  121.98    9.80
  -1  -3  -4   99.71    6.96
   1   3   4  105.41    9.39
   1   3   4   99.80    7.00
   1   3   4   99.37    5.83
  -2  -3  -4   22.66    2.42
   2   3   4   17.79    2.88
   2   3   4   17.86    2.22
  -3  -3  -4   32.71    3.16
   3   3   4   30.36    3.11
  -4  -3  -4   32.59    3.35
   4   3   4   30.57    3.27
  -5  -3  -4   28.69    3.42
   5   3   4   28.28    3.23
  10  -4  -4    0.76    1.47
 -10   4   4   -0.26    1.38
   9  -4  -4    3.13    1.53
  -9   4   4    6.01    1.45
   8  -4  -4    3.23    1.46
   8  -4  -4    3.27    1.41
  -8   4   4    4.73    1.32
  -8   4   4    4.18    1.43
   7  -4  -4   -0.12    1.05
   7  -4  -4   -1.79    0.81
   7  -4  -4   -0.43    1.06
  -7   4   4    0.88    1.03
  -7   4   4   -0.80    0.51
  -7   4   4   -0.12    0.90
   6  -4  -4    9.82    1.22
   6  -4  -4    8.34    1.45
   6  -4  -4    8.42    1.54
  -6   4   4    9.17    1.27
  -6   4   4    8.28    0.88
  -6   4   4    8.86    1.50
   5  -4  -4   38.21    2.68
   5  -4  -4   35.67    2.94
   5  -4  -4   38.12    2.84
  -5   4   4   41.54    2.92
  -5   4   4   39.56    2.80
  -5   4   4   33.86    2.20
  -5   4   4   32.54    3.49
   4  -4  -4   85.80    5.50
   4  -4  -4   86.64    5.53
  -4   4   4   83.04    4.66
  -4   4   4   82.08    5.57
  -4   4   4   77.23    7.32
  -4   4   4   82.18    5.59
   3  -4  -4    0.06    0.78
   3  -4  -4   -0.01    0.49
  -3   4   4   -0.33    0.82
  -3   4   4   -0.37    0.66
  -3   4   4    0.42    0.42
  -3   4   4    0.53    0.52
   2  -4  -4   26.30    2.19
   2  -4  -4   28.40    2.17
  -2   4   4   33.90    3.26
  -2   4   4   23.48    2.18
  -2   4   4   27.86    2.30
  -2   4   4   26.39    1.79
   1  -4  -4   66.55    4.74
  -1   4   4   64.00    4.78
  -1   4   4   73.81    6.49
  -1   4   4   67.62    3.98
   0  -4  -4  107.68    7.65
   0   4   4  113.14    6.46
   0   4   4  105.71    7.69
   0   4   4  126.37   10.44
  -1  -4  -4   28.11    2.80
   1   4   4   30.56    2.16
   1   4   4   32.04    3.97
   1   4   4   27.69    2.76
  -2  -4  -4   21.13    2.54
   2   4   4   18.67    2.41
  -3  -4  -4   17.69    2.53
   3   4   4   16.90    2.43
  -4  -4  -4   27.66    3.24
   4   4   4   25.00    3.22
  10  -5  -4   -0.01    1.47
 -10   5   4    0.36    1.46
   9  -5  -4    5.67    1.73
  -9   5   4    3.33    1.50
  -9   5   4    2.43    1.24
   8  -5  -4    3.78    1.47
   8  -5  -4    4.93    1.55
  -8   5   4    3.72    1.22
  -8   5   4    1.06    1.10
  -8   5   4    2.67    0.70
   7  -5  -4    2.07    1.17
   7  -5  -4    3.20    1.26
  -7   5   4    1.06    0.91
  -7   5   4    2.09    1.05
  -7   5   4    0.19    0.52
   6  -5  -4   12.17    1.61
  -6   5   4   10.09    1.51
  -6   5   4   10.14    1.30
  -6   5   4    9.44    0.89
   5  -5  -4   56.40    3.91
  -5   5   4   50.10    5.03
  -5   5   4   60.14    3.90
  -5   5   4   50.88    3.17
  -5   5   4   59.22    3.95
   4  -5  -4   26.56    2.11
  -4   5   4   23.08    2.10
  -4   5   4   24.80    1.59
  -4   5   4   22.40    2.09
  -4   5   4   27.67    2.90
   3  -5  -4   -0.15    0.51
   3  -5  -4    0.56    0.80
  -3   5   4   -0.04    0.54
  -3   5   4    0.08    0.94
  -3   5   4   -0.05    0.41
  -3   5   4    0.31    0.77
   2  -5  -4   11.36    1.38
   2  -5  -4    7.84    1.11
  -2   5   4    9.67    1.72
  -2   5   4    8.91    1.28
  -2   5   4   10.21    0.96
   1  -5  -4   73.66    5.16
   1  -5  -4   72.09    5.32
  -1   5   4   77.58    4.50
  -1   5   4   71.58    5.41
  -1   5   4   87.69    7.43
   0  -5  -4   93.12    6.74
   0   5   4   94.85    5.68
   0   5   4   91.33    6.77
   0   5   4  108.57    9.22
  -1  -5  -4   21.68    2.38
   1   5   4   16.96    2.27
  -2  -5  -4    2.56    1.32
   2   5   4    2.30    1.37
  -3  -5  -4   19.66    2.66
   3   5   4   15.04    2.40
 -10   6   4    1.06    1.35
 -10   6   4    0.97    1.43
  -9   6   4    1.19    1.27
  -9   6   4    1.68    1.22
   8  -6  -4    1.49    1.27
  -8   6   4    0.02    0.99
  -8   6   4    0.57    1.05
  -8   6   4    1.25    0.61
   7  -6  -4    4.66    1.38
  -7   6   4    2.39    1.03
  -7   6   4    3.53    0.64
  -7   6   4    3.76    1.06
   6  -6  -4   12.26    1.62
  -6   6   4    7.30    1.31
  -6   6   4    9.58    1.22
  -6   6   4    7.49    0.79
  -6   6   4    8.69    1.74
   5  -6  -4   19.13    1.85
  -5   6   4   18.53    2.26
  -5   6   4   17.32    1.30
  -5   6   4   20.63    1.87
  -5   6   4   22.91    2.65
   4  -6  -4   17.33    1.85
  -4   6   4   21.94    1.49
  -4   6   4   26.14    2.85
  -4   6   4   20.04    1.99
   3  -6  -4    1.29    0.91
  -3   6   4   -0.60    0.85
  -3   6   4    1.03    0.52
  -3   6   4    0.11    1.06
   2  -6  -4   10.34    1.31
   2  -6  -4   13.03    1.58
  -2   6   4   13.28    1.61
  -2   6   4   12.80    2.18
  -2   6   4   12.90    1.20
   1  -6  -4   62.33    4.80
   1  -6  -4   63.81    4.64
  -1   6   4   69.13    4.10
  -1   6   4   78.66    6.85
  -1   6   4   61.46    4.89
   0  -6  -4   33.03    3.05
   0   6   4   31.42    3.07
   0   6   4   36.81    4.45
  -1  -6  -4    9.40    1.72
   1   6   4   10.23    1.82
   2   6   4    0.44    1.34
 -10   7   4    2.96    1.58
 -10   7   4    1.81    1.36
  -9   7   4    0.95    1.14
  -9   7   4    1.45    1.18
   8  -7  -4   -2.16    1.20
  -8   7   4   -0.28    0.92
  -8   7   4   -0.50    0.98
   7  -7  -4    0.72    1.09
  -7   7   4    0.63    0.55
  -7   7   4    0.54    0.96
  -7   7   4    0.85    0.87
  -7   7   4    0.40    1.35
   6  -7  -4   11.04    1.56
  -6   7   4   14.20    1.51
  -6   7   4    8.89    1.78
  -6   7   4    8.81    1.41
  -6   7   4    7.08    0.85
   5  -7  -4    6.73    1.26
  -5   7   4    7.04    1.12
  -5   7   4    5.23    0.71
  -5   7   4    5.67    1.63
   4  -7  -4   10.33    1.43
  -4   7   4    9.02    1.34
  -4   7   4    9.93    1.95
  -4   7   4    9.42    0.95
   3  -7  -4    7.37    1.25
  -3   7   4    7.93    1.77
  -3   7   4    6.75    0.89
  -3   7   4    6.56    1.27
   2  -7  -4   11.68    1.43
  -2   7   4    9.08    2.05
  -2   7   4   10.94    1.20
  -2   7   4    9.57    1.53
   1  -7  -4   30.94    2.62
  -1   7   4   31.60    3.07
  -1   7   4   40.45    4.54
   0   7   4   13.58    2.03
   1   7   4    1.95    1.43
  -9   8   4    2.08    1.20
   8  -8  -4    1.04    1.24
  -8   8   4   -2.06    1.33
  -8   8   4    0.60    0.92
  -8   8   4   -0.33    0.99
   7  -8  -4   -0.85    1.09
  -7   8   4    0.53    0.95
  -7   8   4    1.00    1.39
  -7   8   4   -0.11    0.88
   6  -8  -4   15.59    1.97
  -6   8   4   19.71    1.87
  -6   8   4   19.80    2.93
  -6   8   4   15.12    2.25
   5  -8  -4    9.10    1.44
  -5   8   4    8.00    1.26
  -5   8   4    8.07    2.01
  -4   8   4   -0.55    0.61
  -4   8   4    0.04    0.95
  -4   8   4    1.10    1.34
  -3   8   4    4.00    1.23
  -3   8   4    3.46    1.65
  -2   8   4   16.11    1.96
  -2   8   4   15.78    2.70
  -1   8   4   21.38    2.55
   0   8   4    3.62    1.59
  -8   9   4   -0.49    0.93
  -8   9   4   -0.45    1.40
  -7   9   4    0.72    1.01
  -7   9   4    2.96    1.75
  -6   9   4   12.30    2.38
  -5   9   4    6.47    1.29
  -5   9   4    4.31    1.77
  -4   9   4    0.56    1.35
  -4   9   4    0.54    1.04
  -3   9   4    1.39    1.51
  -3   9   4    4.44    1.31
  -2   9   4   20.77    2.37
  -6  10   4    5.21    1.83
  -5  10   4    3.75    1.77
  -1  10  -5    0.84    1.38
  -1  10  -5    2.24    1.21
  -2  10  -5    2.46    1.32
  -3  10  -5   31.90    3.51
  -4  10  -5   17.46    2.12
  -5  10  -5    6.91    1.22
  -6  10  -5    3.26    1.13
  -7  10  -5    3.11    1.25
   1   9  -5   15.93    2.25
   0   9  -5    5.43    1.74
   0   9  -5    5.87    1.54
  -1   9  -5    0.54    1.17
  -1   9  -5   -0.05    1.12
  -2   9  -5   10.42    1.85
  -2   9  -5   12.22    1.56
  -3   9  -5   43.60    4.18
  -3   9  -5   42.12    3.15
  -4   9  -5   33.60    3.29
  -5   9  -5    1.62    0.99
  -5   9  -5    1.89    0.84
  -6   9  -5    7.58    1.53
  -7   9  -5   12.24    1.99
  -8   9  -5    7.65    1.78
   2   8  -5    7.13    1.76
   1   8  -5   24.49    2.48
   1   8  -5   21.49    3.40
   0   8  -5    4.08    1.52
   0   8  -5    7.60    1.49
  -1   8  -5    4.38    1.32
  -1   8  -5    6.73    1.54
  -2   8  -5   23.03    2.05
  -2   8  -5   22.85    2.72
  -3   8  -5   59.02    4.41
  -3   8  -5   73.37    6.05
  -3   8  -5   61.02    5.82
  -4   8  -5   27.83    2.81
  -4   8  -5   29.72    3.07
  -5   8  -5    0.94    0.96
  -6   8  -5    7.45    1.48
  -6   8  -5    6.09    0.97
  -7   8  -5   15.09    2.31
  -8   8  -5    6.29    1.23
  -8   8  -5    9.25    2.15
   3   7  -5    3.63    1.63
   2   7  -5   23.78    2.59
   1   7  -5   19.21    2.30
   1   7  -5   17.71    2.74
   0   7  -5   18.57    2.63
   0   7  -5   15.53    1.96
  -1   7  -5   16.70    2.25
  -1   7  -5   14.21    1.74
  -2   7  -5   68.14    4.84
  -2   7  -5   71.43    6.39
  -3   7  -5   82.23    4.63
  -3   7  -5   83.45    5.57
  -3   7  -5   86.74    7.45
  -3   7  -5   77.32    7.28
  -4   7  -5   51.71    4.65
  -4   7  -5   44.18    4.81
  -4   7  -5   55.87    3.59
  -5   7  -5    1.83    0.86
  -5   7  -5    1.91    1.01
  -6   7  -5    7.62    1.74
  -6   7  -5   13.26    1.41
  -7   7  -5   24.05    2.21
  -7   7  -5   19.26    2.90
  -8   7  -5    4.80    1.91
  -8   7  -5    7.27    1.52
   5   6  -5    2.66    1.68
   4   6  -5   -0.42    1.32
  -4  -6   5    0.36    1.36
   3   6  -5   19.48    2.56
  -3  -6   5   21.03    2.49
   2   6  -5   29.34    2.92
   2   6  -5   33.88    3.95
  -2  -6   5   28.87    2.79
   1   6  -5   26.28    2.55
   1   6  -5   30.77    3.43
  -1  -6   5   24.80    2.44
   0   6  -5    4.04    1.21
   0   6  -5    4.34    1.15
   0  -6   5    1.98    0.87
  -1   6  -5   45.19    3.42
  -1   6  -5   42.60    3.41
  -1   6  -5   50.60    4.51
  -2   6  -5  157.89    8.41
  -2   6  -5  152.64    9.94
  -2   6  -5  138.59    9.91
  -2   6  -5  150.64   13.18
  -2   6  -5  159.82   13.30
  -3   6  -5   68.00    5.96
  -3   6  -5   69.51    4.56
  -3   6  -5   68.56    3.77
  -3   6  -5   60.88    6.14
  -3   6  -5   66.41    4.58
  -4   6  -5   32.22    1.84
  -4   6  -5   24.17    3.15
  -4   6  -5   32.73    2.39
  -5   6  -5    9.31    0.86
  -5   6  -5   10.21    1.31
  -5   6  -5    9.20    1.74
  -6   6  -5   21.93    2.06
  -6   6  -5   20.88    1.57
  -6   6  -5   17.03    2.76
  -7   6  -5   29.99    3.96
  -7   6  -5   38.15    2.96
  -8   6  -5    3.32    1.93
  -8   6  -5    5.66    1.56
   5   5  -5    0.51    1.42
  -5  -5   5   -1.16    1.37
   4   5  -5    2.14    1.42
  -4  -5   5    2.65    1.44
   3   5  -5   20.71    1.74
   3   5  -5   21.25    2.47
   3   5  -5   20.83    3.19
  -3  -5   5   21.07    2.36
   2   5  -5   36.24    3.36
   2   5  -5   46.71    4.52
   2   5  -5   43.21    2.70
  -2  -5   5   37.67    3.30
   1   5  -5   17.72    2.45
   1   5  -5   16.30    1.35
   1   5  -5   16.78    1.33
   1   5  -5   15.98    1.91
  -1  -5   5   15.08    1.77
   0   5  -5   12.14    1.04
   0   5  -5   15.79    1.62
   0   5  -5   13.26    1.82
   0   5  -5   10.50    1.01
   0  -5   5   13.22    1.39
  -1   5  -5   86.98    7.41
  -1   5  -5   83.22    7.50
  -1   5  -5   90.27    4.72
  -1   5  -5   80.83    5.62
  -1   5  -5   80.73    5.25
  -1   5  -5   79.94    5.61
   1  -5   5   78.99    5.51
  -2   5  -5  204.53   17.07
  -2   5  -5  197.35   12.83
  -2   5  -5  212.81   10.90
  -2   5  -5  195.30   12.84
  -2   5  -5  180.79   17.20
  -3   5  -5   36.66    3.49
  -3   5  -5   34.09    3.76
  -3   5  -5   35.59    2.16
  -3   5  -5   36.29    2.73
  -3   5  -5   42.00    2.78
  -4   5  -5    0.53    0.79
  -4   5  -5   -0.08    0.76
  -4   5  -5    1.29    0.97
  -4   5  -5    1.58    0.46
  -5   5  -5   36.97    2.24
  -5   5  -5   31.39    3.89
  -5   5  -5   37.65    2.86
  -6   5  -5   51.32    2.98
  -6   5  -5   49.50    3.65
  -6   5  -5   38.81    4.94
  -7   5  -5   35.79    2.46
  -7   5  -5   29.91    4.21
  -7   5  -5   35.07    3.06
  -8   5  -5    1.69    1.49
   6   4  -5    5.23    1.72
  -6  -4   5    2.31    1.53
   5   4  -5   -1.24    1.17
  -5  -4   5   -2.50    1.21
   4   4  -5    7.99    1.63
  -4  -4   5    5.74    1.49
   3   4  -5   31.19    2.14
   3   4  -5   32.34    3.68
   3   4  -5   29.61    2.81
  -3  -4   5   26.12    2.69
   2   4  -5   78.84    5.47
   2   4  -5   90.68    7.81
   2   4  -5   87.87    4.89
   2   4  -5   81.75    5.86
  -2  -4   5   78.73    5.81
   1   4  -5    6.97    0.93
   1   4  -5    7.56    0.85
   1   4  -5    8.40    1.23
   1   4  -5    7.41    1.39
  -1  -4   5    6.74    1.14
   0   4  -5   60.07    5.59
   0   4  -5   58.48    3.88
   0   4  -5   59.29    4.19
   0   4  -5   57.08    4.18
   0   4  -5   58.59    4.18
   0   4  -5   62.67    3.47
   0   4  -5   62.00    5.47
   0  -4   5   57.98    4.13
  -1   4  -5   70.55    7.41
  -1   4  -5   78.03    5.53
  -1   4  -5   83.32    5.29
  -1   4  -5   83.57    5.56
  -1   4  -5   90.30    4.66
  -1   4  -5   87.31    7.32
   1  -4   5   83.51    5.49
  -2   4  -5  226.33   19.16
  -2   4  -5  219.56   14.41
  -2   4  -5  223.34   14.41
  -2   4  -5  240.60   12.25
  -2   4  -5  203.82   19.31
   2  -4   5  224.77   14.36
  -3   4  -5   15.23    1.62
  -3   4  -5   12.11    2.05
  -3   4  -5   14.49    1.53
  -3   4  -5   15.23    1.05
   3  -4   5   15.15    1.41
  -4   4  -5    1.11    1.14
  -4   4  -5    1.74    0.52
  -4   4  -5    1.66    0.86
   4  -4   5    2.05    0.78
  -5   4  -5   33.13    2.20
  -5   4  -5   30.21    3.88
  -5   4  -5   35.60    2.85
   5  -4   5   34.22    2.71
  -6   4  -5   90.80    6.16
  -6   4  -5   88.99    5.12
  -6   4  -5   74.28    8.42
   6  -4   5   90.50    6.10
  -7   4  -5    9.64    2.59
  -7   4  -5   14.75    2.02
  -8   4  -5   -0.28    1.46
   7   3  -5    5.78    1.77
  -7  -3   5    6.93    1.83
   6   3  -5   -0.69    1.29
  -6  -3   5   -2.15    1.25
   5   3  -5    0.93    1.25
  -5  -3   5   -2.00    1.18
   4   3  -5   19.08    1.57
   4   3  -5   17.67    2.17
   4   3  -5   19.39    2.92
   4   3  -5   15.56    1.83
  -4  -3   5   19.88    2.19
   3   3  -5   70.43    4.95
   3   3  -5   73.30    4.35
   3   3  -5   78.52    7.01
   3   3  -5   74.71    5.27
  -3  -3   5   69.69    5.21
   2   3  -5   51.09    4.85
   2   3  -5   50.29    3.41
   2   3  -5   49.63    2.98
   2   3  -5   48.47    3.66
  -2  -3   5   46.15    3.63
   1   3  -5   23.75    2.19
   1   3  -5   24.48    1.87
   1   3  -5   28.50    1.68
   1   3  -5   26.98    2.71
  -1  -3   5   21.83    2.10
   0   3  -5   31.86    2.92
   0   3  -5   27.30    2.35
   0   3  -5   29.20    3.13
   0   3  -5   30.59    1.83
   0   3  -5   28.21    2.33
   0   3  -5   29.12    2.09
   0  -3   5   27.43    2.29
  -1   3  -5  216.97   10.86
  -1   3  -5  207.00   16.99
  -1   3  -5  169.71   17.12
  -1   3  -5  193.77   12.77
  -1   3  -5  196.57   12.78
   1  -3   5  198.94   12.76
  -2   3  -5  143.23   13.93
  -2   3  -5  155.85   10.34
  -2   3  -5  157.01   10.34
  -2   3  -5  172.28    8.77
   2  -3   5  162.41   10.31
  -3   3  -5   31.71    1.89
  -3   3  -5   31.42    2.47
  -3   3  -5   26.51    3.39
   3  -3   5   30.71    2.40
   3  -3   5   29.62    1.74
  -4   3  -5   10.84    1.03
  -4   3  -5   10.72    1.36
  -4   3  -5    9.82    1.95
   4  -3   5    9.38    1.30
   4  -3   5    8.57    0.71
  -5   3  -5  100.63    6.50
  -5   3  -5   93.39    5.37
  -5   3  -5   81.11    8.80
   5  -3   5   93.03    6.42
  -6   3  -5   65.81    4.03
  -6   3  -5   67.20    4.89
  -6   3  -5   56.75    6.77
   6  -3   5   61.78    3.70
   6  -3   5   69.93    4.86
  -7   3  -5    8.98    1.90
   7  -3   5   11.48    1.81
  -8   3  -5    1.35    1.63
   8   2  -5    2.82    1.68
  -8  -2   5    3.87    1.73
   7   2  -5    7.03    1.80
  -7  -2   5    3.74    1.62
   6   2  -5   -1.77    1.08
  -6  -2   5   -1.11    1.25
   5   2  -5    2.22    1.23
   5   2  -5    1.22    1.13
   5   2  -5    1.84    0.85
  -5  -2   5   -0.58    1.08
   4   2  -5   39.39    4.24
   4   2  -5   37.94    2.50
   4   2  -5   40.19    3.27
   4   2  -5   37.53    2.99
  -4  -2   5   37.82    3.18
  -4  -2   5   38.49    4.20
   3   2  -5   83.84    5.71
   3   2  -5   86.15    5.99
   3   2  -5   88.11    4.98
   3   2  -5   89.15    7.92
  -3  -2   5   84.29    7.85
  -3  -2   5   85.25    5.97
   2   2  -5   21.67    1.41
   2   2  -5   19.50    1.92
   2   2  -5   19.91    2.29
   2   2  -5   18.62    1.63
  -2  -2   5   17.71    1.89
  -2  -2   5   20.06    2.32
  -2  -2   5   21.06    2.57
   1   2  -5    9.22    1.04
   1   2  -5    9.63    1.10
   1   2  -5    7.19    1.16
   1   2  -5    7.29    1.32
   1   2  -5    7.97    0.80
  -1  -2   5    5.94    1.09
  -1  -2   5    7.90    1.07
  -1  -2   5    4.81    1.32
  -1  -2   5    7.32    0.72
   0   2  -5  182.13    9.43
   0   2  -5  150.26   14.86
   0   2  -5  170.71   11.11
   0   2  -5  174.08   10.73
   0   2  -5  163.44   11.08
   0   2  -5  172.65   14.74
   0  -2   5  173.68   14.95
   0  -2   5  174.20   14.71
   0  -2   5  172.73   11.10
   0  -2   5  173.03    9.39
  -1   2  -5  158.21   10.37
  -1   2  -5  161.26   10.38
  -1   2  -5  137.01   13.93
  -1   2  -5  167.11    8.80
   1  -2   5  160.05   13.72
   1  -2   5  159.87   10.37
   1  -2   5  168.00    8.76
  -2   2  -5   24.43    1.54
  -2   2  -5   18.48    2.78
  -2   2  -5   23.73    2.08
   2  -2   5   23.83    1.47
   2  -2   5   25.71    2.07
  -3   2  -5   39.80    2.97
  -3   2  -5   35.88    2.60
  -3   2  -5   32.14    4.04
  -3   2  -5   39.10    2.36
   3  -2   5   40.12    2.96
   3  -2   5   38.09    2.25
  -4   2  -5   27.81    1.87
  -4   2  -5   23.94    3.55
  -4   2  -5   29.95    2.54
   4  -2   5   26.33    1.75
   4  -2   5   24.78    2.41
  -5   2  -5  119.61    6.87
  -5   2  -5  110.09   11.23
  -5   2  -5  124.67    8.26
   5  -2   5  115.03    6.75
   5  -2   5  126.76    8.24
  -6   2  -5   57.18    4.62
   6  -2   5   58.96    4.63
  -7   2  -5    2.26    1.60
   7  -2   5    2.55    1.58
  -8   2  -5    1.40    1.71
  -8  -1   5    4.60    1.66
   7   1  -5    3.90    1.55
  -7  -1   5    4.30    1.58
   6   1  -5    1.91    1.22
   6   1  -5   -0.63    1.19
   6   1  -5    1.54    0.79
  -6  -1   5   -0.80    1.11
   5   1  -5   11.45    1.61
   5   1  -5    8.61    1.07
   5   1  -5    8.12    1.65
   5   1  -5   11.86    1.63
  -5  -1   5   12.16    1.67
   4   1  -5   79.74    4.75
   4   1  -5   79.75    5.55
   4   1  -5   86.28    7.57
   4   1  -5   80.29    5.75
  -4  -1   5   84.75    5.77
   3   1  -5   52.87    2.99
   3   1  -5   51.49    3.49
   3   1  -5   50.96    4.74
   3   1  -5   48.21    3.64
  -3  -1   5   49.62    4.74
  -3  -1   5   46.02    2.94
  -3  -1   5   49.81    3.66
  -3  -1   5   49.46    5.02
   2   1  -5   27.38    1.65
   2   1  -5   23.48    2.18
   2   1  -5   27.37    1.97
   2   1  -5   24.53    2.61
   2   1  -5   24.46    2.15
  -2  -1   5   25.53    2.66
  -2  -1   5   26.86    2.16
  -2  -1   5   22.87    2.93
  -2  -1   5   24.40    1.62
   1   1  -5   20.37    1.81
   1   1  -5   19.54    2.49
   1   1  -5   21.85    1.36
   1   1  -5   19.50    2.17
   1   1  -5   20.88    1.65
  -1  -1   5   22.27    1.88
  -1  -1   5   14.10    2.44
  -1  -1   5   21.93    1.35
  -1  -1   5   19.65    2.18
   0   1  -5  132.60    9.08
   0   1  -5  126.76   12.26
   0   1  -5  140.11    9.09
   0   1  -5  151.47    7.71
   0  -1   5  138.95    9.10
   0  -1   5  138.45    7.68
   0  -1   5  141.70   12.04
  -1   1  -5  177.35   11.58
  -1   1  -5  161.97   15.61
  -1   1  -5  192.29    9.83
   1  -1   5  187.29   11.60
   1  -1   5  184.68   15.37
   1  -1   5  160.68   15.55
   1  -1   5  176.70    9.80
  -2   1  -5    0.49    0.76
  -2   1  -5    0.62    0.47
  -2   1  -5   -0.02    0.33
  -2   1  -5   -0.59    0.95
   2  -1   5    0.35    0.47
   2  -1   5   -0.75    0.84
   2  -1   5    0.23    0.85
  -3   1  -5   46.20    2.77
  -3   1  -5   49.13    3.52
  -3   1  -5   37.20    4.76
   3  -1   5   45.96    3.48
   3  -1   5   44.54    2.72
  -4   1  -5   73.34    5.20
  -4   1  -5   69.86    4.23
  -4   1  -5   68.35    7.22
   4  -1   5   69.52    4.16
   4  -1   5   71.67    5.18
  -5   1  -5   72.29    4.30
  -5   1  -5   73.22    5.33
   5  -1   5   69.44    5.29
   5  -1   5   64.69    4.16
  -6   1  -5   21.81    2.64
   6  -1   5   19.73    2.56
   6  -1   5   17.08    1.64
  -7   1  -5    2.21    1.78
   7  -1   5   -0.97    1.51
   9   0  -5   -1.10    1.46
   9   0  -5    2.18    1.73
  -9   0   5    1.06    1.55
   8   0  -5    0.20    1.49
   8   0  -5    3.80    1.56
  -8   0   5    5.96    1.62
   7   0  -5    1.15    1.33
  -7   0   5    1.99    1.23
   6   0  -5    0.37    1.03
   6   0  -5    0.38    0.62
   6   0  -5   -0.09    1.17
  -6   0   5   -0.58    0.96
  -6   0   5    0.67    1.14
   5   0  -5   15.72    1.81
   5   0  -5   12.82    1.72
   5   0  -5   16.49    1.26
  -5   0   5   15.37    1.82
  -5   0   5   12.90    2.14
   4   0  -5  117.21    6.45
   4   0  -5  112.52   10.14
   4   0  -5  113.20    7.48
   4   0  -5  117.88    7.71
  -4   0   5  103.59   10.12
  -4   0   5  122.60    7.71
   3   0  -5   32.60    2.40
   3   0  -5   31.15    3.16
   3   0  -5   31.70    2.53
   3   0  -5   32.36    1.95
  -3   0   5   31.50    2.52
  -3   0   5   27.83    3.45
   2   0  -5    1.68    0.71
   2   0  -5    2.01    0.68
   2   0  -5    1.67    0.45
   2   0  -5    0.53    0.74
  -2   0   5    1.07    0.48
  -2   0   5    1.86    0.79
  -2   0   5    0.06    0.93
   1   0  -5   66.76    4.67
   1   0  -5   66.27    4.52
   1   0  -5   70.98    3.90
  -1   0   5   70.33    4.70
  -1   0   5   68.38    3.90
  -1   0   5   66.03    6.39
   0   0  -5   83.86    5.61
   0   0  -5   84.20    4.68
   0   0   5   74.23    7.60
   0   0   5   85.51    4.69
   0   0   5   83.73    5.64
  -1   0  -5   87.85    5.98
  -1   0  -5   84.78    4.97
   1   0   5   87.25    4.98
   1   0   5   89.90    6.00
   1   0   5   88.33    8.15
  -2   0  -5   42.14    3.41
  -2   0  -5   42.63    2.72
   2   0   5   43.72    4.74
   2   0   5   45.42    2.72
   2   0   5   48.26    3.48
  -3   0  -5   25.01    2.55
  -3   0  -5   26.53    1.87
   3   0   5   23.19    3.53
   3   0   5   27.18    2.53
   3   0   5   25.87    1.82
  -4   0  -5   86.12    5.35
  -4   0  -5  100.44    6.62
   4   0   5   86.72    5.31
   4   0   5   92.87    6.54
  -5   0  -5   47.65    3.99
   5   0   5   43.51    2.98
   5   0   5   44.84    3.90
  -6   0  -5    8.24    2.09
   6   0   5    4.78    1.79
  -7   0  -5   -1.83    1.72
   7   0   5    1.00    1.66
   9  -1  -5    2.18    1.66
   9  -1  -5    3.02    1.59
  -9   1   5    3.08    1.59
   8  -1  -5    3.64    1.47
   8  -1  -5    1.17    1.42
  -8   1   5    2.26    1.32
   7  -1  -5    0.29    0.59
   7  -1  -5   -0.84    1.06
   7  -1  -5    0.08    1.26
   7  -1  -5   -0.10    1.18
  -7   1   5    0.41    1.17
   6  -1  -5    1.75    1.25
   6  -1  -5    3.68    0.69
   6  -1  -5    3.19    1.12
   6  -1  -5    2.01    1.19
  -6   1   5    4.52    1.31
  -6   1   5    2.16    1.15
   5  -1  -5   36.67    2.81
   5  -1  -5   39.01    2.85
   5  -1  -5   35.72    2.18
   5  -1  -5   33.66    2.83
  -5   1   5   28.52    2.18
  -5   1   5   31.46    3.57
  -5   1   5   43.76    2.93
   4  -1  -5   51.66    2.98
   4  -1  -5   55.01    3.68
   4  -1  -5   46.47    3.55
  -4   1   5   51.41    4.82
  -4   1   5   51.85    3.69
  -4   1   5   48.11    2.99
   3  -1  -5   16.95    1.62
   3  -1  -5   20.30    1.30
   3  -1  -5   17.90    1.76
   3  -1  -5   17.95    2.12
   3  -1  -5   23.37    1.79
   3  -1  -5   22.65    1.75
  -3   1   5   18.40    1.30
  -3   1   5   14.57    2.44
  -3   1   5   19.04    1.80
  -3   1   5   17.60    2.08
   2  -1  -5   10.02    1.14
   2  -1  -5   10.36    0.84
   2  -1  -5   10.28    1.23
   2  -1  -5   11.69    1.10
   2  -1  -5    7.65    1.40
  -2   1   5    9.67    1.19
  -2   1   5    7.60    1.53
  -2   1   5    9.67    1.51
   1  -1  -5   74.31    4.27
   1  -1  -5   70.55    4.97
   1  -1  -5   74.34    4.90
   1  -1  -5   71.21    5.13
   1  -1  -5   77.99    6.99
  -1   1   5   84.54    7.06
  -1   1   5   75.11    5.17
   0  -1  -5  153.86   15.57
   0  -1  -5  175.76    9.81
   0  -1  -5  179.19   11.61
   0   1   5  190.09   15.63
   0   1   5  188.18   11.65
  -1  -1  -5   78.99    4.71
  -1  -1  -5   80.72    7.84
  -1  -1  -5   81.37    5.70
   1   1   5   84.70    7.77
   1   1   5   82.50    4.73
   1   1   5   84.70    5.73
  -2  -1  -5   17.52    1.86
  -2  -1  -5   11.91    1.27
  -2  -1  -5   15.55    2.44
   2   1   5   14.21    1.30
   2   1   5   15.15    1.81
   2   1   5   12.88    2.22
  -3  -1  -5   27.51    2.73
   3   1   5   25.50    2.62
   3   1   5   25.86    1.95
  -4  -1  -5   76.75    5.51
   4   1   5   67.78    4.35
   4   1   5   66.66    4.71
   4   1   5   77.98    5.46
  -5  -1  -5   35.36    3.56
   5   1   5   35.16    3.45
  -6  -1  -5   12.18    2.45
   6   1   5    8.36    2.17
  10  -2  -5    0.51    1.51
   9  -2  -5    1.34    1.44
   9  -2  -5    3.07    1.50
  -9   2   5    3.93    1.52
   8  -2  -5    0.79    0.68
   8  -2  -5    2.64    1.33
   8  -2  -5    0.34    1.25
   8  -2  -5   -0.01    1.26
  -8   2   5    1.34    1.30
   7  -2  -5    3.47    1.26
   7  -2  -5    2.78    1.29
   7  -2  -5    1.80    0.59
   7  -2  -5    1.74    0.62
   7  -2  -5    1.35    1.09
  -7   2   5    2.46    1.18
  -7   2   5    0.80    1.10
   6  -2  -5    8.52    0.84
   6  -2  -5    6.23    1.35
   6  -2  -5    8.29    1.59
   6  -2  -5   10.82    1.50
  -6   2   5    7.34    0.94
  -6   2   5    8.59    1.61
  -6   2   5    8.47    1.36
   5  -2  -5   50.98    2.98
   5  -2  -5   54.80    3.74
   5  -2  -5   51.74    3.72
   5  -2  -5   48.75    3.84
  -5   2   5   56.41    3.78
  -5   2   5   45.24    3.01
  -5   2   5   50.18    4.87
   4  -2  -5   16.68    1.59
   4  -2  -5   17.31    1.11
   4  -2  -5   17.37    1.59
   4  -2  -5   16.22    1.57
  -4   2   5   11.57    2.08
  -4   2   5   18.27    1.68
  -4   2   5   15.80    1.88
  -4   2   5   14.55    1.15
   3  -2  -5    8.63    0.77
   3  -2  -5   10.84    1.33
   3  -2  -5    8.89    1.09
   3  -2  -5   10.04    1.10
  -3   2   5    9.01    1.33
  -3   2   5   10.73    1.18
  -3   2   5    8.00    1.51
  -3   2   5    8.64    0.82
   2  -2  -5    7.38    0.91
   2  -2  -5    8.50    0.75
   2  -2  -5    7.28    1.01
   2  -2  -5   11.40    1.32
   2  -2  -5    7.45    1.44
  -2   2   5    9.30    1.58
  -2   2   5    8.22    1.13
  -2   2   5    8.68    0.83
  -2   2   5    7.10    1.27
   1  -2  -5   95.41    6.75
   1  -2  -5  111.36    9.21
   1  -2  -5   95.80    5.65
  -1   2   5   94.17    6.53
  -1   2   5  117.95    9.28
  -1   2   5   98.56    5.69
  -1   2   5   98.10    6.78
   0  -2  -5  105.37    7.23
   0  -2  -5   99.96    6.03
   0   2   5  102.99    6.87
   0   2   5  106.35    7.24
   0   2   5  124.23    9.83
  -1  -2  -5  104.77    6.42
  -1  -2  -5  105.87    7.70
  -1  -2  -5  128.43   10.63
   1   2   5  108.79    7.73
   1   2   5  123.42   10.47
  -2  -2  -5    6.20    1.90
  -2  -2  -5    8.20    1.50
   2   2   5    8.23    1.47
   2   2   5    5.63    0.88
   2   2   5    5.97    1.66
  -3  -2  -5   24.23    2.71
   3   2   5   24.53    1.87
   3   2   5   25.72    2.60
   3   2   5   19.49    1.68
  -4  -2  -5   58.27    4.71
   4   2   5   52.51    4.49
  -5  -2  -5   25.77    3.25
   5   2   5   22.69    3.02
  10  -3  -5    0.36    1.43
 -10   3   5    0.65    1.53
   9  -3  -5    2.34    1.47
  -9   3   5    0.70    1.27
   8  -3  -5    1.89    1.24
   8  -3  -5    1.58    1.22
   8  -3  -5    1.55    1.35
  -8   3   5    0.29    1.17
  -8   3   5    2.05    1.26
   7  -3  -5   -0.13    1.04
   7  -3  -5    1.15    1.09
   7  -3  -5    1.09    1.12
  -7   3   5    1.11    1.08
  -7   3   5    0.64    0.63
  -7   3   5    1.32    1.04
   6  -3  -5   28.08    2.49
   6  -3  -5   25.17    2.52
   6  -3  -5   33.08    2.45
  -6   3   5   31.25    2.50
  -6   3   5   29.40    3.16
  -6   3   5   23.27    1.82
   5  -3  -5   23.04    2.08
   5  -3  -5   25.54    2.15
   5  -3  -5   25.94    2.01
  -5   3   5   21.67    2.46
  -5   3   5   20.08    1.53
  -5   3   5   24.54    2.09
   4  -3  -5   25.81    2.09
   4  -3  -5   26.31    2.11
   4  -3  -5   24.91    2.04
  -4   3   5   24.22    2.62
  -4   3   5   26.63    2.15
  -4   3   5   23.61    1.62
   3  -3  -5   13.72    1.44
   3  -3  -5   11.86    1.29
   3  -3  -5   13.38    1.28
  -3   3   5   11.45    1.77
  -3   3   5   14.11    1.53
  -3   3   5   16.70    2.22
  -3   3   5   13.18    1.04
  -3   3   5   13.06    1.51
   2  -3  -5   32.93    2.01
   2  -3  -5   33.05    2.56
   2  -3  -5   33.79    2.60
  -2   3   5   33.04    2.66
  -2   3   5   39.12    3.69
  -2   3   5   32.08    2.10
   1  -3  -5   79.72    5.66
  -1   3   5   80.12    5.69
  -1   3   5   91.10    7.71
  -1   3   5   81.06    5.43
  -1   3   5   80.56    4.75
   0  -3  -5   98.38    7.05
   0   3   5  117.06    9.65
   0   3   5   98.76    7.09
   0   3   5   97.07    5.92
   0   3   5  106.58    6.74
  -1  -3  -5   25.76    2.67
   1   3   5   28.97    2.70
   1   3   5   29.91    3.69
  -2  -3  -5   27.02    2.84
   2   3   5   26.83    2.74
  -3  -3  -5   28.05    3.08
   3   3   5   23.66    2.84
  -4  -3  -5   36.06    3.64
   4   3   5   33.92    3.44
  -5  -3  -5   15.55    2.70
   5   3   5   13.00    2.51
  10  -4  -5    1.80    1.56
 -10   4   5    1.37    1.51
   9  -4  -5    2.47    1.55
  -9   4   5    3.33    1.41
   8  -4  -5    1.53    1.28
   8  -4  -5    0.15    1.18
  -8   4   5    1.26    1.11
  -8   4   5    3.18    1.24
   7  -4  -5   -0.46    1.04
   7  -4  -5    0.30    0.93
   7  -4  -5    0.88    1.11
  -7   4   5   -0.98    1.00
  -7   4   5   -0.17    0.57
  -7   4   5    0.00    0.91
   6  -4  -5   18.21    2.01
   6  -4  -5   21.44    1.84
   6  -4  -5   21.87    2.04
  -6   4   5   18.49    1.94
  -6   4   5   17.53    1.35
  -6   4   5   16.11    2.16
   5  -4  -5   33.98    2.67
   5  -4  -5   33.27    2.75
   5  -4  -5   33.32    2.51
  -5   4   5   33.18    3.34
  -5   4   5   32.39    3.76
  -5   4   5   36.88    2.69
  -5   4   5   31.93    2.09
   4  -4  -5    5.29    0.95
   4  -4  -5    6.13    1.19
  -4   4   5    6.23    0.72
  -4   4   5    4.91    1.11
  -4   4   5    5.84    1.34
  -4   4   5    4.25    0.88
  -4   4   5    7.84    1.06
   3  -4  -5    5.46    0.88
   3  -4  -5    8.28    1.23
  -3   4   5    6.01    0.73
  -3   4   5    6.21    1.45
  -3   4   5    4.55    0.85
  -3   4   5    7.16    1.06
   2  -4  -5   52.19    4.00
   2  -4  -5   53.94    3.94
  -2   4   5   68.69    5.72
  -2   4   5   53.61    4.07
  -2   4   5   55.33    3.36
   1  -4  -5   73.10    5.64
  -1   4   5   81.01    4.75
  -1   4   5   77.02    5.68
  -1   4   5   96.26    7.83
   0  -4  -5   71.15    5.44
   0   4   5   72.99    5.49
   0   4   5   75.02    4.54
   0   4   5   86.69    7.53
  -1  -4  -5    3.72    1.27
   1   4   5    2.40    0.74
   1   4   5    2.10    1.44
   1   4   5    3.42    1.28
  -2  -4  -5   17.73    2.41
   2   4   5   17.37    2.33
  -3  -4  -5   32.47    3.39
   3   4   5   24.18    2.94
  -4  -4  -5   31.70    3.50
   4   4   5   22.86    3.18
  10  -5  -5   -1.14    1.53
 -10   5   5    0.75    1.39
   9  -5  -5    1.38    1.44
   9  -5  -5    2.18    1.49
  -9   5   5    0.07    1.22
  -9   5   5    0.11    1.18
   8  -5  -5    0.41    1.24
   8  -5  -5    0.52    1.31
  -8   5   5    1.36    1.17
  -8   5   5    1.27    1.12
   7  -5  -5    3.13    1.29
   7  -5  -5    2.42    1.23
  -7   5   5    2.40    1.08
  -7   5   5    3.15    1.11
  -7   5   5    3.69    0.70
   6  -5  -5    5.05    0.93
   6  -5  -5    7.24    1.43
  -6   5   5    6.58    0.76
  -6   5   5    4.60    1.09
  -6   5   5    3.82    1.12
  -6   5   5    3.79    1.55
   5  -5  -5   34.45    2.60
   5  -5  -5   35.93    2.83
  -5   5   5   41.27    4.05
  -5   5   5   39.70    2.92
  -5   5   5   34.72    2.24
  -5   5   5   33.26    3.57
  -5   5   5   36.52    2.85
   4  -5  -5   -0.73    0.83
   4  -5  -5   -0.55    0.69
   4  -5  -5    1.20    0.60
  -4   5   5   -0.76    0.60
  -4   5   5    0.51    1.08
  -4   5   5   -0.20    0.81
  -4   5   5    0.30    0.50
   3  -5  -5    2.50    1.01
   3  -5  -5    1.95    0.69
  -3   5   5    2.77    0.64
  -3   5   5    1.94    1.24
  -3   5   5    2.68    0.98
   2  -5  -5   51.10    3.72
   2  -5  -5   48.46    3.62
  -2   5   5   52.95    5.19
  -2   5   5   46.01    3.77
  -2   5   5   51.21    3.11
   1  -5  -5   97.58    6.87
   1  -5  -5   92.03    6.67
  -1   5   5   95.05    6.93
  -1   5   5  111.97    9.46
  -1   5   5  102.67    5.83
   0  -5  -5   14.33    1.82
   0   5   5   13.63    2.35
   0   5   5   12.31    1.88
  -1  -5  -5    0.91    1.11
   1   5   5    1.27    1.24
  -2  -5  -5   11.03    1.98
   2   5   5    8.02    1.85
  -3  -5  -5   32.68    3.40
   3   5   5   25.91    3.10
 -10   6   5    1.65    1.46
 -10   6   5    1.04    1.34
   9  -6  -5    1.78    1.37
  -9   6   5   -0.70    1.14
  -9   6   5   -0.46    1.07
   8  -6  -5   -0.32    1.21
  -8   6   5   -0.37    0.98
  -8   6   5   -0.43    1.08
   7  -6  -5    0.84    1.12
  -7   6   5    0.82    0.59
  -7   6   5    2.05    0.98
  -7   6   5    2.03    1.53
  -7   6   5    2.95    1.08
   6  -6  -5   11.04    1.63
  -6   6   5    7.94    1.27
  -6   6   5    7.40    0.86
  -6   6   5   10.77    1.61
  -6   6   5    6.57    1.74
   5  -6  -5   12.81    1.74
  -5   6   5   12.27    1.12
  -5   6   5   13.92    2.00
  -5   6   5   14.81    1.71
  -5   6   5   20.19    2.71
   4  -6  -5   10.94    1.53
  -4   6   5    9.32    1.40
  -4   6   5   10.37    1.03
  -4   6   5   13.08    2.15
   3  -6  -5    5.84    1.23
  -3   6   5    6.52    0.85
  -3   6   5    4.10    1.17
  -3   6   5    3.37    1.44
   2  -6  -5   39.85    3.09
   2  -6  -5   36.85    3.21
  -2   6   5   42.63    2.72
  -2   6   5   36.60    3.32
  -2   6   5   48.03    4.75
   1  -6  -5   40.85    3.47
   1  -6  -5   42.34    3.32
  -1   6   5   38.63    3.52
  -1   6   5   47.85    5.06
   0   6   5    7.51    1.64
   1   6   5    0.35    1.21
   2   6   5   16.26    2.39
 -10   7   5    1.01    1.27
 -10   7   5    0.74    1.36
   9  -7  -5    1.57    1.48
  -9   7   5    0.43    1.15
  -9   7   5   -0.84    1.12
   8  -7  -5   -0.97    1.15
  -8   7   5   -1.35    1.41
  -8   7   5   -1.00    0.92
  -8   7   5   -1.25    1.04
   7  -7  -5    3.17    1.27
  -7   7   5    1.54    0.65
  -7   7   5    2.12    1.07
  -7   7   5    2.75    1.64
  -7   7   5    3.92    1.13
   6  -7  -5   15.08    1.78
  -6   7   5    6.65    0.93
  -6   7   5   13.21    2.19
  -6   7   5    9.59    1.37
  -6   7   5   10.07    1.63
   5  -7  -5    7.52    1.38
  -5   7   5    6.10    1.20
  -5   7   5    5.48    0.84
  -5   7   5    9.49    2.01
   4  -7  -5    4.58    1.16
  -4   7   5    2.19    1.07
  -4   7   5    3.69    1.68
  -4   7   5    2.64    0.74
   3  -7  -5   11.79    1.57
  -3   7   5    9.49    1.14
  -3   7   5   10.49    1.58
  -3   7   5   10.35    2.13
   2  -7  -5   29.65    2.63
  -2   7   5   39.01    4.41
  -2   7   5   32.08    2.98
   1  -7  -5   18.00    2.07
  -1   7   5   14.43    2.09
   0   7   5    3.68    1.50
   1   7   5    2.52    1.50
   9  -8  -5   -0.16    1.35
  -9   8   5   -1.00    1.62
  -9   8   5   -0.41    1.08
   8  -8  -5    1.69    1.38
  -8   8   5   -0.81    1.05
  -8   8   5   -0.89    1.52
  -8   8   5   -0.34    0.91
   7  -8  -5    4.98    1.45
  -7   8   5    9.19    1.37
  -7   8   5    7.62    1.52
  -7   8   5    9.13    2.18
   6  -8  -5   11.66    1.75
  -6   8   5    9.79    1.77
  -6   8   5   10.50    1.45
  -6   8   5   12.02    2.38
   5  -8  -5   -1.30    0.99
  -5   8   5   -0.25    1.50
  -5   8   5   -1.30    0.94
  -4   8   5    0.41    1.50
  -4   8   5   -0.38    1.05
  -3   8   5    7.76    1.52
  -3   8   5    6.29    1.96
  -2   8   5   26.18    2.82
  -2   8   5   30.48    4.14
  -1   8   5    5.00    1.61
  -8   9   5    2.10    1.80
  -8   9   5    0.34    1.02
  -7   9   5    4.35    2.05
  -7   9   5    4.35    1.35
  -6   9   5    5.64    2.05
  -6   9   5    5.47    1.53
  -5   9   5    1.89    1.67
  -5   9   5   -1.36    1.09
  -4   9   5    0.88    1.60
  -4   9   5    2.76    1.23
  -3   9   5   12.29    1.83
  -3   9   5   10.40    2.48
  -1  10  -6    1.79    1.40
  -2  10  -6   17.01    2.66
  -3  10  -6   22.90    2.74
  -4  10  -6    6.49    1.33
  -5  10  -6    2.32    1.20
  -5  10  -6    1.91    0.98
  -6  10  -6    4.21    1.32
   1   9  -6    3.54    1.60
   0   9  -6    2.51    1.41
   0   9  -6    0.78    1.39
  -1   9  -6    4.41    1.57
  -1   9  -6    3.63    1.37
  -2   9  -6   39.16    3.11
  -2   9  -6   38.83    4.02
  -3   9  -6   38.75    3.90
  -3   9  -6   39.31    3.00
  -4   9  -6    3.01    1.26
  -4   9  -6    4.48    1.09
  -5   9  -6    4.92    1.38
  -6   9  -6   16.52    2.43
  -7   9  -6   17.96    2.76
   2   8  -6   13.23    2.09
   1   8  -6    7.28    1.77
   0   8  -6    1.18    1.30
   0   8  -6    3.36    1.48
  -1   8  -6   17.44    1.99
  -1   8  -6   17.30    2.57
  -2   8  -6   36.40    2.97
  -2   8  -6   38.43    3.80
  -3   8  -6   47.23    4.81
  -3   8  -6   56.85    5.10
  -3   8  -6   51.24    3.72
  -4   8  -6    0.23    0.77
  -4   8  -6    0.62    0.79
  -4   8  -6    1.00    1.02
  -5   8  -6    4.26    1.40
  -5   8  -6    4.43    0.96
  -6   8  -6   38.39    2.99
  -6   8  -6   36.86    4.11
  -7   8  -6   27.91    2.35
  -7   8  -6   19.51    2.99
  -8   8  -6    3.79    1.74
   3   7  -6   11.54    2.12
   2   7  -6   20.61    2.46
   1   7  -6    4.07    0.88
   1   7  -6    4.46    1.49
   1   7  -6    3.59    1.50
   0   7  -6    5.77    0.99
   0   7  -6    8.13    1.44
   0   7  -6    5.77    1.56
  -1   7  -6   39.81    3.20
  -1   7  -6   40.11    4.08
  -1   7  -6   41.87    2.57
  -2   7  -6   67.13    3.95
  -2   7  -6   71.69    6.46
  -2   7  -6   66.58    6.25
  -2   7  -6   68.16    4.78
  -3   7  -6   27.88    2.84
  -3   7  -6   27.17    2.02
  -3   7  -6   27.52    1.76
  -3   7  -6   26.75    2.34
  -3   7  -6   30.19    3.19
  -4   7  -6    4.16    0.91
  -4   7  -6    4.07    1.34
  -5   7  -6    5.37    1.52
  -5   7  -6    3.74    0.97
  -6   7  -6   31.90    3.87
  -6   7  -6   38.35    2.90
  -7   7  -6   16.15    2.86
  -7   7  -6   24.13    2.24
  -8   7  -6    2.49    1.72
  -8   7  -6    1.75    1.09
   5   6  -6   -0.67    1.44
   4   6  -6    3.84    1.61
  -4  -6   6    2.73    1.49
   3   6  -6   25.27    2.82
  -3  -6   6   27.02    2.74
   2   6  -6    9.51    1.27
   2   6  -6   12.51    2.23
   2   6  -6   12.71    1.92
  -2  -6   6   11.30    1.67
   1   6  -6    7.18    1.53
   1   6  -6    8.78    1.09
   1   6  -6    8.85    1.80
  -1  -6   6    7.79    1.36
   0   6  -6   11.05    1.16
   0   6  -6   13.38    2.01
   0   6  -6   15.17    1.77
   0  -6   6   12.66    1.45
  -1   6  -6  105.71    6.94
  -1   6  -6  112.81    6.25
  -1   6  -6  104.51    7.42
  -1   6  -6  111.03    9.82
  -1   6  -6  107.50    7.43
  -1   6  -6  122.17   10.03
   1  -6   6  111.03    7.31
  -2   6  -6   52.33    3.11
  -2   6  -6   55.83    4.95
  -2   6  -6   52.39    3.51
  -2   6  -6   53.88    3.82
  -2   6  -6   49.27    5.06
  -2   6  -6   55.25    3.86
  -3   6  -6   12.78    1.38
  -3   6  -6   11.06    1.58
  -3   6  -6   10.62    1.81
  -3   6  -6   10.80    0.92
  -4   6  -6    6.76    1.56
  -4   6  -6    5.86    0.73
  -4   6  -6    9.19    1.21
  -5   6  -6   39.32    2.55
  -5   6  -6   49.38    3.24
  -5   6  -6   37.47    4.33
  -6   6  -6   55.93    3.87
  -6   6  -6   44.55    5.21
  -7   6  -6   11.71    2.40
  -7   6  -6    8.93    1.50
  -8   6  -6    3.49    1.43
  -8   6  -6    0.10    1.71
   5   5  -6   -1.52    1.27
  -5  -5   6   -0.64    1.32
   4   5  -6    7.39    1.78
  -4  -5   6    8.89    1.78
   3   5  -6   21.96    1.81
   3   5  -6   20.36    2.40
  -3  -5   6   20.83    2.37
   2   5  -6   25.48    3.25
   2   5  -6   24.29    1.86
   2   5  -6   24.89    2.46
   2   5  -6   26.60    2.00
  -2  -5   6   20.43    2.35
   1   5  -6    0.81    0.92
   1   5  -6    0.38    0.63
   1   5  -6    0.36    0.66
   1   5  -6    1.82    1.09
  -1  -5   6   -0.39    0.85
   0   5  -6   51.96    3.45
   0   5  -6   54.28    3.13
   0   5  -6   51.94    4.95
   0   5  -6   50.15    3.82
   0  -5   6   50.74    3.73
  -1   5  -6  105.48    7.15
  -1   5  -6  103.69    6.80
  -1   5  -6  100.77    7.16
  -1   5  -6  114.27    9.49
  -1   5  -6  108.26    9.60
  -1   5  -6  111.39    6.03
   1  -5   6  105.44    7.07
  -2   5  -6   30.84    2.59
  -2   5  -6   31.08    3.57
  -2   5  -6   34.82    2.04
  -2   5  -6   34.36    3.27
  -2   5  -6   32.35    2.56
   2  -5   6   34.14    2.45
  -3   5  -6   -0.05    0.79
  -3   5  -6    0.78    0.78
  -3   5  -6    0.75    1.05
  -3   5  -6    0.72    0.44
   3  -5   6    0.66    0.61
  -4   5  -6   44.18    2.56
  -4   5  -6   46.65    3.22
  -4   5  -6   37.48    4.32
   4  -5   6   39.50    3.03
  -5   5  -6   85.68    5.55
  -5   5  -6   69.29    7.50
  -5   5  -6   79.98    4.60
  -6   5  -6   64.61    3.78
  -6   5  -6   53.62    6.27
  -6   5  -6   63.71    4.59
  -7   5  -6    4.82    2.04
  -7   5  -6    5.78    1.50
  -8   5  -6    2.72    1.52
   6   4  -6   -0.48    1.33
  -6  -4   6   -0.73    1.38
   5   4  -6    3.38    1.50
  -5  -4   6   -0.09    1.37
   4   4  -6   25.07    2.74
  -4  -4   6   25.36    2.62
   3   4  -6   38.50    2.57
   3   4  -6   36.40    2.90
   3   4  -6   36.73    3.25
   3   4  -6   41.99    4.37
  -3  -4   6   39.01    3.26
   2   4  -6   12.13    1.97
   2   4  -6   10.87    1.28
   2   4  -6   10.84    1.56
   2   4  -6   12.73    1.14
  -2  -4   6   13.50    1.64
   1   4  -6   12.09    1.87
   1   4  -6   12.51    1.25
   1   4  -6   14.67    1.15
   1   4  -6   16.21    1.68
  -1  -4   6   13.90    1.58
   0   4  -6   57.73    3.76
   0   4  -6   58.87    3.34
   0   4  -6   53.53    4.03
   0   4  -6   58.90    5.27
   0   4  -6   56.94    5.40
   0  -4   6   53.63    3.98
  -1   4  -6  115.22    6.09
  -1   4  -6  108.12    7.22
  -1   4  -6  113.86    6.95
  -1   4  -6   90.19    9.66
  -1   4  -6  108.24    7.23
  -1   4  -6  112.16    9.55
   1  -4   6  109.79    7.17
  -2   4  -6   53.13    4.75
  -2   4  -6   54.31    3.00
  -2   4  -6   51.95    3.67
  -2   4  -6   46.09    4.99
  -2   4  -6   49.35    3.67
   2  -4   6   50.40    3.58
  -3   4  -6    0.57    0.46
  -3   4  -6   -0.78    0.97
  -3   4  -6    0.95    0.79
   3  -4   6    0.87    0.74
  -4   4  -6   73.86    4.13
  -4   4  -6   76.42    5.02
  -4   4  -6   59.42    6.77
   4  -4   6   71.29    4.92
  -5   4  -6   83.13    5.60
  -5   4  -6   67.43    7.57
  -5   4  -6   82.19    4.63
   5  -4   6   78.70    5.50
  -6   4  -6   35.31    4.67
  -6   4  -6   36.20    2.54
  -6   4  -6   37.16    3.21
  -7   4  -6    3.83    1.63
  -8   4  -6    2.98    1.71
   7   3  -6    1.09    1.52
  -7  -3   6    0.99    1.49
   6   3  -6   -2.79    1.14
  -6  -3   6   -1.50    1.27
   5   3  -6   11.11    1.86
  -5  -3   6   11.68    1.90
   4   3  -6   37.93    3.28
   4   3  -6   36.62    2.49
   4   3  -6   34.17    2.88
  -4  -3   6   38.56    3.23
   3   3  -6   65.89    3.95
   3   3  -6   63.58    4.52
   3   3  -6   67.57    6.34
   3   3  -6   66.61    4.85
  -3  -3   6   65.58    4.77
   2   3  -6    2.21    0.79
   2   3  -6    2.30    0.60
   2   3  -6    3.02    0.96
   2   3  -6    2.36    0.95
  -2  -3   6    3.10    0.96
   1   3  -6   51.69    2.98
   1   3  -6   49.74    3.41
   1   3  -6   51.25    4.73
   1   3  -6   48.72    3.64
  -1  -3   6   47.81    3.61
   0   3  -6   96.82    8.54
   0   3  -6   95.86    6.22
   0   3  -6   94.74    8.71
   0   3  -6   99.02    5.45
   0   3  -6   92.90    6.47
   0  -3   6   98.97    6.46
  -1   3  -6  109.06   10.43
  -1   3  -6  115.93   10.20
  -1   3  -6  114.92    7.71
  -1   3  -6  121.62    6.51
   1  -3   6  118.43    7.68
   1  -3   6  115.91    6.42
  -2   3  -6   41.56    2.40
  -2   3  -6   35.08    4.20
  -2   3  -6   38.49    2.99
   2  -3   6   39.06    2.95
   2  -3   6   40.75    2.28
  -3   3  -6   23.02    1.57
  -3   3  -6   24.90    2.15
  -3   3  -6   20.34    2.97
   3  -3   6   21.69    1.42
   3  -3   6   25.09    2.10
  -4   3  -6   50.60    3.65
  -4   3  -6   42.11    5.01
  -4   3  -6   48.22    2.92
   4  -3   6   50.66    3.59
   4  -3   6   42.82    2.70
  -5   3  -6  103.17    5.85
  -5   3  -6  107.81    7.04
  -5   3  -6   84.82    9.55
   5  -3   6  103.15    7.00
  -6   3  -6   21.20    2.39
   6  -3   6   14.24    2.08
  -7   3  -6    1.82    1.67
  -8   3  -6    1.97    1.76
   8   2  -6    3.20    1.71
  -8  -2   6    0.81    1.54
   7   2  -6   -1.56    1.32
  -7  -2   6   -2.10    1.31
   6   2  -6    1.43    1.30
  -6  -2   6    0.61    1.27
   5   2  -6   19.65    1.69
   5   2  -6   23.57    2.54
   5   2  -6   20.81    2.13
  -5  -2   6   24.34    2.45
   4   2  -6   46.65    2.85
   4   2  -6   38.98    3.32
   4   2  -6   47.56    3.62
   4   2  -6   43.91    4.55
  -4  -2   6   45.18    3.59
  -4  -2   6   47.58    4.63
   3   2  -6   17.27    1.75
   3   2  -6   18.70    1.44
   3   2  -6   23.46    2.06
   3   2  -6   20.24    2.44
  -3  -2   6   19.85    2.00
  -3  -2   6   21.62    2.48
  -3  -2   6   18.49    2.75
   2   2  -6   24.60    2.10
   2   2  -6   21.25    2.03
   2   2  -6   22.72    2.52
   2   2  -6   21.82    1.82
   2   2  -6   24.68    1.58
  -2  -2   6   23.43    2.57
  -2  -2   6   22.18    2.06
  -2  -2   6   21.73    1.51
  -2  -2   6   22.19    2.80
   1   2  -6   43.76    3.14
   1   2  -6   47.03    4.33
   1   2  -6   43.61    4.50
   1   2  -6   51.00    2.74
   1   2  -6   42.81    3.32
  -1  -2   6   43.49    2.68
  -1  -2   6   47.81    3.35
  -1  -2   6   47.31    4.32
  -1  -2   6   41.67    4.63
   0   2  -6  149.63   12.85
   0   2  -6  127.50   12.99
   0   2  -6  145.47    9.69
   0   2  -6  155.99    8.21
   0   2  -6  152.38    9.39
   0  -2   6  151.76   12.82
   0  -2   6  147.28    9.69
   0  -2   6  149.66    8.17
  -1   2  -6   44.76    5.12
  -1   2  -6   55.20    3.09
  -1   2  -6   52.51    3.76
   1  -2   6   52.60    3.03
   1  -2   6   55.18    3.76
  -2   2  -6   30.75    3.91
  -2   2  -6   33.67    2.76
  -2   2  -6   35.08    2.17
   2  -2   6   36.86    2.77
   2  -2   6   35.20    2.11
  -3   2  -6   31.73    4.15
  -3   2  -6   38.92    2.41
  -3   2  -6   35.97    2.59
  -3   2  -6   39.49    3.07
   3  -2   6   37.99    2.30
   3  -2   6   40.92    3.05
  -4   2  -6   86.04    5.09
  -4   2  -6   87.89    6.17
  -4   2  -6   83.92    8.52
   4  -2   6   92.04    6.18
   4  -2   6   85.75    5.01
  -5   2  -6   53.42    6.46
  -5   2  -6   60.37    3.75
  -5   2  -6   64.09    4.69
   5  -2   6   63.45    4.63
   5  -2   6   55.87    3.57
  -6   2  -6   10.51    2.00
   6  -2   6    7.97    1.78
  -7   2  -6    3.13    1.80
   7  -2   6    2.85    1.59
   8   1  -6    2.37    1.58
  -8  -1   6    0.34    1.47
   7   1  -6   -2.42    1.19
  -7  -1   6    0.63    1.28
   6   1  -6    2.08    1.17
   6   1  -6    2.69    1.31
  -6  -1   6    3.17    1.35
   5   1  -6   29.37    2.62
   5   1  -6   23.34    2.38
   5   1  -6   27.20    1.94
  -5  -1   6   28.09    2.61
   4   1  -6   51.35    3.81
   4   1  -6   44.36    3.60
   4   1  -6   50.09    4.87
   4   1  -6   52.70    3.08
  -4  -1   6   51.59    3.80
   3   1  -6    5.97    0.74
   3   1  -6    5.71    1.06
   3   1  -6    5.57    1.11
   3   1  -6    6.04    1.08
  -3  -1   6    6.38    0.77
  -3  -1   6    5.02    1.11
  -3  -1   6    5.91    1.08
  -3  -1   6    3.05    1.29
   2   1  -6   25.79    2.68
   2   1  -6   24.73    1.63
   2   1  -6   25.76    2.01
   2   1  -6   26.09    2.16
  -2  -1   6   23.99    1.62
  -2  -1   6   26.24    2.18
  -2  -1   6   21.84    2.93
  -2  -1   6   25.28    2.59
   1   1  -6   59.43    5.41
   1   1  -6   52.57    5.57
   1   1  -6   63.23    4.02
   1   1  -6   61.80    3.42
   1   1  -6   59.14    4.14
  -1  -1   6   59.16    5.37
  -1  -1   6   61.60    4.17
  -1  -1   6   59.68    3.41
  -1  -1   6   49.54    5.66
   0   1  -6  104.05    9.81
   0   1  -6  107.45    7.23
   0   1  -6  114.43    6.09
   0  -1   6  112.19    7.24
   0  -1   6  106.13    6.05
   0  -1   6  103.98    9.49
  -1   1  -6   42.28    4.69
  -1   1  -6   46.04    3.38
  -1   1  -6   46.99    2.72
   1  -1   6   43.54    4.68
   1  -1   6   46.62    3.39
   1  -1   6   45.02    2.69
   1  -1   6   44.74    4.32
  -2   1  -6   54.86    6.10
  -2   1  -6   61.58    4.42
  -2   1  -6   60.54    3.62
   2  -1   6   63.62    3.60
   2  -1   6   63.70    4.44
  -3   1  -6   23.55    3.65
  -3   1  -6   28.36    2.01
  -3   1  -6   29.11    2.67
   3  -1   6   32.31    1.97
   3  -1   6   31.29    2.70
  -4   1  -6   54.40    4.23
  -4   1  -6   51.49    3.34
  -4   1  -6   50.53    5.91
   4  -1   6   54.66    4.20
   4  -1   6   52.72    3.26
  -5   1  -6   43.40    3.53
   5  -1   6   33.90    2.45
   5  -1   6   33.83    3.44
  -6   1  -6    3.19    1.80
   6  -1   6    1.58    1.53
  -7   1  -6    4.24    2.08
   7  -1   6    2.85    1.80
   9   0  -6    2.82    1.63
   9   0  -6   -0.14    1.57
  -9   0   6    0.93    1.49
   8   0  -6    1.02    1.47
   8   0  -6   -1.94    1.43
  -8   0   6    3.60    1.47
   7   0  -6    1.22    1.37
   7   0  -6    1.28    1.24
  -7   0   6   -0.28    1.23
   6   0  -6    6.95    1.45
   6   0  -6    7.09    1.49
   6   0  -6    7.34    0.98
  -6   0   6    6.10    1.42
   5   0  -6   42.87    2.66
   5   0  -6   48.38    3.43
   5   0  -6   42.61    3.29
  -5   0   6   35.00    2.61
  -5   0   6   42.36    4.37
  -5   0   6   48.39    3.45
   4   0  -6   31.20    3.23
   4   0  -6   30.99    1.97
   4   0  -6   33.98    2.57
   4   0  -6   28.80    2.43
  -4   0   6   26.97    1.94
  -4   0   6   32.73    2.59
  -4   0   6   30.03    3.25
   3   0  -6    8.90    0.84
   3   0  -6    9.23    1.18
   3   0  -6    8.33    1.29
   3   0  -6    9.75    1.23
   3   0  -6   11.69    1.32
  -3   0   6    8.15    0.86
  -3   0   6    5.86    1.55
  -3   0   6    9.00    1.19
   2   0  -6   16.68    1.72
   2   0  -6   17.35    1.22
   2   0  -6   17.46    1.55
   2   0  -6   16.31    2.35
   2   0  -6   18.22    2.03
  -2   0   6   15.85    1.20
  -2   0   6   14.93    2.23
  -2   0   6   16.03    1.76
   1   0  -6  109.00    6.72
   1   0  -6  101.22    6.87
   1   0  -6  102.22    5.78
  -1   0   6  104.59    6.90
  -1   0   6   96.87    5.77
   0   0  -6  222.85   12.10
   0   0  -6  225.81   14.28
   0   0   6  204.15   19.12
   0   0   6  211.94   12.10
   0   0   6  231.35   14.30
  -1   0  -6   37.32    2.42
  -1   0  -6   37.85    3.06
   1   0   6   41.19    3.10
   1   0   6   40.54    4.30
   1   0   6   38.22    2.40
  -2   0  -6   18.67    1.41
  -2   0  -6   16.92    2.04
   2   0   6   15.76    2.48
   2   0   6   17.82    1.36
   2   0   6   18.14    2.01
  -3   0  -6   55.72    4.25
  -3   0  -6   54.58    3.35
   3   0   6   50.69    3.30
   3   0   6   54.89    4.22
  -4   0  -6   50.23    4.04
   4   0   6   42.67    3.00
   4   0   6   50.07    4.00
  -5   0  -6   22.76    2.81
   5   0   6   16.72    1.70
   5   0   6   22.50    2.70
  -6   0  -6    4.92    2.05
   6   0   6    2.74    1.82
   9  -1  -6    2.14    1.58
   9  -1  -6   -0.38    1.47
  -9   1   6   -0.87    1.34
   8  -1  -6   -1.18    1.28
   8  -1  -6    0.37    1.27
   8  -1  -6    0.32    1.22
  -8   1   6    1.55    1.37
   7  -1  -6    1.32    1.28
   7  -1  -6    1.01    1.10
   7  -1  -6    1.96    0.67
   7  -1  -6    2.27    1.37
  -7   1   6    1.20    1.20
   6  -1  -6    6.98    0.86
   6  -1  -6    7.90    1.47
   6  -1  -6    5.14    1.29
   6  -1  -6    5.19    1.42
  -6   1   6    7.57    1.40
  -6   1   6    7.45    1.60
   5  -1  -6   32.04    2.57
   5  -1  -6   27.83    2.46
   5  -1  -6   27.65    2.54
   5  -1  -6   31.31    1.95
  -5   1   6   31.69    2.60
  -5   1   6   28.21    3.20
   4  -1  -6   18.72    1.74
   4  -1  -6   18.17    1.29
   4  -1  -6   19.33    1.79
   4  -1  -6   19.00    1.80
  -4   1   6   19.87    1.85
  -4   1   6   16.58    2.59
  -4   1   6   16.33    2.07
   3  -1  -6    4.54    0.65
   3  -1  -6    4.88    1.04
   3  -1  -6    4.07    0.92
   3  -1  -6    6.58    1.06
   3  -1  -6    5.07    0.94
  -3   1   6    4.94    0.99
  -3   1   6    3.96    0.98
  -3   1   6    3.04    1.24
   2  -1  -6   47.76    3.20
   2  -1  -6   46.56    2.74
   2  -1  -6   41.95    4.56
   2  -1  -6   47.26    3.39
   2  -1  -6   51.84    3.34
  -2   1   6   37.11    4.59
  -2   1   6   48.88    3.44
  -2   1   6   46.22    4.40
   1  -1  -6  193.71   16.59
   1  -1  -6  203.45   12.03
   1  -1  -6  193.24   10.43
   1  -1  -6  183.98   12.07
   1  -1  -6  190.33   12.33
  -1   1   6  167.59   16.53
  -1   1   6  183.82   16.35
  -1   1   6  192.96   12.35
   0  -1  -6  138.22    9.08
   0  -1  -6  148.88   12.38
   0  -1  -6  139.15    7.63
   0   1   6  129.96    7.64
   0   1   6  145.59    9.11
   0   1   6  117.01   12.14
  -1  -1  -6   31.11    1.99
  -1  -1  -6   29.01    3.80
  -1  -1  -6   31.68    2.66
   1   1   6   27.04    3.55
   1   1   6   29.36    2.65
   1   1   6   29.67    1.99
  -2  -1  -6    0.50    1.04
  -2  -1  -6    1.28    1.41
  -2  -1  -6    0.22    0.48
   2   1   6    0.54    1.06
   2   1   6    0.75    0.62
   2   1   6   -0.16    1.06
  -3  -1  -6   82.35    5.69
  -3  -1  -6   71.85    4.54
   3   1   6   75.60    5.62
   3   1   6   73.05    4.52
  -4  -1  -6   70.97    5.38
   4   1   6   64.85    5.29
  -5  -1  -6   11.07    2.33
   5   1   6    9.59    2.18
  -6  -1  -6   -1.41    1.87
   6   1   6    0.49    1.78
   9  -2  -6   -0.51    1.27
   9  -2  -6    0.13    1.40
  -9   2   6    1.71    1.36
   8  -2  -6   -0.84    0.62
   8  -2  -6    0.36    1.26
   8  -2  -6   -1.06    1.20
   8  -2  -6    2.68    1.34
  -8   2   6    1.19    1.27
   7  -2  -6    4.71    1.39
   7  -2  -6    1.63    1.11
   7  -2  -6    3.00    0.65
   7  -2  -6    2.22    1.33
  -7   2   6    3.54    1.29
  -7   2   6    3.26    1.26
   6  -2  -6   13.28    1.13
   6  -2  -6   16.40    1.81
   6  -2  -6   15.15    1.76
   6  -2  -6   16.62    1.89
  -6   2   6   11.73    1.15
  -6   2   6   12.47    1.63
  -6   2   6   13.75    2.14
   5  -2  -6    9.73    1.43
   5  -2  -6    9.64    0.87
   5  -2  -6    7.78    1.48
   5  -2  -6   10.35    1.31
  -5   2   6    8.60    1.48
  -5   2   6    8.62    0.91
  -5   2   6    5.76    1.82
  -5   2   6    9.71    1.29
   4  -2  -6   25.43    1.60
   4  -2  -6   23.99    2.10
   4  -2  -6   25.01    2.10
   4  -2  -6   26.05    2.13
  -4   2   6   24.16    2.63
  -4   2   6   25.57    2.18
  -4   2   6   23.64    1.63
   3  -2  -6   10.24    0.89
   3  -2  -6   11.76    1.17
   3  -2  -6   10.58    1.42
   3  -2  -6   11.72    1.25
  -3   2   6   10.96    1.62
  -3   2   6    9.25    0.91
  -3   2   6   12.13    1.34
  -3   2   6    7.30    1.61
   2  -2  -6   42.37    3.25
   2  -2  -6   45.23    3.23
   2  -2  -6   45.10    2.62
   2  -2  -6   42.83    3.03
  -2   2   6   43.85    3.33
  -2   2   6   40.72    2.64
  -2   2   6   46.47    4.59
  -2   2   6   44.35    4.22
   1  -2  -6  168.80   10.74
   1  -2  -6  157.57   11.01
   1  -2  -6  189.98   14.94
   1  -2  -6  156.70    9.28
  -1   2   6  156.90   11.03
  -1   2   6  178.51   14.93
   0  -2  -6   76.71    4.50
   0  -2  -6   74.18    5.45
   0  -2  -6   72.71    7.49
   0   2   6   87.18    7.51
   0   2   6   78.50    5.51
  -1  -2  -6   10.46    1.56
  -1  -2  -6    7.11    1.91
  -1  -2  -6    9.11    0.97
   1   2   6   12.86    1.60
   1   2   6    7.98    1.77
   1   2   6    8.20    1.00
  -2  -2  -6    7.88    1.64
   2   2   6    7.82    1.62
   2   2   6    7.72    1.03
  -3  -2  -6   60.57    4.81
   3   2   6   58.21    4.77
  -4  -2  -6   32.60    3.42
   4   2   6   31.42    3.33
  -5  -2  -6    3.28    2.00
   5   2   6    1.78    1.74
  10  -3  -6    1.92    1.52
 -10   3   6    1.91    1.48
   9  -3  -6   -0.36    1.25
   9  -3  -6   -1.15    1.26
  -9   3   6   -0.52    1.30
   8  -3  -6   -0.52    1.03
   8  -3  -6    2.18    1.32
   8  -3  -6   -0.77    1.14
  -8   3   6   -0.67    1.16
  -8   3   6   -1.38    1.02
   7  -3  -6    0.80    1.13
   7  -3  -6   -0.23    1.07
   7  -3  -6   -0.09    1.06
  -7   3   6    0.72    1.02
  -7   3   6   -1.06    1.03
  -7   3   6    0.87    0.63
   6  -3  -6   26.79    2.37
   6  -3  -6   26.84    2.24
   6  -3  -6   25.39    2.46
  -6   3   6   28.08    2.38
  -6   3   6   27.32    3.00
  -6   3   6   20.35    1.70
   5  -3  -6   11.34    1.51
   5  -3  -6    9.00    1.46
   5  -3  -6   10.34    1.28
  -5   3   6    9.27    1.51
  -5   3   6    6.60    1.77
  -5   3   6   11.10    0.94
  -5   3   6    8.25    1.28
   4  -3  -6   17.82    1.54
   4  -3  -6   12.72    1.52
   4  -3  -6   14.82    1.58
   4  -3  -6   15.06    1.04
   4  -3  -6   14.01    1.61
  -4   3   6   14.26    1.16
  -4   3   6   15.68    1.70
  -4   3   6   16.17    1.96
   3  -3  -6   14.66    1.52
   3  -3  -6   16.25    1.60
   3  -3  -6   13.20    1.00
  -3   3   6   13.37    1.53
  -3   3   6   12.45    1.11
  -3   3   6   12.53    1.87
  -3   3   6   16.63    2.49
   2  -3  -6   73.85    5.02
   2  -3  -6   75.60    4.16
   2  -3  -6   73.85    5.08
  -2   3   6   70.06    5.12
  -2   3   6   70.40    4.23
   1  -3  -6   61.40    4.60
   1  -3  -6   62.68    3.73
  -1   3   6   62.73    4.28
  -1   3   6   60.48    3.80
  -1   3   6   76.78    6.37
  -1   3   6   63.01    4.65
   0  -3  -6   39.97    3.22
   0   3   6   41.04    4.51
   0   3   6   39.58    2.60
   0   3   6   40.34    3.26
   0   3   6   37.51    2.67
  -1  -3  -6    6.27    1.39
   1   3   6    7.90    1.52
   1   3   6    2.86    1.48
  -2  -3  -6   22.44    2.66
   2   3   6   19.16    2.48
  -3  -3  -6   41.91    3.95
   3   3   6   43.16    3.87
  -4  -3  -6   20.71    2.95
   4   3   6   18.65    2.71
  10  -4  -6    0.62    1.43
 -10   4   6    0.82    1.42
   9  -4  -6   -0.26    1.22
   9  -4  -6    1.81    1.47
  -9   4   6    0.13    1.24
   8  -4  -6    0.57    1.22
   8  -4  -6    0.37    1.31
  -8   4   6    0.21    1.19
  -8   4   6   -0.32    1.06
   7  -4  -6    1.49    1.18
   7  -4  -6   -0.02    1.13
   7  -4  -6    1.27    1.06
  -7   4   6    2.76    1.10
  -7   4   6    1.71    1.05
  -7   4   6   -0.23    0.59
   6  -4  -6   11.24    1.68
   6  -4  -6   12.41    1.42
   6  -4  -6   10.41    1.66
  -6   4   6    7.75    1.99
  -6   4   6   10.59    1.70
  -6   4   6   15.02    1.67
  -6   4   6   10.41    1.03
   5  -4  -6   17.26    1.61
   5  -4  -6   16.61    1.76
   5  -4  -6   16.13    1.73
  -5   4   6   16.38    2.09
  -5   4   6   13.93    2.34
  -5   4   6   16.43    1.27
  -5   4   6   17.05    1.79
   4  -4  -6    0.02    0.92
   4  -4  -6   -0.40    0.66
  -4   4   6   -0.04    0.80
  -4   4   6   -0.02    1.06
  -4   4   6    0.50    0.55
  -4   4   6    0.21    0.85
   3  -4  -6   25.07    2.14
   3  -4  -6   20.93    2.07
  -3   4   6   22.48    1.62
  -3   4   6   29.24    3.27
  -3   4   6   22.75    2.21
   2  -4  -6   95.71    6.59
   2  -4  -6   94.19    6.47
  -2   4   6   88.64    6.61
  -2   4   6   94.68    5.54
  -2   4   6  110.18    9.12
   1  -4  -6   62.03    4.72
   1  -4  -6   63.57    4.64
  -1   4   6   65.33    3.94
  -1   4   6   62.39    4.77
  -1   4   6   69.45    6.50
   0  -4  -6    1.50    1.03
   0   4   6    1.29    0.74
   0   4   6    0.11    1.06
   0   4   6    0.37    1.22
  -1  -4  -6   13.90    2.00
   1   4   6   13.13    2.00
  -2  -4  -6   30.31    3.23
   2   4   6   30.63    3.14
  -3  -4  -6   29.94    3.29
   3   4   6   25.90    3.06
  10  -5  -6    2.79    1.64
 -10   5   6   -1.11    1.30
   9  -5  -6    1.11    1.39
   9  -5  -6    0.59    1.46
  -9   5   6   -0.22    1.12
  -9   5   6   -0.51    1.16
   8  -5  -6   -0.85    1.22
   8  -5  -6    0.25    1.37
  -8   5   6    0.51    1.03
  -8   5   6    0.04    1.12
   7  -5  -6    1.96    1.22
   7  -5  -6    1.43    1.26
  -7   5   6    1.66    0.68
  -7   5   6   -0.04    1.00
  -7   5   6    2.45    1.08
  -7   5   6    1.37    1.57
   6  -5  -6    8.76    1.58
  -6   5   6    9.97    1.38
  -6   5   6    6.49    1.85
  -6   5   6    9.65    1.58
  -6   5   6    9.59    0.97
   5  -5  -6    4.65    0.89
   5  -5  -6    4.17    1.23
  -5   5   6    3.92    1.08
  -5   5   6    4.27    0.73
  -5   5   6    3.26    1.45
  -5   5   6    4.99    1.25
   4  -5  -6    0.92    0.71
   4  -5  -6    0.73    1.06
  -4   5   6    0.11    0.93
  -4   5   6   -0.02    1.22
  -4   5   6   -1.07    0.54
   3  -5  -6   31.92    2.74
   3  -5  -6   33.43    2.76
  -3   5   6   32.87    2.25
  -3   5   6   34.06    2.91
  -3   5   6   42.10    4.25
   2  -5  -6   51.71    3.95
   2  -5  -6   53.91    4.07
  -2   5   6   57.02    5.71
  -2   5   6   50.13    4.10
  -2   5   6   56.10    3.40
   1  -5  -6   33.35    2.93
   1  -5  -6   35.62    2.99
  -1   5   6   30.76    2.97
  -1   5   6   34.05    4.14
  -1   5   6   31.40    2.38
   0  -5  -6   -0.36    0.94
   0   5   6   -1.00    1.15
  -1  -5  -6   12.93    2.00
   1   5   6   13.79    2.15
  -2  -5  -6   43.84    3.89
   2   5   6   35.78    3.68
  10  -6  -6    1.61    1.49
 -10   6   6    0.09    1.39
   9  -6  -6   -0.88    1.20
  -9   6   6   -0.49    1.12
  -9   6   6   -1.45    1.16
   8  -6  -6    0.43    1.26
  -8   6   6   -1.34    1.08
  -8   6   6    1.15    1.69
  -8   6   6    0.06    1.05
   7  -6  -6    1.27    1.22
  -7   6   6    2.13    1.04
  -7   6   6    2.64    1.11
  -7   6   6    2.86    1.61
  -7   6   6    2.34    0.71
   6  -6  -6   10.72    1.74
  -6   6   6   11.29    1.77
  -6   6   6   10.15    1.04
  -6   6   6   11.59    2.19
  -6   6   6   11.28    1.48
   5  -6  -6    3.23    1.16
  -5   6   6    0.95    0.66
  -5   6   6    3.05    1.10
  -5   6   6    1.70    1.05
  -5   6   6    3.36    1.55
   4  -6  -6    2.08    1.19
  -4   6   6    1.85    0.73
  -4   6   6    0.20    1.05
  -4   6   6    0.24    1.34
   3  -6  -6   21.39    2.05
  -3   6   6   21.87    3.27
  -3   6   6   21.67    1.77
  -3   6   6   19.28    2.23
   2  -6  -6   33.15    2.79
  -2   6   6   35.30    4.32
  -2   6   6   31.63    3.00
   1  -6  -6    6.43    1.59
  -1   6   6    3.49    1.40
   0   6   6    3.05    1.44
   1   6   6    9.97    2.06
   9  -7  -6   -2.08    1.23
  -9   7   6   -0.03    1.68
  -9   7   6   -0.30    1.21
  -9   7   6    0.35    1.15
   8  -7  -6    0.47    1.31
  -8   7   6    0.58    1.08
  -8   7   6   -1.25    1.43
  -8   7   6    1.19    1.15
   7  -7  -6   10.08    1.73
  -7   7   6    4.87    0.89
  -7   7   6    6.69    1.49
  -7   7   6    8.09    2.07
  -7   7   6    9.60    1.42
   6  -7  -6    2.19    1.22
  -6   7   6    1.81    0.71
  -6   7   6    2.59    1.09
  -6   7   6    3.01    1.62
  -6   7   6    2.98    1.20
   5  -7  -6    1.69    1.15
  -5   7   6    0.48    1.38
  -5   7   6    0.35    1.08
  -5   7   6   -0.60    0.67
   4  -7  -6    7.85    1.41
  -4   7   6    2.63    1.22
  -4   7   6    3.38    0.86
  -4   7   6    5.87    1.89
   3  -7  -6   19.91    1.99
  -3   7   6   21.69    2.30
  -3   7   6   17.72    2.97
   2  -7  -6   17.20    1.96
  -2   7   6   17.29    2.16
  -2   7   6   20.62    3.13
   1  -7  -6    3.55    1.45
  -1   7   6    3.36    1.39
   0   7   6    1.41    1.37
   9  -8  -6    1.10    1.46
  -9   8   6   -0.80    1.13
  -9   8   6    0.63    1.23
  -9   8   6   -0.36    1.74
   8  -8  -6    1.06    1.26
  -8   8   6    0.83    1.17
  -8   8   6    0.90    1.10
  -8   8   6    1.37    1.81
   7  -8  -6    3.94    1.40
  -7   8   6    5.82    2.19
  -7   8   6    4.83    1.25
  -7   8   6    3.33    1.26
   6  -8  -6   -1.24    1.07
  -6   8   6    1.47    1.11
  -6   8   6    1.54    1.73
  -6   8   6    0.43    1.07
   5  -8  -6   -1.50    0.96
  -5   8   6    0.60    1.11
  -5   8   6    1.33    1.70
  -4   8   6    5.51    1.41
  -4   8   6    5.58    1.98
  -3   8   6   17.13    3.01
  -3   8   6   17.55    2.15
  -2   8   6    3.66    1.45
  -7   9   6    2.36    2.01
  -7   9   6    1.76    1.18
  -6   9   6    1.32    1.94
  -6   9   6   -2.09    0.99
  -5   9   6    0.23    1.19
  -5   9   6    1.56    1.74
  -4   9   6    0.54    1.71
  -4   9   6    3.42    1.42
  -2  10  -7   23.53    2.97
  -3  10  -7    5.78    1.45
  -4  10  -7    0.09    0.96
  -5  10  -7    4.39    1.52
   0   9  -7    4.89    1.68
   0   9  -7    4.66    1.73
  -1   9  -7   23.28    2.32
  -1   9  -7   20.88    2.88
  -2   9  -7   33.91    2.79
  -2   9  -7   32.20    3.59
  -3   9  -7    3.25    1.12
  -3   9  -7    4.34    1.25
  -4   9  -7    0.72    1.22
  -4   9  -7    2.31    1.05
  -4   9  -7    1.64    0.99
  -5   9  -7   17.55    2.56
  -6   9  -7   26.13    3.31
   2   8  -7    8.54    1.84
   1   8  -7    1.55    1.51
   0   8  -7    9.13    1.65
   0   8  -7   10.35    2.04
  -1   8  -7   35.73    3.76
  -1   8  -7   33.19    2.95
  -2   8  -7   33.59    3.49
  -2   8  -7   32.57    2.80
  -3   8  -7    4.00    1.06
  -3   8  -7    5.38    1.50
  -3   8  -7   -0.46    1.03
  -3   8  -7    2.95    1.01
  -4   8  -7    2.76    1.35
  -4   8  -7    1.99    1.00
  -4   8  -7    2.89    1.05
  -5   8  -7   27.04    3.70
  -5   8  -7   38.48    2.76
  -6   8  -7   22.50    3.17
  -7   8  -7    8.52    2.04
  -7   8  -7    7.82    1.34
   3   7  -7   12.69    2.18
   2   7  -7    2.88    1.56
   1   7  -7   -1.00    1.23
   1   7  -7    2.88    0.95
   1   7  -7    2.46    1.40
   0   7  -7   23.85    1.74
   0   7  -7   21.20    2.31
   0   7  -7   22.55    2.84
  -1   7  -7   40.16    4.10
  -1   7  -7   38.43    2.55
  -1   7  -7   42.62    3.24
  -2   7  -7   23.90    2.90
  -2   7  -7   21.62    2.56
  -2   7  -7   22.82    2.23
  -2   7  -7   22.54    1.59
  -3   7  -7    2.56    1.29
  -3   7  -7    3.08    1.01
  -3   7  -7    3.01    1.01
  -3   7  -7    2.50    0.62
  -3   7  -7    1.99    0.83
  -4   7  -7    6.81    1.62
  -4   7  -7    4.11    1.01
  -5   7  -7   38.75    4.51
  -5   7  -7   44.48    3.28
  -6   7  -7   26.62    2.37
  -6   7  -7   20.53    3.16
  -7   7  -7    4.85    1.26
  -7   7  -7    6.55    1.87
   4   6  -7    8.26    2.00
   3   6  -7   15.24    2.22
  -3  -6   7   13.85    2.03
   2   6  -7    5.29    1.47
   2   6  -7    4.81    1.62
   2   6  -7    6.38    1.05
  -2  -6   7    3.85    1.25
   1   6  -7    6.94    1.55
   1   6  -7    5.97    0.94
   1   6  -7    4.18    1.36
   1   6  -7    4.75    0.97
  -1  -6   7    3.25    1.14
   0   6  -7   54.63    5.17
   0   6  -7   55.74    3.26
   0   6  -7   54.39    4.02
   0   6  -7   49.49    3.52
   0  -6   7   50.92    3.85
  -1   6  -7   51.98    3.79
  -1   6  -7   48.46    3.03
  -1   6  -7   49.53    4.82
  -1   6  -7   49.89    3.38
  -1   6  -7   53.74    5.10
   1  -6   7   49.15    3.60
  -2   6  -7    5.10    0.95
  -2   6  -7    4.06    1.28
  -2   6  -7    6.73    1.22
  -2   6  -7    4.85    1.12
  -2   6  -7    4.41    0.73
  -3   6  -7   18.19    2.78
  -3   6  -7   19.66    1.40
  -3   6  -7   19.98    1.96
  -3   6  -7   19.54    2.30
  -4   6  -7   32.44    2.58
  -4   6  -7   30.57    1.95
  -4   6  -7   25.68    3.55
  -5   6  -7   58.96    4.10
  -5   6  -7   54.54    3.32
  -5   6  -7   49.63    5.61
  -6   6  -7   11.07    2.40
  -6   6  -7   17.75    1.94
  -7   6  -7    2.36    1.74
  -7   6  -7    1.01    1.13
   5   5  -7    1.36    1.47
  -5  -5   7    1.56    1.46
   4   5  -7   23.11    2.72
  -4  -5   7   23.12    2.62
   3   5  -7    8.67    1.65
   3   5  -7    7.54    1.33
  -3  -5   7    5.48    1.38
   2   5  -7   11.36    1.75
   2   5  -7    9.73    1.87
   2   5  -7    9.38    1.34
   2   5  -7   11.26    1.24
  -2  -5   7    7.91    1.48
   1   5  -7   12.12    1.25
   1   5  -7   13.93    1.38
   1   5  -7   14.47    2.18
   1   5  -7   15.58    1.86
  -1  -5   7   14.70    1.71
   0   5  -7   72.86    5.03
   0   5  -7   79.73    7.08
   0   5  -7   80.80    4.50
   0   5  -7   75.78    5.41
   0   5  -7   76.06    5.43
   0   5  -7   81.84    7.31
   0  -5   7   72.57    5.30
  -1   5  -7   46.13    4.32
  -1   5  -7   44.64    2.72
  -1   5  -7   44.63    3.40
  -1   5  -7   46.55    4.59
  -1   5  -7   43.09    3.10
   1  -5   7   43.64    3.26
  -2   5  -7   15.38    2.02
  -2   5  -7   18.60    1.80
  -2   5  -7   16.42    2.54
  -2   5  -7   16.51    1.22
   2  -5   7   15.68    1.59
  -3   5  -7   23.68    2.15
  -3   5  -7   23.69    1.57
  -3   5  -7   20.22    2.94
  -4   5  -7   76.21    7.93
  -4   5  -7   81.96    4.79
  -4   5  -7   89.62    5.81
  -5   5  -7   44.80    2.84
  -5   5  -7   41.89    4.86
  -5   5  -7   44.69    3.52
  -6   5  -7    7.29    1.01
  -6   5  -7    6.55    1.40
  -6   5  -7    8.74    2.24
  -7   5  -7    1.02    1.38
   6   4  -7    0.12    1.42
  -6  -4   7   -1.41    1.34
   5   4  -7    8.54    1.85
  -5  -4   7   10.52    1.89
   4   4  -7   13.26    2.01
   4   4  -7   13.98    1.88
  -4  -4   7   13.91    2.04
   3   4  -7   14.39    1.32
   3   4  -7   11.05    1.80
   3   4  -7   10.92    2.05
   3   4  -7   12.85    1.65
  -3  -4   7   13.72    1.84
   2   4  -7   -0.34    0.71
   2   4  -7   -0.52    0.87
   2   4  -7   -0.01    0.68
   2   4  -7   -0.73    0.93
  -2  -4   7   -0.37    0.96
   1   4  -7   43.84    3.38
   1   4  -7   45.60    4.36
   1   4  -7   42.05    3.07
   1   4  -7   44.59    3.40
   1   4  -7   46.07    2.74
  -1  -4   7   40.80    3.31
   0   4  -7   72.40    5.13
   0   4  -7   75.46    6.97
   0   4  -7   70.10    4.85
   0   4  -7   76.20    6.77
   0   4  -7   78.05    4.30
   0  -4   7   70.16    5.08
  -1   4  -7   80.80    5.50
  -1   4  -7   79.43    5.29
  -1   4  -7   83.36    4.59
  -1   4  -7   73.81    7.45
  -1   4  -7   81.42    7.23
   1  -4   7   80.29    5.45
  -2   4  -7   10.27    1.36
  -2   4  -7    9.35    1.88
  -2   4  -7   11.27    0.94
   2  -4   7   11.63    1.32
  -3   4  -7   36.66    4.44
  -3   4  -7   42.78    2.52
  -3   4  -7   42.16    3.17
   3  -4   7   38.77    3.09
  -4   4  -7   45.55    5.31
  -4   4  -7   49.89    3.06
  -4   4  -7   51.61    3.84
   4  -4   7   51.02    3.77
  -5   4  -7   47.06    5.65
  -5   4  -7   54.34    4.14
  -5   4  -7   55.83    3.34
  -6   4  -7    7.33    2.36
  -6   4  -7    6.96    1.70
  -7   4  -7    4.17    1.63
   7   3  -7   -2.03    1.35
  -7  -3   7   -2.23    1.40
   6   3  -7    1.39    1.41
  -6  -3   7   -0.86    1.22
   5   3  -7   22.41    2.59
   5   3  -7   18.63    2.17
  -5  -3   7   22.04    2.49
   4   3  -7   14.64    1.37
   4   3  -7   12.20    1.86
   4   3  -7   12.98    1.79
  -4  -3   7   17.22    2.03
   3   3  -7    7.63    0.95
   3   3  -7    6.79    1.49
   3   3  -7    5.49    1.14
   3   3  -7    6.51    1.28
  -3  -3   7    4.36    1.23
   2   3  -7    9.40    1.54
   2   3  -7    8.00    0.96
   2   3  -7    9.28    1.34
   2   3  -7    8.00    1.22
  -2  -3   7    8.57    1.33
   1   3  -7   62.59    5.65
   1   3  -7   56.93    5.79
   1   3  -7   60.11    4.31
   1   3  -7   57.05    4.06
   1   3  -7   65.27    3.58
  -1  -3   7   58.97    4.28
   0   3  -7   93.18    6.00
   0   3  -7   89.63    6.21
   0   3  -7   91.62    8.20
   0   3  -7   92.52    5.21
   0  -3   7   91.08    6.19
   0  -3   7   90.71    5.14
  -1   3  -7   93.83    5.08
  -1   3  -7   81.00    8.28
  -1   3  -7   87.80    6.07
   1  -3   7   90.42    5.00
   1  -3   7   90.19    6.04
  -2   3  -7    4.65    1.02
  -2   3  -7    2.76    1.40
  -2   3  -7    4.37    0.67
   2  -3   7    4.60    1.01
   2  -3   7    4.19    0.56
  -3   3  -7   50.16    3.03
  -3   3  -7   53.44    3.80
  -3   3  -7   45.64    5.29
   3  -3   7   52.52    3.74
   3  -3   7   46.79    2.89
  -4   3  -7   78.28    5.39
  -4   3  -7   75.86    4.40
  -4   3  -7   63.92    7.32
   4  -3   7   79.28    5.32
   4  -3   7   70.47    4.21
  -5   3  -7   27.41    4.22
  -5   3  -7   30.67    2.26
  -5   3  -7   31.90    2.94
   5  -3   7   31.82    2.91
  -6   3  -7    1.90    1.48
   6  -3   7    2.54    1.41
  -7   3  -7    0.51    1.62
   8   2  -7   -0.15    1.51
  -8  -2   7   -1.21    1.47
   7   2  -7   -0.98    1.41
  -7  -2   7   -3.18    1.19
   6   2  -7    2.87    1.39
   6   2  -7    5.28    1.55
  -6  -2   7    5.90    1.60
   5   2  -7    6.89    1.48
   5   2  -7    7.97    1.54
  -5  -2   7    9.72    1.66
   4   2  -7   14.41    1.86
   4   2  -7   18.03    2.43
   4   2  -7   16.99    1.43
   4   2  -7   16.68    1.76
  -4  -2   7   16.62    1.97
   3   2  -7    2.07    0.92
   3   2  -7    2.69    1.00
   3   2  -7    2.10    0.97
   3   2  -7    2.56    0.71
  -3  -2   7    6.19    1.19
  -3  -2   7    1.24    0.94
  -3  -2   7    1.72    1.27
   2   2  -7   30.43    2.57
   2   2  -7   30.26    2.36
   2   2  -7   29.89    3.22
   2   2  -7   30.41    1.98
  -2  -2   7   30.68    3.17
  -2  -2   7   31.41    1.96
  -2  -2   7   32.28    3.62
  -2  -2   7   29.88    2.55
   1   2  -7   79.73    5.27
   1   2  -7   80.06    7.19
   1   2  -7   69.14    7.33
   1   2  -7   79.31    5.48
   1   2  -7   85.44    4.58
  -1  -2   7   80.20    4.52
  -1  -2   7   79.73    7.13
  -1  -2   7   78.59    5.46
   0   2  -7  108.92    7.17
   0   2  -7  114.15    6.23
   0   2  -7  109.91    7.40
   0   2  -7  111.33    9.77
   0   2  -7  101.75    9.99
   0  -2   7  110.18    9.71
   0  -2   7  115.13    7.40
   0  -2   7  109.31    6.18
  -1   2  -7   51.07    3.77
  -1   2  -7   53.51    3.08
  -1   2  -7   42.55    5.16
   1  -2   7   52.51    3.01
   1  -2   7   54.61    3.78
  -2   2  -7   33.44    4.13
  -2   2  -7   34.26    2.25
  -2   2  -7   35.92    2.87
   2  -2   7   36.03    2.19
   2  -2   7   36.45    2.90
  -3   2  -7   31.71    2.16
  -3   2  -7   32.59    2.84
  -3   2  -7   30.41    4.03
   3  -2   7   31.46    2.04
   3  -2   7   32.55    2.80
  -4   2  -7   91.40    9.59
  -4   2  -7  104.48    7.06
  -4   2  -7  100.80    5.82
   4  -2   7  103.00    7.03
   4  -2   7   97.21    5.71
  -5   2  -7   18.80    2.32
   5  -2   7   13.41    2.04
  -6   2  -7    0.41    1.56
   6  -2   7    0.58    1.43
  -7   2  -7    8.35    2.12
   8   1  -7   -2.16    1.31
  -8  -1   7   -2.81    1.22
   7   1  -7   -0.22    1.37
   7   1  -7   -0.88    1.22
  -7  -1   7    0.57    1.37
   6   1  -7    4.68    1.40
   6   1  -7    4.77    1.34
  -6  -1   7    5.05    1.44
   5   1  -7   11.61    1.71
   5   1  -7   12.71    1.23
   5   1  -7   11.50    1.75
  -5  -1   7   16.85    1.90
   4   1  -7    1.52    0.92
   4   1  -7    2.08    0.91
   4   1  -7    2.09    0.66
   4   1  -7    2.86    1.01
  -4  -1   7    0.25    1.26
  -4  -1   7    1.12    0.59
  -4  -1   7    0.65    0.85
  -4  -1   7    0.95    0.97
   3   1  -7    7.35    0.81
   3   1  -7    7.51    1.19
   3   1  -7    5.74    1.09
   3   1  -7    5.45    1.17
  -3  -1   7    5.25    0.77
  -3  -1   7    4.64    1.11
  -3  -1   7    7.49    1.30
  -3  -1   7    4.45    1.45
   2   1  -7   24.48    2.23
   2   1  -7   27.28    1.73
   2   1  -7   26.06    2.09
   2   1  -7   26.64    2.84
  -2  -1   7   27.00    2.29
  -2  -1   7   23.86    2.72
  -2  -1   7   24.63    1.69
   1   1  -7  137.31    8.64
   1   1  -7  130.14   11.73
   1   1  -7  139.42    7.51
   1   1  -7  131.31    8.86
  -1  -1   7  127.87    7.47
  -1  -1   7  133.72   12.03
  -1  -1   7  133.79   11.73
  -1  -1   7  136.43    8.89
   0   1  -7  137.86    8.83
   0   1  -7  136.79    7.43
   0   1  -7  126.46   11.94
   0  -1   7  120.68   11.88
   0  -1   7  135.48   11.64
   0  -1   7  135.24    8.82
   0  -1   7  132.13    7.40
  -1   1  -7   30.37    2.48
  -1   1  -7   22.61    3.29
  -1   1  -7   28.84    1.86
   1  -1   7   28.01    1.81
   1  -1   7   28.15    3.02
   1  -1   7   28.81    3.55
   1  -1   7   27.40    2.45
  -2   1  -7   35.74    2.88
  -2   1  -7   30.73    2.19
  -2   1  -7   33.44    4.11
   2  -1   7   32.95    2.14
   2  -1   7   34.74    2.84
  -3   1  -7   49.49    5.93
  -3   1  -7   53.79    3.41
  -3   1  -7   64.32    4.37
   3  -1   7   57.61    4.29
   3  -1   7   52.85    3.37
  -4   1  -7   64.39    4.82
   4  -1   7   60.89    4.77
   4  -1   7   59.27    3.75
  -5   1  -7   14.16    2.16
   5  -1   7    9.75    1.87
   5  -1   7    7.07    1.19
  -6   1  -7    4.06    1.95
   6  -1   7    5.43    1.78
   9   0  -7    0.56    1.51
   9   0  -7   -0.02    1.62
  -9   0   7   -1.22    1.40
   8   0  -7    0.22    1.30
   8   0  -7   -0.33    1.40
   8   0  -7   -2.00    1.34
  -8   0   7    0.99    1.38
   7   0  -7    0.29    1.14
   7   0  -7    0.25    1.29
  -7   0   7    0.88    1.25
   6   0  -7    7.04    1.44
   6   0  -7    5.55    0.91
   6   0  -7    4.42    1.28
  -6   0   7    7.84    1.51
   5   0  -7   25.52    2.26
   5   0  -7   23.32    1.64
   5   0  -7   21.04    2.12
  -5   0   7   23.43    3.43
  -5   0   7   25.54    2.31
  -5   0   7   19.50    1.59
   4   0  -7    2.16    0.92
   4   0  -7    0.75    0.89
   4   0  -7    1.71    0.59
   4   0  -7    0.42    0.70
  -4   0   7    1.64    0.58
  -4   0   7    0.97    0.90
  -4   0   7    0.97    1.27
   3   0  -7   10.28    1.33
   3   0  -7    7.11    1.22
   3   0  -7    8.08    1.21
   3   0  -7    7.40    0.81
  -3   0   7    5.16    1.48
  -3   0   7    7.15    1.21
  -3   0   7    7.80    0.85
   2   0  -7   78.44    4.50
   2   0  -7   75.99    7.31
   2   0  -7   79.90    5.28
   2   0  -7   79.16    5.42
  -2   0   7   81.31    5.44
  -2   0   7   81.48    7.49
  -2   0   7   71.60    4.47
   1   0  -7  220.77   14.14
   1   0  -7  213.71   11.98
   1   0  -7  227.29   13.77
  -1   0   7  202.75   11.98
  -1   0   7  220.71   14.16
   0   0  -7   44.61    2.75
   0   0  -7   47.99    3.44
   0   0   7   43.12    4.71
   0   0   7   44.57    4.41
   0   0   7   47.42    3.46
   0   0   7   42.16    2.72
  -1   0  -7    9.49    1.38
  -1   0  -7    7.23    0.88
   1   0   7    8.73    0.96
   1   0   7    9.62    1.41
   1   0   7    8.54    1.77
  -2   0  -7   45.80    3.53
  -2   0  -7   41.38    2.71
   2   0   7   48.14    3.53
   2   0   7   42.03    2.70
   2   0   7   36.24    4.76
  -3   0  -7   86.15    5.25
  -3   0  -7   94.99    6.49
   3   0   7   85.37    5.22
   3   0   7   91.12    6.45
  -4   0  -7   42.26    3.71
   4   0   7   36.09    2.66
   4   0   7   43.66    3.66
  -5   0  -7    0.78    1.70
   5   0   7    2.75    1.62
  -6   0  -7    5.56    2.09
   6   0   7    3.00    1.90
   9  -1  -7    0.30    1.47
   9  -1  -7   -0.51    1.45
  -9   1   7   -1.37    1.31
   8  -1  -7   -0.66    1.30
   8  -1  -7    0.86    1.26
   8  -1  -7   -2.97    1.08
  -8   1   7   -1.84    1.20
   7  -1  -7    0.61    1.31
   7  -1  -7    1.59    0.73
   7  -1  -7    1.11    1.10
   7  -1  -7    1.57    1.35
  -7   1   7    2.09    1.29
   6  -1  -7    5.60    0.82
   6  -1  -7    4.73    1.29
   6  -1  -7    8.17    1.38
   6  -1  -7    4.73    1.46
  -6   1   7    5.79    1.48
  -6   1   7    3.30    1.20
   5  -1  -7   12.67    1.81
   5  -1  -7   12.36    1.67
   5  -1  -7   13.70    1.63
   5  -1  -7   14.64    1.13
  -5   1   7   15.89    2.14
  -5   1   7    8.37    2.14
  -5   1   7   12.72    1.59
   4  -1  -7   10.12    1.34
   4  -1  -7    9.35    0.93
   4  -1  -7   11.87    1.49
   4  -1  -7   10.18    1.49
  -4   1   7    7.01    1.76
  -4   1   7   10.08    1.32
  -4   1   7    9.83    1.57
   3  -1  -7   14.47    1.50
   3  -1  -7   12.97    1.38
   3  -1  -7   12.44    1.07
   3  -1  -7   13.06    1.49
  -3   1   7   10.20    1.96
  -3   1   7   15.27    1.59
  -3   1   7   12.89    1.83
   2  -1  -7  131.74    7.30
   2  -1  -7  126.00    8.50
   2  -1  -7  130.20   11.71
   2  -1  -7  135.08    8.52
   2  -1  -7  129.65    8.68
  -2   1   7  142.74   11.84
  -2   1   7  121.33   11.48
  -2   1   7  127.61    8.71
   1  -1  -7  187.98   15.23
   1  -1  -7  169.62   10.97
   1  -1  -7  174.43    9.49
   1  -1  -7  175.69   11.27
   1  -1  -7  163.68   10.93
  -1   1   7  170.74   11.27
  -1   1   7  154.82    9.49
  -1   1   7  181.47   15.24
  -1   1   7  160.58   14.89
   0  -1  -7   13.32    2.31
   0  -1  -7   11.81    1.13
   0  -1  -7   16.12    1.68
   0   1   7    9.72    1.98
   0   1   7   15.44    1.69
   0   1   7   11.76    1.11
  -1  -1  -7    0.44    1.30
  -1  -1  -7   -1.49    0.90
  -1  -1  -7    0.19    0.45
   1   1   7    0.32    1.09
   1   1   7    0.11    1.09
   1   1   7    0.56    0.57
  -2  -1  -7   97.54    6.54
  -2  -1  -7   88.15    5.31
   2   1   7   83.90    5.29
   2   1   7   94.02    6.51
  -3  -1  -7   99.73    6.87
   3   1   7   86.59    5.53
   3   1   7   96.45    6.82
  -4  -1  -7   17.46    2.66
   4   1   7   20.68    2.63
  -5  -1  -7    0.54    1.82
   5   1   7   -0.13    1.67
   9  -2  -7    0.42    1.40
   9  -2  -7   -0.79    1.41
   9  -2  -7   -0.68    1.32
  -9   2   7    0.23    1.45
   8  -2  -7    0.72    1.33
   8  -2  -7   -1.01    0.66
   8  -2  -7    0.31    1.14
   8  -2  -7    0.97    1.33
  -8   2   7   -0.76    1.17
   7  -2  -7    0.19    1.06
   7  -2  -7    0.11    1.22
   7  -2  -7    1.25    1.31
   7  -2  -7    0.46    0.58
  -7   2   7   -1.57    1.03
   6  -2  -7    8.00    1.50
   6  -2  -7    9.25    1.49
   6  -2  -7    9.77    0.94
   6  -2  -7    7.54    1.64
  -6   2   7    7.99    1.40
  -6   2   7    6.65    1.53
  -6   2   7    7.75    2.04
  -6   2   7    7.81    0.95
   5  -2  -7    3.48    0.61
   5  -2  -7    3.01    1.10
   5  -2  -7    3.94    1.26
   5  -2  -7    3.92    1.10
  -5   2   7    2.42    1.42
  -5   2   7    4.05    1.11
  -5   2   7    3.14    1.04
  -5   2   7    3.41    0.72
   4  -2  -7    8.59    1.32
   4  -2  -7    6.46    1.23
   4  -2  -7    7.66    1.23
   4  -2  -7    7.82    0.77
   4  -2  -7    7.73    1.15
  -4   2   7    5.11    0.77
  -4   2   7    4.70    1.47
  -4   2   7    7.10    1.30
  -4   2   7    6.10    1.12
   3  -2  -7   19.72    1.95
   3  -2  -7   20.21    1.86
   3  -2  -7   19.72    1.65
   3  -2  -7   19.76    1.40
  -3   2   7   18.49    1.95
  -3   2   7   17.18    1.38
  -3   2   7   19.00    2.74
  -3   2   7   18.99    2.28
   2  -2  -7  110.55    6.96
   2  -2  -7  104.52    5.86
   2  -2  -7  102.24    7.04
   2  -2  -7  101.63    6.79
  -2   2   7   91.34    5.89
  -2   2   7  105.55    9.32
  -2   2   7   99.54    7.07
  -2   2   7  117.81    9.68
   1  -2  -7   43.57    2.74
   1  -2  -7   46.33    3.45
   1  -2  -7   42.26    3.45
  -1   2   7   43.99    3.48
  -1   2   7   47.58    4.84
   0  -2  -7   24.91    1.87
   0  -2  -7   28.34    2.57
   0  -2  -7   29.22    3.69
   0   2   7   26.16    2.54
   0   2   7   24.99    3.51
  -1  -2  -7    3.89    0.70
  -1  -2  -7    4.93    1.33
   1   2   7    4.29    1.38
   1   2   7    2.31    0.75
  -2  -2  -7   68.00    5.36
   2   2   7   71.47    5.34
  -3  -2  -7   64.22    5.23
   3   2   7   64.85    5.17
  -4  -2  -7    3.54    1.89
   4   2   7    2.77    1.84
  -5  -2  -7    3.28    1.98
   5   2   7    2.11    1.83
  10  -3  -7    2.87    1.60
 -10   3   7    0.37    1.48
   9  -3  -7    0.91    1.26
   9  -3  -7   -1.03    1.04
  -9   3   7   -2.17    1.26
   8  -3  -7   -1.50    1.24
   8  -3  -7    0.14    1.19
   8  -3  -7   -0.56    1.08
  -8   3   7    0.89    1.26
   7  -3  -7    2.79    1.20
   7  -3  -7    3.86    1.43
   7  -3  -7    7.67    1.40
  -7   3   7    3.13    1.31
  -7   3   7    5.80    1.31
   6  -3  -7   12.11    1.52
   6  -3  -7   10.49    0.88
   6  -3  -7    9.45    1.64
   6  -3  -7    8.52    1.61
  -6   3   7   10.10    1.01
  -6   3   7    7.07    1.39
  -6   3   7   11.09    1.70
  -6   3   7    7.41    2.03
   5  -3  -7    0.97    0.95
   5  -3  -7    1.72    1.05
   5  -3  -7    2.82    1.05
   5  -3  -7    1.47    0.45
  -5   3   7    0.46    1.23
  -5   3   7    1.42    0.60
  -5   3   7    1.27    0.96
  -5   3   7    0.76    0.87
   4  -3  -7    2.27    1.06
   4  -3  -7    2.31    0.48
   4  -3  -7    3.67    0.95
   4  -3  -7    1.79    0.86
  -4   3   7    2.02    0.60
  -4   3   7    2.24    1.34
  -4   3   7    2.07    1.02
  -4   3   7    0.67    0.86
   3  -3  -7   25.81    2.33
   3  -3  -7   26.90    1.70
   3  -3  -7   26.77    2.33
  -3   3   7   27.13    2.92
  -3   3   7   22.80    2.35
  -3   3   7   30.11    3.44
  -3   3   7   22.93    1.77
   2  -3  -7   84.05    4.75
   2  -3  -7   80.79    5.78
   2  -3  -7   84.25    5.75
  -2   3   7   95.77    8.06
  -2   3   7   75.12    4.81
  -2   3   7   81.01    5.83
   1  -3  -7   11.78    1.10
   1  -3  -7   10.32    1.49
   1  -3  -7   12.77    1.76
  -1   3   7    7.60    1.01
  -1   3   7    8.61    1.87
  -1   3   7   10.41    1.55
   0  -3  -7   11.21    1.61
   0   3   7    8.91    1.59
   0   3   7    6.58    1.74
  -1  -3  -7   29.01    2.96
   1   3   7   29.23    2.90
  -2  -3  -7   53.01    4.28
   2   3   7   45.16    4.16
  -3  -3  -7   31.25    3.38
   3   3   7   27.40    3.19
  -4  -3  -7    5.92    2.22
   4   3   7    5.91    2.14
  10  -4  -7   -0.12    1.37
  10  -4  -7    0.94    1.63
 -10   4   7    1.09    1.47
   9  -4  -7    0.36    1.31
   9  -4  -7   -1.95    1.06
  -9   4   7   -0.60    1.32
   8  -4  -7   -0.92    1.15
   8  -4  -7   -0.71    1.23
  -8   4   7   -2.07    1.08
  -8   4   7   -0.25    1.08
   7  -4  -7   10.23    1.48
   7  -4  -7    5.83    1.55
   7  -4  -7    6.94    1.58
  -7   4   7    7.49    2.09
  -7   4   7   10.18    1.80
  -7   4   7    7.87    1.46
   6  -4  -7    5.49    1.39
   6  -4  -7    5.37    1.16
   6  -4  -7    4.54    1.28
  -6   4   7    5.72    1.32
  -6   4   7    4.51    0.81
  -6   4   7    6.15    1.24
  -6   4   7    3.36    1.67
   5  -4  -7   -0.65    0.88
   5  -4  -7   -0.22    1.03
   5  -4  -7    0.00    0.93
  -5   4   7    0.58    0.83
  -5   4   7   -0.36    0.58
  -5   4   7   -0.12    0.88
  -5   4   7   -0.21    1.16
   4  -4  -7    3.92    1.28
   4  -4  -7    3.79    0.98
  -4   4   7    3.66    0.78
  -4   4   7    3.39    1.10
  -4   4   7    3.49    1.17
  -4   4   7    2.03    1.40
   3  -4  -7   67.65    4.89
   3  -4  -7   67.29    4.91
  -3   4   7   77.44    6.94
  -3   4   7   68.29    5.00
  -3   4   7   65.83    4.09
   2  -4  -7   28.71    2.57
   2  -4  -7   29.42    2.64
  -2   4   7   24.63    1.95
  -2   4   7   28.24    2.64
  -2   4   7   32.15    3.70
   1  -4  -7    4.86    1.26
   1  -4  -7    8.98    1.70
  -1   4   7    4.79    0.92
  -1   4   7    6.59    1.42
  -1   4   7    4.13    1.60
   0  -4  -7    3.10    1.26
   0   4   7    1.61    1.40
  -1  -4  -7   52.69    4.40
   1   4   7   53.21    4.38
  -2  -4  -7   35.82    3.61
   2   4   7   34.51    3.46
  -3  -4  -7   14.86    2.54
   3   4   7    8.15    2.31
  10  -5  -7    0.94    1.58
  10  -5  -7   -0.79    1.46
 -10   5   7    0.85    1.45
   9  -5  -7   -0.39    1.25
   9  -5  -7    0.73    1.46
  -9   5   7   -0.92    1.26
   8  -5  -7    0.44    1.35
   8  -5  -7    0.37    1.28
  -8   5   7    1.31    1.20
  -8   5   7    2.31    1.19
  -8   5   7    0.79    1.75
   7  -5  -7    1.69    1.32
   7  -5  -7    4.77    1.42
  -7   5   7    1.23    1.63
  -7   5   7    3.67    1.18
  -7   5   7    2.35    1.11
   6  -5  -7    1.27    1.19
  -6   5   7    2.44    0.73
  -6   5   7    2.98    1.55
  -6   5   7    4.40    1.26
  -6   5   7    3.73    1.11
   5  -5  -7   -0.52    0.96
   5  -5  -7   -0.88    0.85
  -5   5   7   -1.33    0.58
  -5   5   7   -0.73    0.85
  -5   5   7   -0.46    1.23
  -5   5   7   -1.14    0.92
   4  -5  -7   10.65    1.68
   4  -5  -7    9.34    1.25
  -4   5   7    6.68    1.03
  -4   5   7    7.82    1.47
  -4   5   7   11.57    2.19
  -4   5   7   11.12    1.81
   3  -5  -7   31.24    2.78
   3  -5  -7   33.00    2.77
  -3   5   7   31.40    2.20
  -3   5   7   33.94    2.92
   2  -5  -7   22.85    2.36
   2  -5  -7   23.18    2.48
  -2   5   7   26.88    3.55
  -2   5   7   21.88    1.84
  -2   5   7   24.15    2.45
   1  -5  -7   -0.54    1.28
   1  -5  -7   -0.82    0.99
  -1   5   7   -1.47    1.18
   0  -5  -7   14.04    1.95
   0   5   7   12.08    2.00
  -1  -5  -7   42.57    3.79
   1   5   7   36.93    3.62
  -2  -5  -7   24.42    3.03
   2   5   7   21.54    2.91
   9  -6  -7    0.03    1.30
  -9   6   7    0.21    1.31
  -9   6   7   -0.22    1.19
   8  -6  -7    1.26    1.33
  -8   6   7    3.29    1.30
  -8   6   7    2.22    1.78
  -8   6   7    2.73    1.26
   7  -6  -7    4.03    1.43
  -7   6   7    3.51    1.27
  -7   6   7    3.89    1.19
  -7   6   7    4.57    1.81
   6  -6  -7    0.32    1.10
  -6   6   7    0.02    0.62
  -6   6   7    0.87    0.98
  -6   6   7    1.83    1.09
  -6   6   7    0.87    1.49
   5  -6  -7   -0.25    1.09
  -5   6   7   -0.43    0.67
  -5   6   7   -0.50    0.94
  -5   6   7    0.17    1.41
  -5   6   7   -1.27    1.02
   4  -6  -7    9.17    1.65
  -4   6   7    5.64    0.98
  -4   6   7    8.44    1.50
  -4   6   7    6.95    1.92
   3  -6  -7   11.00    1.80
  -3   6   7   10.60    1.73
  -3   6   7   10.59    2.26
   2  -6  -7   11.39    1.89
  -2   6   7   10.01    2.37
  -2   6   7   11.41    1.79
   1  -6  -7    2.57    1.49
  -1   6   7    1.26    1.45
   0   6   7    6.25    1.82
   1   6   7   26.59    3.07
   9  -7  -7    1.91    1.50
  -9   7   7    0.30    1.26
  -9   7   7   -0.58    1.73
  -9   7   7    0.15    1.24
   8  -7  -7    0.47    1.28
  -8   7   7    3.72    1.88
  -8   7   7    2.07    1.21
  -8   7   7    1.66    1.20
   7  -7  -7   -0.06    1.18
  -7   7   7    3.09    1.20
  -7   7   7    1.42    1.16
  -7   7   7    1.35    1.63
   6  -7  -7   -1.15    1.07
  -6   7   7    0.59    1.56
  -6   7   7   -0.41    1.01
  -6   7   7    0.03    1.08
   5  -7  -7    1.12    1.20
  -5   7   7    0.35    1.08
  -5   7   7   -0.63    1.38
  -5   7   7    0.28    1.15
   4  -7  -7    9.10    1.68
  -4   7   7    8.67    1.64
  -4   7   7   10.72    2.34
   3  -7  -7   14.34    1.93
  -3   7   7   14.20    1.91
  -3   7   7    8.92    2.35
   2  -7  -7    0.45    1.32
  -2   7   7    1.13    1.35
   1  -7  -7    3.79    1.58
  -1   7   7    3.11    1.64
   8  -8  -7   -0.51    1.30
  -8   8   7    2.64    1.26
  -8   8   7    1.20    2.02
  -8   8   7    1.17    1.26
   7  -8  -7    1.58    1.32
  -7   8   7   -0.12    1.01
  -7   8   7   -1.23    1.06
   6  -8  -7   -1.30    1.11
  -6   8   7    2.58    1.21
  -6   8   7    0.09    1.76
  -6   8   7   -0.36    0.99
   5  -8  -7    2.06    1.29
  -5   8   7    1.15    1.21
  -5   8   7    1.78    1.88
  -4   8   7    5.14    1.52
  -4   8   7    7.45    2.23
  -3   8   7    4.88    1.48
  -3  10  -8    0.35    1.13
   0   9  -8    4.72    1.62
  -1   9  -8   23.95    3.06
  -1   9  -8   23.13    2.36
  -2   9  -8    5.98    1.37
  -2   9  -8    5.20    1.48
  -3   9  -8    2.51    1.19
  -3   9  -8    2.44    1.17
  -3   9  -8    0.92    1.55
  -4   9  -8   20.60    2.88
  -4   9  -8   16.54    2.36
  -4   9  -8   19.29    2.11
  -5   9  -8   26.61    3.44
  -6   9  -8   10.30    2.23
   2   8  -8    1.60    1.61
   1   8  -8    4.37    1.68
   0   8  -8   21.51    2.86
   0   8  -8   18.10    2.22
  -1   8  -8   21.79    2.88
  -1   8  -8   25.34    2.41
  -2   8  -8   14.37    1.78
  -2   8  -8   12.52    1.99
  -3   8  -8    3.29    1.15
  -3   8  -8    4.23    1.54
  -3   8  -8    4.81    1.21
  -4   8  -8   24.80    3.32
  -4   8  -8   26.59    2.47
  -5   8  -8   36.63    2.97
  -5   8  -8   33.47    4.14
  -6   8  -8   13.45    2.41
  -6   8  -8    9.74    1.50
   3   7  -8    5.30    1.86
   2   7  -8   -2.87    1.28
   1   7  -8   10.96    2.13
   1   7  -8   13.15    1.96
   0   7  -8   35.34    3.06
   0   7  -8   34.12    2.43
   0   7  -8   37.81    3.96
  -1   7  -8   24.26    2.41
  -1   7  -8   26.38    1.85
  -1   7  -8   26.56    3.03
  -2   7  -8   14.49    1.72
  -2   7  -8   12.14    1.89
  -2   7  -8    9.90    2.07
  -2   7  -8   11.86    1.14
  -3   7  -8   10.72    1.44
  -3   7  -8   15.49    1.75
  -3   7  -8   13.00    1.92
  -3   7  -8   12.82    2.22
  -4   7  -8   42.24    4.86
  -4   7  -8   46.16    3.49
  -5   7  -8   37.25    2.96
  -5   7  -8   31.63    4.12
  -6   7  -8   11.02    2.32
  -6   7  -8    7.48    1.36
  -7   7  -8    0.90    1.68
  -7   7  -8   -0.84    1.07
   4   6  -8    9.51    2.08
   3   6  -8    1.15    1.38
  -3  -6   8    0.97    1.26
   2   6  -8    3.38    1.41
  -2  -6   8    3.30    1.19
   1   6  -8   13.62    1.48
   1   6  -8   14.61    1.43
   1   6  -8   15.83    2.39
   1   6  -8   17.80    2.09
  -1  -6   8   18.41    1.93
   0   6  -8   40.94    3.02
   0   6  -8   46.63    3.48
   0   6  -8   43.48    4.43
   0   6  -8   44.69    2.77
   0  -6   8   41.34    3.32
  -1   6  -8   19.00    2.09
  -1   6  -8   18.29    2.36
  -1   6  -8   17.36    1.59
  -1   6  -8   20.63    2.74
  -1   6  -8   20.11    1.47
   1  -6   8   15.98    1.84
  -2   6  -8   20.62    2.12
  -2   6  -8   20.19    1.47
  -2   6  -8   19.45    1.74
  -2   6  -8   20.04    2.40
  -2   6  -8   18.61    2.76
  -3   6  -8   25.98    1.76
  -3   6  -8   26.09    3.37
  -3   6  -8   25.96    2.40
  -4   6  -8   63.37    4.38
  -4   6  -8   57.44    3.55
  -4   6  -8   56.25    6.04
  -5   6  -8   23.32    2.33
  -5   6  -8   20.27    3.26
  -6   6  -8    0.40    0.98
  -6   6  -8    0.80    1.57
  -7   6  -8    1.93    1.22
   5   5  -8    6.26    1.83
  -5  -5   8    3.70    1.60
   4   5  -8    9.40    1.82
   4   5  -8    6.45    1.43
  -4  -5   8    7.70    1.70
   3   5  -8    4.18    1.13
   3   5  -8    1.39    1.29
  -3  -5   8    1.77    1.27
   2   5  -8    5.64    1.40
   2   5  -8    6.82    1.08
   2   5  -8    4.81    1.54
   2   5  -8    6.36    1.17
  -2  -5   8    3.85    1.23
   1   5  -8   37.38    3.21
   1   5  -8   36.00    2.79
   1   5  -8   39.97    4.06
   1   5  -8   39.77    2.54
  -1  -5   8   39.46    3.14
   0   5  -8   70.98    6.34
   0   5  -8   63.07    4.50
   0   5  -8   68.96    4.01
   0   5  -8   69.70    6.54
   0   5  -8   67.04    4.85
   0  -5   8   62.93    4.72
  -1   5  -8   19.05    1.42
  -1   5  -8   16.87    1.68
  -1   5  -8   20.23    2.07
  -1   5  -8   17.49    2.66
  -1   5  -8   19.77    2.38
   1  -5   8   18.93    1.87
  -2   5  -8   25.69    1.75
  -2   5  -8   24.54    3.30
  -2   5  -8   25.53    2.37
  -2   5  -8   27.97    2.93
  -3   5  -8   34.28    4.30
  -3   5  -8   38.68    2.43
  -3   5  -8   40.51    3.11
  -4   5  -8   55.00    3.99
  -4   5  -8   50.28    5.62
  -4   5  -8   50.25    3.18
  -5   5  -8   20.58    3.37
  -5   5  -8   22.43    1.83
  -5   5  -8   24.34    2.40
  -6   5  -8    2.74    1.79
  -6   5  -8    2.28    1.21
  -7   5  -8    5.22    1.45
   6   4  -8    1.99    1.59
  -6  -4   8    0.61    1.48
   5   4  -8    8.50    1.69
   5   4  -8   11.16    1.95
  -5  -4   8   11.47    1.93
   4   4  -8    1.60    1.05
   4   4  -8    0.62    1.18
  -4  -4   8   -1.66    1.13
   3   4  -8    1.74    1.00
   3   4  -8   -0.17    1.03
   3   4  -8    1.61    0.84
  -3  -4   8    0.24    1.09
   2   4  -8    8.46    1.08
   2   4  -8    7.84    1.25
   2   4  -8    8.41    1.65
   2   4  -8    7.80    1.44
  -2  -4   8    9.19    1.51
   1   4  -8   70.68    5.11
   1   4  -8   69.36    5.08
   1   4  -8   73.03    4.22
   1   4  -8   73.54    6.67
   1   4  -8   69.30    4.78
  -1  -4   8   69.17    5.03
   0   4  -8   67.82    3.94
   0   4  -8   70.26    4.81
   0   4  -8   68.26    6.23
   0   4  -8   64.45    4.52
   0   4  -8   61.34    6.40
   0  -4   8   67.38    4.71
  -1   4  -8   22.42    2.55
  -1   4  -8   23.58    2.10
  -1   4  -8   16.05    2.78
  -1   4  -8   22.03    1.51
  -1   4  -8   21.00    1.91
   1  -4   8   21.87    2.01
  -2   4  -8    3.78    0.72
  -2   4  -8    3.48    1.13
  -2   4  -8    4.16    1.64
   2  -4   8    4.49    1.09
  -3   4  -8   97.57    6.50
  -3   4  -8   87.70    8.92
  -3   4  -8   91.73    5.38
   3  -4   8   94.81    6.43
  -4   4  -8   51.70    3.17
  -4   4  -8   45.32    5.52
  -4   4  -8   50.75    3.88
  -5   4  -8   16.17    2.97
  -5   4  -8   20.44    2.26
   5  -4   8   13.84    1.92
  -6   4  -8    0.22    1.39
  -7   4  -8   17.59    2.54
   7   3  -8   -2.11    1.39
  -7  -3   8   -0.69    1.37
   6   3  -8    2.96    1.54
   6   3  -8    2.95    1.46
  -6  -3   8    3.75    1.52
   5   3  -8    4.19    1.40
   5   3  -8    3.64    1.28
  -5  -3   8    5.90    1.50
   4   3  -8    4.02    1.21
   4   3  -8    3.89    1.35
  -4  -3   8    5.20    1.40
   3   3  -8   -0.85    0.96
   3   3  -8    0.93    0.75
   3   3  -8    0.81    0.96
   3   3  -8    1.21    0.91
  -3  -3   8   -0.66    1.01
   2   3  -8   26.59    1.89
   2   3  -8   27.58    2.49
   2   3  -8   26.52    2.53
   2   3  -8   27.54    2.22
   2   3  -8   27.79    3.15
  -2  -3   8   28.33    2.47
   1   3  -8   59.78    4.24
   1   3  -8   63.06    3.68
   1   3  -8   61.11    6.03
   1   3  -8   67.32    5.87
   1   3  -8   63.08    4.46
  -1  -3   8   56.68    3.59
  -1  -3   8   63.09    4.45
   0   3  -8   51.15    3.62
   0   3  -8   53.50    4.92
   0   3  -8   41.70    5.03
   0   3  -8   53.74    3.08
   0   3  -8   53.96    3.80
   0  -3   8   50.31    3.00
   0  -3   8   51.38    3.74
  -1   3  -8    5.17    1.11
  -1   3  -8    3.58    0.67
  -1   3  -8    2.14    1.41
   1  -3   8    3.02    1.02
   1  -3   8    3.62    0.60
  -2   3  -8   27.63    1.82
  -2   3  -8   27.01    2.47
  -2   3  -8   23.01    3.42
   2  -3   8   28.21    2.42
   2  -3   8   25.05    1.69
  -3   3  -8   94.10    6.44
  -3   3  -8   89.94    5.30
  -3   3  -8   88.89    8.92
   3  -3   8   88.33    5.18
   3  -3   8   95.34    6.41
  -4   3  -8   65.10    4.62
  -4   3  -8   62.37    3.73
  -4   3  -8   49.08    6.38
   4  -3   8   59.93    4.54
  -5   3  -8    6.93    1.65
   5  -3   8    3.29    1.42
  -6   3  -8    3.66    1.66
  -7   3  -8   25.74    3.08
   8   2  -8   -2.71    1.41
   7   2  -8    1.60    1.58
   7   2  -8    0.91    1.33
  -7  -2   8    0.67    1.39
   6   2  -8    6.69    1.59
   6   2  -8    5.38    1.52
  -6  -2   8    8.18    1.72
   5   2  -8    2.31    1.22
   5   2  -8    2.31    1.16
  -5  -2   8    2.50    1.31
   4   2  -8    5.42    0.85
   4   2  -8    3.77    1.16
   4   2  -8    3.36    1.18
  -4  -2   8    3.58    1.24
   3   2  -8    3.37    1.13
   3   2  -8    6.48    0.84
   3   2  -8    5.32    1.17
   3   2  -8    5.09    1.24
  -3  -2   8    5.44    0.79
  -3  -2   8    4.88    1.23
  -3  -2   8    1.52    1.40
  -3  -2   8    5.54    1.26
   2   2  -8   57.52    5.04
   2   2  -8   50.50    3.12
   2   2  -8   53.76    3.86
   2   2  -8   48.02    3.64
  -2  -2   8   53.25    4.99
  -2  -2   8   51.78    3.84
  -2  -2   8   46.00    3.06
   1   2  -8   62.65    4.32
   1   2  -8   61.65    3.67
   1   2  -8   57.58    6.05
   1   2  -8   64.70    4.48
   1   2  -8   64.26    5.84
  -1  -2   8   57.15    3.62
  -1  -2   8   64.08    5.77
  -1  -2   8   64.33    4.46
   0   2  -8   44.58    3.38
   0   2  -8   35.90    4.57
   0   2  -8   45.33    2.72
   0   2  -8   44.21    3.29
   0  -2   8   46.19    2.68
   0  -2   8   45.62    3.38
  -1   2  -8    2.29    0.61
  -1   2  -8    1.28    1.38
  -1   2  -8    2.38    0.98
   1  -2   8    2.40    0.58
   1  -2   8    1.74    0.98
  -2   2  -8   33.94    4.55
  -2   2  -8   42.11    3.27
  -2   2  -8   39.97    2.69
  -2   2  -8   40.29    2.55
   2  -2   8   41.05    3.24
   2  -2   8   39.14    2.46
  -3   2  -8  114.73    7.62
  -3   2  -8  106.64    6.32
  -3   2  -8  104.97   10.50
   3  -2   8  111.87    7.60
   3  -2   8  108.25    6.25
  -4   2  -8   35.87    3.32
   4  -2   8   40.11    3.30
   4  -2   8   35.02    2.39
  -5   2  -8    5.06    1.75
   5  -2   8    3.81    1.55
  -6   2  -8   16.84    2.50
   6  -2   8   12.70    2.24
   8   1  -8   -1.99    1.37
  -8  -1   8   -0.08    1.37
   7   1  -8    1.87    1.48
   7   1  -8    0.94    1.22
  -7  -1   8    2.03    1.41
   6   1  -8    4.23    1.33
   6   1  -8    4.79    1.40
  -6  -1   8    4.02    1.40
   5   1  -8    5.66    0.94
   5   1  -8    4.06    1.23
   5   1  -8    4.71    1.31
  -5  -1   8    2.59    1.25
   4   1  -8   -1.22    0.92
   4   1  -8   -0.39    0.60
   4   1  -8    0.26    0.90
   4   1  -8   -0.42    0.80
  -4  -1   8   -0.24    1.27
  -4  -1   8   -0.96    0.99
  -4  -1   8   -0.87    0.83
  -4  -1   8   -0.93    0.51
   3   1  -8   16.34    1.86
   3   1  -8   15.73    2.15
   3   1  -8   17.78    1.83
   3   1  -8   15.57    1.23
   3   1  -8   12.65    1.53
  -3  -1   8   16.03    2.17
  -3  -1   8    9.65    2.07
  -3  -1   8   15.60    1.81
  -3  -1   8   13.90    1.19
   2   1  -8   74.20    6.82
   2   1  -8   75.88    4.32
   2   1  -8   79.86    5.25
   2   1  -8   71.55    5.04
  -2  -1   8   74.56    6.78
  -2  -1   8   68.63    4.28
  -2  -1   8   73.24    7.25
  -2  -1   8   74.70    5.22
   1   1  -8   73.49    5.10
   1   1  -8   71.06    4.23
   1   1  -8   73.30    5.00
  -1  -1   8   70.22    4.21
  -1  -1   8   72.26    6.64
  -1  -1   8   72.12    5.12
  -1  -1   8   76.77    7.12
   0   1  -8    1.66    0.57
   0   1  -8    2.03    0.95
   0   1  -8    2.26    1.39
   0  -1   8    2.08    0.92
   0  -1   8    3.47    1.28
   0  -1   8    1.76    0.96
   0  -1   8    2.54    0.60
  -1   1  -8   31.87    2.79
  -1   1  -8   31.31    3.93
  -1   1  -8   32.42    2.14
   1  -1   8   28.66    2.05
   1  -1   8   36.99    2.80
   1  -1   8   31.19    3.39
  -2   1  -8   39.03    2.57
  -2   1  -8   36.49    4.68
  -2   1  -8   43.23    3.30
   2  -1   8   39.93    3.30
   2  -1   8   37.81    2.50
  -3   1  -8   97.29    5.62
  -3   1  -8   97.61    6.86
   3  -1   8   90.98    5.57
   3  -1   8   97.42    6.84
  -4   1  -8   29.06    2.91
   4  -1   8   23.73    1.90
   4  -1   8   23.75    2.77
  -5   1  -8    5.94    1.91
   5  -1   8    4.47    1.72
  -6   1  -8   21.65    2.91
   6  -1   8   16.31    2.60
   9   0  -8   -2.23    1.48
  -9   0   8   -0.04    1.42
   8   0  -8   -0.87    1.54
   8   0  -8   -2.00    1.40
   8   0  -8   -0.81    1.25
  -8   0   8   -1.04    1.29
   7   0  -8    0.75    1.36
   7   0  -8    0.76    1.24
  -7   0   8    3.59    1.43
   6   0  -8    8.55    1.03
   6   0  -8    7.81    1.52
   6   0  -8    4.43    1.39
  -6   0   8    8.86    1.58
   5   0  -8    1.95    1.15
   5   0  -8    0.06    0.99
   5   0  -8    1.34    0.69
  -5   0   8    0.46    0.60
  -5   0   8    2.18    1.15
   4   0  -8   -0.30    0.69
   4   0  -8    0.59    0.59
   4   0  -8   -0.30    0.88
   4   0  -8   -1.12    0.82
  -4   0   8   -0.38    1.17
  -4   0   8   -0.52    0.52
  -4   0   8    0.98    0.98
   3   0  -8   20.30    1.90
   3   0  -8   23.73    2.10
   3   0  -8   20.19    2.46
   3   0  -8   20.66    1.48
  -3   0   8   22.89    2.10
  -3   0   8   19.40    1.46
  -3   0   8   13.57    2.57
   2   0  -8   85.97    5.93
   2   0  -8   83.70    4.94
   2   0  -8   87.03    8.07
   2   0  -8   85.61    5.83
  -2   0   8   76.12    4.91
  -2   0   8   91.09    5.98
  -2   0   8   94.25    8.25
   1   0  -8   26.69    1.81
   1   0  -8   30.56    2.42
   1   0  -8   29.82    2.40
  -1   0   8   24.25    1.78
  -1   0   8   27.76    2.41
  -1   0   8   20.80    3.28
   0   0  -8    4.15    0.67
   0   0  -8    5.09    1.13
   0   0   8    2.77    1.03
   0   0   8    3.87    1.34
   0   0   8    3.40    0.69
   0   0   8    4.43    1.16
  -1   0  -8   44.98    2.88
  -1   0  -8   48.20    3.70
   1   0   8   43.18    2.86
   1   0   8   45.26    5.13
   1   0   8   48.67    3.68
  -2   0  -8  108.80    6.83
  -2   0  -8  135.05    8.36
   2   0   8  125.02    8.31
   2   0   8  112.32    6.85
  -3   0  -8   49.37    3.93
   3   0   8   45.09    3.86
   3   0   8   41.47    2.90
  -4   0  -8    6.71    1.98
   4   0   8    5.36    1.81
  -5   0  -8    5.77    2.09
   5   0   8    5.60    1.89
   9  -1  -8   -0.36    1.30
   9  -1  -8   -1.62    1.43
   9  -1  -8    1.42    1.55
  -9   1   8   -1.08    1.42
   8  -1  -8   -1.10    1.31
   8  -1  -8    0.38    1.46
   8  -1  -8    0.58    1.17
  -8   1   8   -0.26    1.25
   7  -1  -8    1.43    1.40
   7  -1  -8    1.02    1.12
   7  -1  -8    1.97    1.32
  -7   1   8    2.00    1.25
   6  -1  -8    6.69    0.91
   6  -1  -8    7.15    1.68
   6  -1  -8    4.76    1.32
   6  -1  -8   10.02    1.53
  -6   1   8    6.29    1.37
   5  -1  -8    1.52    0.62
   5  -1  -8    0.79    1.18
   5  -1  -8    0.23    0.96
   5  -1  -8    1.96    1.13
  -5   1   8    1.41    1.43
  -5   1   8    1.43    1.06
  -5   1   8    1.69    0.97
   4  -1  -8    2.84    0.63
   4  -1  -8    2.05    1.07
   4  -1  -8    4.83    1.23
   4  -1  -8    1.77    0.98
   4  -1  -8    4.51    1.06
  -4   1   8    2.05    1.02
  -4   1   8    1.94    1.02
  -4   1   8    1.46    1.29
   3  -1  -8   35.00    2.82
   3  -1  -8   33.18    2.87
   3  -1  -8   34.82    2.68
   3  -1  -8   34.30    2.24
  -3   1   8   37.93    2.95
  -3   1   8   39.26    4.25
  -3   1   8   35.13    3.66
   2  -1  -8   40.05    4.98
   2  -1  -8   53.42    3.76
   2  -1  -8   50.63    3.43
   2  -1  -8   50.20    3.02
   2  -1  -8   51.02    3.71
  -2   1   8   53.46    3.81
  -2   1   8   57.81    5.35
  -2   1   8   46.66    3.02
  -2   1   8   46.86    4.79
   1  -1  -8    2.11    1.38
   1  -1  -8    4.06    1.10
   1  -1  -8    3.91    0.56
   1  -1  -8    2.72    0.59
   1  -1  -8    2.83    1.20
  -1   1   8    2.61    1.36
  -1   1   8    3.77    1.19
  -1   1   8    3.18    0.69
   0  -1  -8    1.05    0.51
   0  -1  -8    1.24    1.01
   0  -1  -8    1.31    1.43
   0   1   8    0.72    0.61
   0   1   8    1.52    1.17
   0   1   8    0.26    1.09
  -1  -1  -8   41.11    3.35
  -1  -1  -8   36.28    2.50
   1   1   8   34.97    2.50
   1   1   8   42.66    3.35
  -2  -1  -8  124.49    8.26
   2   1   8  120.12    8.24
   2   1   8  107.54    6.75
  -3  -1  -8   27.15    2.99
   3   1   8   24.14    2.89
  -4  -1  -8    3.58    1.80
   4   1   8    0.31    1.64
  -5  -1  -8    3.45    2.02
   5   1   8    2.30    1.79
   9  -2  -8    0.77    1.29
   9  -2  -8   -0.62    1.24
  -9   2   8   -0.03    1.40
   8  -2  -8    1.30    1.41
   8  -2  -8    0.61    1.17
   8  -2  -8    1.89    1.53
  -8   2   8    1.19    1.31
   7  -2  -8    3.13    0.72
   7  -2  -8    3.02    1.48
   7  -2  -8    2.66    1.28
   7  -2  -8    2.34    1.26
  -7   2   8    4.49    1.37
   6  -2  -8    3.83    1.24
   6  -2  -8    1.99    1.16
   6  -2  -8    3.02    0.65
   6  -2  -8    1.85    1.33
  -6   2   8    2.28    0.71
  -6   2   8    2.83    1.14
  -6   2   8    0.40    1.50
  -6   2   8    3.11    1.20
   5  -2  -8   -0.14    0.99
   5  -2  -8    0.94    0.52
   5  -2  -8   -1.51    0.93
   5  -2  -8   -0.50    0.98
  -5   2   8   -0.09    1.26
  -5   2   8    0.54    0.60
  -5   2   8    0.14    0.86
  -5   2   8    0.35    0.97
   4  -2  -8    6.46    1.23
   4  -2  -8    4.80    1.28
   4  -2  -8    7.33    1.23
   4  -2  -8    6.50    0.77
  -4   2   8    7.43    1.26
  -4   2   8    3.99    0.77
  -4   2   8    6.98    1.41
  -4   2   8    5.65    1.69
   3  -2  -8   28.04    1.90
   3  -2  -8   27.70    2.54
   3  -2  -8   29.92    2.48
   3  -2  -8   28.58    2.19
  -3   2   8   29.80    2.55
  -3   2   8   32.21    3.77
  -3   2   8   24.67    1.89
  -3   2   8   26.77    3.10
   2  -2  -8   31.98    2.11
   2  -2  -8   30.89    2.77
   2  -2  -8   33.29    2.77
  -2   2   8   36.70    4.08
  -2   2   8   33.88    2.84
  -2   2   8   28.62    3.45
   1  -2  -8    6.50    0.82
   1  -2  -8    8.69    1.42
   1  -2  -8    9.59    1.65
  -1   2   8    7.88    1.46
  -1   2   8    6.27    1.71
   0  -2  -8   11.89    1.72
   0  -2  -8    9.71    1.06
   0   2   8   10.74    1.17
   0   2   8   10.69    1.71
  -1  -2  -8   45.46    3.72
  -1  -2  -8   42.82    2.87
   1   2   8   42.54    3.73
  -2  -2  -8   66.60    5.26
   2   2   8   66.64    5.25
  -3  -2  -8   17.10    2.54
   3   2   8   11.55    2.28
  -4  -2  -8    4.90    2.01
   4   2   8    2.99    1.79
   9  -3  -8    0.10    1.24
   9  -3  -8    1.01    1.33
  -9   3   8   -1.17    1.26
   8  -3  -8    2.01    1.34
   8  -3  -8    0.92    1.35
   8  -3  -8    1.71    1.34
  -8   3   8    3.35    1.36
   7  -3  -8    9.37    1.50
   7  -3  -8    6.84    1.59
   7  -3  -8    4.44    1.49
  -7   3   8   10.24    1.90
  -7   3   8    8.52    1.50
   6  -3  -8   -0.82    1.08
   6  -3  -8    0.35    0.47
   6  -3  -8   -1.01    1.04
   6  -3  -8    0.76    1.08
  -6   3   8    0.42    0.95
  -6   3   8   -0.17    1.42
  -6   3   8    0.05    0.60
  -6   3   8    0.47    1.07
   5  -3  -8    0.48    0.97
   5  -3  -8    0.33    0.48
   5  -3  -8    0.41    1.08
   5  -3  -8    0.12    1.03
  -5   3   8   -0.83    0.55
  -5   3   8   -0.37    1.04
  -5   3   8    0.19    0.95
  -5   3   8    0.51    1.36
   4  -3  -8    9.50    0.98
   4  -3  -8   10.77    1.44
   4  -3  -8   11.03    1.27
   4  -3  -8   11.04    1.70
  -4   3   8    9.00    1.46
  -4   3   8    8.07    1.98
  -4   3   8    7.06    0.99
  -4   3   8   11.63    1.79
   3  -3  -8   40.82    3.18
   3  -3  -8   41.05    2.45
   3  -3  -8   42.25    3.23
  -3   3   8   37.93    3.21
  -3   3   8   33.98    2.49
  -3   3   8   42.02    4.59
  -3   3   8   37.75    4.05
   2  -3  -8    3.15    1.07
   2  -3  -8    2.47    1.33
   2  -3  -8    3.17    0.62
  -2   3   8    3.45    1.49
  -2   3   8    2.76    1.24
  -2   3   8    3.36    0.78
   1  -3  -8   18.56    2.16
   1  -3  -8   12.44    1.69
   1  -3  -8   10.45    1.08
  -1   3   8    8.89    2.06
  -1   3   8   10.82    1.71
   0  -3  -8   22.29    1.84
   0  -3  -8   25.81    2.65
   0   3   8   21.79    2.54
  -1  -3  -8   47.24    3.98
   1   3   8   45.69    4.00
  -2  -3  -8   41.59    3.92
   2   3   8   41.18    3.83
  -3  -3  -8    8.06    2.13
   3   3   8    2.76    1.88
   9  -4  -8   -0.29    1.16
   9  -4  -8    0.13    1.40
  -9   4   8   -1.75    1.31
   8  -4  -8    4.08    1.46
   8  -4  -8    2.64    1.47
  -8   4   8    1.92    1.29
   7  -4  -8    2.51    1.36
   7  -4  -8    4.06    1.48
  -7   4   8    4.32    1.99
  -7   4   8    4.03    1.32
  -7   4   8    4.47    1.28
   6  -4  -8    0.33    1.07
   6  -4  -8    0.90    1.17
   6  -4  -8    0.67    1.02
  -6   4   8   -0.51    1.05
  -6   4   8    1.05    0.97
  -6   4   8   -0.33    1.36
   5  -4  -8    1.41    1.05
   5  -4  -8    3.44    1.13
   5  -4  -8    3.41    1.28
  -5   4   8    1.75    1.49
  -5   4   8    1.48    1.03
  -5   4   8    2.60    0.79
  -5   4   8    1.34    1.12
   4  -4  -8   10.33    1.46
   4  -4  -8   13.49    1.89
  -4   4   8   10.12    1.60
  -4   4   8    9.82    2.24
  -4   4   8   11.35    1.22
  -4   4   8   12.80    1.98
   3  -4  -8   30.76    2.77
   3  -4  -8   33.60    2.82
  -3   4   8   33.25    3.60
  -3   4   8   30.87    2.85
  -3   4   8   27.29    2.14
  -3   4   8   36.77    4.23
   2  -4  -8    1.46    1.07
   2  -4  -8    2.06    1.39
  -2   4   8    2.05    0.78
  -2   4   8    2.62    1.42
  -2   4   8    1.91    1.31
   1  -4  -8    3.40    1.55
   1  -4  -8    3.58    1.23
  -1   4   8    1.31    1.32
   0  -4  -8   31.65    3.17
   0   4   8   30.91    3.08
  -1  -4  -8   37.78    3.49
   1   4   8   32.95    3.44
  -2  -4  -8   12.14    2.28
   2   4   8   10.15    2.31
   9  -5  -8   -1.55    1.33
   9  -5  -8    0.40    1.45
  -9   5   8   -1.44    1.30
   8  -5  -8    2.77    1.45
   8  -5  -8    2.07    1.49
  -8   5   8    4.33    1.58
  -8   5   8    4.85    1.33
   7  -5  -8    0.01    1.26
   7  -5  -8    2.30    1.26
  -7   5   8    1.25    1.61
  -7   5   8    0.84    1.00
  -7   5   8    2.56    1.25
   6  -5  -8   -0.59    1.11
  -6   5   8    1.96    1.60
  -6   5   8    0.50    1.06
  -6   5   8    0.64    1.00
   5  -5  -8    1.96    1.23
  -5   5   8    2.72    1.17
  -5   5   8    0.29    1.14
  -5   5   8    1.78    1.65
   4  -5  -8   19.03    1.99
   4  -5  -8   17.87    2.24
  -4   5   8   15.06    1.95
  -4   5   8   10.91    2.48
  -4   5   8   17.56    2.47
   3  -5  -8    9.41    1.84
   3  -5  -8    9.58    1.47
  -3   5   8   10.83    2.29
  -3   5   8    9.40    1.66
   2  -5  -8   11.90    1.71
   2  -5  -8   13.02    2.04
  -2   5   8    9.86    1.83
   1  -5  -8   -0.61    1.41
   1  -5  -8    1.45    1.16
  -1   5   8    0.06    1.39
   0  -5  -8   26.03    2.88
   0   5   8   25.61    2.89
  -1  -5  -8   20.12    2.63
   1   5   8   19.33    2.74
   9  -6  -8    0.59    1.46
  -9   6   8    1.69    1.42
   8  -6  -8   -0.41    1.32
  -8   6   8    2.96    1.36
  -8   6   8    0.08    1.11
  -8   6   8    0.86    1.81
   7  -6  -8    0.05    1.25
  -7   6   8    1.17    1.07
  -7   6   8    0.89    1.16
  -7   6   8    1.24    1.68
   6  -6  -8   -0.89    1.15
  -6   6   8   -0.19    1.66
  -6   6   8    0.29    1.03
  -6   6   8    0.48    1.16
   5  -6  -8   -0.41    1.20
  -5   6   8    1.28    1.64
  -5   6   8    2.74    1.34
  -5   6   8    1.00    1.14
   4  -6  -8   13.00    2.02
  -4   6   8   12.31    2.68
  -4   6   8   10.85    1.80
   3  -6  -8    7.84    1.71
  -3   6   8    8.39    1.69
   2  -6  -8    0.54    1.42
  -2   6   8    1.47    1.39
   1  -6  -8    3.60    1.63
  -1   6   8    3.80    1.67
   0  -6  -8   17.92    2.54
   0   6   8   10.81    2.29
   9  -7  -8   -1.80    1.36
   8  -7  -8   -2.12    1.19
  -8   7   8    0.52    1.14
  -8   7   8    0.47    1.26
  -8   7   8    0.04    1.73
   7  -7  -8    1.66    1.32
  -7   7   8    0.50    1.27
  -7   7   8   -0.61    1.04
  -7   7   8   -0.79    1.63
   6  -7  -8   -0.14    1.19
  -6   7   8   -0.32    1.28
  -6   7   8    0.35    1.13
  -6   7   8   -0.03    1.62
   5  -7  -8    3.54    1.43
  -5   7   8    2.26    1.32
  -5   7   8    2.25    1.93
  -5   7   8    5.16    1.59
   4  -7  -8    9.39    1.78
  -4   7   8    4.09    1.58
   3  -7  -8    0.77    1.39
  -3   7   8    1.34    1.40
   2  -7  -8   -1.75    1.30
  -2   7   8    0.62    1.45
   7  -8  -8    0.11    1.26
  -7   8   8   -1.31    1.22
  -7   8   8    1.18    1.82
  -7   8   8    1.70    1.28
   6  -8  -8    0.26    1.23
  -6   8   8    0.00    1.18
  -6   8   8    1.19    1.38
  -6   8   8    0.79    2.04
   5  -8  -8    4.76    1.50
  -5   8   8    1.69    1.43
  -5   8   8    5.52    1.73
  -4   8   8    6.41    1.71
  -1   9  -9    8.80    1.93
  -1   9  -9   10.22    1.76
  -2   9  -9    1.93    1.34
  -2   9  -9    1.32    1.20
  -3   9  -9   10.52    1.87
  -3   9  -9    8.27    1.58
  -3   9  -9   12.52    2.30
  -4   9  -9   23.55    3.33
  -5   9  -9   22.92    3.31
   2   8  -9   -1.01    1.62
   1   8  -9    5.78    1.73
   0   8  -9   18.67    2.28
  -1   8  -9    8.37    1.83
  -1   8  -9   12.30    1.74
  -2   8  -9    1.61    1.16
  -2   8  -9    2.64    1.22
  -2   8  -9    0.00    1.46
  -3   8  -9   18.92    2.49
  -3   8  -9   18.02    2.92
  -3   8  -9   18.57    2.17
  -4   8  -9   36.09    3.22
  -4   8  -9   41.68    4.57
  -5   8  -9   19.86    3.15
  -6   8  -9    3.23    1.24
  -6   8  -9    3.28    1.80
   3   7  -9   -0.07    1.56
   2   7  -9    4.06    1.60
   1   7  -9   19.50    2.35
   0   7  -9   22.36    1.79
   0   7  -9   21.60    2.91
   0   7  -9   21.20    2.35
  -1   7  -9   13.57    2.43
  -1   7  -9   12.98    1.30
  -1   7  -9   10.74    1.74
  -1   7  -9   15.19    1.90
  -1   7  -9   12.08    2.02
  -2   7  -9    8.33    1.90
  -2   7  -9    7.70    1.52
  -2   7  -9    2.51    1.20
  -3   7  -9   25.23    3.43
  -3   7  -9   25.55    2.24
  -3   7  -9   27.37    2.51
  -4   7  -9   49.54    3.79
  -4   7  -9   47.00    5.29
  -5   7  -9   10.46    2.25
  -5   7  -9    8.60    1.44
  -6   7  -9    3.18    1.21
  -6   7  -9    5.35    1.97
   4   6  -9    2.49    1.72
   3   6  -9   -0.53    1.31
   2   6  -9    3.48    1.46
  -2  -6   9    4.07    1.37
   1   6  -9   23.88    3.18
   1   6  -9   26.18    2.61
   1   6  -9   21.24    2.06
   1   6  -9   27.82    2.00
  -1  -6   9   29.36    2.50
   0   6  -9   18.81    1.83
   0   6  -9   23.16    1.73
   0   6  -9   22.46    2.78
   0   6  -9   23.26    2.31
   0   6  -9   23.02    2.35
  -1   6  -9    6.24    1.16
  -1   6  -9    7.27    0.94
  -1   6  -9    5.63    1.49
  -1   6  -9    8.55    1.49
  -1   6  -9    7.01    1.85
  -2   6  -9   19.26    2.39
  -2   6  -9   16.52    1.67
  -2   6  -9   16.06    1.39
  -2   6  -9   17.79    2.03
  -2   6  -9   16.90    2.73
  -3   6  -9   39.69    3.12
  -3   6  -9   35.92    4.37
  -3   6  -9   35.51    2.41
  -4   6  -9   35.36    2.45
  -4   6  -9   41.67    3.21
  -4   6  -9   35.61    4.44
  -5   6  -9    4.31    1.95
  -5   6  -9    3.34    1.18
  -6   6  -9    5.81    1.40
   5   5  -9    3.84    1.69
  -5  -5   9    3.48    1.47
   4   5  -9   -0.84    1.04
   4   5  -9    0.03    1.30
  -4  -5   9   -0.23    1.32
   3   5  -9    2.36    1.38
   3   5  -9    1.18    1.03
  -3  -5   9    1.12    1.24
   2   5  -9   10.84    1.55
   2   5  -9   13.24    1.90
  -2  -5   9   13.86    1.88
   1   5  -9   42.76    3.51
   1   5  -9   37.92    3.10
   1   5  -9   47.16    2.84
   1   5  -9   43.39    4.50
  -1  -5   9   43.72    3.41
   0   5  -9   13.23    2.02
   0   5  -9   15.44    1.81
   0   5  -9   11.48    1.13
   0   5  -9   10.38    1.48
   0   5  -9   10.62    2.05
   0  -5   9    9.18    1.43
  -1   5  -9    5.29    0.85
  -1   5  -9    5.14    1.16
  -1   5  -9    4.27    1.25
  -1   5  -9    3.98    1.17
  -1   5  -9    3.23    1.50
   1  -5   9    2.60    1.01
  -2   5  -9   14.36    1.25
  -2   5  -9   14.43    2.51
  -2   5  -9   19.30    1.94
   2  -5   9   10.97    1.55
  -3   5  -9   62.32    4.50
  -3   5  -9   56.22    6.23
  -3   5  -9   60.53    3.65
  -4   5  -9   30.65    4.16
  -4   5  -9   34.09    2.98
  -4   5  -9   33.82    2.28
  -5   5  -9    4.00    2.05
  -5   5  -9    1.20    1.15
  -6   5  -9   17.56    2.32
   6   4  -9    2.50    1.61
  -6  -4   9    2.33    1.48
   5   4  -9    2.13    1.48
   5   4  -9    4.40    1.39
  -5  -4   9    2.48    1.46
   4   4  -9   -1.14    1.00
   4   4  -9   -0.75    1.24
  -4  -4   9   -2.13    1.09
   3   4  -9    3.94    1.15
   3   4  -9    2.49    1.28
  -3  -4   9    3.11    1.30
   2   4  -9   34.23    3.73
   2   4  -9   36.20    2.29
   2   4  -9   28.64    2.55
   2   4  -9   33.84    2.94
  -2  -4   9   29.52    2.82
   1   4  -9   57.28    4.24
   1   4  -9   57.10    3.45
   1   4  -9   48.92    3.91
   1   4  -9   57.14    5.49
   1   4  -9   60.63    5.80
  -1  -4   9   56.33    4.17
   0   4  -9    1.30    1.04
   0   4  -9    1.73    1.38
   0   4  -9    3.44    0.76
   0   4  -9    2.88    1.09
   0   4  -9    4.50    1.25
   0  -4   9    2.96    1.04
  -1   4  -9    1.95    0.70
  -1   4  -9    3.32    1.13
  -1   4  -9    2.54    1.46
  -1   4  -9    1.38    1.03
   1  -4   9    2.20    1.05
  -2   4  -9   60.17    4.26
  -2   4  -9   55.22    3.41
  -2   4  -9   57.18    5.99
   2  -4   9   59.60    4.17
   2  -4   9   50.26    3.19
  -3   4  -9   62.74    6.87
  -3   4  -9   66.58    4.06
  -3   4  -9   72.03    5.00
  -4   4  -9   25.15    2.57
  -4   4  -9   23.67    3.78
  -5   4  -9    5.11    1.57
  -6   4  -9   17.20    2.40
   7   3  -9    0.26    1.56
  -7  -3   9   -1.83    1.31
   6   3  -9    4.32    1.46
   6   3  -9    5.93    1.63
  -6  -3   9    4.66    1.61
   5   3  -9    2.46    1.36
   5   3  -9    1.17    1.15
  -5  -3   9    2.77    1.40
   4   3  -9    1.24    1.10
   4   3  -9    2.01    1.07
  -4  -3   9    1.71    1.24
   3   3  -9    6.96    0.99
   3   3  -9    5.72    1.25
   3   3  -9    4.11    1.36
  -3  -3   9    8.50    1.53
   2   3  -9   44.63    2.81
   2   3  -9   40.76    3.29
   2   3  -9   44.89    3.60
   2   3  -9   42.04    4.48
   2   3  -9   49.66    3.58
  -2  -3   9   44.33    3.51
   1   3  -9   24.99    3.10
   1   3  -9   18.53    1.94
   1   3  -9   23.64    2.76
   1   3  -9   22.21    2.22
   1   3  -9   23.26    1.67
  -1  -3   9   23.45    1.58
  -1  -3   9   21.81    2.21
   0   3  -9    8.25    0.93
   0   3  -9    6.35    1.67
   0   3  -9    9.40    1.43
   0   3  -9    7.47    1.48
   0   3  -9    9.44    1.45
   0  -3   9    5.07    1.22
   0  -3   9    9.31    0.86
  -1   3  -9    1.22    0.66
  -1   3  -9    3.66    1.62
  -1   3  -9    0.48    1.07
   1  -3   9    2.22    0.59
   1  -3   9    1.92    1.09
  -2   3  -9  128.92    8.29
  -2   3  -9  106.52   11.23
  -2   3  -9  122.41    6.91
   2  -3   9  129.55    8.27
   2  -3   9  115.97    6.81
  -3   3  -9   59.65    4.27
  -3   3  -9   50.99    5.99
  -3   3  -9   51.71    3.42
   3  -3   9   49.90    3.23
   3  -3   9   60.65    4.26
  -4   3  -9   13.12    1.91
   4  -3   9   10.48    1.77
  -5   3  -9    7.77    1.80
   5  -3   9    2.94    1.52
  -6   3  -9   28.59    3.17
   7   2  -9    2.22    1.49
   7   2  -9    0.72    1.31
  -7  -2   9    2.35    1.55
   6   2  -9    3.06    1.40
   6   2  -9    3.56    1.40
  -6  -2   9    4.08    1.50
   5   2  -9    3.55    1.30
   5   2  -9    2.40    1.18
  -5  -2   9    3.34    1.34
   4   2  -9    1.18    0.76
   4   2  -9    2.28    1.18
   4   2  -9    0.03    0.95
  -4  -2   9    1.63    1.19
   3   2  -9   25.91    1.89
   3   2  -9   30.12    2.63
   3   2  -9   28.83    2.54
   3   2  -9   27.81    3.18
   3   2  -9   23.99    2.25
  -3  -2   9   23.12    1.81
  -3  -2   9   28.70    2.54
   2   2  -9   40.28    4.53
   2   2  -9   44.30    3.32
   2   2  -9   43.68    2.64
   2   2  -9   38.59    3.12
   2   2  -9   43.83    4.27
  -2  -2   9   41.65    3.32
  -2  -2   9   37.95    2.56
   1   2  -9    8.52    1.37
   1   2  -9    9.37    1.45
   1   2  -9    6.91    1.42
   1   2  -9    8.49    0.96
   1   2  -9    6.48    1.66
  -1  -2   9    8.70    1.41
  -1  -2   9    9.44    0.95
   0   2  -9    4.17    1.56
   0   2  -9    4.34    0.75
   0   2  -9    3.08    1.09
   0   2  -9    1.99    1.12
   0  -2   9    3.51    0.70
   0  -2   9    2.69    1.11
  -1   2  -9   20.37    3.32
  -1   2  -9   20.12    1.60
  -1   2  -9   21.43    2.25
   1  -2   9   23.12    1.55
   1  -2   9   22.02    2.25
  -2   2  -9   65.53    7.15
  -2   2  -9   70.88    4.23
  -2   2  -9   73.27    5.19
   2  -2   9   66.44    4.11
   2  -2   9   72.76    5.17
  -3   2  -9   59.75    4.45
   3  -2   9   54.57    3.46
   3  -2   9   55.98    4.44
  -4   2  -9   14.43    2.17
   4  -2   9   12.87    2.05
  -5   2  -9    8.59    2.00
   5  -2   9    8.19    1.84
  -6   2  -9   20.07    2.86
   8   1  -9    0.23    1.43
   8   1  -9   -0.20    1.54
  -8  -1   9   -1.33    1.43
   7   1  -9    5.21    1.59
   7   1  -9    3.42    1.42
  -7  -1   9    5.21    1.53
   6   1  -9    2.08    1.31
   6   1  -9    2.40    1.33
  -6  -1   9    3.18    1.37
   5   1  -9    0.17    1.07
   5   1  -9    0.15    1.06
  -5  -1   9    3.01    1.25
  -5  -1   9    0.79    0.68
   4   1  -9    4.35    0.85
   4   1  -9    6.25    1.31
   4   1  -9    3.78    1.27
  -4  -1   9    5.25    0.88
  -4  -1   9    5.79    1.34
   3   1  -9   41.10    3.23
   3   1  -9   50.45    3.47
   3   1  -9   45.23    4.35
   3   1  -9   41.74    2.65
  -3  -1   9   38.41    2.61
  -3  -1   9   40.26    4.19
  -3  -1   9   30.59    4.59
  -3  -1   9   48.28    3.41
   2   1  -9   34.18    3.49
   2   1  -9   28.10    2.55
   2   1  -9   33.16    2.11
   2   1  -9   34.76    2.78
  -2  -1   9   31.63    2.70
  -2  -1   9   28.33    2.03
  -2  -1   9   28.33    3.29
  -2  -1   9   34.25    4.05
   1   1  -9    4.02    1.09
   1   1  -9    3.21    1.14
   1   1  -9    3.00    0.66
  -1  -1   9    3.85    0.70
  -1  -1   9    1.37    1.39
  -1  -1   9    1.81    1.07
  -1  -1   9    1.74    0.91
   0   1  -9    5.34    1.28
   0   1  -9    4.85    0.80
   0  -1   9    2.43    1.13
   0  -1   9    4.78    0.77
  -1   1  -9   50.17    6.07
  -1   1  -9   62.42    4.50
  -1   1  -9   59.92    3.63
   1  -1   9   58.93    3.57
   1  -1   9   61.95    4.50
  -2   1  -9   49.13    3.27
  -2   1  -9   54.30    4.18
   2  -1   9   52.21    4.15
   2  -1   9   51.26    3.21
  -3   1  -9   30.29    2.88
   3  -1   9   24.11    1.90
   3  -1   9   24.53    2.77
  -4   1  -9    3.30    1.66
   4  -1   9    3.29    0.99
   4  -1   9    4.76    1.69
  -5   1  -9   16.22    2.59
   5  -1   9   12.79    2.26
   8   0  -9    0.89    1.32
   8   0  -9   -1.04    1.61
   8   0  -9    2.16    1.54
  -8   0   9    0.00    1.41
   7   0  -9    1.54    1.20
   7   0  -9    3.90    1.50
  -7   0   9    2.88    1.42
   6   0  -9    3.15    1.27
   6   0  -9    2.24    1.36
  -6   0   9    1.56    1.21
   5   0  -9   -2.05    1.04
   5   0  -9    0.38    1.03
   5   0  -9   -0.94    0.61
  -5   0   9   -0.25    0.60
  -5   0   9   -2.72    0.96
   4   0  -9    8.75    0.99
   4   0  -9   10.49    1.49
   4   0  -9    7.76    1.46
   4   0  -9    7.99    1.42
  -4   0   9    5.87    1.38
  -4   0   9    7.93    0.99
   3   0  -9   30.84    2.55
   3   0  -9   26.97    2.46
   3   0  -9   28.30    1.93
  -3   0   9   33.02    3.95
  -3   0   9   27.74    2.55
  -3   0   9   25.04    1.90
   2   0  -9   16.97    1.84
   2   0  -9   19.52    2.76
   2   0  -9   17.76    1.33
   2   0  -9   18.12    1.92
  -2   0   9   12.00    2.43
  -2   0   9   18.68    1.98
  -2   0   9   15.00    1.29
   1   0  -9   -0.71    0.60
   1   0  -9    0.10    0.96
   1   0  -9    1.09    1.06
   1   0  -9    0.50    0.53
   1   0  -9   -0.30    1.11
  -1   0   9    0.26    0.56
  -1   0   9   -0.07    1.02
  -1   0   9    0.68    1.20
  -1   0   9    0.54    0.85
   0   0  -9   34.18    2.38
   0   0  -9   36.67    3.11
   0   0   9   33.57    2.32
   0   0   9   41.29    3.16
  -1   0  -9   76.98    5.31
  -1   0  -9   64.23    4.23
   1   0   9   66.78    4.22
   1   0   9   76.97    5.31
  -2   0  -9   49.49    3.87
   2   0   9   43.85    3.81
   2   0   9   41.73    2.89
  -3   0  -9    7.85    1.90
   3   0   9    5.67    1.76
  -4   0  -9    1.65    1.73
   4   0   9    0.98    1.63
  -5   0  -9   18.81    2.93
   5   0   9   19.57    2.79
   9  -1  -9   -0.58    1.47
   9  -1  -9   -0.46    1.55
   9  -1  -9   -0.44    1.31
  -9   1   9   -1.15    1.38
   8  -1  -9    0.58    1.27
   8  -1  -9    1.65    1.49
   8  -1  -9   -0.03    1.44
  -8   1   9    1.96    1.39
   7  -1  -9    4.35    1.44
   7  -1  -9    1.43    1.15
   7  -1  -9    0.66    1.45
  -7   1   9    2.71    1.31
   6  -1  -9    0.33    1.33
   6  -1  -9    2.40    1.24
   6  -1  -9   -0.06    1.10
   6  -1  -9    0.67    0.67
  -6   1   9    0.16    1.14
   5  -1  -9    2.00    1.12
   5  -1  -9    0.54    1.16
   5  -1  -9    0.70    1.20
   5  -1  -9    1.03    0.65
  -5   1   9    1.89    1.14
   4  -1  -9   10.53    1.62
   4  -1  -9    7.74    0.98
   4  -1  -9   11.19    1.55
   4  -1  -9   12.11    1.62
  -4   1   9    9.92    1.48
  -4   1   9    9.67    1.66
  -4   1   9    7.10    1.88
   3  -1  -9   13.43    1.17
   3  -1  -9   12.65    1.80
   3  -1  -9   12.20    1.40
   3  -1  -9   17.61    1.91
  -3   1   9   12.98    1.70
  -3   1   9   15.12    2.05
  -3   1   9   10.97    1.13
  -3   1   9   11.05    2.31
   2  -1  -9   14.47    1.91
   2  -1  -9   15.79    1.74
   2  -1  -9   12.61    1.19
   2  -1  -9   15.46    1.21
  -2   1   9   15.03    1.79
  -2   1   9   11.94    2.31
  -2   1   9    8.60    1.11
   1  -1  -9    0.42    0.52
   1  -1  -9    0.38    1.21
   1  -1  -9   -0.54    1.02
  -1   1   9    2.21    0.64
  -1   1   9    2.25    1.37
  -1   1   9    0.86    1.17
   0  -1  -9   19.46    2.31
   0  -1  -9   19.30    1.57
   0   1   9   17.29    1.52
   0   1   9   20.65    2.31
  -1  -1  -9   79.44    5.50
   1   1   9   74.64    5.45
   1   1   9   64.27    4.34
  -2  -1  -9   25.37    2.81
   2   1   9   22.20    2.77
  -3  -1  -9    4.11    1.79
   3   1   9    6.22    1.84
  -4  -1  -9    9.53    2.26
   4   1   9    6.68    2.04
   9  -2  -9   -0.93    1.44
   9  -2  -9    1.78    1.44
  -9   2   9    1.66    1.42
   8  -2  -9    0.50    1.19
   8  -2  -9    2.59    1.53
   8  -2  -9    2.53    1.51
  -8   2   9    1.60    1.31
   7  -2  -9    2.09    0.67
   7  -2  -9    1.50    1.28
   7  -2  -9    1.98    1.42
   7  -2  -9    0.97    1.22
  -7   2   9    0.90    1.17
   6  -2  -9    0.25    1.17
   6  -2  -9    1.74    1.20
   6  -2  -9   -0.63    0.56
   6  -2  -9   -0.17    1.10
  -6   2   9    0.14    1.13
   5  -2  -9    1.13    1.15
   5  -2  -9    1.99    1.15
   5  -2  -9    1.08    0.61
   5  -2  -9    1.41    1.15
  -5   2   9    0.13    0.94
  -5   2   9    1.73    0.70
  -5   2   9    3.22    1.23
  -5   2   9   -0.01    1.33
   4  -2  -9   18.08    2.03
   4  -2  -9   21.21    2.18
   4  -2  -9   17.65    1.43
   4  -2  -9   16.93    1.74
  -4   2   9   18.11    2.99
  -4   2   9   18.20    2.40
  -4   2   9   18.36    2.10
   3  -2  -9   16.57    1.56
   3  -2  -9   18.02    1.46
   3  -2  -9   18.01    2.01
   3  -2  -9   18.49    2.13
  -3   2   9   19.13    2.94
  -3   2   9   15.64    1.97
  -3   2   9   18.00    2.44
   2  -2  -9   12.20    1.87
   2  -2  -9   11.47    1.61
   2  -2  -9    8.67    0.99
  -2   2   9   10.88    2.19
  -2   2   9    9.61    1.80
  -2   2   9   11.29    1.68
   1  -2  -9   18.84    2.09
   1  -2  -9   20.76    2.39
   1  -2  -9   15.50    1.39
  -1   2   9   11.64    1.36
  -1   2   9   15.72    2.01
   0  -2  -9    9.54    1.07
   0  -2  -9   11.04    1.80
   0   2   9   10.50    1.87
  -1  -2  -9   44.82    4.02
   1   2   9   47.41    4.00
  -2  -2  -9   24.98    2.93
   2   2   9   24.44    2.96
  -3  -2  -9    1.89    1.77
   3   2   9    0.46    1.76
   9  -3  -9    2.07    1.53
   9  -3  -9    1.11    1.33
  -9   3   9    1.70    1.43
   8  -3  -9   -1.21    1.14
   8  -3  -9    1.35    1.45
  -8   3   9    2.82    1.36
   7  -3  -9    0.04    1.21
   7  -3  -9   -0.45    1.20
   7  -3  -9   -0.32    1.23
  -7   3   9    2.03    1.26
   6  -3  -9   -0.91    1.12
   6  -3  -9   -0.64    1.06
   6  -3  -9    0.04    0.52
   6  -3  -9    0.12    1.11
  -6   3   9   -0.25    1.09
  -6   3   9    0.01    0.95
   5  -3  -9    5.32    1.42
   5  -3  -9    4.52    1.22
   5  -3  -9    3.02    0.64
   5  -3  -9    2.83    1.13
   5  -3  -9    4.61    1.30
  -5   3   9    4.14    1.81
  -5   3   9    2.91    1.26
  -5   3   9    3.87    1.31
   4  -3  -9   12.27    1.60
   4  -3  -9    7.72    0.92
   4  -3  -9   12.49    1.90
   4  -3  -9   11.44    1.46
  -4   3   9    8.92    1.13
  -4   3   9   10.13    1.57
  -4   3   9   11.59    1.93
  -4   3   9   11.39    2.48
   3  -3  -9   18.08    1.49
   3  -3  -9   21.05    2.17
   3  -3  -9   21.33    2.23
  -3   3   9   17.93    2.58
  -3   3   9   16.62    1.50
  -3   3   9   20.55    2.20
   2  -3  -9    2.16    1.14
   2  -3  -9    1.42    0.58
   2  -3  -9    2.02    1.39
  -2   3   9    0.34    1.09
  -2   3   9    3.61    1.33
   1  -3  -9   17.63    1.59
   1  -3  -9   16.09    2.12
   1  -3  -9   22.19    2.39
  -1   3   9   17.08    2.19
   0  -3  -9   29.57    2.89
   0   3   9   21.19    2.68
  -1  -3  -9   31.64    3.43
   1   3   9   35.86    3.40
  -2  -3  -9    4.24    1.73
   2   3   9    5.91    2.05
   3   3   9    2.42    1.95
   9  -4  -9    1.09    1.57
   9  -4  -9    2.06    1.44
  -9   4   9    0.18    1.36
   8  -4  -9   -0.42    1.32
   8  -4  -9    2.70    1.52
  -8   4   9    3.19    1.39
   7  -4  -9    1.51    1.35
   7  -4  -9    1.08    1.17
  -7   4   9   -1.12    1.11
   6  -4  -9    0.68    1.23
   6  -4  -9    0.02    1.13
   6  -4  -9    0.42    1.06
  -6   4   9   -2.88    1.04
  -6   4   9   -0.08    1.57
  -6   4   9   -0.42    0.93
   5  -4  -9    3.92    1.33
   5  -4  -9    3.43    1.45
   5  -4  -9    3.91    1.17
  -5   4   9    1.75    1.77
  -5   4   9    3.42    1.34
  -5   4   9    2.33    1.22
   4  -4  -9   14.14    1.72
   4  -4  -9   11.68    2.01
   4  -4  -9   11.93    1.07
  -4   4   9   10.55    2.40
  -4   4   9   14.64    1.86
  -4   4   9   12.24    2.14
   3  -4  -9    3.56    1.52
   3  -4  -9    4.56    0.70
   3  -4  -9    5.62    1.30
  -3   4   9    3.17    1.42
  -3   4   9    4.63    1.79
  -3   4   9    4.54    1.43
   2  -4  -9    2.39    1.21
   2  -4  -9    0.60    1.42
  -2   4   9    2.82    1.35
   1  -4  -9   10.44    1.77
   1  -4  -9   13.97    2.23
  -1   4   9    5.05    1.74
   0  -4  -9   25.30    2.80
   0   4   9   21.58    2.75
  -1  -4  -9   18.50    2.48
   1   4   9   11.43    2.33
   2   4   9    1.11    1.91
   9  -5  -9    0.24    1.46
   9  -5  -9    0.43    1.45
  -9   5   9    1.83    1.47
   8  -5  -9   -0.36    1.26
   8  -5  -9   -0.02    1.39
  -8   5   9    1.31    1.31
   7  -5  -9   -1.18    1.20
  -7   5   9    0.62    1.13
  -7   5   9   -1.73    1.14
   6  -5  -9    0.48    1.28
  -6   5   9    0.15    1.68
  -6   5   9   -0.18    1.05
  -6   5   9   -2.55    1.12
   5  -5  -9    3.26    1.43
  -5   5   9    0.87    1.20
  -5   5   9    2.87    1.86
  -5   5   9    3.30    1.42
   4  -5  -9   15.30    2.24
  -4   5   9   10.39    1.87
  -4   5   9   17.02    2.58
   3  -5  -9    4.95    1.31
   3  -5  -9    4.54    1.67
  -3   5   9    7.44    1.66
   2  -5  -9    1.07    1.48
   2  -5  -9    2.02    1.24
  -2   5   9   -0.89    1.30
   1  -5  -9    7.14    1.72
   1  -5  -9   12.93    2.28
  -1   5   9    7.11    1.79
   0  -5  -9   23.87    3.00
   0   5   9   18.30    2.69
   9  -6  -9   -1.26    1.29
  -9   6   9    2.61    1.49
   8  -6  -9    2.70    1.48
  -8   6   9   -0.78    1.26
   7  -6  -9    0.03    1.35
  -7   6   9    0.55    1.15
  -7   6   9    0.31    1.29
   6  -6  -9    2.06    1.41
  -6   6   9   -0.98    1.09
  -6   6   9   -1.47    1.28
   5  -6  -9    5.50    1.66
  -5   6   9    8.48    1.89
  -5   6   9    7.39    1.69
   4  -6  -9    5.36    1.70
  -4   6   9    5.13    1.57
  -4   6   9    4.59    1.62
   3  -6  -9    0.81    1.46
  -3   6   9    1.40    1.38
   2  -6  -9    2.11    1.58
  -2   6   9   -0.97    1.33
   1  -6  -9   18.72    2.62
  -1   6   9   14.89    2.38
   8  -7  -9    0.22    1.34
  -8   7   9    1.02    1.40
   7  -7  -9   -0.70    1.25
  -7   7   9   -0.99    1.31
  -7   7   9   -1.45    1.09
   6  -7  -9   -0.27    1.34
  -6   7   9    0.39    1.28
  -6   7   9    1.11    1.48
   5  -7  -9    6.32    1.72
  -5   7   9    5.59    1.72
   4  -7  -9   -0.42    1.37
  -4   7   9    0.41    1.49
   3  -7  -9   -1.46    1.33
  -3   7   9    0.44    1.52
  -2   9 -10    1.75    1.46
  -2   9 -10    5.41    1.64
  -3   9 -10   16.76    2.64
  -3   9 -10   22.16    3.28
   1   8 -10    4.55    1.72
   0   8 -10    5.69    1.66
  -1   8 -10   -0.21    1.29
  -2   8 -10    2.70    1.37
  -2   8 -10    9.12    1.76
  -2   8 -10    6.99    2.00
  -3   8 -10   28.93    3.70
  -3   8 -10   24.20    2.60
  -4   8 -10   22.82    3.46
  -4   8 -10   22.49    2.40
  -5   8 -10    2.39    1.17
  -5   8 -10    2.23    1.86
   3   7 -10    1.59    1.63
   2   7 -10    8.93    1.93
   1   7 -10   19.85    2.45
   0   7 -10    5.81    1.57
  -1   7 -10    0.70    1.18
  -1   7 -10    1.07    1.20
  -1   7 -10    1.27    0.82
  -1   7 -10    1.12    1.59
  -1   7 -10    1.87    1.35
  -2   7 -10   15.25    2.34
  -2   7 -10   15.24    2.01
  -2   7 -10   13.75    2.54
  -3   7 -10   33.87    2.87
  -3   7 -10   29.78    3.96
  -4   7 -10    7.16    2.19
  -4   7 -10    4.88    1.36
  -5   7 -10    1.80    1.24
  -5   7 -10    5.10    2.07
   4   6 -10   -0.95    1.54
   3   6 -10    4.18    1.60
   2   6 -10   12.25    1.91
   1   6 -10   10.75    1.47
   1   6 -10   12.78    1.85
   0   6 -10    2.49    1.28
   0   6 -10    2.85    1.36
   0   6 -10    0.95    1.03
   0   6 -10    3.27    0.89
   0   6 -10    4.94    1.44
  -1   6 -10    5.24    0.95
  -1   6 -10    5.08    1.43
  -1   6 -10    4.51    1.19
  -1   6 -10    3.49    1.71
  -1   6 -10    8.27    1.50
  -2   6 -10   19.97    2.00
  -2   6 -10   21.11    1.63
  -2   6 -10   19.47    3.11
  -2   6 -10   21.56    2.28
  -3   6 -10   43.89    3.52
  -3   6 -10   40.40    2.76
  -3   6 -10   44.07    4.96
  -4   6 -10    2.87    1.17
  -4   6 -10    6.36    2.13
  -5   6 -10    5.27    1.37
  -6   6 -10   10.95    1.77
   5   5 -10    1.22    1.57
  -5  -5  10    0.33    1.42
   4   5 -10    0.61    1.14
   4   5 -10   -0.01    1.32
  -4  -5  10   -1.36    1.25
   3   5 -10    4.50    1.51
   3   5 -10    4.81    1.32
  -3  -5  10    5.78    1.46
   2   5 -10   21.12    2.39
   2   5 -10   18.14    1.90
  -2  -5  10   22.51    2.35
   1   5 -10   10.52    1.72
   1   5 -10    7.66    1.36
   1   5 -10    8.87    1.59
   1   5 -10    8.20    1.10
  -1  -5  10    7.17    1.42
   0   5 -10   -0.06    0.96
   0   5 -10    0.26    0.98
   0   5 -10   -0.60    0.71
   0   5 -10    0.08    1.09
   0   5 -10    1.40    1.43
   0  -5  10   -0.62    1.01
  -1   5 -10   18.75    2.54
  -1   5 -10   17.68    1.44
  -1   5 -10   17.23    1.78
  -1   5 -10   19.23    2.15
  -1   5 -10   12.89    2.59
  -2   5 -10   40.46    2.57
  -2   5 -10   35.10    4.49
  -2   5 -10   38.99    3.26
  -3   5 -10   37.45    4.65
  -3   5 -10   36.42    3.20
  -3   5 -10   35.90    2.45
  -4   5 -10    3.05    1.20
  -4   5 -10    5.17    2.16
  -5   5 -10   14.51    2.12
  -6   5 -10   12.23    1.91
   6   4 -10    2.51    1.61
   6   4 -10    2.12    1.41
  -6  -4  10    2.50    1.56
   5   4 -10   -0.86    1.33
   5   4 -10   -0.96    1.10
  -5  -4  10   -0.34    1.27
   4   4 -10    1.43    1.17
   4   4 -10   -0.22    1.23
  -4  -4  10    1.73    1.37
   3   4 -10   12.43    1.75
   3   4 -10   12.82    1.95
  -3  -4  10   16.30    2.07
   2   4 -10   21.58    2.21
   2   4 -10   27.82    2.64
  -2  -4  10   28.68    2.56
   1   4 -10    3.43    1.28
   1   4 -10    4.81    0.93
   1   4 -10    5.31    1.30
   1   4 -10    6.71    1.44
   1   4 -10    4.55    1.54
  -1  -4  10    4.23    1.26
   0   4 -10    0.79    1.23
   0   4 -10    1.94    1.11
   0   4 -10    1.16    1.11
   0   4 -10    0.92    1.45
   0   4 -10    0.99    0.70
   0  -4  10    1.46    1.10
  -1   4 -10   28.40    2.00
  -1   4 -10   30.05    2.53
  -1   4 -10   26.34    3.65
  -1   4 -10   29.85    2.67
   1  -4  10   25.19    1.78
  -2   4 -10   65.11    7.19
  -2   4 -10   67.70    4.22
  -2   4 -10   77.67    5.24
  -3   4 -10   20.47    2.23
  -3   4 -10   13.29    2.92
   3  -4  10   19.02    2.21
  -4   4 -10    2.94    1.46
  -5   4 -10   13.82    2.18
  -6   4 -10   32.35    3.34
   6   3 -10    0.57    1.28
   6   3 -10    1.11    1.42
  -6  -3  10    0.98    1.38
   5   3 -10   -0.93    1.26
   5   3 -10   -0.41    1.13
  -5  -3  10    0.00    1.30
   4   3 -10    1.57    1.18
   4   3 -10    1.94    1.27
  -4  -3  10    3.35    1.39
   3   3 -10   12.19    1.75
   3   3 -10   12.51    1.81
  -3  -3  10   16.11    2.00
   2   3 -10   14.72    1.81
   2   3 -10   19.36    2.18
   2   3 -10   19.40    1.53
  -2  -3  10   18.80    2.11
  -2  -3  10   16.49    1.38
   1   3 -10    3.17    1.19
   1   3 -10    3.18    0.79
   1   3 -10    5.31    1.31
   1   3 -10    1.46    1.42
   1   3 -10    2.31    1.18
  -1  -3  10    4.12    0.76
  -1  -3  10    2.82    1.20
   0   3 -10   12.58    1.22
   0   3 -10   12.45    1.77
   0   3 -10   13.16    1.77
   0   3 -10    9.24    2.09
   0  -3  10   10.86    1.08
   0  -3  10   14.29    1.80
  -1   3 -10   51.07    3.21
  -1   3 -10   45.61    5.52
  -1   3 -10   56.21    4.06
   1  -3  10   52.85    3.99
   1  -3  10   49.18    3.07
  -2   3 -10   61.45    3.79
  -2   3 -10   64.81    4.71
  -2   3 -10   56.49    6.53
   2  -3  10   59.98    3.67
   2  -3  10   64.29    4.69
  -3   3 -10   10.30    1.83
   3  -3  10    9.81    1.75
  -4   3 -10    3.39    1.60
   4  -3  10    5.05    1.54
  -5   3 -10    6.30    1.90
   7   2 -10   -0.12    1.28
   7   2 -10    2.54    1.55
  -7  -2  10    2.10    1.53
   6   2 -10   -1.09    1.24
   6   2 -10   -1.19    1.04
  -6  -2  10    0.62    1.33
   5   2 -10   -0.15    1.09
   5   2 -10    0.33    1.02
  -5  -2  10    0.82    1.29
   4   2 -10    5.94    1.40
   4   2 -10    3.01    1.20
  -4  -2  10    6.60    0.95
  -4  -2  10    3.93    1.34
   3   2 -10   20.25    1.61
   3   2 -10   21.04    2.40
   3   2 -10   17.86    2.01
   3   2 -10   24.60    2.35
  -3  -2  10   17.39    1.53
  -3  -2  10   22.77    2.29
   2   2 -10    4.37    1.28
   2   2 -10    2.34    1.15
   2   2 -10    3.09    0.79
  -2  -2  10    4.08    1.30
  -2  -2  10    3.43    0.75
   1   2 -10    7.46    2.03
   1   2 -10    9.50    1.60
   1   2 -10   10.48    1.57
   1   2 -10    9.23    1.07
  -1  -2  10   10.01    1.60
  -1  -2  10   11.46    1.03
   0   2 -10    6.73    1.87
   0   2 -10    8.76    1.57
   0   2 -10    7.46    1.56
   0   2 -10    7.62    0.98
   0  -2  10    9.08    1.02
   0  -2  10    9.41    1.56
  -1   2 -10   61.85    3.82
  -1   2 -10   69.26    4.78
   1  -2  10   65.48    4.74
   1  -2  10   56.69    3.73
  -2   2 -10   51.71    4.02
   2  -2  10   46.87    3.06
   2  -2  10   50.06    4.03
  -3   2 -10   17.57    2.19
   3  -2  10   11.97    1.93
   3  -2  10   10.18    1.25
  -4   2 -10    3.17    1.58
   4  -2  10    1.03    1.47
  -5   2 -10   13.96    2.36
   5  -2  10    7.14    1.94
   8   1 -10    2.16    1.57
   8   1 -10   -1.33    1.47
  -8  -1  10    0.38    1.44
   7   1 -10   -0.90    1.38
   7   1 -10   -0.04    1.22
  -7  -1  10    2.76    1.47
   6   1 -10   -0.36    1.10
   6   1 -10    0.39    1.37
  -6  -1  10   -0.73    1.24
   5   1 -10    1.14    1.18
   5   1 -10    0.22    1.15
  -5  -1  10   -0.79    1.15
   4   1 -10   10.95    1.70
   4   1 -10   11.95    1.72
  -4  -1  10   11.25    1.21
  -4  -1  10    9.97    1.66
   3   1 -10   22.68    2.30
   3   1 -10   18.97    2.08
   3   1 -10   20.82    1.63
  -3  -1  10   20.21    1.57
  -3  -1  10   21.08    2.27
   2   1 -10    2.92    1.25
   2   1 -10    2.22    0.71
   2   1 -10    4.66    1.31
  -2  -1  10    3.31    0.75
  -2  -1  10    2.71    1.20
   1   1 -10    6.91    1.52
   1   1 -10    7.74    1.39
   1   1 -10    5.66    0.87
  -1  -1  10    5.67    0.89
  -1  -1  10    5.57    1.40
   0   1 -10   45.97    3.59
   0   1 -10   46.05    3.45
   0   1 -10   42.09    2.74
   0  -1  10   43.16    3.52
   0  -1  10   37.03    2.66
  -1   1 -10   39.68    3.40
   1  -1  10   38.77    2.55
   1  -1  10   37.45    3.38
  -2   1 -10   34.17    2.98
   2  -1  10   25.54    1.98
   2  -1  10   25.50    2.86
  -3   1 -10    4.81    1.64
   3  -1  10    2.59    0.88
   3  -1  10    4.81    1.66
  -4   1 -10    5.96    1.96
   4  -1  10    4.79    1.70
  -5   1 -10   23.34    3.14
   8   0 -10    1.88    1.27
   8   0 -10   -3.04    1.47
   8   0 -10    1.97    1.56
  -8   0  10    1.54    1.45
   7   0 -10    0.82    1.16
   7   0 -10   -0.48    1.31
  -7   0  10   -0.53    1.29
   6   0 -10    0.04    1.06
   6   0 -10   -0.14    1.23
  -6   0  10   -0.78    1.13
   5   0 -10    2.06    1.25
   5   0 -10    0.44    1.13
  -5   0  10    1.01    1.17
   4   0 -10    7.67    1.57
   4   0 -10    8.21    1.04
   4   0 -10   10.76    1.60
   4   0 -10   10.12    1.58
  -4   0  10    7.33    1.50
  -4   0  10    8.33    1.04
   3   0 -10   16.41    1.29
   3   0 -10   14.93    1.80
   3   0 -10   11.96    1.86
  -3   0  10   11.77    1.75
  -3   0  10   11.26    1.21
   2   0 -10   18.23    1.97
   2   0 -10   11.35    1.20
   2   0 -10   14.10    1.95
  -2   0  10   11.04    1.16
  -2   0  10   14.51    1.82
   1   0 -10    8.12    1.65
   1   0 -10    7.69    0.94
   1   0 -10    7.24    0.94
   1   0 -10    8.69    1.57
  -1   0  10    5.67    1.51
  -1   0  10    5.74    0.92
   0   0 -10   70.91    5.05
   0   0 -10   63.97    4.01
   0   0  10   71.15    5.06
   0   0  10   60.28    3.97
  -1   0 -10   40.86    3.45
   1   0  10   37.59    3.41
   1   0  10   34.65    2.48
  -2   0 -10   13.27    2.10
   2   0  10   10.29    2.03
  -3   0 -10   -1.80    1.40
   3   0  10   -0.18    1.47
  -4   0 -10   22.98    2.91
   4   0  10   13.97    2.47
   8  -1 -10    0.02    1.23
   8  -1 -10    1.56    1.51
   8  -1 -10   -0.57    1.53
  -8   1  10    0.25    1.34
   7  -1 -10    0.11    1.24
   7  -1 -10   -0.14    1.41
   7  -1 -10    0.15    1.36
  -7   1  10   -1.34    1.14
   6  -1 -10    0.12    1.15
   6  -1 -10   -0.69    1.30
   6  -1 -10   -1.09    1.15
  -6   1  10   -0.33    1.11
   5  -1 -10    1.85    0.69
   5  -1 -10    1.58    1.17
   5  -1 -10    3.92    1.37
   5  -1 -10    0.24    1.25
  -5   1  10    1.37    1.18
   4  -1 -10    9.00    1.63
   4  -1 -10   10.35    1.59
   4  -1 -10   12.21    1.12
   4  -1 -10    7.44    1.59
  -4   1  10    7.84    1.07
  -4   1  10    9.95    1.60
   3  -1 -10   15.22    1.33
   3  -1 -10   15.26    1.91
   3  -1 -10   14.53    2.02
   3  -1 -10   15.09    1.49
  -3   1  10   14.56    1.91
  -3   1  10   12.31    1.24
   2  -1 -10    9.42    1.52
   2  -1 -10   10.00    1.75
   2  -1 -10    6.07    0.88
   2  -1 -10    9.02    1.04
  -2   1  10    7.11    1.51
  -2   1  10    5.22    0.92
   1  -1 -10    7.87    0.97
   1  -1 -10   10.88    1.93
   1  -1 -10    9.79    1.69
  -1   1  10    8.10    1.05
  -1   1  10    9.87    1.77
   0  -1 -10   39.06    3.45
   0   1  10   36.85    3.43
  -1  -1 -10   44.48    3.76
   1   1  10   37.58    3.64
  -2  -1 -10    8.21    1.93
   2   1  10    6.27    1.82
  -3  -1 -10   -0.11    1.59
   3   1  10    3.13    1.79
   9  -2 -10   -0.28    1.44
   9  -2 -10   -0.70    1.28
  -9   2  10    1.37    1.48
   8  -2 -10    1.90    1.45
   8  -2 -10   -0.83    1.44
   8  -2 -10    0.56    1.25
  -8   2  10    0.61    1.32
   7  -2 -10    1.24    1.24
   7  -2 -10   -0.46    1.26
   7  -2 -10    1.30    1.31
  -7   2  10    0.74    1.24
   6  -2 -10    0.46    0.63
   6  -2 -10   -1.39    1.21
   6  -2 -10   -1.13    1.12
   6  -2 -10    1.46    1.18
  -6   2  10    0.36    1.16
   5  -2 -10    2.92    1.33
   5  -2 -10    3.87    0.77
   5  -2 -10    5.04    1.47
   5  -2 -10    5.08    1.34
   5  -2 -10    6.45    1.38
  -5   2  10    4.83    1.38
   4  -2 -10   12.52    1.48
   4  -2 -10   15.37    1.37
   4  -2 -10   12.71    1.94
   4  -2 -10   12.90    1.80
  -4   2  10   11.25    1.77
   3  -2 -10   14.15    1.89
   3  -2 -10   14.36    1.37
   3  -2 -10   14.78    1.36
   3  -2 -10   11.98    2.02
  -3   2  10   11.98    1.86
   2  -2 -10    0.51    1.33
   2  -2 -10    2.68    1.24
   2  -2 -10    2.22    0.62
  -2   2  10    3.43    1.40
   1  -2 -10    8.87    1.73
   1  -2 -10    9.25    1.89
  -1   2  10    6.44    1.68
   0  -2 -10   40.38    3.55
   0   2  10   34.42    3.45
  -1  -2 -10   21.78    2.64
   1   2  10   17.21    2.57
  -2  -2 -10    2.06    1.68
   2   2  10    2.17    1.70
  -3  -2 -10    6.80    2.07
   3   2  10    5.70    2.15
   9  -3 -10   -2.52    1.05
   9  -3 -10    0.16    1.51
  -9   3  10    0.74    1.44
   8  -3 -10    0.08    1.41
   8  -3 -10   -1.90    1.19
  -8   3  10    0.89    1.34
   7  -3 -10    0.36    1.27
   7  -3 -10    1.18    1.30
   7  -3 -10   -0.70    1.06
  -7   3  10   -1.12    1.13
   6  -3 -10   -1.06    0.51
   6  -3 -10   -1.85    1.13
   6  -3 -10   -0.34    1.04
   6  -3 -10    0.13    1.25
  -6   3  10    0.27    1.20
   5  -3 -10    7.84    1.45
   5  -3 -10    5.41    1.56
   5  -3 -10    4.85    1.24
   5  -3 -10    3.47    0.72
   5  -3 -10    4.74    1.42
  -5   3  10    4.87    1.43
   4  -3 -10   13.59    1.25
   4  -3 -10   11.27    1.67
   4  -3 -10   12.39    1.36
   4  -3 -10    9.11    1.89
  -4   3  10   11.36    1.78
   3  -3 -10    1.91    1.41
   3  -3 -10    3.17    1.25
   3  -3 -10    1.44    0.59
  -3   3  10    2.43    1.34
   2  -3 -10    4.71    1.68
   2  -3 -10    5.57    1.47
   2  -3 -10    3.16    0.72
  -2   3  10    3.73    1.52
   1  -3 -10   17.71    2.34
   1  -3 -10   22.74    2.76
  -1   3  10   15.07    2.30
   0  -3 -10   29.15    3.09
   0   3  10   24.71    2.91
  -1  -3 -10   13.25    2.26
   1   3  10    8.82    2.12
  -2  -3 -10    0.03    1.60
   2   3  10    1.73    1.84
   9  -4 -10   -1.98    1.28
   9  -4 -10   -1.87    1.26
  -9   4  10   -1.49    1.34
   8  -4 -10   -1.16    1.20
   8  -4 -10   -0.64    1.23
  -8   4  10   -0.32    1.37
   7  -4 -10   -0.91    1.26
   7  -4 -10    1.67    1.26
  -7   4  10    0.33    1.24
   6  -4 -10    0.80    1.16
   6  -4 -10    2.40    1.49
  -6   4  10   -0.56    1.25
   5  -4 -10    4.73    1.36
   5  -4 -10    3.22    1.51
  -5   4  10    4.06    1.48
   4  -4 -10    8.50    1.90
   4  -4 -10   10.03    1.65
  -4   4  10    6.87    1.68
   3  -4 -10    0.30    1.37
   3  -4 -10   -0.08    0.53
   3  -4 -10   -1.32    1.05
  -3   4  10    1.30    1.38
   2  -4 -10    4.03    1.67
   2  -4 -10    2.01    1.34
  -2   4  10    3.39    1.53
   1  -4 -10   20.31    2.78
   1  -4 -10   18.06    2.44
  -1   4  10   17.26    2.43
   0  -4 -10   25.84    3.07
   0  -4 -10   22.25    2.68
   0   4  10   14.06    2.60
  -1  -4 -10    0.63    1.63
   1   4  10    1.19    1.80
   9  -5 -10   -3.13    1.30
   8  -5 -10   -0.48    1.44
   8  -5 -10    0.50    1.36
  -8   5  10    0.63    1.38
   7  -5 -10    0.63    1.34
  -7   5  10   -0.27    1.33
   6  -5 -10    5.26    1.69
  -6   5  10    0.33    1.34
   5  -5 -10    8.72    1.96
  -5   5  10    6.04    1.68
   4  -5 -10    4.24    1.69
  -4   5  10    1.09    1.39
   3  -5 -10   -3.74    1.31
  -3   5  10   -2.08    1.25
   2  -5 -10    2.33    1.73
  -2   5  10    1.78    1.54
   1  -5 -10   19.86    2.79
  -1   5  10   15.74    2.44
   0  -5 -10    6.31    2.09
   0   5  10    3.62    1.92
   8  -6 -10    0.96    1.51
  -8   6  10   -0.45    1.35
   7  -6 -10    0.65    1.38
  -7   6  10   -0.41    1.40
   6  -6 -10    4.33    1.69
  -6   6  10    1.52    1.53
   5  -6 -10    4.44    1.75
  -5   6  10    5.57    1.64
   4  -6 -10   -1.35    1.42
  -4   6  10    1.37    1.45
   3  -6 -10   -0.92    1.38
  -3   6  10   -0.43    1.45
   2  -6 -10    9.70    2.13
  -2   6  10    5.84    1.90
   7  -7 -10   -2.15    1.21
   6  -7 -10    2.54    1.52
  -6   7  10    2.59    1.56
   5  -7 -10   -1.02    1.33
  -5   7  10    1.43    1.49
   4  -7 -10    0.36    1.53
   0   8 -11    2.36    1.48
  -1   8 -11    0.61    1.38
  -2   8 -11   23.37    2.69
  -2   8 -11   26.73    3.75
  -3   8 -11   16.06    2.69
  -3   8 -11    9.84    1.76
  -4   8 -11    4.64    1.96
   2   7 -11    5.32    1.75
   1   7 -11    5.27    1.61
   0   7 -11    1.78    1.30
  -1   7 -11    5.69    2.06
  -1   7 -11    5.66    1.49
  -2   7 -11   23.58    2.53
  -2   7 -11   23.51    3.54
  -3   7 -11   13.74    2.57
  -3   7 -11   10.78    1.72
  -4   7 -11    2.29    1.26
   3   6 -11    3.94    1.67
   2   6 -11    7.54    1.72
   1   6 -11    2.94    1.44
   0   6 -11    4.09    1.23
   0   6 -11    1.43    1.34
  -1   6 -11   24.43    3.52
  -1   6 -11   18.13    2.04
  -1   6 -11   22.30    2.42
  -2   6 -11   32.09    2.87
  -2   6 -11   34.41    4.10
  -2   6 -11   26.80    2.67
  -3   6 -11    9.81    1.68
  -3   6 -11   16.35    2.80
  -4   6 -11    4.88    1.40
  -5   6 -11    5.44    1.50
   4   5 -11    0.85    1.24
   4   5 -11    3.01    1.60
  -4  -5  11    2.08    1.48
   3   5 -11    8.60    1.75
   3   5 -11    7.70    1.51
  -3  -5  11   12.56    1.95
   2   5 -11    4.66    1.50
   2   5 -11    4.05    1.20
  -2  -5  11    2.40    1.27
   1   5 -11    0.16    1.22
   1   5 -11    0.22    1.24
   1   5 -11   -0.05    1.03
  -1  -5  11   -0.46    1.13
   0   5 -11    8.93    1.61
   0   5 -11    5.73    1.37
   0  -5  11    7.83    1.50
  -1   5 -11   30.31    2.81
  -1   5 -11   32.72    4.23
  -1   5 -11   38.76    3.11
  -2   5 -11   40.49    4.90
  -2   5 -11   43.42    3.41
  -2   5 -11   34.95    3.15
  -3   5 -11    7.45    1.51
  -4   5 -11    5.23    1.38
  -5   5 -11   10.08    1.78
   5   4 -11    1.51    1.29
   5   4 -11    0.47    1.48
  -5  -4  11   -0.07    1.32
   4   4 -11    2.66    1.20
   4   4 -11    2.33    1.36
  -4  -4  11    2.48    1.50
   3   4 -11    6.07    1.39
   3   4 -11    6.46    1.60
  -3  -4  11    7.59    1.56
   2   4 -11    8.58    1.65
   2   4 -11    4.73    1.35
   2   4 -11    5.97    1.50
  -2  -4  11    6.65    1.46
   1   4 -11   -0.97    1.20
   1   4 -11    1.82    1.16
  -1  -4  11   -0.62    1.03
   0   4 -11   19.61    2.24
   0   4 -11   17.80    1.88
   0  -4  11   12.11    1.88
  -1   4 -11   35.15    3.22
  -1   4 -11   40.41    3.39
   1  -4  11   45.05    3.41
  -2   4 -11   22.82    2.53
  -3   4 -11    2.66    1.21
   3  -4  11    0.24    1.26
  -4   4 -11    4.40    1.40
  -5   4 -11   26.34    3.02
   6   3 -11   -2.97    1.26
   6   3 -11   -0.25    1.26
  -6  -3  11   -0.41    1.36
   5   3 -11    0.67    1.32
   5   3 -11   -0.78    1.09
  -5  -3  11    0.40    1.41
   4   3 -11    2.26    1.37
   4   3 -11    1.88    1.21
  -4  -3  11    3.90    1.39
   3   3 -11    7.37    1.49
   3   3 -11    5.54    1.45
  -3  -3  11    5.19    1.42
   2   3 -11    7.61    1.56
   2   3 -11    5.71    1.42
  -2  -3  11    6.28    0.91
  -2  -3  11    5.15    1.41
   1   3 -11    9.34    1.63
   1   3 -11    9.12    1.67
  -1  -3  11    7.62    1.01
  -1  -3  11    6.20    1.50
   0   3 -11   17.54    1.99
   0   3 -11   19.29    2.19
   0  -3  11   15.60    1.35
   0  -3  11   13.75    1.97
  -1   3 -11   45.59    3.75
  -1   3 -11   54.06    4.01
   1  -3  11   47.81    3.02
  -2   3 -11   19.21    2.31
   2  -3  11   15.03    2.07
  -3   3 -11    1.31    1.40
   3  -3  11   -1.31    1.26
  -4   3 -11    5.50    1.82
   4  -3  11    1.29    1.53
  -5   3 -11   35.57    3.60
   7   2 -11    1.20    1.32
   7   2 -11   -2.64    1.31
  -7  -2  11    0.88    1.46
   6   2 -11    0.81    1.38
   6   2 -11   -0.43    1.09
  -6  -2  11   -1.19    1.33
   5   2 -11   -0.55    1.15
   5   2 -11   -0.73    1.20
  -5  -2  11   -1.45    1.23
   4   2 -11    5.91    1.49
   4   2 -11    3.09    1.33
  -4  -2  11    6.63    1.56
   3   2 -11    4.47    1.40
   3   2 -11    7.85    1.56
   3   2 -11    4.36    1.38
  -3  -2  11    5.67    1.42
  -3  -2  11    5.55    0.91
   2   2 -11    2.29    1.24
   2   2 -11    1.33    1.17
  -2  -2  11    0.29    1.16
  -2  -2  11    0.67    0.69
   1   2 -11   13.98    1.81
   1   2 -11    9.92    1.78
  -1  -2  11   10.03    1.66
  -1  -2  11    9.04    1.12
   0   2 -11   29.94    2.75
   0   2 -11   22.86    2.50
   0  -2  11   27.46    2.72
   0  -2  11   27.65    1.96
  -1   2 -11   55.16    4.08
   1  -2  11   45.63    3.02
   1  -2  11   45.47    4.00
  -2   2 -11   12.54    1.98
   2  -2  11    8.83    1.17
   2  -2  11   11.16    1.89
  -3   2 -11    5.18    1.73
   3  -2  11    4.01    1.60
  -4   2 -11    4.05    1.86
   4  -2  11    4.26    1.70
   7   1 -11   -1.57    1.32
   7   1 -11   -2.45    1.07
  -7  -1  11    1.11    1.45
   6   1 -11    0.54    1.24
   6   1 -11   -0.04    1.30
  -6  -1  11    0.50    1.34
   5   1 -11    0.82    1.22
   5   1 -11    0.47    1.27
  -5  -1  11    1.12    1.33
   4   1 -11    6.24    1.55
   4   1 -11    7.43    1.50
   4   1 -11    9.24    1.59
  -4  -1  11    7.15    1.53
   3   1 -11    2.80    1.31
   3   1 -11    3.52    1.34
  -3  -1  11    2.54    0.78
  -3  -1  11    2.23    1.27
   2   1 -11    1.33    1.29
   2   1 -11    2.06    1.27
  -2  -1  11    2.67    1.28
  -2  -1  11    2.06    0.75
   1   1 -11    8.51    1.58
   1   1 -11    6.06    1.61
  -1  -1  11    6.05    1.51
  -1  -1  11    6.40    0.97
   0   1 -11   41.52    3.47
   0   1 -11   44.25    3.61
   0  -1  11   37.73    2.65
   0  -1  11   42.29    3.57
  -1   1 -11   24.91    2.56
   1  -1  11   23.54    2.62
   1  -1  11   16.36    1.61
  -2   1 -11    4.93    1.66
   2  -1  11    4.55    1.64
  -3   1 -11    8.24    1.95
   3  -1  11    6.85    1.92
  -4   1 -11   33.31    3.55
   4  -1  11   31.28    3.66
   8   0 -11    1.81    1.64
   8   0 -11   -1.80    1.61
   8   0 -11   -0.56    1.21
  -8   0  11    1.79    1.51
   7   0 -11    0.23    1.45
   7   0 -11   -3.06    1.49
   7   0 -11   -0.99    1.23
  -7   0  11   -1.47    1.35
   6   0 -11   -0.31    1.16
   6   0 -11   -1.26    1.24
  -6   0  11    0.65    1.29
   5   0 -11    1.33    1.29
   5   0 -11    1.30    1.35
  -5   0  11    1.33    1.27
   4   0 -11   11.86    1.72
   4   0 -11    6.43    1.54
   4   0 -11    8.64    1.71
  -4   0  11    7.47    1.63
   3   0 -11    9.08    1.57
   3   0 -11    4.39    1.34
   3   0 -11    4.32    1.44
  -3   0  11    6.79    1.51
   2   0 -11    0.27    1.22
   2   0 -11    0.03    1.23
   2   0 -11   -0.01    0.86
  -2   0  11    0.42    0.65
  -2   0  11    2.78    1.32
   1   0 -11   25.18    2.56
   1   0 -11   20.75    2.38
  -1   0  11   19.99    2.47
   0   0 -11   39.75    3.40
   0   0 -11   34.92    3.17
   0   0  11   31.76    3.28
  -1   0 -11   17.11    2.26
   1   0  11   10.80    2.04
  -2   0 -11    2.18    1.59
   2   0  11    2.54    1.62
  -3   0 -11   12.30    2.30
   3   0  11    6.48    1.99
   8  -1 -11   -0.32    1.45
   8  -1 -11   -1.14    1.18
   8  -1 -11   -2.12    1.55
  -8   1  11    1.49    1.43
   7  -1 -11    0.44    1.22
   7  -1 -11   -1.72    1.42
   7  -1 -11   -1.22    1.37
  -7   1  11   -0.39    1.29
   6  -1 -11    1.54    1.41
   6  -1 -11   -0.34    1.31
   6  -1 -11   -1.83    1.06
  -6   1  11   -0.31    1.22
   5  -1 -11    3.74    1.43
   5  -1 -11    3.24    1.35
   5  -1 -11    2.60    1.41
  -5   1  11    4.36    1.48
   4  -1 -11    4.76    1.59
   4  -1 -11    9.23    1.61
   4  -1 -11    3.73    1.31
  -4   1  11    5.23    1.48
   3  -1 -11    3.93    1.39
   3  -1 -11    3.78    1.44
   3  -1 -11    3.22    0.99
  -3   1  11    4.36    1.40
   2  -1 -11   -1.69    1.15
   2  -1 -11    0.50    0.65
   2  -1 -11   -0.55    1.18
  -2   1  11    0.26    1.30
   1  -1 -11   24.25    2.65
   1  -1 -11   21.26    2.50
  -1   1  11   22.34    2.59
   0  -1 -11   37.47    3.48
   0  -1 -11   34.86    3.30
   0   1  11   35.71    3.39
  -1  -1 -11   10.53    1.96
   1   1  11    6.95    1.91
  -2  -1 -11    2.37    1.71
   2   1  11    3.61    1.76
  -3  -1 -11   23.63    3.08
   3   1  11   13.63    2.64
   8  -2 -11    1.02    1.52
   8  -2 -11   -0.53    1.27
   8  -2 -11    0.41    1.49
  -8   2  11    0.94    1.40
   7  -2 -11   -1.60    1.31
   7  -2 -11   -0.60    1.23
   7  -2 -11   -1.87    1.18
  -7   2  11    0.19    1.34
   6  -2 -11   -0.32    1.24
   6  -2 -11    0.94    1.35
   6  -2 -11    0.06    1.19
  -6   2  11    2.28    1.37
   5  -2 -11    6.83    1.39
   5  -2 -11    8.56    1.56
   5  -2 -11    7.56    1.62
   5  -2 -11    8.90    1.76
  -5   2  11    7.10    1.55
   4  -2 -11    1.66    1.33
   4  -2 -11    5.37    1.13
   4  -2 -11    1.93    1.23
  -4   2  11    2.49    1.34
   3  -2 -11   -0.02    0.72
   3  -2 -11   -0.69    1.20
   3  -2 -11   -0.71    1.22
  -3   2  11   -1.01    1.20
   2  -2 -11    3.25    1.30
   2  -2 -11    1.61    1.46
  -2   2  11    0.31    1.41
   1  -2 -11   27.05    2.77
   1  -2 -11   25.29    2.80
  -1   2  11   18.92    2.64
   0  -2 -11   20.84    2.79
   0  -2 -11   22.12    2.62
   0   2  11   14.90    2.46
  -1  -2 -11    3.51    1.67
   1   2  11    0.79    1.58
  -2  -2 -11    3.23    1.92
   2   2  11    4.67    2.01
   8  -3 -11    0.50    1.44
   8  -3 -11    3.19    1.57
  -8   3  11   -0.04    1.40
   7  -3 -11    0.48    1.37
   7  -3 -11    1.13    1.29
   7  -3 -11   -0.68    1.37
  -7   3  11   -2.43    1.16
   6  -3 -11    2.83    1.42
   6  -3 -11    2.46    1.45
   6  -3 -11   -0.12    1.25
  -6   3  11    3.77    1.44
   5  -3 -11    5.42    1.42
   5  -3 -11    5.56    1.20
   5  -3 -11    2.37    0.68
   5  -3 -11    5.40    1.64
  -5   3  11    3.02    1.40
   4  -3 -11    2.25    1.51
   4  -3 -11    2.00    1.25
   4  -3 -11    1.33    0.63
  -4   3  11    2.95    1.44
   3  -3 -11   -0.32    1.18
   3  -3 -11   -0.47    1.46
  -3   3  11   -0.33    1.37
   2  -3 -11    8.53    1.79
   2  -3 -11    9.66    2.05
  -2   3  11    9.47    1.98
   1  -3 -11   24.92    2.83
   1  -3 -11   22.50    2.77
  -1   3  11   20.55    2.66
   0  -3 -11   11.64    2.06
   0  -3 -11   12.38    2.39
   0   3  11    8.32    2.12
  -1  -3 -11    1.77    1.67
   1   3  11    1.64    1.75
   8  -4 -11    0.13    1.27
   8  -4 -11    1.70    1.59
  -8   4  11   -0.56    1.34
   7  -4 -11    0.55    1.32
   7  -4 -11    2.14    1.55
  -7   4  11   -1.63    1.26
   6  -4 -11    2.06    1.48
   6  -4 -11    2.89    1.28
  -6   4  11    2.13    1.45
   5  -4 -11    0.85    1.27
   5  -4 -11    1.14    1.52
  -5   4  11    1.56    1.40
   4  -4 -11   -0.25    1.21
   4  -4 -11   -1.08    1.33
  -4   4  11    2.32    1.47
   3  -4 -11    2.08    1.34
   3  -4 -11    0.96    1.51
  -3   4  11    0.73    1.46
   2  -4 -11   12.27    2.35
   2  -4 -11   11.82    2.03
  -2   4  11   10.74    2.06
   1  -4 -11   11.80    2.37
   1  -4 -11   12.03    2.14
  -1   4  11    5.78    1.99
   0  -4 -11    9.85    2.05
   0  -4 -11    7.78    2.25
   0   4  11    9.77    2.20
   8  -5 -11   -0.61    1.50
  -8   5  11   -1.21    1.41
   7  -5 -11   -0.56    1.34
  -7   5  11    2.68    1.55
   6  -5 -11    1.05    1.52
  -6   5  11    4.05    1.57
   5  -5 -11    1.65    1.60
  -5   5  11    0.37    1.48
   4  -5 -11    0.26    1.53
  -4   5  11    0.46    1.45
   3  -5 -11    2.42    1.65
  -3   5  11    2.53    1.60
   2  -5 -11    8.77    2.12
  -2   5  11   11.10    2.21
   7  -6 -11    0.86    1.48
  -7   6  11   -0.06    1.48
   6  -6 -11    0.98    1.53
  -6   6  11    1.43    1.53
   5  -6 -11    1.14    1.62
  -5   6  11   -2.89    1.30
   4  -6 -11    0.55    1.58
  -4   6  11    0.13    1.52
   1   7 -12    0.87    1.50
   0   7 -12    1.17    1.44
  -1   7 -12   19.56    2.53
  -2   7 -12   15.66    2.20
  -3   7 -12    4.36    1.42
   3   6 -12    3.02    1.64
   2   6 -12    0.11    1.46
   1   6 -12    0.42    1.39
   0   6 -12   15.73    2.15
   0   6 -12    7.49    1.59
  -1   6 -12   13.13    2.02
  -1   6 -12   23.56    2.43
  -2   6 -12   11.17    1.78
  -2   6 -12   10.87    1.82
  -3   6 -12    0.68    1.27
  -3   6 -12    2.05    1.30
  -4   6 -12    3.91    1.44
   4   5 -12    1.42    1.28
   4   5 -12    2.06    1.55
  -4  -5  12    4.85    1.62
   3   5 -12    2.41    1.26
   3   5 -12    2.63    1.49
  -3  -5  12    3.63    1.44
   2   5 -12    1.00    1.12
   2   5 -12    0.31    1.25
  -2  -5  12    0.29    1.29
   1   5 -12    1.92    1.26
   1   5 -12    2.11    1.36
  -1  -5  12    0.95    1.33
   0   5 -12   24.67    2.60
   0  -5  12   21.47    2.54
  -1   5 -12   30.67    2.73
  -1   5 -12   20.53    2.40
  -2   5 -12   10.97    1.82
  -2   5 -12    7.49    1.71
  -3   5 -12    0.82    1.30
  -4   5 -12   11.54    1.92
   5   4 -12    1.02    1.54
   5   4 -12   -0.53    1.18
  -5  -4  12    1.00    1.46
   4   4 -12    2.81    1.31
   4   4 -12    3.21    1.51
  -4  -4  12    4.30    1.52
   3   4 -12    2.48    1.30
   3   4 -12    2.61    1.44
  -3  -4  12    3.10    1.37
   2   4 -12    0.36    1.12
   2   4 -12    1.43    1.32
   2   4 -12    1.82    1.32
  -2  -4  12    0.65    1.27
   1   4 -12    0.49    1.25
   1   4 -12    2.78    1.29
  -1  -4  12    2.91    1.33
   0   4 -12   22.39    2.45
   0  -4  12   17.88    2.30
  -1   4 -12   17.63    2.38
  -1   4 -12   24.03    2.45
   1  -4  12   20.54    2.44
  -2   4 -12    4.67    1.39
   2  -4  12    4.59    1.44
  -3   4 -12    0.71    1.32
   6   3 -12   -0.01    1.28
   6   3 -12   -1.56    1.41
  -6  -3  12   -0.67    1.43
   5   3 -12    0.15    1.29
   5   3 -12    0.34    1.19
  -5  -3  12    3.62    1.56
   4   3 -12    0.71    1.16
   4   3 -12    2.98    1.46
  -4  -3  12    2.95    1.45
   3   3 -12    5.69    1.56
   3   3 -12    3.47    1.45
   3   3 -12    3.43    1.35
  -3  -3  12    5.55    1.52
   2   3 -12    0.92    1.31
   2   3 -12    2.45    1.33
  -2  -3  12    0.96    1.31
  -2  -3  12    0.69    0.71
   1   3 -12    6.40    1.68
   1   3 -12    4.86    1.54
  -1  -3  12    6.72    1.01
  -1  -3  12    4.94    1.50
   0   3 -12   20.92    2.44
   0   3 -12   28.08    2.70
   0  -3  12   24.34    2.69
  -1   3 -12   12.12    1.88
  -1   3 -12   12.83    2.09
   1  -3  12   11.55    1.87
  -2   3 -12    3.55    1.54
   2  -3  12    0.53    1.37
  -3   3 -12    4.13    1.68
   3  -3  12    0.75    1.43
  -4   3 -12   30.07    3.24
   6   2 -12   -1.34    1.08
   6   2 -12   -0.87    1.34
  -6  -2  12    0.63    1.44
   5   2 -12    3.42    1.49
   5   2 -12    1.16    1.29
  -5  -2  12    3.31    1.45
   4   2 -12    5.23    1.51
   4   2 -12    5.09    1.48
  -4  -2  12    6.26    1.58
   3   2 -12    1.61    1.36
   3   2 -12    2.27    1.37
  -3  -2  12    3.20    1.40
   2   2 -12    2.02    1.38
   2   2 -12    0.94    1.29
  -2  -2  12    0.01    1.26
  -2  -2  12    0.89    0.75
   1   2 -12   10.23    1.80
   1   2 -12    7.35    1.72
  -1  -2  12    5.88    1.61
  -1  -2  12    8.10    1.09
   0   2 -12   34.03    3.16
   0   2 -12   31.87    3.02
   0  -2  12   33.76    3.21
   0  -2  12   32.55    2.31
  -1   2 -12    5.94    1.72
   1  -2  12    6.63    1.63
   1  -2  12    6.74    1.06
  -2   2 -12    2.38    1.51
   2  -2  12    0.97    1.43
  -3   2 -12   11.11    2.12
   3  -2  12    8.61    2.02
   7   1 -12   -0.25    1.32
   7   1 -12    0.37    1.50
  -7  -1  12   -1.43    1.38
   6   1 -12    0.68    1.39
   6   1 -12   -2.04    1.03
  -6  -1  12    2.61    1.50
   5   1 -12    4.70    1.48
   5   1 -12    2.72    1.39
  -5  -1  12    3.25    1.44
   4   1 -12    6.21    1.52
   4   1 -12    5.73    1.61
   4   1 -12    4.28    1.47
  -4  -1  12    3.30    1.43
   3   1 -12    0.35    1.25
   3   1 -12   -1.89    1.16
  -3  -1  12   -1.84    1.16
   2   1 -12    1.16    1.34
   2   1 -12    0.87    1.36
  -2  -1  12   -0.10    1.34
   1   1 -12   11.19    1.99
   1   1 -12   14.15    2.04
  -1  -1  12   11.11    1.91
   0   1 -12   17.09    2.42
   0   1 -12   19.97    2.36
   0  -1  12   13.42    2.15
  -1   1 -12    1.26    1.48
   1  -1  12    2.39    1.48
  -2   1 -12    7.08    1.90
   2  -1  12    5.51    1.84
  -3   1 -12   27.97    3.03
   3  -1  12   14.59    2.56
   7   0 -12   -0.11    1.41
   7   0 -12   -0.48    1.22
   7   0 -12   -1.39    1.61
  -7   0  12   -1.94    1.37
   6   0 -12   -0.10    1.34
   6   0 -12    1.31    1.30
   6   0 -12   -0.02    1.61
  -6   0  12    1.27    1.41
   5   0 -12    4.27    1.53
   5   0 -12    6.47    1.60
   5   0 -12    2.18    1.64
  -5   0  12    6.08    1.58
   4   0 -12   -0.57    1.28
   4   0 -12    1.46    1.32
   4   0 -12   -0.57    1.26
  -4   0  12    2.82    1.38
   3   0 -12   -0.57    1.23
   3   0 -12    0.12    1.05
   3   0 -12   -0.59    1.18
  -3   0  12   -1.84    1.21
   2   0 -12    1.57    1.44
   2   0 -12    0.21    1.30
  -2   0  12    1.16    1.39
   1   0 -12   26.31    2.75
   1   0 -12   19.14    2.74
  -1   0  12   26.45    2.77
   0   0 -12    7.39    1.88
   0   0 -12    6.82    1.72
   0   0  12    6.33    1.76
  -1   0 -12    1.73    1.51
   1   0  12    2.20    1.60
  -2   0 -12    6.14    1.83
   2   0  12    3.37    1.82
   8  -1 -12   -0.41    1.62
   8  -1 -12   -0.57    1.27
  -8   1  12   -0.27    1.43
   7  -1 -12   -0.39    1.53
   7  -1 -12   -0.35    1.28
   7  -1 -12   -0.77    1.41
  -7   1  12    0.53    1.45
   6  -1 -12    1.24    1.54
   6  -1 -12    2.15    1.36
   6  -1 -12    3.44    1.51
  -6   1  12    0.83    1.33
   5  -1 -12    1.96    1.33
   5  -1 -12    6.52    1.59
   5  -1 -12    3.21    1.45
   5  -1 -12    3.69    1.54
  -5   1  12    4.55    1.51
   4  -1 -12   -0.57    1.22
   4  -1 -12    0.86    1.05
   4  -1 -12    1.08    1.36
  -4   1  12   -0.88    1.21
   3  -1 -12    0.91    1.38
   3  -1 -12   -1.08    1.18
   3  -1 -12    0.44    0.87
  -3   1  12   -0.75    1.32
   2  -1 -12    9.25    1.97
   2  -1 -12   11.02    1.93
  -2   1  12    7.87    1.88
   1  -1 -12   13.12    2.35
   1  -1 -12   18.02    2.36
  -1   1  12   15.87    2.31
   0  -1 -12    3.01    1.79
   0  -1 -12    6.58    1.77
   0   1  12    1.83    1.61
  -1  -1 -12    4.09    1.77
   1   1  12    1.88    1.60
  -2  -1 -12    7.47    2.11
   2   1  12    3.86    1.95
   8  -2 -12    0.76    1.48
   8  -2 -12   -0.11    1.41
  -8   2  12    0.14    1.41
   7  -2 -12    1.75    1.42
   7  -2 -12    0.72    1.45
   7  -2 -12   -0.25    1.38
  -7   2  12    0.21    1.40
   6  -2 -12    4.09    1.61
   6  -2 -12    3.15    1.42
   6  -2 -12    2.32    1.60
  -6   2  12    5.06    1.59
   5  -2 -12    1.30    1.34
   5  -2 -12    0.94    1.40
   5  -2 -12    2.79    1.53
   5  -2 -12    1.88    1.17
  -5   2  12    0.37    1.34
   4  -2 -12    0.17    1.38
   4  -2 -12    1.63    0.92
   4  -2 -12    0.32    1.23
  -4   2  12    0.11    1.37
   3  -2 -12    1.33    1.42
   3  -2 -12    0.26    1.45
  -3   2  12   -1.05    1.42
   2  -2 -12   11.89    2.22
   2  -2 -12   10.75    1.93
  -2   2  12    9.17    2.00
   1  -2 -12   13.13    2.37
   1  -2 -12   16.67    2.31
  -1   2  12   10.06    2.14
   0  -2 -12    2.02    1.78
   0  -2 -12    1.66    1.58
   0   2  12    1.17    1.65
  -1  -2 -12    0.84    1.64
   1   2  12    2.71    1.88
   8  -3 -12   -1.41    1.41
   8  -3 -12    1.58    1.45
  -8   3  12    0.24    1.46
   7  -3 -12    1.67    1.57
   7  -3 -12   -0.51    1.32
  -7   3  12   -1.03    1.37
   6  -3 -12    2.63    1.31
   6  -3 -12   -0.23    1.46
   6  -3 -12    1.21    1.45
  -6   3  12    2.51    1.54
   5  -3 -12   -3.16    1.23
   5  -3 -12   -0.81    1.30
   5  -3 -12    1.86    1.04
  -5   3  12   -0.69    1.30
   4  -3 -12    0.40    1.54
   4  -3 -12   -0.42    1.30
  -4   3  12   -1.12    1.36
   3  -3 -12    4.27    1.71
   3  -3 -12    4.22    1.57
  -3   3  12    2.88    1.62
   2  -3 -12    8.01    1.80
   2  -3 -12    7.05    2.07
  -2   3  12    5.97    1.88
   1  -3 -12    5.42    1.85
   1  -3 -12    9.90    2.32
  -1   3  12    4.96    1.85
   0  -3 -12    1.89    1.81
   0  -3 -12    3.84    1.76
   0   3  12    0.37    1.81
   7  -4 -12    3.71    1.41
   7  -4 -12    1.85    1.58
  -7   4  12    0.28    1.45
   6  -4 -12    0.96    1.42
  -6   4  12    2.12    1.47
   5  -4 -12    0.04    1.56
  -5   4  12   -0.10    1.41
   4  -4 -12    0.68    1.56
  -4   4  12   -2.70    1.38
   3  -4 -12    6.30    1.97
   3  -4 -12    2.62    1.61
  -3   4  12    2.31    1.69
   2  -4 -12   10.31    1.96
   2  -4 -12    5.54    2.00
  -2   4  12    4.02    1.89
   1  -4 -12    6.46    2.13
   7  -5 -12   -0.72    1.44
   6  -5 -12    1.70    1.60
  -6   5  12   -0.05    1.45
   5  -5 -12   -0.72    1.61
  -5   5  12   -1.00    1.50
   4  -5 -12   -0.20    1.66
  -4   5  12    0.48    1.57
   3  -5 -12    6.75    2.03
  -3   5  12    2.04    1.74
   2   6 -13    0.15    1.52
   1   6 -13    0.11    1.48
   0   6 -13    7.49    1.85
  -1   6 -13    2.07    1.44
  -1   6 -13    6.17    1.55
  -2   6 -13   -1.80    1.19
  -2   6 -13    0.12    1.27
   3   5 -13    1.05    1.24
   3   5 -13    0.91    1.48
   2   5 -13    1.51    1.25
   2   5 -13    1.00    1.46
   1   5 -13    6.32    1.67
   1   5 -13    4.25    1.50
   0   5 -13    8.21    1.69
   0   5 -13    8.98    1.73
  -1   5 -13   11.18    1.93
  -1   5 -13    3.95    1.57
  -2   5 -13   -0.07    1.22
  -2   5 -13   -1.35    1.30
  -3   5 -13    6.93    1.67
   4   4 -13    2.44    1.58
   4   4 -13    2.42    1.39
  -4  -4  13    3.54    1.54
   3   4 -13   -0.57    1.30
   3   4 -13   -0.10    1.17
  -3  -4  13   -0.25    1.27
   2   4 -13    0.42    1.22
   2   4 -13    0.71    1.36
   2   4 -13   -0.96    1.26
  -2  -4  13   -0.34    1.28
   1   4 -13    9.60    1.83
   1   4 -13    6.96    1.63
  -1  -4  13    4.02    1.52
   0   4 -13   18.37    2.26
   0   4 -13   10.36    1.91
   0  -4  13   10.13    1.92
  -1   4 -13    1.86    1.46
  -1   4 -13    1.46    1.31
   1  -4  13    2.71    1.39
  -2   4 -13    1.44    1.42
  -2   4 -13    0.31    1.48
  -3   4 -13   13.62    2.15
   5   3 -13    1.21    1.33
   5   3 -13    2.65    1.54
  -5  -3  13    3.16    1.56
   4   3 -13    1.80    1.45
   4   3 -13    1.77    1.23
  -4  -3  13    2.67    1.53
   3   3 -13    2.65    1.48
   3   3 -13   -0.39    1.29
   3   3 -13    0.04    1.29
  -3  -3  13   -1.21    1.27
   2   3 -13    1.82    1.44
   2   3 -13    1.74    1.39
  -2  -3  13   -0.39    1.36
   1   3 -13   10.79    1.94
   1   3 -13   14.65    2.11
  -1  -3  13    7.16    1.70
   0   3 -13    5.52    1.76
   0   3 -13    8.69    1.71
   0  -3  13    5.27    1.58
  -1   3 -13    1.43    1.47
  -1   3 -13    1.24    1.34
   1  -3  13    3.57    1.53
  -2   3 -13    0.46    1.39
   2  -3  13    1.41    1.53
  -3   3 -13   27.17    3.10
   6   2 -13    0.98    1.36
   6   2 -13    0.52    1.39
  -6  -2  13    3.13    1.61
   5   2 -13    2.89    1.48
   5   2 -13    2.30    1.50
  -5  -2  13    2.14    1.50
   4   2 -13   -0.24    1.23
   4   2 -13    0.27    1.35
  -4  -2  13    0.25    1.32
   3   2 -13   -0.46    1.45
   3   2 -13   -2.33    1.26
  -3  -2  13    0.34    1.37
   2   2 -13    4.40    1.65
   2   2 -13    6.08    1.70
  -2  -2  13    4.01    1.59
   1   2 -13   17.46    2.23
   1   2 -13   14.48    2.22
  -1  -2  13    9.52    1.95
   0   2 -13    4.86    1.82
   0   2 -13    6.82    1.69
   0  -2  13    5.65    1.68
  -1   2 -13    1.82    1.55
  -1   2 -13    0.38    1.56
   1  -2  13    1.20    1.52
  -2   2 -13   14.90    2.36
   2  -2  13    7.68    2.01
   6   1 -13    0.72    1.50
   6   1 -13   -0.39    1.31
  -6  -1  13    2.12    1.56
   5   1 -13    3.03    1.50
   5   1 -13    3.33    1.56
  -5  -1  13    1.65    1.45
   4   1 -13   -0.97    1.26
   4   1 -13   -1.32    1.37
   4   1 -13   -1.48    1.25
  -4  -1  13   -0.29    1.34
   3   1 -13    1.34    1.38
   3   1 -13   -0.16    1.37
  -3  -1  13    1.85    1.41
   2   1 -13    5.44    1.66
   2   1 -13    6.21    1.74
  -2  -1  13    2.32    1.54
   1   1 -13   16.06    2.21
   1   1 -13   11.64    2.21
  -1  -1  13   12.07    2.03
   0   1 -13    7.05    1.83
   0   1 -13    5.84    1.71
   0  -1  13    2.69    1.58
  -1   1 -13    0.60    1.57
  -1   1 -13    4.28    1.76
   1  -1  13    4.85    1.76
  -2   1 -13   19.57    2.70
   2  -1  13   13.77    2.50
   7   0 -13   -1.16    1.64
   7   0 -13   -1.83    1.17
   7   0 -13    2.78    1.66
  -7   0  13    1.44    1.50
   6   0 -13   -1.53    1.59
   6   0 -13    3.09    1.64
   6   0 -13   -0.07    1.36
  -6   0  13    0.44    1.38
   5   0 -13   -0.90    1.40
   5   0 -13    1.94    1.52
   5   0 -13    0.86    1.37
  -5   0  13    0.45    1.36
   4   0 -13   -2.36    1.14
   4   0 -13   -0.61    1.35
   4   0 -13    0.86    1.44
  -4   0  13    0.23    1.49
   3   0 -13    1.49    1.43
   3   0 -13    2.10    1.51
  -3   0  13    1.81    1.53
   2   0 -13    7.33    1.97
   2   0 -13   12.15    2.06
  -2   0  13   12.62    2.09
   1   0 -13    3.92    1.73
   1   0 -13    8.44    1.83
  -1   0  13    5.16    1.74
   0   0 -13   -1.35    1.42
   0   0 -13    1.03    1.61
   0   0  13    3.64    1.67
  -1   0 -13    5.70    1.91
   1   0  13    3.74    1.82
   7  -1 -13    1.87    1.50
   7  -1 -13   -1.66    1.60
   7  -1 -13   -0.56    1.43
  -7   1  13    1.85    1.54
   6  -1 -13   -0.23    1.43
   6  -1 -13   -0.58    1.35
   6  -1 -13   -0.28    1.42
  -6   1  13    2.11    1.54
   5  -1 -13   -1.45    1.29
   5  -1 -13   -0.25    1.50
   5  -1 -13   -0.61    1.24
   5  -1 -13    0.76    1.41
  -5   1  13   -1.07    1.31
   4  -1 -13   -0.92    1.34
   4  -1 -13   -1.43    1.38
  -4   1  13   -1.36    1.34
   3  -1 -13    2.24    1.61
   3  -1 -13    2.42    1.55
  -3   1  13    1.85    1.63
   2  -1 -13   14.40    2.18
   2  -1 -13   14.88    2.38
  -2   1  13   10.58    2.17
   1  -1 -13    3.00    1.83
   1  -1 -13    6.42    1.80
  -1   1  13    5.45    1.81
   0  -1 -13    0.35    1.70
   0  -1 -13    0.17    1.57
   0   1  13    3.15    1.72
   1   1  13    2.40    1.86
   7  -2 -13    0.40    1.49
   7  -2 -13   -1.07    1.33
   7  -2 -13    1.26    1.52
  -7   2  13    2.49    1.53
   6  -2 -13    0.32    1.57
   6  -2 -13   -0.31    1.28
   6  -2 -13    0.27    1.45
  -6   2  13    1.51    1.53
   5  -2 -13    1.25    1.17
   5  -2 -13   -1.25    1.36
   5  -2 -13   -0.91    1.38
   5  -2 -13    0.71    1.52
  -5   2  13    0.28    1.44
   4  -2 -13   -1.65    1.33
   4  -2 -13    0.29    1.41
  -4   2  13   -0.96    1.47
   3  -2 -13    5.19    1.79
   3  -2 -13    3.73    1.69
  -3   2  13    3.71    1.76
   2  -2 -13    7.05    1.84
   2  -2 -13    5.35    1.95
  -2   2  13    7.37    1.96
   1  -2 -13    3.51    1.66
   1  -2 -13    1.87    1.79
  -1   2  13    0.58    1.66
   0  -2 -13    1.05    1.85
   0   2  13   -0.97    1.69
   7  -3 -13    1.07    1.34
   7  -3 -13    0.63    1.50
  -7   3  13    0.21    1.51
   6  -3 -13   -0.71    1.39
   6  -3 -13   -0.03    1.09
  -6   3  13   -0.05    1.51
   5  -3 -13   -0.65    1.36
   5  -3 -13    0.91    1.63
  -5   3  13   -1.00    1.43
   4  -3 -13   -0.72    1.55
   4  -3 -13    2.70    1.52
  -4   3  13   -1.19    1.55
   3  -3 -13    1.60    1.59
   3  -3 -13    1.77    1.72
  -3   3  13    0.80    1.70
   2  -3 -13    5.02    1.92
   2  -3 -13    3.15    1.69
  -2   3  13    3.97    1.84
   6  -4 -13   -0.06    1.61
  -6   4  13    0.46    1.55
   5  -4 -13   -0.50    1.58
  -5   4  13    0.75    1.60
   4  -4 -13    0.31    1.65
  -4   4  13    1.29    1.62
   3  -4 -13    3.83    1.95
   2   5 -14    0.79    1.28
   2   5 -14    1.33    1.59
   1   5 -14    4.60    1.68
   1   5 -14    4.30    1.57
   0   5 -14    1.27    1.45
   0   5 -14    0.24    1.34
  -1   5 -14   -1.26    1.33
  -1   5 -14   -0.94    1.40
   3   4 -14   -0.55    1.37
   3   4 -14   -0.30    1.23
  -3  -4  14   -0.63    1.38
   2   4 -14    6.64    1.75
   2   4 -14    1.70    1.48
  -2  -4  14    0.66    1.48
   1   4 -14    4.61    1.63
   1   4 -14    7.15    1.70
  -1  -4  14    7.21    1.80
   0   4 -14    4.97    1.70
   0   4 -14    3.79    1.56
   0  -4  14    6.61    1.72
  -1   4 -14    0.82    1.42
  -1   4 -14   -1.01    1.43
   4   3 -14    0.18    1.32
   4   3 -14   -0.39    1.43
  -4  -3  14    2.13    1.55
   3   3 -14    0.38    1.48
   3   3 -14   -0.60    1.41
   3   3 -14    0.23    1.36
  -3  -3  14   -2.56    1.29
   2   3 -14    4.22    1.65
   2   3 -14    4.76    1.67
  -2  -3  14    4.19    1.59
   1   3 -14    5.89    1.76
   1   3 -14   10.14    2.03
  -1  -3  14    4.96    1.67
   0   3 -14    1.61    1.43
   0   3 -14    1.12    1.52
   0  -3  14    1.28    1.47
  -1   3 -14    4.11    1.64
  -1   3 -14    1.94    1.65
   1  -3  14    1.44    1.58
   5   2 -14    1.77    1.56
   5   2 -14    0.43    1.33
  -5  -2  14   -2.00    1.49
   4   2 -14    0.51    1.46
   4   2 -14   -0.30    1.39
  -4  -2  14   -3.06    1.27
   3   2 -14    2.73    1.56
   3   2 -14    1.59    1.53
  -3  -2  14    0.05    1.42
   2   2 -14    5.80    1.70
   2   2 -14    4.90    1.68
  -2  -2  14    2.70    1.65
   1   2 -14    5.26    1.86
   1   2 -14    7.48    1.73
  -1  -2  14    4.13    1.66
   0   2 -14    0.41    1.38
   0   2 -14    0.63    1.55
   0  -2  14    0.21    1.49
  -1   2 -14    5.62    1.85
  -1   2 -14    4.81    1.93
   1  -2  14    2.68    1.75
   5   1 -14    2.25    1.58
   5   1 -14    1.69    1.53
  -5  -1  14    0.51    1.44
   4   1 -14    1.85    1.53
   4   1 -14   -1.30    1.38
   4   1 -14   -0.19    1.43
  -4  -1  14    0.64    1.53
   3   1 -14    1.98    1.59
   3   1 -14    3.59    1.68
  -3  -1  14    2.56    1.62
   2   1 -14    6.00    1.90
   2   1 -14    5.95    1.82
  -2  -1  14    3.94    1.68
   1   1 -14    5.49    1.89
   1   1 -14    5.98    1.75
  -1  -1  14    4.62    1.77
   0   1 -14    1.04    1.61
   0   1 -14    1.15    1.60
   0  -1  14    0.64    1.58
  -1   1 -14    8.18    2.11
  -1   1 -14    5.59    2.09
   1  -1  14    7.08    2.02
   6   0 -14    0.91    1.43
   6   0 -14   -0.46    1.52
   6   0 -14   -0.34    1.50
  -6   0  14    1.12    1.49
   5   0 -14   -3.95    1.26
   5   0 -14    2.23    1.58
   5   0 -14   -0.88    1.35
  -5   0  14    0.47    1.50
   4   0 -14    1.35    1.58
   4   0 -14   -1.14    1.40
  -4   0  14   -1.23    1.45
   3   0 -14    1.10    1.55
   3   0 -14    5.75    1.71
  -3   0  14    1.51    1.59
   2   0 -14    6.38    1.83
   2   0 -14    3.32    1.73
  -2   0  14    5.07    1.79
   1   0 -14    3.88    1.67
   1   0 -14   -0.49    1.60
  -1   0  14    0.87    1.65
   0   0 -14    0.96    1.70
   0   0 -14    1.17    1.67
   0   0  14    0.46    1.65
   6  -1 -14    0.31    1.51
   6  -1 -14   -1.29    1.33
   6  -1 -14    1.15    1.62
  -6   1  14   -1.99    1.40
   5  -1 -14   -1.00    1.45
   5  -1 -14   -1.74    1.41
   5  -1 -14   -1.72    1.41
  -5   1  14    0.57    1.52
   4  -1 -14    0.42    1.56
   4  -1 -14   -1.85    1.42
  -4   1  14    1.82    1.63
   3  -1 -14    6.24    1.87
   3  -1 -14    1.78    1.66
  -3   1  14    1.65    1.73
   2  -1 -14    2.91    1.70
   2  -1 -14    1.89    1.76
  -2   1  14    6.62    1.96
   1  -1 -14    0.78    1.73
   1  -1 -14   -0.52    1.46
  -1   1  14    3.00    1.72
   6  -2 -14   -0.08    1.54
   5  -2 -14   -0.63    1.50
   5  -2 -14    1.46    1.63
   5  -2 -14   -0.60    1.53
  -5   2  14   -1.08    1.53
   4  -2 -14   -0.53    1.51
   4  -2 -14   -0.16    1.49
  -4   2  14   -0.25    1.59
   3  -2 -14    6.90    1.98
   3  -2 -14    6.13    2.01
  -3   2  14    4.85    1.93
   2  -2 -14    3.07    1.71
   2  -2 -14    4.22    2.07
  -2   2  14    1.74    1.75
   2   3 -15    1.94    1.57
   2   3 -15    7.00    1.93
  -2  -3  15    1.05    1.56
   1   3 -15   -1.07    1.52
   1   3 -15    2.43    1.70
  -1  -3  15    2.05    1.60
   3   2 -15    2.54    1.74
   3   2 -15    3.85    1.81
  -3  -2  15    1.57    1.62
   2   2 -15    4.01    1.71
   2   2 -15    2.31    1.74
  -2  -2  15    2.03    1.63
   1   2 -15    0.58    1.73
   1   2 -15    0.28    1.58
  -1  -2  15   -0.76    1.48
   4   1 -15    1.86    1.66
  -4  -1  15    0.26    1.52
   3   1 -15    2.12    1.72
   3   1 -15    0.95    1.59
  -3  -1  15    4.27    1.83
   2   1 -15    3.75    1.72
   2   1 -15   -0.68    1.57
  -2  -1  15    2.63    1.66
   1   1 -15    1.87    1.73
   4   0 -15    0.15    1.59
   3   0 -15    2.56    1.72
   3   0 -15    1.31    1.65
  -3   0  15    1.62    1.66
   2   0 -15    1.34    1.67
   0   0   0    0.00    0.00
;
_shelx_hkl_checksum              65013
_olex2_submission_original_sample_id sb090213
_olex2_submission_special_instructions 'No special instructions were received'
#END Tags that were not found in dictionaries
loop_
_space_group_symop_operation_xyz
'x, y, z'
'-x, -y, -z'
loop_
_atom_site_label
_atom_site_type_symbol
_atom_site_fract_x
_atom_site_fract_y
_atom_site_fract_z
_atom_site_U_iso_or_equiv
_atom_site_adp_type
_atom_site_occupancy
_atom_site_site_symmetry_order
_atom_site_calc_flag
_atom_site_refinement_flags_posn
_atom_site_refinement_flags_adp
_atom_site_refinement_flags_occupancy
_atom_site_disorder_assembly
_atom_site_disorder_group
Pd1 Pd 0.5000 0.5000 0.0000 0.04621(18) Uani 1 2 d S TU P . .
P1 P 0.2696(8) 0.4287(6) -0.1823(4) 0.0299(8) Uani 0.613(6) 1 d D U . A 1
P1A P 0.2835(17) 0.4268(14) -0.1889(10) 0.064(2) Uani 0.387(6) 1 d D U . A 2
C1 C 0.3472(15) 0.3505(14) -0.3128(9) 0.0487(19) Uani 0.613(6) 1 d D U . A 1
C1A C 0.380(3) 0.390(2) -0.3103(17) 0.069(4) Uani 0.387(6) 1 d D U . A 2
C2 C 0.5758(10) 0.4735(12) -0.2815(7) 0.0622(19) Uani 0.613(6) 1 d D U . A 1
H2A H 0.6145 0.6057 -0.2696 0.093 Uiso 0.613(6) 1 calc GR . . A 1
H2B H 0.6141 0.4336 -0.3490 0.093 Uiso 0.613(6) 1 calc GR . . A 1
H2C H 0.6437 0.4592 -0.2063 0.093 Uiso 0.613(6) 1 calc GR . . A 1
C2A C 0.257(5) 0.317(5) -0.4446(18) 0.081(7) Uani 0.387(6) 1 d D U . A 2
H2AA H 0.1215 0.2168 -0.4564 0.121 Uiso 0.387(6) 1 calc GR . . A 2
H2AB H 0.3178 0.2675 -0.4917 0.121 Uiso 0.387(6) 1 calc GR . . A 2
H2AC H 0.2524 0.4200 -0.4728 0.121 Uiso 0.387(6) 1 calc GR . . A 2
C3 C 0.3086(12) 0.1505(10) -0.3120(6) 0.0613(19) Uani 0.613(6) 1 d D U . A 1
H3A H 0.3713 0.1533 -0.2290 0.092 Uiso 0.613(6) 1 calc GR . . A 1
H3B H 0.3656 0.1115 -0.3680 0.092 Uiso 0.613(6) 1 calc GR . . A 1
H3C H 0.1647 0.0611 -0.3387 0.092 Uiso 0.613(6) 1 calc GR . . A 1
C3A C 0.552(2) 0.591(2) -0.2942(14) 0.096(4) Uani 0.387(6) 1 d D U . A 2
H3AA H 0.4955 0.6658 -0.3215 0.144 Uiso 0.387(6) 1 calc GR . . A 2
H3AB H 0.6333 0.5834 -0.3433 0.144 Uiso 0.387(6) 1 calc GR . . A 2
H3AC H 0.6352 0.6500 -0.2077 0.144 Uiso 0.387(6) 1 calc GR . . A 2
C4 C 0.232(3) 0.337(3) -0.4402(9) 0.054(3) Uani 0.613(6) 1 d D U . A 1
H4A H 0.0919 0.2388 -0.4626 0.081 Uiso 0.613(6) 1 calc GR . . A 1
H4B H 0.2890 0.3053 -0.4995 0.081 Uiso 0.613(6) 1 calc GR . . A 1
H4C H 0.2426 0.4579 -0.4406 0.081 Uiso 0.613(6) 1 calc GR . . A 1
C4A C 0.471(2) 0.273(2) -0.2818(13) 0.085(4) Uani 0.387(6) 1 d D U . A 2
H4AA H 0.5879 0.3441 -0.2071 0.128 Uiso 0.387(6) 1 calc GR . . A 2
H4AB H 0.5118 0.2400 -0.3501 0.128 Uiso 0.387(6) 1 calc GR . . A 2
H4AC H 0.3727 0.1572 -0.2696 0.128 Uiso 0.387(6) 1 calc GR . . A 2
C5 C 0.2541(16) 0.6418(12) -0.2024(9) 0.067(3) Uani 0.613(6) 1 d D U . A 1
C5A C 0.204(2) 0.607(2) -0.1947(14) 0.056(3) Uani 0.387(6) 1 d D U . A 2
H5A H 0.0900 0.5696 -0.1622 0.068 Uiso 0.387(6) 1 calc R . . A 2
C6 C 0.4423(13) 0.7926(11) -0.2037(9) 0.087(3) Uani 0.613(6) 1 d D U . A 1
H6A H 0.5488 0.8267 -0.1277 0.131 Uiso 0.613(6) 1 calc GR . . A 1
H6B H 0.4308 0.9025 -0.2105 0.131 Uiso 0.613(6) 1 calc GR . . A 1
H6C H 0.4739 0.7502 -0.2738 0.131 Uiso 0.613(6) 1 calc GR . . A 1
C6A C 0.3742(17) 0.8005(12) -0.1133(8) 0.048(3) Uani 0.387(6) 1 d D U . A 2
H6AA H 0.4438 0.7880 -0.0378 0.071 Uiso 0.387(6) 1 calc GR . . A 2
H6AB H 0.3209 0.8806 -0.0928 0.071 Uiso 0.387(6) 1 calc GR . . A 2
H6AC H 0.4678 0.8576 -0.1567 0.071 Uiso 0.387(6) 1 calc GR . . A 2
C7 C 0.2146(15) 0.7094(13) -0.0836(6) 0.081(3) Uani 0.613(6) 1 d D U . A 1
H7A H 0.0929 0.6067 -0.0783 0.122 Uiso 0.613(6) 1 calc GR . . A 1
H7B H 0.1985 0.8175 -0.0878 0.122 Uiso 0.613(6) 1 calc GR . . A 1
H7C H 0.3279 0.7459 -0.0110 0.122 Uiso 0.613(6) 1 calc GR . . A 1
C7A C 0.136(3) 0.629(3) -0.3248(15) 0.079(7) Uani 0.387(6) 1 d D U . A 2
H7AA H 0.2474 0.6718 -0.3567 0.119 Uiso 0.387(6) 1 calc GR . . A 2
H7AB H 0.0941 0.7219 -0.3191 0.119 Uiso 0.387(6) 1 calc GR . . A 2
H7AC H 0.0240 0.5078 -0.3800 0.119 Uiso 0.387(6) 1 calc GR . . A 2
C8 C 0.0738(17) 0.6048(19) -0.3078(9) 0.052(2) Uani 0.613(6) 1 d D U . A 1
H8A H 0.0907 0.5719 -0.3864 0.078 Uiso 0.613(6) 1 calc GR . . A 1
H8B H 0.0649 0.7183 -0.2996 0.078 Uiso 0.613(6) 1 calc GR . . A 1
H8C H -0.0487 0.5008 -0.3044 0.078 Uiso 0.613(6) 1 calc GR . . A 1
C8A C -0.140(4) 0.168(6) -0.321(2) 0.078(7) Uani 0.387(6) 1 d D U . A 2
H8AA H -0.1531 0.2785 -0.3187 0.117 Uiso 0.387(6) 1 calc GR . . A 2
H8AB H -0.2644 0.0618 -0.3214 0.117 Uiso 0.387(6) 1 calc GR . . A 2
H8AC H -0.1103 0.1354 -0.3944 0.117 Uiso 0.387(6) 1 calc GR . . A 2
C9 C 0.0112(14) 0.2453(13) -0.2020(9) 0.051(2) Uani 0.613(6) 1 d D U . A 1
H9 H -0.0392 0.3154 -0.1584 0.062 Uiso 0.613(6) 1 calc R . . A 1
C9A C 0.031(3) 0.212(2) -0.2067(17) 0.072(4) Uani 0.387(6) 1 d D U . A 2
C10 C -0.151(2) 0.135(3) -0.3263(13) 0.058(3) Uani 0.613(6) 1 d D U . A 1
H10A H -0.1531 0.2225 -0.3735 0.087 Uiso 0.613(6) 1 calc GR . . A 1
H10B H -0.2810 0.0662 -0.3150 0.087 Uiso 0.613(6) 1 calc GR . . A 1
H10C H -0.1248 0.0463 -0.3706 0.087 Uiso 0.613(6) 1 calc GR . . A 1
C10A C 0.048(2) 0.0386(17) -0.2130(15) 0.083(4) Uani 0.387(6) 1 d D U . A 2
H10D H 0.0654 0.0014 -0.2906 0.125 Uiso 0.387(6) 1 calc GR . . A 2
H10E H -0.0739 -0.0642 -0.2080 0.125 Uiso 0.387(6) 1 calc GR . . A 2
H10F H 0.1629 0.0666 -0.1447 0.125 Uiso 0.387(6) 1 calc GR . . A 2
C11 C 0.0156(11) 0.1115(10) -0.1276(7) 0.062(2) Uani 0.613(6) 1 d D U . A 1
H11A H 0.0628 0.0355 -0.1647 0.094 Uiso 0.613(6) 1 calc GR . . A 1
H11B H -0.1190 0.0287 -0.1267 0.094 Uiso 0.613(6) 1 calc GR . . A 1
H11C H 0.1058 0.1842 -0.0436 0.094 Uiso 0.613(6) 1 calc GR . . A 1
C11A C -0.034(2) 0.251(3) -0.0941(13) 0.111(5) Uani 0.387(6) 1 d D U . A 2
H11D H 0.0626 0.2656 -0.0190 0.166 Uiso 0.387(6) 1 calc GR . . A 2
H11E H -0.1663 0.1446 -0.1053 0.166 Uiso 0.387(6) 1 calc GR . . A 2
H11F H -0.0393 0.3659 -0.0878 0.166 Uiso 0.387(6) 1 calc GR . . A 2
loop_
_atom_site_aniso_label
_atom_site_aniso_U_11
_atom_site_aniso_U_22
_atom_site_aniso_U_33
_atom_site_aniso_U_23
_atom_site_aniso_U_13
_atom_site_aniso_U_12
Pd1 0.0471(3) 0.0235(2) 0.0375(2) 0.00546(15) -0.01689(16) 0.00962(18)
P1 0.0318(15) 0.0157(13) 0.0241(13) 0.0033(10) -0.0090(11) 0.0074(11)
P1A 0.063(4) 0.048(4) 0.052(4) 0.000(3) -0.020(3) 0.027(3)
C1 0.048(4) 0.047(4) 0.040(3) 0.015(3) -0.001(3) 0.023(3)
C1A 0.066(8) 0.067(8) 0.061(5) 0.019(5) -0.002(5) 0.035(6)
C2 0.055(4) 0.070(5) 0.058(4) 0.022(4) 0.006(3) 0.034(3)
C2A 0.084(12) 0.091(13) 0.067(6) 0.002(6) -0.005(6) 0.064(9)
C3 0.068(5) 0.042(3) 0.056(4) 0.002(3) -0.006(3) 0.030(3)
C3A 0.093(8) 0.083(7) 0.077(8) 0.018(6) 0.010(6) 0.028(6)
C4 0.067(6) 0.071(6) 0.033(3) 0.006(3) 0.006(3) 0.048(5)
C4A 0.082(9) 0.104(10) 0.082(8) 0.028(7) 0.017(7) 0.062(9)
C5 0.080(5) 0.029(3) 0.055(4) -0.001(3) -0.029(3) 0.025(4)
C5A 0.046(6) 0.050(6) 0.049(6) 0.006(4) -0.007(4) 0.019(5)
C6 0.085(5) 0.044(4) 0.111(7) 0.034(4) 0.003(4) 0.027(4)
C6A 0.068(6) 0.031(4) 0.031(4) 0.008(3) -0.002(4) 0.025(4)
C7 0.118(7) 0.067(5) 0.059(4) -0.002(3) -0.005(4) 0.068(6)
C7A 0.112(14) 0.056(10) 0.050(6) -0.006(5) -0.020(6) 0.056(10)
C8 0.064(5) 0.044(5) 0.044(4) 0.012(3) -0.004(3) 0.035(4)
C8A 0.062(9) 0.043(11) 0.077(8) -0.009(7) -0.014(7) 0.011(8)
C9 0.039(3) 0.048(4) 0.047(4) 0.003(3) -0.004(3) 0.019(3)
C9A 0.056(6) 0.056(6) 0.066(7) -0.005(5) -0.009(4) 0.019(5)
C10 0.042(5) 0.044(8) 0.055(5) 0.001(4) -0.011(4) 0.012(4)
C10A 0.059(7) 0.051(6) 0.097(9) 0.008(6) -0.005(7) 0.013(5)
C11 0.054(4) 0.032(3) 0.067(4) 0.016(3) 0.000(3) 0.004(3)
C11A 0.073(8) 0.126(11) 0.076(7) -0.016(6) 0.005(6) 0.029(7)
loop_
_atom_type_symbol
_atom_type_description
_atom_type_scat_dispersion_real
_atom_type_scat_dispersion_imag
_atom_type_scat_source
C C 0.0033 0.0016 'International Tables Vol C Tables 4.2.6.8 and 6.1.1.4'
H H 0.0000 0.0000 'International Tables Vol C Tables 4.2.6.8 and 6.1.1.4'
P P 0.1023 0.0942 'International Tables Vol C Tables 4.2.6.8 and 6.1.1.4'
Pd Pd -0.9988 1.0072 'International Tables Vol C Tables 4.2.6.8 and 6.1.1.4'
loop_
_geom_angle_atom_site_label_1
_geom_angle_atom_site_label_2
_geom_angle_atom_site_label_3
_geom_angle
_geom_angle_site_symmetry_1
_geom_angle_site_symmetry_3
P1 Pd1 P1 180.0 . 2_665
P1A Pd1 P1A 180.0 2_665 .
C1 P1 Pd1 109.3(4) . .
C5 P1 Pd1 110.9(4) . .
C5 P1 C1 107.5(5) . .
C9 P1 Pd1 114.8(4) . .
C9 P1 C1 109.1(5) . .
C9 P1 C5 105.0(5) . .
C1A P1A Pd1 112.1(8) . .
C1A P1A C5A 113.9(9) . .
C1A P1A C9A 112.7(9) . .
C5A P1A Pd1 110.3(7) . .
C5A P1A C9A 98.7(8) . .
C9A P1A Pd1 108.3(7) . .
C2 C1 P1 110.0(6) . .
C2 C1 C3 104.5(7) . .
C3 C1 P1 105.8(6) . .
C4 C1 P1 115.5(8) . .
C4 C1 C2 112.3(9) . .
C4 C1 C3 107.9(9) . .
C2A C1A P1A 122.9(16) . .
C2A C1A C3A 104.7(18) . .
C3A C1A P1A 102.9(12) . .
C4A C1A P1A 108.1(12) . .
C4A C1A C2A 109.3(16) . .
C4A C1A C3A 108.0(14) . .
C1 C2 H2A 109.5 . .
C1 C2 H2B 109.5 . .
C1 C2 H2C 109.5 . .
H2A C2 H2B 109.5 . .
H2A C2 H2C 109.5 . .
H2B C2 H2C 109.5 . .
C1A C2A H2AA 109.5 . .
C1A C2A H2AB 109.5 . .
C1A C2A H2AC 109.5 . .
H2AA C2A H2AB 109.5 . .
H2AA C2A H2AC 109.5 . .
H2AB C2A H2AC 109.5 . .
C1 C3 H3A 109.5 . .
C1 C3 H3B 109.5 . .
C1 C3 H3C 109.5 . .
H3A C3 H3B 109.5 . .
H3A C3 H3C 109.5 . .
H3B C3 H3C 109.5 . .
C1A C3A H3AA 109.5 . .
C1A C3A H3AB 109.5 . .
C1A C3A H3AC 109.5 . .
H3AA C3A H3AB 109.5 . .
H3AA C3A H3AC 109.5 . .
H3AB C3A H3AC 109.5 . .
C1 C4 H4A 109.5 . .
C1 C4 H4B 109.5 . .
C1 C4 H4C 109.5 . .
H4A C4 H4B 109.5 . .
H4A C4 H4C 109.5 . .
H4B C4 H4C 109.5 . .
C1A C4A H4AA 109.5 . .
C1A C4A H4AB 109.5 . .
C1A C4A H4AC 109.5 . .
H4AA C4A H4AB 109.5 . .
H4AA C4A H4AC 109.5 . .
H4AB C4A H4AC 109.5 . .
C6 C5 P1 111.7(7) . .
C6 C5 C7 108.3(8) . .
C6 C5 C8 112.3(8) . .
C7 C5 P1 103.7(6) . .
C8 C5 P1 116.3(7) . .
C8 C5 C7 103.4(9) . .
P1A C5A H5A 108.1 . .
C6A C5A P1A 110.2(10) . .
C6A C5A H5A 108.1 . .
C6A C5A C7A 106.7(12) . .
C7A C5A P1A 115.3(13) . .
C7A C5A H5A 108.1 . .
C5 C6 H6A 109.5 . .
C5 C6 H6B 109.5 . .
C5 C6 H6C 109.5 . .
H6A C6 H6B 109.5 . .
H6A C6 H6C 109.5 . .
H6B C6 H6C 109.5 . .
C5A C6A H6AA 109.5 . .
C5A C6A H6AB 109.5 . .
C5A C6A H6AC 109.5 . .
H6AA C6A H6AB 109.5 . .
H6AA C6A H6AC 109.5 . .
H6AB C6A H6AC 109.5 . .
C5 C7 H7A 109.5 . .
C5 C7 H7B 109.5 . .
C5 C7 H7C 109.5 . .
H7A C7 H7B 109.5 . .
H7A C7 H7C 109.5 . .
H7B C7 H7C 109.5 . .
C5A C7A H7AA 109.5 . .
C5A C7A H7AB 109.5 . .
C5A C7A H7AC 109.5 . .
H7AA C7A H7AB 109.5 . .
H7AA C7A H7AC 109.5 . .
H7AB C7A H7AC 109.5 . .
C5 C8 H8A 109.5 . .
C5 C8 H8B 109.5 . .
C5 C8 H8C 109.5 . .
H8A C8 H8B 109.5 . .
H8A C8 H8C 109.5 . .
H8B C8 H8C 109.5 . .
H8AA C8A H8AB 109.5 . .
H8AA C8A H8AC 109.5 . .
H8AB C8A H8AC 109.5 . .
C9A C8A H8AA 109.5 . .
C9A C8A H8AB 109.5 . .
C9A C8A H8AC 109.5 . .
P1 C9 H9 103.9 . .
C10 C9 P1 123.1(9) . .
C10 C9 H9 103.9 . .
C10 C9 C11 110.1(11) . .
C11 C9 P1 109.8(6) . .
C11 C9 H9 103.9 . .
C8A C9A P1A 113.9(17) . .
C8A C9A C11A 105.9(18) . .
C10A C9A P1A 110.3(11) . .
C10A C9A C8A 108(2) . .
C10A C9A C11A 109.4(15) . .
C11A C9A P1A 109.3(11) . .
C9 C10 H10A 109.5 . .
C9 C10 H10B 109.5 . .
C9 C10 H10C 109.5 . .
H10A C10 H10B 109.5 . .
H10A C10 H10C 109.5 . .
H10B C10 H10C 109.5 . .
C9A C10A H10D 109.5 . .
C9A C10A H10E 109.5 . .
C9A C10A H10F 109.5 . .
H10D C10A H10E 109.5 . .
H10D C10A H10F 109.5 . .
H10E C10A H10F 109.5 . .
C9 C11 H11A 109.5 . .
C9 C11 H11B 109.5 . .
C9 C11 H11C 109.5 . .
H11A C11 H11B 109.5 . .
H11A C11 H11C 109.5 . .
H11B C11 H11C 109.5 . .
C9A C11A H11D 109.5 . .
C9A C11A H11E 109.5 . .
C9A C11A H11F 109.5 . .
H11D C11A H11E 109.5 . .
H11D C11A H11F 109.5 . .
H11E C11A H11F 109.5 . .
loop_
_geom_bond_atom_site_label_1
_geom_bond_atom_site_label_2
_geom_bond_distance
_geom_bond_site_symmetry_2
Pd1 P1 2.271(5) .
Pd1 P1 2.271(5) 2_665
Pd1 P1A 2.273(12) 2_665
Pd1 P1A 2.273(12) .
P1 C1 1.918(9) .
P1 C5 1.891(9) .
P1 C9 1.855(9) .
P1A C1A 1.824(16) .
P1A C5A 1.901(15) .
P1A C9A 1.925(15) .
C1 C2 1.549(11) .
C1 C3 1.559(11) .
C1 C4 1.523(11) .
C1A C2A 1.511(16) .
C1A C3A 1.550(16) .
C1A C4A 1.503(16) .
C2 H2A 0.9800 .
C2 H2B 0.9800 .
C2 H2C 0.9800 .
C2A H2AA 0.9800 .
C2A H2AB 0.9800 .
C2A H2AC 0.9800 .
C3 H3A 0.9800 .
C3 H3B 0.9800 .
C3 H3C 0.9800 .
C3A H3AA 0.9800 .
C3A H3AB 0.9800 .
C3A H3AC 0.9800 .
C4 H4A 0.9800 .
C4 H4B 0.9800 .
C4 H4C 0.9800 .
C4A H4AA 0.9800 .
C4A H4AB 0.9800 .
C4A H4AC 0.9800 .
C5 C6 1.457(12) .
C5 C7 1.582(12) .
C5 C8 1.543(11) .
C5A H5A 1.0000 .
C5A C6A 1.523(14) .
C5A C7A 1.565(16) .
C6 H6A 0.9800 .
C6 H6B 0.9800 .
C6 H6C 0.9800 .
C6A H6AA 0.9800 .
C6A H6AB 0.9800 .
C6A H6AC 0.9800 .
C7 H7A 0.9800 .
C7 H7B 0.9800 .
C7 H7C 0.9800 .
C7A H7AA 0.9800 .
C7A H7AB 0.9800 .
C7A H7AC 0.9800 .
C8 H8A 0.9800 .
C8 H8B 0.9800 .
C8 H8C 0.9800 .
C8A H8AA 0.9800 .
C8A H8AB 0.9800 .
C8A H8AC 0.9800 .
C8A C9A 1.534(18) .
C9 H9 1.0000 .
C9 C10 1.520(12) .
C9 C11 1.522(10) .
C9A C10A 1.513(16) .
C9A C11A 1.571(16) .
C10 H10A 0.9800 .
C10 H10B 0.9800 .
C10 H10C 0.9800 .
C10A H10D 0.9800 .
C10A H10E 0.9800 .
C10A H10F 0.9800 .
C11 H11A 0.9800 .
C11 H11B 0.9800 .
C11 H11C 0.9800 .
C11A H11D 0.9800 .
C11A H11E 0.9800 .
C11A H11F 0.9800 .
loop_
_geom_torsion_atom_site_label_1
_geom_torsion_atom_site_label_2
_geom_torsion_atom_site_label_3
_geom_torsion_atom_site_label_4
_geom_torsion
C5A_b P1A_b C1A_b C4A_b 170.0(11)
C9A P1A C1A C4A -78.7(14)
Pd1 P1A C1A C4A 43.8(13)
C5A P1A C1A C2A -61(2)
C9A P1A C1A C2A 50(2)
Pd1 P1A C1A C2A 172.5(19)
C5A P1A C1A C3A 55.9(14)
C9A P1A C1A C3A 167.2(12)
Pd1 P1A C1A C3A -70.2(12)
C9 P1 C5 C6 -173.3(7)
C1 P1 C5 C6 -57.3(8)
Pd1 P1 C5 C6 62.1(8)
C9 P1 C5 C8 -42.5(10)
C1 P1 C5 C8 73.5(10)
Pd1 P1 C5 C8 -167.1(8)
C9 P1 C5 C7 70.3(7)
C1 P1 C5 C7 -173.7(6)
Pd1 P1 C5 C7 -54.3(7)
C5 P1 C9 C10 77.0(14)
C1 P1 C9 C10 -38.0(14)
Pd1 P1 C9 C10 -161.0(12)
C5 P1 C9 C11 -151.0(7)
C1 P1 C9 C11 94.1(7)
Pd1 P1 C9 C11 -28.9(8)
