#------------------------------------------------------------------------------
#$Date: 2016-03-21 14:57:06 +0200 (Mon, 21 Mar 2016) $
#$Revision: 178731 $
#$URL: svn://www.crystallography.net/cod/cif/4/08/42/4084253.cif $
#------------------------------------------------------------------------------
#
# This file is available in the Crystallography Open Database (COD),
# http://www.crystallography.net/
#
# All data on this site have been placed in the public domain by the
# contributors.
#
data_4084253
loop_
_publ_author_name
'Figliola, Carlotta'
'Male, Louise'
'Horton, Peter N.'
'Pitak, Mateusz B.'
'Coles, Simon J.'
'Horswell, Sarah L.'
'Grainger, Richard S.'
_publ_section_title
;
 [FeFe]-Hydrogenase Synthetic Mimics Based onPeri-Substituted
 Dichalcogenides
;
_journal_issue                   17
_journal_name_full               Organometallics
_journal_page_first              4449
_journal_paper_doi               10.1021/om500683p
_journal_volume                  33
_journal_year                    2014
_chemical_formula_moiety         'C18 H10 Fe2 O8 Se2'
_chemical_formula_sum            'C18 H10 Fe2 O8 Se2'
_chemical_formula_weight         623.88
_chemical_name_systematic
;
[{Fe(CO)~3~}~2~(\m~2~-1,8-Se~2~-2,7-dimethoxy-naph)]
;
_space_group_crystal_system      triclinic
_space_group_IT_number           2
_space_group_name_Hall           '-P 1'
_space_group_name_H-M_alt        'P -1'
_symmetry_space_group_name_Hall  '-P 1'
_symmetry_space_group_name_H-M   'P -1'
_atom_sites_solution_hydrogens   geom
_audit_creation_method           SHELXL-2013
_cell_angle_alpha                100.62(16)
_cell_angle_beta                 101.14(12)
_cell_angle_gamma                108.74(12)
_cell_formula_units_Z            2
_cell_length_a                   8.155(14)
_cell_length_b                   11.71(2)
_cell_length_c                   12.20(2)
_cell_measurement_reflns_used    207
_cell_measurement_temperature    100(2)
_cell_measurement_theta_max      30.0
_cell_measurement_theta_min      3.5
_cell_volume                     1044(3)
_computing_cell_refinement
;
CrystalClear-SM Expert 3.1 b13a (Rigaku, 2012)
;
_computing_data_collection
;
CrystalClear-SM Expert 3.1 b13a (Rigaku, 2012)
;
_computing_data_reduction
;
CrystalClear-SM Expert 3.1 b13a (Rigaku, 2012)
;
_computing_molecular_graphics
;
OLEX2 (Dolomanov, O.V., Bourhis, L.J., Gildea, R.J., Howard, J.A.K,
& Puschmann, H., 2009)
;
_computing_publication_material  'WinGX (Farrugia, 1999)'
_computing_structure_refinement  'SHELXL-2013 (Sheldrick, 2013)'
_computing_structure_solution    'SHELXS-2013 (Sheldrick, 2013)'
_diffrn_ambient_temperature      100(2)
_diffrn_detector                 CCD
_diffrn_detector_area_resol_mean 28.5714
_diffrn_measured_fraction_theta_full 0.972
_diffrn_measured_fraction_theta_max 0.995
_diffrn_measurement_device
;
AFC12 (Right): Kappa 3 circle
;
_diffrn_measurement_device_type
;
Rigaku Saturn724+ (2x2 bin mode)
;
_diffrn_measurement_method       'profile data from \w-scans'
_diffrn_measurement_specimen_support Mitegen
_diffrn_radiation_monochromator  Confocal
_diffrn_radiation_type           MoK\a
_diffrn_radiation_wavelength     0.71073
_diffrn_reflns_av_R_equivalents  0.1457
_diffrn_reflns_av_unetI/netI     0.1396
_diffrn_reflns_Laue_measured_fraction_full 0.972
_diffrn_reflns_Laue_measured_fraction_max 0.995
_diffrn_reflns_limit_h_max       9
_diffrn_reflns_limit_h_min       -9
_diffrn_reflns_limit_k_max       13
_diffrn_reflns_limit_k_min       -13
_diffrn_reflns_limit_l_max       14
_diffrn_reflns_limit_l_min       -14
_diffrn_reflns_number            10754
_diffrn_reflns_point_group_measured_fraction_full 0.972
_diffrn_reflns_point_group_measured_fraction_max 0.995
_diffrn_reflns_theta_full        25.242
_diffrn_reflns_theta_max         25.023
_diffrn_reflns_theta_min         2.921
_diffrn_source                   'Rotating Anode'
_diffrn_source_current           55.0
_diffrn_source_power             2.5
_diffrn_source_voltage           45.0
_exptl_absorpt_coefficient_mu    4.920
_exptl_absorpt_correction_T_max  1.000
_exptl_absorpt_correction_T_min  0.503
_exptl_absorpt_correction_type   multi-scan
_exptl_absorpt_process_details
;
CrystalClear-SM Expert 3.1 b13a (Rigaku, 2012)
;
_exptl_crystal_colour            Red
_exptl_crystal_density_diffrn    1.985
_exptl_crystal_description       rod
_exptl_crystal_F_000             604
_exptl_crystal_size_max          0.030
_exptl_crystal_size_mid          0.005
_exptl_crystal_size_min          0.005
_refine_diff_density_max         3.500
_refine_diff_density_min         -1.983
_refine_diff_density_rms         0.432
_refine_ls_extinction_method     none
_refine_ls_goodness_of_fit_ref   1.859
_refine_ls_hydrogen_treatment    constr
_refine_ls_matrix_type           full
_refine_ls_number_parameters     273
_refine_ls_number_reflns         3668
_refine_ls_number_restraints     93
_refine_ls_restrained_S_all      1.836
_refine_ls_R_factor_all          0.2346
_refine_ls_R_factor_gt           0.1960
_refine_ls_shift/su_max          0.000
_refine_ls_shift/su_mean         0.000
_refine_ls_structure_factor_coef Fsqd
_refine_ls_weighting_details
'w=1/[\s^2^(Fo^2^)+(0.2000P)^2^] where P=(Fo^2^+2Fc^2^)/3'
_refine_ls_weighting_scheme      calc
_refine_ls_wR_factor_gt          0.5327
_refine_ls_wR_factor_ref         0.5476
_reflns_Friedel_coverage         0.000
_reflns_number_gt                2338
_reflns_number_total             3668
_reflns_threshold_expression     'I > 2\s(I)'
_cod_data_source_file            om500683p_si_002.cif
_cod_data_source_block           6d
_cod_depositor_comments
;
The following automatic conversions were performed:

'_exptl_absorpt_correction_type' value 'Multi-scan' changed to
'multi-scan' according to
/usr/data/users/saulius/crontab/automatic-downloads/rss-feeds/ACS/lib/dictionaries/cif_core.dic
dictionary named 'cif_core.dic' version 2.4.2 from 2011-04-26.

Automatic conversion script
Id: cif_fix_values 2281 2013-09-26 08:29:07Z andrius 
;
_cod_database_code               4084253
#BEGIN Tags that were not found in dictionaries:
_shelx_space_group_comment
;
The symmetry employed for this shelxl refinement is uniquely defined
by the following loop, which should always be used as a source of
symmetry information in preference to the above space-group names.
They are only intended as comments.
;
_shelx_estimated_absorpt_t_min   0.866
_shelx_estimated_absorpt_t_max   0.976
_shelxl_version_number           2013-4
_shelx_res_file
;
TITL CF3-180 in P-1
CELL  0.71073   8.1553  11.7051  12.2026  100.623  101.144  108.736
ZERR     2.00   0.0138   0.0215   0.0228    0.159    0.122    0.116
LATT   1
SFAC  C    H    O    FE   SE
UNIT  36   20   16   4    4
MERG   2
SIZE 0.03 0.005 0.005
DELU
MORE -1
SHEL 7 0.84
FMAP   2
PLAN    5
ACTA
BOND   $H
CONF
L.S.  10
TEMP  -173.00
WGHT    0.200000
FVAR       3.72104
C1    1    0.236058    0.158182    0.937337    11.00000    0.03913    0.03203 =
         0.03301    0.00514    0.01103    0.01334
C2    1    0.210930    0.164794    1.054484    11.00000    0.06350    0.04888 =
         0.03853    0.01593    0.02284    0.02746
C3    1    0.212676    0.074262    1.107825    11.00000    0.05785    0.05448 =
         0.03953    0.02052    0.01863    0.03225
AFIX  43
H3    2    0.193521    0.080535    1.182705    11.00000   -1.20000
AFIX   0
C4    1    0.242241   -0.026342    1.053053    11.00000    0.04143    0.03834 =
         0.04397    0.00679    0.00838    0.01323
AFIX  43
H4    2    0.244221   -0.088808    1.092606    11.00000   -1.20000
AFIX   0
C5    1    0.291779   -0.149820    0.883970    11.00000    0.05649    0.05749 =
         0.05277    0.02439    0.02316    0.03984
AFIX  43
H5    2    0.289011   -0.214241    0.921722    11.00000   -1.20000
AFIX   0
C6    1    0.317200   -0.168572    0.775267    11.00000    0.04203    0.04293 =
         0.05334    0.01914    0.02330    0.02438
AFIX  43
H6    2    0.327575   -0.243538    0.737592    11.00000   -1.20000
AFIX   0
C7    1    0.327024   -0.069489    0.722698    11.00000    0.04755    0.04920 =
         0.04565    0.01562    0.01660    0.03392
C8    1    0.299986    0.035980    0.770215    11.00000    0.05176    0.04401 =
         0.04909    0.01620    0.02609    0.03008
C9    1    0.263831    0.049787    0.880724    11.00000    0.05041    0.03422 =
         0.04331    0.00820    0.01536    0.02016
C10   1    0.269471   -0.044171    0.944576    11.00000    0.03048    0.03999 =
         0.04338    0.01389    0.00969    0.01554
C11   1    0.644900    0.368572    0.877839    11.00000    0.06105    0.07453 =
         0.02697    0.00994    0.01549    0.03757
C12   1    0.425369    0.507028    0.822944    11.00000    0.06024    0.04431 =
         0.06146    0.01382    0.03945    0.02885
C13   1    0.509095    0.399263    0.657164    11.00000    0.07069    0.04739 =
         0.03574    0.01253    0.02010    0.02820
C14   1   -0.108792    0.108589    0.657568    11.00000    0.05221    0.08591 =
         0.03863    0.03115    0.00045    0.01825
C15   1    0.016308    0.355814    0.703315    11.00000    0.07228    0.08215 =
         0.06278    0.03269    0.02627    0.05776
C16   1    0.079825    0.245516    0.535185    11.00000    0.06004    0.07661 =
         0.04368    0.02743    0.01753    0.03412
C17   1    0.171660    0.282174    1.219537    11.00000    0.07476    0.06830 =
         0.05513    0.02599    0.04539    0.04480
AFIX 137
H17A  2    0.079660    0.208018    1.226851    11.00000   -1.50000
H17B  2    0.142868    0.356134    1.244927    11.00000   -1.50000
H17C  2    0.289439    0.293246    1.267902    11.00000   -1.50000
AFIX   0
C18   1    0.378210   -0.197272    0.558168    11.00000    0.07773    0.05172 =
         0.05554    0.00688    0.02943    0.03011
AFIX 137
H18A  2    0.382093   -0.195681    0.478677    11.00000   -1.50000
H18B  2    0.279030   -0.272440    0.556741    11.00000   -1.50000
H18C  2    0.492121   -0.198235    0.601340    11.00000   -1.50000
AFIX   0
FE1   4    0.428322    0.356046    0.777396    11.00000    0.05222    0.03884 =
         0.04239    0.01327    0.01746    0.02380
FE2   4    0.094501    0.238316    0.682222    11.00000    0.06068    0.04722 =
         0.03855    0.01307    0.01747    0.03078
O1    3    0.771213    0.376673    0.935923    11.00000    0.07078    0.07415 =
         0.07510    0.04193    0.01229    0.04574
O2    3    0.418279    0.604612    0.850848    11.00000    0.06027    0.04337 =
         0.06840    0.01716    0.02793    0.03195
O3    3    0.546644    0.412562    0.577511    11.00000    0.08319    0.07170 =
         0.04563    0.02850    0.02790    0.03435
O4    3   -0.227237    0.022793    0.644689    11.00000    0.07745    0.09948 =
         0.06158    0.05608    0.00916    0.01046
O5    3   -0.047569    0.436440    0.718296    11.00000    0.07983    0.08387 =
         0.09984    0.02786    0.00148    0.06350
O6    3    0.086615    0.253716    0.446367    11.00000    0.07118    0.12836 =
         0.04735    0.04380    0.01869    0.04282
O7    3    0.176118    0.266089    1.099643    11.00000    0.06191    0.05213 =
         0.05080    0.02873    0.04277    0.03179
O8    3    0.350204   -0.085119    0.614958    11.00000    0.07032    0.04417 =
         0.05187    0.01823    0.03034    0.03005
SE1   5    0.219557    0.296077    0.885343    11.00000    0.05703    0.04314 =
         0.03951    0.01310    0.02059    0.02856
SE2   5    0.308748    0.144198    0.672569    11.00000    0.06437    0.04319 =
         0.04097    0.01020    0.02034    0.03262
HKLF    4

REM  CF3-180 in P-1
REM R1 =  0.1960 for    2338 Fo > 4sig(Fo)  and  0.2346 for all    3668 data
REM    273 parameters refined using     93 restraints

END

WGHT      0.2000      0.0000

REM Highest difference peak  3.500,  deepest hole -1.983,  1-sigma level  0.432
Q1    1   0.4371  0.4020  0.9793  11.00000  0.05    3.50
Q2    1   0.0660  0.0500  0.5827  11.00000  0.05    3.07
Q3    1   0.5341  0.2367  0.7729  11.00000  0.05    2.73
Q4    1   0.1871  0.2460  0.6773  11.00000  0.05    2.65
Q5    1  -0.0275  0.2083  0.7774  11.00000  0.05    2.59
;
_shelx_res_checksum              48844
_shelx_hkl_file
;
   0  -1   1 131571. 3920.16   1
  -1   1   0 348450. 26144.8   1
   1  -1   0 366790. 27559.4   1
   1  -1   0 181818. 5473.57   1
  -1   0   0 11271.1 1213.76   1
   1   0  -1 149184. 4770.36   1
   1   0  -1 141061. 4320.41   1
  -1   0   1 333577. 25049.1   1
   0  -1  -1 148220. 4649.82   1
   0   1   1 166876. 5215.05   1
   0   1   1 186091. 5744.76   1
   0  -1  -1 134572. 4373.67   1
   0   1   1 152531. 4801.34   1
   1  -1  -1 5426.97 1364.47   1
   1  -1  -1 5284.71 1622.82   1
  -1   1   1 3558.35 1186.99   1
  -1   1   1 4075.41 1249.06   1
   1  -1  -1 3728.64 1219.00   1
  -1   1   1 6298.72 1133.16   1
  -1   1  -1 62594.8 2491.72   1
   1  -1   1 64780.0 2639.73   1
   1  -1   1 57278.3 2357.68   1
  -1   1  -1 61542.3 2626.83   1
  -1   1  -1 60239.6 3535.07   1
   1  -1   1 74329.2 4829.50   1
   1  -1   1 90183.3 3544.24   1
   0   0  -2 123123. 3918.54   1
   0   0  -2 131375. 4269.42   1
   0   0   2 156391. 6560.74   1
   0   0   2 119403. 3903.87   1
   0  -1   2 75724.2 3068.28   1
   0  -1   2 71557.3 4931.05   1
   0   1  -2 66253.7 3502.32   1
   0  -1   2 114099. 4535.57   1
   0  -1   2 90730.6 3295.11   1
   0   1  -2 82578.0 3100.63   1
   1   0   1 198119. 5929.87   1
   1   0   1 185348. 5887.69   1
  -1   0  -1 190019. 5710.50   1
   1   0   1 199208. 6817.03   1
  -1   0  -1 201585. 5959.38   1
  -1  -1   1 51082.5 2647.92   1
  -1  -1   1 37346.0 2131.50   1
   1   1  -1 45756.5 2644.09   1
   0  -2   1 76650.2 2729.22   1
   0   2  -1 77970.1 2641.11   1
   0   2  -1 78268.9 2774.19   1
   0  -2   1 94889.6 3406.27   1
   0  -2   1 93493.8 3886.24   1
   0   2  -1 96587.5 4586.29   1
  -1   2   0 66927.1 3157.25   1
  -1   2   0 64908.0 2478.10   1
   1  -2   0 62353.8 4944.38   1
   1  -2   0 65151.5 2410.26   1
   1  -2   0 58208.5 2587.48   1
  -1   2   0 53828.8 2287.84   1
   0  -2   0 116442. 3701.02   1
   0   2   0 99295.6 3179.87   1
   0   2   0 127791. 3974.71   1
   1   0  -2 73922.0 2891.50   1
  -1   0   2 66944.1 2800.75   1
   1   0  -2 61071.2 2568.41   1
   1   0  -2 48345.9 1967.81   1
  -1   0   2 45475.0 2661.90   1
  -1   0   2 52090.0 1966.91   1
   1   0  -2 50576.2 2073.23   1
  -1   0   2 76947.9 3137.69   1
  -1   2  -1 159896. 4957.85   1
  -1   2  -1 192573. 5999.42   1
   1  -2   1 159050. 4978.18   1
   1  -2   1 165192. 5202.16   1
  -1   2  -1 299689. 22591.5   1
  -1   1   2 103363. 4977.34   1
  -1   1   2 108301. 4353.58   1
  -1   1   2 82592.8 2801.07   1
   1  -1  -2 101432. 3273.31   1
   1  -2  -1 104804. 3491.40   1
  -1   2   1 104478. 3444.87   1
  -1   2   1 97450.1 3346.82   1
   1  -2  -1 103778. 3640.44   1
   1  -2  -1 111409. 4035.50   1
   1  -2  -1 122481. 5491.17   1
  -1   2   1 117003. 4598.99   1
  -1  -1   2 155269. 4776.87   1
   1   1  -2 209555. 6838.71   1
  -1  -1   2 212940. 7583.88   1
  -1  -1   2 216639. 6683.49   1
   1   1  -2 149661. 4909.58   1
   1   1  -2 222897. 6759.62   1
  -1  -1   2 182356. 5543.77   1
   0   1   2 4131.64 1472.27   1
   0  -1  -2 1107.73 579.390   1
   0   1   2 1617.83 829.000   1
   0   1   2 2432.71 797.870   1
   0  -1  -2 1052.13 741.420   1
   0  -1  -2 1045.33 342.120   1
   0   1   2 1033.38 595.260   1
   0  -1  -2 2408.92 1279.56   1
   0  -2   2 200192. 6068.99   1
   0   2  -2 179849. 5789.03   1
   0   2  -2 213387. 6470.65   1
   0  -2   2 244376. 7347.63   1
   0  -2   2 239669. 7106.02   1
   0   2  -2 318676. 23902.5   1
   0   2  -2 200880. 6095.41   1
   0   2   1 25398.7 2135.40   1
   0  -2  -1 24433.0 2485.53   1
   0   2   1 29648.4 2170.19   1
   0  -2  -1 25286.0 2421.30   1
  -1   1  -2 37039.7 1896.72   1
   1  -1   2 35189.3 2117.23   1
  -1   1  -2 36536.5 2214.20   1
  -1   1  -2 35593.9 2722.02   1
   1  -1   2 32907.8 1763.53   1
   1  -1   2 39516.7 2493.78   1
   1  -1   2 36996.5 1677.98   1
   1   1   1 5284.03 784.030   1
  -1  -1  -1 4940.07 983.670   1
   1   1   1 4424.75 867.480   1
  -1   2  -2 6748.47 1224.60   1
  -1   2  -2 9014.79 1362.04   1
   1  -2   2 9005.76 1399.64   1
   1  -2   2 6954.76 1150.85   1
  -1   2  -2 7837.26 1758.04   1
   1  -2   2 8220.83 1587.62   1
  -1   2  -2 5500.11 899.030   1
   1  -2   2 5841.60 1270.35   1
   1   0   2 5724.52 789.380   1
   1   0   2 7922.47 1089.38   1
  -1   0  -2 7782.46 1627.01   1
  -1   0  -2 10766.9 2102.79   1
   1   0   2 8859.36 1958.54   1
  -1   0  -2 16292.4 2071.35   1
  -2   1   1 14077.2 1447.28   1
  -2   1   1 15215.6 1368.39   1
  -2   1   1 11546.0 1274.79   1
   2  -1  -1 12610.4 1489.65   1
   2  -1  -1 14970.5 1632.12   1
  -2   1   0 22754.9 2003.40   1
   2  -1   0 22032.7 2133.87   1
  -2   1   0 26737.0 1819.41   1
   2  -1   0 29972.2 1872.04   1
   0   1  -3 115268. 4792.05   1
   0  -1   3 118745. 4475.38   1
   0  -1   3 122463. 3851.26   1
   0   1  -3 131771. 4138.30   1
  -1  -2   1 25876.7 2079.35   1
  -1  -2   1 21945.4 2129.13   1
   1   2  -1 29966.9 1453.10   1
   1   2  -1 26779.6 2020.49   1
   1   0  -3 153197. 4668.93   1
   1   0  -3 166631. 5328.39   1
  -1   0   3 171010. 5304.50   1
  -1   0   3 188288. 6059.61   1
   1   0  -3 212422. 6857.24   1
   1   0  -3 150646. 4758.22   1
  -1   0   3 168979. 5785.12   1
  -1   0   3 160302. 4983.87   1
  -2   0   1 3155.60 1297.45   1
   2   0  -1 2422.74 1286.34   1
   2   0  -1 818.460 399.250   1
  -2   0   1 970.410 798.890   1
   2   0  -1 1708.14 563.000   1
   0   0   3 15345.7 1836.89   1
   0   0   3 18306.4 2505.80   1
   0   0  -3 16809.1 1831.93   1
   0   0  -3 26856.1 3766.91   1
   0   0   3 24347.0 3638.25   1
   0   0  -3 17256.3 1746.25   1
   1  -3   0 186061. 5656.02   1
   1  -3   0 191504. 6199.91   1
  -1   3   0 201812. 7046.02   1
   1  -3   0 168947. 5394.48   1
  -1   3   0 176316. 5533.42   1
  -1   3   0 205354. 6430.71   1
   1  -2  -2 2315.97 874.430   1
  -1   2   2 1348.23 1113.58   1
  -1   2   2 1164.30 811.030   1
   1  -2  -2 863.090 941.130   1
   1  -3   1 59351.5 2416.81   1
   1  -3   1 49834.1 4911.91   1
  -1   3  -1 47360.1 3311.98   1
  -1   3  -1 50394.5 2122.74   1
   1  -3   1 52812.7 2435.09   1
  -1   3  -1 45606.5 2028.24   1
   2  -2   0 2540.78 927.610   1
  -2   2   0 2211.13 832.250   1
   2  -2   0 2269.67 1311.92   1
  -2   2   0 1193.45 937.490   1
  -2   2   0 3364.91 1138.72   1
   2  -2   0 3905.49 1580.58   1
   1   2   0 53053.3 2223.80   1
  -1  -1   3 49474.4 4986.88   1
  -1  -1   3 47531.9 2336.89   1
   1   1  -3 46732.1 2129.48   1
   1   1  -3 46960.2 2253.83   1
  -1  -1   3 56794.6 2778.25   1
  -1  -1   3 55486.0 3010.81   1
   1   2  -2 429.240 968.090   1
  -1  -2   2 -389.20 903.780   1
   1   2  -2 1346.83 609.210   1
  -2   0   0 130112. 3938.01   1
   2   0   0 124950. 3787.41   1
   2   0   0 141216. 4349.42   1
   0  -3   1 44589.7 1893.77   1
   0   3  -1 65831.7 4015.15   1
   0   3  -1 47933.1 2205.51   1
   0  -3   1 36464.1 1594.74   1
   2  -2  -1 16147.8 1968.66   1
   2  -2  -1 17195.4 3646.83   1
   2  -2  -1 14699.4 1471.35   1
  -2   2   1 14292.8 1517.01   1
  -2   2   1 14075.2 1559.45   1
  -2   1   2 -558.74 793.520   1
  -2   1   2 -229.28 440.550   1
   2  -1  -2 67.4700 472.370   1
   2  -1  -2 1497.49 749.380   1
  -2   1   2 -188.83 681.580   1
   2  -1  -2 202.940 573.910   1
   0   2  -3 19223.2 1990.58   1
   0  -2   3 21144.6 2166.06   1
   0   2  -3 15445.3 1651.98   1
   0   2  -3 13195.3 2010.14   1
   0  -2   3 22677.6 4624.59   1
   0  -2   3 16150.4 1684.95   1
   0  -2   3 15605.4 2004.14   1
   0   2  -3 27870.6 3015.87   1
  -2   0   2 27765.8 1687.99   1
   2   0  -2 22771.2 2744.17   1
   2   0  -2 25334.5 3109.17   1
   2   0  -2 20647.7 2292.66   1
  -2   0   2 20951.0 2298.67   1
   2   0  -2 19893.8 1821.18   1
  -2   0   2 18892.0 1762.16   1
  -2   1  -1 4772.30 765.120   1
   2  -1   1 5276.07 1055.93   1
   2  -1   1 4400.70 1785.16   1
  -2   1  -1 5363.47 1408.33   1
   2  -1   1 7038.85 1426.64   1
   2  -1   1 4896.51 743.310   1
   0  -3   0 14250.4 1455.17   1
   0   3   0 17194.3 1583.54   1
   0   3   0 14781.0 1679.91   1
   0  -3   0 11340.8 1203.10   1
   1  -1  -3 -174.77 746.250   1
  -1   1   3 -185.61 806.240   1
  -1   1   3 695.910 550.100   1
   1  -1  -3 61.0600 606.040   1
   1  -1  -3 617.340 1058.32   1
  -1   1   3 -1088.7 783.940   1
  -1   1   3 -930.28 1512.02   1
   2  -2   1 24807.0 2262.60   1
  -2   2  -1 27788.4 1502.24   1
  -2   2  -1 24115.0 1978.08   1
  -2   2  -1 27535.1 3731.54   1
   2  -2   1 29475.5 3775.27   1
  -2   2  -1 23599.9 2454.96   1
   2  -2   1 24068.3 2622.46   1
   0   2   2 42717.5 2219.91   1
   0  -2  -2 40945.5 2064.49   1
   0   2   2 37875.6 2034.83   1
   0  -2  -2 36621.1 1449.48   1
   0   2   2 49287.7 3867.01   1
   0   3  -2 19350.2 2813.23   1
   0  -3   2 23438.5 3552.11   1
   0  -3   2 14787.1 1642.99   1
   0   3  -2 17692.7 2119.91   1
   0   3  -2 17803.0 1823.57   1
   0  -3   2 18663.5 2091.42   1
  -1   3   1 14489.7 1905.68   1
   1  -3  -1 17305.0 2025.46   1
  -1   3   1 16040.7 2989.02   1
   1  -3  -1 13059.9 1262.20   1
  -1   3   1 14681.0 1625.74   1
  -1   3   1 15876.3 1925.16   1
   1  -3  -1 12752.7 1978.03   1
   1  -3   2 41633.2 2462.89   1
  -1   3  -2 47075.6 2529.69   1
   1  -3   2 45939.3 2526.14   1
  -1   3  -2 37019.3 2799.58   1
  -1   3  -2 31835.4 1917.29   1
  -1   3  -2 38891.0 2038.09   1
   1   1   2 6010.25 1117.17   1
   1   1   2 10663.8 2091.44   1
   1   1   2 7454.61 1352.22   1
  -1  -1  -2 3663.16 1123.71   1
   1   1   2 7700.25 1559.82   1
   0  -1  -3 47840.7 2084.43   1
   0  -1  -3 55520.4 2381.31   1
   0   1   3 66038.4 4303.56   1
   0  -1  -3 53133.3 2226.25   1
   0   1   3 62479.3 3527.47   1
   0   1   3 66504.2 2249.12   1
   0   1   3 56064.3 2401.71   1
   2   1  -1 1365.97 867.580   1
  -2  -1   1 4299.35 684.860   1
   2   1  -1 6175.88 915.100   1
   1  -1   3 13853.2 2403.96   1
   1  -1   3 10919.4 1543.19   1
   1  -1   3 10737.7 1556.67   1
  -1   1  -3 13257.2 2002.46   1
  -1   1  -3 17208.7 3176.02   1
   1  -1   3 13129.8 2339.97   1
  -1   1  -3 13109.2 1975.95   1
   2  -2  -2 149097. 5898.08   1
   2  -2  -2 118984. 3913.07   1
  -2   2   2 120083. 3814.96   1
  -2   2   2 106926. 3632.13   1
   2  -2  -2 111781. 3813.73   1
   2   0   1 407492. 30523.5   1
   2   0   1 398431. 29867.1   1
  -2   0  -1 416770. 31219.6   1
  -2   0  -1 423254. 31719.5   1
   2   0   1 518315. 39163.1   1
   1   2   1 294.690 377.180   1
   1   2   1 4208.30 1836.84   1
  -1  -2  -1 1054.84 1403.47   1
   1   2  -3 45762.0 3245.63   1
  -1  -2   3 37615.5 3026.38   1
   1   2  -3 37847.5 2003.43   1
  -1  -2   3 39663.0 2403.21   1
  -1  -2   3 56905.1 2749.13   1
  -1   2  -3 10762.1 2053.94   1
   1  -2   3 11025.6 1608.74   1
  -1   2  -3 9368.45 1408.61   1
   1  -2   3 14137.8 2824.87   1
  -1   2  -3 11361.0 1742.08   1
   1  -2   3 12515.5 1830.21   1
   1  -2   3 19970.4 2581.87   1
  -1   2  -3 9645.68 1704.90   1
   2  -3   0 124532. 4872.50   1
  -2   3   0 97457.0 3692.48   1
  -2   3   0 93945.6 3294.62   1
   2  -3   0 98947.8 3627.37   1
  -2   3   0 83993.9 3218.40   1
  -2   3   0 108438. 3959.85   1
   2  -3   0 124065. 5744.50   1
   2   1  -2 324.830 383.070   1
   2   1  -2 2155.93 702.080   1
  -2  -1   2 -360.62 1227.56   1
   2   1  -2 273.690 309.650   1
   0   3   1 75850.0 2696.99   1
   0  -3  -1 76293.6 2627.91   1
   0   3   1 90524.3 3912.53   1
   0  -3  -1 85084.4 3744.95   1
   0  -3  -1 79906.3 2579.20   1
   2   1   0 406010. 30387.0   1
   2   1   0 466418. 35037.1   1
   2   0  -3 34792.6 3579.36   1
   2   0  -3 35549.5 2894.79   1
  -2   0   3 37585.1 2751.05   1
  -2   3  -1 6713.98 1736.12   1
   2  -3   1 4562.42 977.240   1
   2  -3   1 4644.28 1813.21   1
  -2   3  -1 6562.08 1237.12   1
   2  -3   1 5226.12 1409.08   1
  -2   3  -1 3637.95 1029.97   1
   2  -3  -1 59430.3 2550.80   1
   2  -3  -1 90958.6 4328.03   1
  -2   3   1 71398.0 2732.08   1
  -2   3   1 73148.6 2772.40   1
   2  -3  -1 75166.7 2782.99   1
   2  -3  -1 84229.5 3360.67   1
  -2   3   1 81702.2 5206.95   1
   1   0   3 15618.6 2222.26   1
   1   0   3 16354.3 2404.73   1
   1   0   3 13648.5 1575.34   1
  -1   0  -3 14435.0 1569.72   1
  -1   0  -3 17458.1 2885.64   1
  -1   0  -3 13997.8 3212.34   1
  -2   1   3 92389.8 4970.46   1
  -2   1   3 82308.4 4593.72   1
   2  -1  -3 83635.9 2920.26   1
  -2   1   3 86441.4 3771.78   1
   2  -1  -3 83639.7 4663.74   1
  -2   1   3 84995.2 2919.67   1
   2  -1  -3 74903.6 2646.76   1
   0   3  -3 94572.9 3444.42   1
   0  -3   3 98241.8 3519.12   1
   0  -3   3 118052. 4287.25   1
   0  -3   3 101855. 3475.54   1
   0   3  -3 112509. 3673.66   1
   0   3  -3 96292.3 3529.59   1
   0   3  -3 87296.4 3378.00   1
   2  -2   2 94317.5 3567.55   1
  -2   2  -2 70982.3 2944.27   1
   2  -2   2 73721.7 2825.04   1
   2  -2   2 83692.7 3433.92   1
  -2   2  -2 93266.1 4132.08   1
  -2   2  -2 63464.5 2345.81   1
   2  -2   2 64628.3 2478.24   1
  -2   2  -2 64619.6 2331.15   1
  -1   2   3 68724.4 3045.59   1
   1  -2  -3 74361.9 2969.24   1
  -1   2   3 69812.3 2855.91   1
  -1   2   3 68011.7 3586.06   1
   1  -2  -3 59326.6 2204.79   1
  -2   1  -2 239817. 7236.84   1
   2  -1   2 227989. 6957.94   1
  -2   1  -2 228998. 6798.12   1
   2  -1   2 274021. 8734.56   1
  -2   1  -2 235658. 7667.90   1
   2  -1   2 257081. 8908.12   1
   2  -1   2 263097. 8126.58   1
   0  -1   4 253989. 8441.48   1
   0  -1   4 206534. 6347.87   1
   0   1  -4 251189. 8014.65   1
   0   1  -4 192083. 5854.73   1
   0  -1   4 191033. 6243.43   1
   0   1  -4 235852. 8412.59   1
   1  -3  -2 21476.9 3625.00   1
  -1   3   2 14995.7 1732.00   1
  -1   3   2 16446.5 2109.71   1
   1  -3  -2 18722.1 2183.18   1
   1  -3  -2 21003.5 1998.05   1
  -1   0   4 224466. 7222.13   1
   1   0  -4 349145. 26558.2   1
  -1   0   4 189852. 6339.99   1
  -1  -3   1 73940.9 3081.11   1
   1   3  -1 64745.2 2997.07   1
   1   3  -1 54452.4 1813.12   1
  -1  -3   1 49598.1 1747.73   1
  -1  -1   4 23726.9 2858.24   1
  -1  -1   4 26052.1 3596.08   1
   1   1  -4 22020.6 2870.92   1
   1   1  -4 30338.3 1986.90   1
  -1  -1   4 25544.3 2446.22   1
  -1  -1   4 26446.7 2821.92   1
  -1  -3   2 36318.5 2166.57   1
   1   3  -2 40607.7 2469.65   1
  -1  -3   2 35478.3 1499.20   1
   1   3  -2 53155.0 2562.67   1
   1   3  -2 38139.6 2980.31   1
   2   1  -3 98118.8 3420.07   1
  -2  -1   3 101228. 4516.00   1
   2   1  -3 91670.0 3864.27   1
   2   1  -3 106229. 4243.01   1
  -2  -1   3 98324.4 3722.06   1
   2   1  -3 110100. 3566.42   1
  -2  -1   3 117656. 3658.33   1
  -2  -1   3 113442. 4563.01   1
   2   1  -3 91089.6 3438.70   1
  -2  -1   3 85713.7 3341.55   1
   1  -3   3 1082.02 869.870   1
   1  -3   3 1016.94 2036.66   1
   1  -3   3 1320.99 717.640   1
  -1   3  -3 981.060 663.070   1
  -1   3  -3 -1010.7 857.480   1
   1  -3   3 1794.67 1854.50   1
  -1   3  -3 874.340 1086.69   1
  -1   3  -3 -2.5600 1010.04   1
  -1   4  -1 31287.5 3842.44   1
  -1   4  -1 24067.6 2345.84   1
   1  -4   1 24605.7 2909.08   1
  -1   4  -1 27992.1 4038.41   1
   1  -4   1 35947.4 5280.38   1
   1  -4   1 25465.9 2340.59   1
   0   0   4 70596.4 4369.70   1
   0   0  -4 78553.5 5557.33   1
   0   0   4 66117.4 4108.88   1
   0   0  -4 87585.4 3589.99   1
   0   0   4 72848.5 3228.78   1
   0   0  -4 69152.6 2556.15   1
   0   0   4 67230.1 3569.32   1
   0  -2   4 10001.5 1454.93   1
   0   2  -4 9005.26 1257.89   1
   0  -2   4 10772.0 1529.83   1
   0   2  -4 11402.5 2426.26   1
   0   2  -4 10090.0 1612.44   1
   0  -2   4 14936.0 2858.95   1
   1  -4   0 256191. 7875.03   1
  -1   4   0 295292. 8957.93   1
   1  -4   0 322407. 24189.5   1
   1  -4   0 303906. 24017.3   1
  -1   4   0 332578. 25242.4   1
  -1   4   0 272026. 8170.44   1
   2   1   1 2187.09 1109.20   1
  -2  -1  -1 6060.20 936.560   1
  -2  -1  -1 2152.83 1296.67   1
   2   1   1 3364.06 798.730   1
  -2   3  -2 19622.9 2235.58   1
  -2   3  -2 19756.3 3713.97   1
  -2   3  -2 13482.1 1693.57   1
   2  -3   2 15879.7 2456.82   1
   2  -3   2 20950.6 2753.38   1
  -2   3  -2 19955.7 2422.68   1
   2  -3   2 13504.2 1623.30   1
   1   3   0 63334.9 2043.64   1
   1   3   0 48141.9 2166.85   1
  -1  -3   0 60623.3 1962.39   1
  -2   2   3 5055.70 977.150   1
   2  -2  -3 8706.73 1990.09   1
  -2   2   3 6648.47 1270.07   1
   2  -2  -3 4909.79 936.410   1
   2  -2  -3 4799.53 1188.35   1
  -2   2   3 2236.67 981.100   1
  -2   3   2 5660.13 1180.20   1
   2  -3  -2 4210.08 1128.44   1
   2  -3  -2 9650.46 2440.72   1
   2  -3  -2 8574.51 1502.58   1
  -2   3   2 7383.25 1288.47   1
  -2   3   2 5792.99 1154.26   1
   2   0   2 17086.4 1634.65   1
  -2   0  -2 19337.5 1870.94   1
   2   0   2 20164.8 2937.51   1
   2   0   2 17830.5 1986.01   1
   0  -2  -3 1630.44 390.390   1
   0  -2  -3 771.390 469.690   1
   0   2   3 3113.68 605.290   1
   0   2   3 4709.03 2018.21   1
   0  -2  -3 -242.01 991.270   1
   0   2   3 1360.75 691.020   1
   0   2   3 -272.32 947.580   1
   1  -4   2 180796. 5608.78   1
  -1   4  -2 186538. 6075.18   1
  -1   4  -2 187982. 5939.95   1
   1  -4   2 166565. 5409.59   1
   1  -4   2 178950. 6351.76   1
  -1   4  -2 170193. 5362.32   1
   1  -1  -4 14723.7 1823.46   1
   1  -1  -4 13194.3 1604.81   1
   1  -1  -4 15780.0 2949.97   1
  -1   1   4 12703.0 1782.25   1
   1  -1  -4 15353.2 1676.68   1
  -1   1   4 23220.1 4508.07   1
  -1   1   4 12992.2 1695.51   1
  -1   1   4 14107.3 1565.58   1
   0  -4   1 1576.30 1022.22   1
   0   4  -1 2038.27 1174.89   1
   0  -4   1 1963.77 725.990   1
   0   4  -1 93.0800 898.520   1
   0   4  -1 3133.90 1282.54   1
  -2  -2   1 107301. 3206.01   1
   2   2  -1 133507. 5078.11   1
  -1  -2  -2 -306.31 562.640   1
  -1  -2  -2 -114.14 983.420   1
   1   2   2 833.120 1167.26   1
   1   2   2 821.180 698.640   1
  -1  -2   4 236132. 7885.76   1
  -1  -2   4 201845. 5981.77   1
  -1  -2   4 180021. 5808.46   1
   1   2  -4 209412. 6816.46   1
   1   2  -4 161934. 5090.75   1
  -1  -2   4 210958. 7051.53   1
   1   2  -4 208296. 10319.1   1
   2   2  -2 84921.4 4058.82   1
  -2  -2   2 101345. 4541.95   1
   2   2  -2 67496.7 2508.13   1
  -2  -2   2 83671.4 3586.83   1
  -2  -2   2 56650.3 2067.63   1
   0  -3  -2 12027.0 1934.48   1
   0  -3  -2 10709.3 1696.92   1
   0   3   2 11458.7 1894.94   1
   0   3   2 8391.17 1199.84   1
   1   3  -3 1186.93 999.680   1
   1   3  -3 380.690 283.240   1
   1   3  -3 1001.06 1256.78   1
  -1  -3   3 675.370 912.450   1
  -1  -3   3 408.910 777.200   1
   1   3  -3 -824.92 755.350   1
   1   1   3 19594.9 3125.16   1
   1   1   3 15042.7 1761.32   1
   1   1   3 20109.8 3286.98   1
   1   1   3 21982.7 3280.99   1
  -1  -1  -3 13819.5 1794.00   1
   0  -4   2 34265.5 1860.54   1
   0   4  -2 37055.8 1839.91   1
   0   4  -2 33148.2 2017.38   1
   0  -4   2 36471.5 1814.92   1
   0   4  -2 39464.6 2915.37   1
   0  -4   2 36141.3 4054.29   1
   3  -1  -1 6897.69 1208.27   1
   3  -1  -1 6746.76 1711.77   1
  -3   1   1 6798.86 955.160   1
  -3   1   1 3995.77 891.200   1
   2  -4   0 43552.6 2695.27   1
  -2   4   0 39393.3 1835.57   1
   2  -4   0 40470.9 2003.38   1
  -2   4   0 40921.0 2164.23   1
  -2   4   0 41788.4 2472.51   1
  -2   4   0 40013.7 3894.23   1
   2  -4   0 44016.8 3983.22   1
  -3   2   1 79291.8 2998.59   1
   3  -2  -1 82072.8 3239.72   1
  -3   2   1 77151.9 2460.65   1
   3  -2  -1 73540.2 2413.43   1
   3  -2  -1 76288.3 3074.27   1
  -3   2   1 74268.1 2667.63   1
  -1   4   1 17307.6 2268.23   1
   1  -4  -1 13626.2 1806.16   1
  -1   4   1 15942.3 1865.50   1
  -1   4   1 14102.8 2384.43   1
  -1   4   1 20551.0 5083.15   1
   1  -4  -1 17357.6 1554.97   1
   0  -4   0 18002.2 1821.51   1
   0   4   0 13031.0 1486.89   1
   0  -4   0 11997.5 1480.01   1
   0   4   0 15790.0 1522.73   1
   2  -4   1 184689. 6008.17   1
   2  -4   1 168048. 5269.72   1
  -2   4  -1 127140. 4870.56   1
   2  -4   1 188505. 6341.09   1
  -2   4  -1 146612. 4809.83   1
  -2   0   4 44671.9 2957.14   1
   2   0  -4 43953.6 3118.76   1
   2   0  -4 39922.9 1790.57   1
  -2   0   4 41416.5 2238.73   1
  -2   0   4 35300.5 2308.03   1
   2   0  -4 41371.5 3412.28   1
  -2   0   4 41535.2 2333.82   1
   2   0  -4 38004.2 2737.37   1
  -2   0   4 58514.0 5563.82   1
   3  -2   0 1478.33 1315.45   1
   3  -2   0 940.860 1628.83   1
  -3   2   0 807.750 1514.50   1
  -3   2   0 857.500 1434.43   1
   3  -1   0 31198.0 1742.27   1
  -3   1   0 34189.7 1606.04   1
  -3   1   0 41750.1 2462.39   1
   3  -1   0 40300.0 2758.39   1
   3  -1  -2 35954.6 1925.99   1
  -3   1   2 37862.2 1814.10   1
  -3   1   2 35954.6 1550.18   1
   3  -1  -2 45109.9 2256.61   1
  -3   1   2 38428.3 1874.34   1
   3  -1  -2 33971.9 1264.29   1
   2   2   0 1084.31 1190.08   1
  -1   2  -4 -342.61 525.110   1
   1  -2   4 874.400 569.200   1
   1  -2   4 1262.72 1315.80   1
   1  -2   4 1061.38 1330.01   1
  -1   2  -4 -312.48 1217.45   1
   1  -2   4 2349.49 2217.68   1
  -1   2  -4 1094.02 452.810   1
  -1   1  -4 42492.7 1844.91   1
   1  -1   4 40976.1 2238.09   1
  -1   1  -4 43843.0 6152.26   1
   1  -1   4 46247.9 3519.28   1
   1  -1   4 60765.5 3253.45   1
  -1   1  -4 41436.5 3877.38   1
   0   1   4 59728.3 4950.24   1
   0   1   4 53579.5 2269.00   1
   0  -1  -4 57307.1 2734.28   1
   0  -1  -4 51191.9 3021.35   1
   0   1   4 56881.7 2119.82   1
   0   1   4 63013.9 5224.41   1
   0  -1  -4 72607.8 3569.12   1
   0  -3   4 27178.6 1962.91   1
   0  -3   4 36408.8 2325.46   1
   0   3  -4 24565.5 2405.32   1
   0   3  -4 27676.7 2645.31   1
   0  -3   4 21116.7 2138.56   1
   0  -3   4 26040.7 4799.59   1
   0   3  -4 21186.3 2239.11   1
   2   2  -3 56015.4 1950.48   1
  -2  -2   3 61417.8 4830.59   1
   2   2  -3 70578.8 3649.56   1
   2   2  -3 52093.7 2656.08   1
  -2  -2   3 51091.1 3450.04   1
   2   2  -3 57122.4 3112.19   1
  -2  -2   3 48158.6 2833.89   1
   2  -1  -4 169819. 5516.49   1
  -2   1   4 202624. 7052.90   1
   2  -1  -4 160247. 5526.65   1
   2  -1  -4 153759. 4866.58   1
  -2   1   4 158158. 5165.49   1
  -2   1   4 152827. 4855.04   1
  -2   1   4 186485. 6894.44   1
  -2   1   4 164287. 5654.80   1
   2  -2   3 143089. 4798.90   1
  -2   2  -3 140561. 4506.37   1
   2  -2   3 122789. 4036.61   1
  -2   2  -3 143759. 4481.90   1
   2  -2   3 132965. 6067.37   1
  -2   2  -3 123993. 4501.35   1
  -2   2  -3 142558. 5017.21   1
   2  -2   3 142265. 5151.43   1
  -2   4   1 166382. 5848.28   1
   2  -4  -1 178283. 5508.97   1
  -2   4   1 173186. 5582.37   1
   2  -4  -1 162746. 5535.66   1
  -2   4   1 172293. 6787.79   1
   2  -4  -1 194908. 7636.75   1
   3  -2  -2 28762.0 2115.67   1
  -3   2   2 31107.7 1735.37   1
  -3   2   2 29853.2 1982.35   1
  -3   2   2 26823.4 1270.91   1
   3  -2  -2 27832.2 2095.25   1
   3   0  -1 69255.6 3185.99   1
  -3   0   1 61542.2 2968.79   1
   3   0  -1 51769.6 2276.98   1
   3   0  -1 50387.3 1807.65   1
  -3   0   1 49527.3 1867.95   1
   1   3   1 16135.7 1389.84   1
  -1  -3  -1 20872.3 2343.10   1
   1   3   1 9204.29 1151.99   1
   1   3   1 12913.8 2233.29   1
   2   1  -4 206175. 6789.58   1
  -2  -1   4 209755. 6204.15   1
   2   1  -4 205138. 6698.60   1
  -3   0   2 3574.75 821.540   1
   3   0  -2 4968.00 964.400   1
   3   0  -2 1774.74 1338.23   1
  -3   0   2 3647.27 1614.20   1
   3   0  -2 2591.10 512.310   1
   2  -1   3 10821.4 2737.83   1
  -2   1  -3 8775.61 2099.46   1
  -2   1  -3 6932.87 1112.38   1
   2  -1   3 7159.48 1114.59   1
  -2   1  -3 7265.81 1042.01   1
   2  -1   3 8903.81 1603.22   1
   2  -1   3 8869.29 1833.00   1
  -1   4  -3 128323. 4267.93   1
   1  -4   3 118066. 3173.17   1
  -1   4  -3 118622. 3198.34   1
  -1   4  -3 114118. 3219.03   1
  -1   4  -3 100576. 2892.08   1
   1  -4   3 127347. 3449.65   1
   1  -4   3 118242. 3311.73   1
   0  -4   3 31724.8 3701.19   1
   0  -4   3 29813.4 2158.29   1
   0   4  -3 27238.3 1952.07   1
   0   4  -3 26653.9 2104.12   1
   0  -4   3 30815.1 2337.05   1
   0   4  -3 24744.9 1398.42   1
   1  -3  -3 2038.99 459.930   1
   1  -3  -3 3069.62 1600.63   1
  -1   3   3 1307.71 890.170   1
  -1   3   3 2833.51 892.540   1
   1  -3  -3 4724.97 899.600   1
  -3   3   0 153085. 3933.09   1
  -3   3   0 155963. 3827.75   1
   3  -3   0 155538. 4146.08   1
   3  -3   0 163304. 4198.45   1
   3  -3   0 159762. 4453.02   1
  -3   3   0 143893. 3222.27   1
   2  -4   2 1373.21 1112.95   1
   2  -4   2 4648.32 1466.77   1
   2  -4   2 123.740 1028.96   1
  -2   4  -2 1834.01 1937.37   1
  -2   4  -2 2709.85 815.470   1
  -2   4  -2 6346.56 1164.00   1
   3  -3  -1 34479.6 2264.43   1
  -3   3   1 40213.2 2289.17   1
  -3   3   1 33452.8 1286.89   1
   3  -3  -1 46943.3 5803.30   1
  -3   3   1 45996.4 2344.55   1
   3  -2   1 8.77000 1033.68   1
  -3   2  -1 -677.13 976.820   1
   3  -2   1 3430.77 1056.73   1
  -3   2  -1 5231.66 1792.12   1
   3  -2   1 1684.25 680.300   1
  -2   3  -3 6960.51 1129.31   1
   2  -3   3 7709.02 1360.52   1
  -2   3  -3 6812.67 1507.60   1
   2  -3   3 6696.59 1366.09   1
   2  -3   3 5872.64 1664.35   1
  -2   3  -3 9177.57 2366.35   1
   2  -3   3 9015.89 1721.35   1
  -2   3  -3 6098.73 1210.82   1
   1  -3   4 4824.59 1254.24   1
   1  -3   4 2740.79 1117.49   1
  -1   3  -4 6714.22 1538.69   1
   1  -3   4 9753.24 1419.74   1
   1  -3   4 13921.5 2365.00   1
  -1   3  -4 2704.60 1009.40   1
  -1   3  -4 2048.68 550.600   1
  -1   3  -4 3203.65 1604.02   1
   3   0   0 7440.38 1641.39   1
  -3   0   0 -165.64 504.860   1
   3   0   0 628.600 426.980   1
   1   0   4 12211.8 2143.27   1
   1   0   4 9223.71 2219.91   1
  -1   0  -4 3747.05 1169.48   1
  -1   0  -4 11299.7 1797.51   1
   1   0   4 11410.4 1756.02   1
  -1   0  -4 9886.68 1336.20   1
  -2   3   3 1571.46 1289.46   1
   2  -3  -3 684.620 516.250   1
  -2   3   3 1622.00 1532.53   1
  -2   3   3 -316.37 984.740   1
   2  -3  -3 -378.96 1102.41   1
   2   1   2 716.310 667.030   1
  -2  -1  -2 171.350 732.130   1
   2   1   2 1524.03 1261.39   1
  -2  -1  -2 1746.30 692.840   1
   2   1   2 1069.33 669.650   1
   1  -2  -4 1120.63 1323.01   1
   1  -2  -4 2301.57 1003.08   1
   1  -2  -4 67.6400 379.640   1
  -1   2   4 1642.83 975.370   1
  -1   2   4 2253.70 1313.32   1
  -1   2   4 1548.10 623.180   1
   0   4   1 910.370 942.160   1
   0   4   1 2204.87 564.800   1
   0   4   1 969.460 1365.98   1
   0  -4  -1 37.9300 575.860   1
  -3   1  -1 87270.8 3824.23   1
   3  -1   1 98730.8 3552.99   1
  -3   1  -1 80560.1 2082.36   1
   3  -1   1 76771.9 1697.76   1
  -3   1  -1 85380.1 2499.03   1
   3  -1   1 87522.6 2918.96   1
   3  -1   1 78198.6 2867.70   1
   3  -1  -3 3367.53 1131.81   1
   3  -1  -3 2679.75 584.340   1
   3  -1  -3 4377.50 1193.09   1
  -3   1   3 3831.05 1639.95   1
  -3   1   3 3675.94 873.770   1
  -3   1   3 2076.91 1174.57   1
  -1  -3   4 89693.9 2569.78   1
   1   1  -5 206959. 4581.97   1
   3  -3   1 80791.5 3459.21   1
   3  -3   1 86223.5 3250.21   1
  -3   3  -1 73758.8 2225.35   1
  -3   3  -1 89219.9 2154.72   1
   3  -3   1 114287. 4380.86   1
  -3   3  -1 75288.0 3152.46   1
  -1   4   2 118470. 3687.13   1
   1  -4  -2 114247. 3797.27   1
   1  -4  -2 120183. 2516.29   1
  -1   4   2 103842. 6420.94   1
   1  -4  -2 115783. 3407.00   1
  -1   4   2 111915. 3094.61   1
   2   2   1 13436.4 2072.64   1
   2   2   1 12864.4 1338.39   1
  -3   0   3 143433. 4185.96   1
   3   0  -3 122013. 3353.41   1
  -3   0   3 122262. 3242.40   1
   3   0  -3 119567. 4116.49   1
  -3   0   3 137573. 3523.87   1
   3   0  -3 137328. 4109.16   1
   2  -2  -4 34158.5 2102.38   1
  -2   2   4 32891.6 2225.93   1
  -2   2   4 32045.3 3202.90   1
   2  -2  -4 28293.7 2530.93   1
  -2   2   4 29064.4 4680.26   1
  -2   2   4 23997.6 2732.63   1
   2  -2  -4 24957.8 1723.87   1
   1   0  -5 8387.36 2909.22   1
  -1   0   5 4467.67 965.350   1
  -1   0   5 6090.62 2402.10   1
  -1   0   5 3852.66 1170.28   1
   1   0  -5 2077.32 1007.66   1
   1   0  -5 4109.65 987.150   1
  -1   0   5 7312.36 1327.67   1
   0  -1   5 12092.4 1921.99   1
   0  -1   5 13597.8 2319.61   1
   0   1  -5 11945.5 1464.86   1
   0   1  -5 11731.8 2214.29   1
   0  -1   5 14310.7 2250.00   1
   0   1  -5 17928.8 3258.63   1
   3  -3  -2 95882.4 2625.97   1
  -3   3   2 93493.0 2890.38   1
   3  -3  -2 114770. 3483.34   1
  -3   3   2 89083.6 2945.46   1
  -3   3   2 102075. 2651.30   1
   2  -4  -2 27738.4 1860.61   1
  -2   4   2 19170.6 1994.72   1
  -2   4   2 16307.2 2347.74   1
   2  -4  -2 16936.2 2071.81   1
  -2   4   2 22072.6 3969.65   1
   2   0   3 1207.17 741.560   1
  -2   0  -3 -683.75 736.540   1
   2   0   3 916.560 937.630   1
   2   0   3 729.990 655.870   1
  -2   0  -3 519.360 1353.78   1
   1   4  -2 31205.0 1424.94   1
   1   4  -2 34437.6 2349.65   1
  -1  -4   2 30087.1 1404.62   1
   1   4  -2 23174.9 3462.77   1
  -1  -4   2 19562.1 2188.51   1
   3  -2  -3 86063.2 2344.19   1
   3  -2  -3 91795.1 3150.30   1
  -3   2   3 82276.1 3841.70   1
  -3   2   3 98626.7 2547.96   1
  -3   2   3 108301. 3343.23   1
   3  -2  -3 96758.1 3831.59   1
   1   4  -1 7394.14 975.940   1
   1   4  -1 5868.18 1251.31   1
  -1  -4   1 5336.40 1263.94   1
  -1  -4   1 7375.97 1106.98   1
   0   2  -5 289011. 6709.02   1
   0   2  -5 232648. 5387.64   1
   0  -2   5 266848. 6218.15   1
   0  -2   5 251295. 6106.09   1
   0  -2   5 254259. 7001.32   1
   0   2  -5 230594. 6228.76   1
   0  -2   5 229849. 5203.03   1
   2   2  -4 16978.9 2804.41   1
   2   2  -4 20257.3 2404.62   1
  -2  -2   4 21980.8 3590.53   1
  -2  -2   4 20524.0 2960.81   1
  -2  -2   4 23556.7 3901.80   1
  -2  -2   4 16141.3 2342.17   1
   2   2  -4 24671.8 3017.27   1
   1  -5   1 264304. 6244.21   1
   1  -5   1 254566. 8285.74   1
  -1   5  -1 269126. 6120.19   1
  -1   5  -1 252415. 6235.89   1
  -1   5  -1 279057. 11033.6   1
   1  -5   1 310353. 11593.0   1
  -3  -1   2 30699.1 1945.68   1
   3   1  -2 34436.6 1837.50   1
   3   1  -2 45749.7 3818.19   1
   3   1  -2 37656.5 1833.38   1
  -3  -1   2 37859.4 1505.07   1
   3   1  -2 40538.3 2371.86   1
   3   1  -1 38983.7 2422.06   1
  -3  -1   1 29566.3 1150.70   1
   1   2   3 105037. 2732.39   1
   1   2   3 99740.9 3214.29   1
  -1  -2  -3 110456. 3821.08   1
   1   2   3 122857. 4344.04   1
   1   2   3 104305. 4979.05   1
  -1  -2  -3 124762. 3971.03   1
  -1  -2   5 5140.19 1766.35   1
   1   2  -5 6347.51 1846.63   1
  -1  -2   5 7015.48 1263.64   1
  -1  -2   5 1655.36 1518.35   1
   1   2  -5 5551.27 1784.27   1
   1   2  -5 2646.69 636.750   1
  -1  -2   5 4832.18 1376.86   1
   0   3   3 92680.0 3203.58   1
   0  -3  -3 90935.5 3328.04   1
   0   3   3 93516.4 3492.82   1
   0   3   3 89047.7 3174.10   1
   0  -3  -3 104680. 3082.21   1
  -2  -3   2 57480.6 1568.19   1
  -2  -3   2 48535.8 1622.99   1
   2   3  -2 65875.6 3514.04   1
  -2  -3   2 60841.8 3010.51   1
   2   3  -2 66702.4 3432.96   1
   0   0   5 119046. 3658.18   1
   0   0  -5 97377.3 6980.17   1
   0   0   5 91950.8 6396.06   1
   0   0   5 113962. 2952.36   1
   0   0  -5 142692. 4470.05   1
   0   0  -5 107960. 3030.18   1
   0   0   5 108642. 3157.12   1
   3   0   1 7214.94 2002.68   1
   3   0   1 7955.42 1172.75   1
  -3   0  -1 15483.5 1746.47   1
   3   0   1 7145.65 1215.68   1
   0   2   4 62675.3 4988.99   1
   0  -2  -4 59094.9 2999.56   1
   0  -2  -4 56672.4 2641.05   1
   0  -2  -4 57631.4 3926.07   1
   0   2   4 47054.3 2931.89   1
   0   2   4 59017.8 3638.93   1
   0  -2  -4 58499.3 2922.40   1
   0   2   4 57874.9 1632.81   1
  -1   5  -2 7730.02 1758.97   1
  -1   5  -2 3381.96 1608.74   1
  -1   5  -2 3339.31 1203.97   1
   1  -5   2 6000.89 1526.49   1
   1  -5   2 5975.96 1595.41   1
   1  -5   2 2708.61 1192.31   1
  -1   5   0 22856.8 4097.21   1
   1  -5   0 23500.4 2233.64   1
  -1   5   0 23286.9 4069.13   1
  -1   5   0 27831.8 2802.96   1
  -1   5   0 20604.6 2164.02   1
   1  -5   0 18839.6 1931.61   1
  -3   4   0 41034.2 2244.30   1
   3  -4   0 50348.2 7237.39   1
   3  -4   0 37885.5 2377.28   1
  -3   4   0 56968.1 3225.33   1
  -3   4   0 42931.0 2360.85   1
   3  -4   0 48379.8 5987.66   1
   0   4  -4 22375.7 4387.70   1
   0   4  -4 24464.8 1448.25   1
   0  -4   4 26904.5 2775.17   1
   0  -4   4 19019.8 2838.88   1
   0   4  -4 26036.7 2477.43   1
   0  -4   4 18279.0 2140.06   1
  -2   4  -3 62613.3 3085.98   1
   2  -4   3 66621.9 3464.04   1
  -2   4  -3 73958.4 8414.24   1
  -2   4  -3 77888.8 5030.14   1
  -2   4  -3 59367.9 2437.19   1
   2  -4   3 57407.5 3072.09   1
   2  -4   3 96512.3 4934.29   1
  -1  -4   3 29022.4 2141.22   1
  -1  -4   3 24283.7 1714.18   1
   1   4  -3 30140.1 2394.02   1
   1   4  -3 25166.7 2982.80   1
   1   4  -3 33052.7 3086.13   1
  -3   2  -2 79515.9 1971.24   1
   3  -2   2 83109.4 5066.99   1
   3  -2   2 98007.1 3932.36   1
  -3   2  -2 80938.6 3371.14   1
   3  -2   2 76342.1 2764.41   1
  -3   2  -2 85891.4 2907.39   1
   3  -2   2 77358.2 2127.66   1
   1   3   2 155128. 3426.84   1
   1   3   2 162259. 5878.98   1
  -1  -3  -2 148229. 4142.68   1
   1   3   2 169424. 4992.25   1
  -1   1   5 65411.3 2490.47   1
  -1   1   5 55574.1 2825.95   1
   1  -1  -5 58013.5 5396.45   1
   1  -1  -5 63089.6 2630.81   1
   1  -1  -5 56928.6 2321.97   1
  -1   1   5 65320.7 2315.42   1
  -1   1   5 79840.6 6132.40   1
   1  -1  -5 69434.6 3706.57   1
   1   4   0 53308.5 2519.05   1
  -1  -4   0 46061.0 1518.11   1
   1   4   0 48977.6 1438.95   1
   1   4   0 50988.6 3347.26   1
  -2   5  -1 11546.6 1928.73   1
   2  -5   1 15414.9 2593.49   1
  -2   5  -1 16125.7 3027.18   1
  -2   5  -1 17324.3 2194.05   1
   2  -5   1 14425.9 2213.10   1
   2  -5   1 19396.5 3019.53   1
   2   0  -5 379741. 8378.05   1
   2   0  -5 409775. 8402.99   1
  -2   0   5 386969. 9111.27   1
  -2   0   5 460744. 68033.3   1
   2   0  -5 473471. 69976.4   1
  -2   0   5 563094. 83213.6   1
   2   0  -5 434298. 9369.11   1
  -2   0   5 469117. 69408.6   1
  -2   0   5 444031. 9374.49   1
   3  -4  -1 47436.3 6506.73   1
  -3   4   1 51535.9 2351.94   1
   3  -4  -1 42388.5 5078.56   1
  -3  -1   3 6138.96 2305.73   1
   3   1  -3 3832.92 998.660   1
   3   1  -3 15125.3 3139.29   1
   3   1  -3 3442.23 774.050   1
  -3  -1   3 3646.70 666.790   1
   3   1  -3 4087.52 971.070   1
  -1   4  -4 28482.4 1936.49   1
   1  -4   4 31343.9 1808.31   1
  -1   4  -4 35703.2 2254.34   1
   1  -4   4 48631.0 3575.35   1
   1  -4   4 25405.2 1936.71   1
  -1   4  -4 38732.1 3849.66   1
  -1   4  -4 31243.4 3507.47   1
  -2  -3   3 2604.03 1772.47   1
  -2  -3   3 1864.62 485.850   1
   2   3  -3 770.400 610.360   1
   2   3  -3 6886.62 3301.85   1
   2  -5   0 490089. 72471.8   1
   2  -5   0 454623. 9418.87   1
  -2   5   0 499601. 73795.2   1
  -2   5   0 509365. 75312.0   1
  -2   5   0 462971. 68378.0   1
   2  -5   0 418128. 8802.50   1
  -2   5   0 461852. 68236.1   1
   1   1   4 111558. 3162.12   1
   1   1   4 115456. 5331.43   1
  -1  -1  -4 119464. 3863.72   1
  -1  -1  -4 122639. 3731.44   1
   1   1   4 137769. 4253.53   1
  -1  -1  -4 135860. 4140.57   1
   1   1   4 108862. 2742.84   1
   3   1   0 39575.8 1291.59   1
   3   1   0 31289.9 2879.56   1
   3   1   0 26254.6 1704.93   1
  -3   3  -2 2166.80 1307.09   1
  -3   3  -2 965.130 401.290   1
   3  -3   2 1446.46 698.750   1
  -3   3  -2 3316.28 1448.65   1
  -3   3  -2 1224.05 1484.34   1
   3  -3   2 -1004.7 1672.75   1
   3  -3   2 549.220 1052.24   1
   3  -4   1 3127.68 2004.56   1
  -3   4  -1 2077.15 995.560   1
   3  -4   1 7982.54 2493.67   1
   3  -4   1 1767.45 914.020   1
  -3   4  -1 4806.93 1698.08   1
  -3   4  -1 2546.51 859.570   1
   0   3  -5 10930.2 2092.38   1
   0  -3   5 13063.7 2049.08   1
   0   3  -5 16121.3 3070.50   1
   0   3  -5 10407.6 1748.04   1
   0  -3   5 19540.1 3566.96   1
   0  -3   5 15507.0 2245.34   1
   0  -3   5 15689.6 2092.02   1
   2   1  -5 15434.2 2397.04   1
  -2  -1   5 23012.0 4253.36   1
  -2  -1   5 12231.1 1925.54   1
  -2  -1   5 17764.4 2983.00   1
  -2  -1   5 15313.4 2499.59   1
   2   1  -5 14677.5 2484.37   1
  -2  -1   5 14137.8 2508.13   1
   2   1  -5 10154.5 2039.98   1
   3  -1   2 26620.6 3313.61   1
   3  -1   2 33398.3 3491.11   1
  -3   1  -2 27684.4 1330.54   1
   3  -1   2 33594.2 1780.32   1
   0   4   2 183701. 5307.18   1
   0   4   2 173876. 3932.83   1
   0  -4  -2 185808. 4296.41   1
   0   4   2 179153. 3648.79   1
   0   5  -1 2493.88 1395.14   1
   0  -5   1 135.790 805.100   1
   0   5  -1 536.980 633.350   1
   0   5  -1 1557.54 1169.48   1
   0  -5   1 920.910 1138.59   1
  -3   1   4 67558.3 2249.28   1
  -3   1   4 81577.7 3451.07   1
  -3   1   4 90278.8 3164.47   1
   3  -1  -4 86613.5 3866.78   1
   3  -1  -4 66137.2 4527.82   1
  -3   1   4 97068.4 4872.81   1
   3  -1  -4 86079.5 3819.22   1
   3  -1  -4 73818.8 2245.13   1
   0   5  -2 167.600 708.910   1
   0  -5   2 -9.6800 1092.17   1
   0   5  -2 1405.87 1108.18   1
   0  -5   2 352.980 886.970   1
   0   5  -2 -176.50 1134.21   1
   2  -2   4 3513.48 1430.18   1
   2  -2   4 2878.82 720.610   1
  -2   2  -4 3672.14 1716.64   1
  -2   2  -4 3046.31 700.590   1
   2  -2   4 4302.02 962.360   1
   2  -2   4 6765.47 2533.73   1
   2   3   0 44942.0 3006.28   1
   2   3   0 42138.8 2446.42   1
   3   0  -4 13118.5 2595.96   1
  -3   0   4 9249.20 1784.04   1
  -3   0   4 17113.5 2589.61   1
  -3   0   4 20367.4 2101.76   1
   3   0  -4 21533.7 3283.13   1
   3   0  -4 17853.2 2765.70   1
  -3   0   4 15570.1 2657.45   1
   3   0  -4 12668.0 1917.55   1
  -3   3   3 3099.41 977.540   1
   3  -3  -3 4894.02 1081.73   1
   3  -3  -3 5167.69 1887.55   1
  -3   3   3 4016.55 1483.47   1
   3  -3  -3 5170.33 1585.50   1
  -3   3   3 5060.53 1065.92   1
  -2   1   5 8823.59 3160.43   1
  -2   1   5 6682.18 1563.27   1
   2  -1  -5 3111.58 811.220   1
   2  -1  -5 4194.91 1603.43   1
  -2   1   5 3067.35 818.250   1
  -2   1   5 4438.21 1381.61   1
   2  -1  -5 4460.89 1428.34   1
  -2   5  -2 43337.5 2745.16   1
  -2   5  -2 48673.4 2393.81   1
   1  -2   5 1430.15 784.110   1
  -1   2  -5 1853.00 1671.10   1
   1  -2   5 472.240 1457.30   1
   1  -2   5 -71.580 1116.58   1
  -1   2  -5 -90.020 960.090   1
   1  -2   5 944.660 1244.78   1
  -1   2  -5 170.450 392.140   1
  -1   5  -3 139385. 5465.14   1
  -1   5  -3 127547. 3528.66   1
   1  -5   3 125108. 3599.36   1
   1  -5   3 129957. 9430.98   1
  -1   5   1 114717. 8414.33   1
  -1   5   1 137062. 3612.15   1
   1  -5  -1 138174. 3081.25   1
  -1   5   1 132287. 4479.92   1
  -1   5   1 141729. 3837.51   1
   1  -5  -1 119566. 4521.93   1
   2  -3   4 115377. 5669.71   1
  -2   3  -4 74381.4 2311.38   1
   2  -3   4 76432.2 3341.76   1
  -2   3  -4 74100.4 3290.04   1
   2  -3   4 95830.5 3866.26   1
  -2   3  -4 74261.8 6657.50   1
  -2   3  -4 72906.5 4065.16   1
  -2   5   1 2956.45 1010.26   1
   2  -5  -1 4865.29 1244.83   1
  -2   5   1 4476.22 2581.48   1
  -2   5   1 2408.86 992.050   1
   2  -5  -1 2015.91 1162.64   1
   2  -5  -1 3145.25 696.120   1
  -1   1  -5 641.420 504.780   1
   1  -1   5 1705.54 796.120   1
   1  -1   5 -113.12 1155.68   1
  -1   1  -5 252.060 1047.18   1
  -1   1  -5 1582.31 868.100   1
  -1   3   4 13876.8 2543.38   1
  -1   3   4 13061.6 1780.00   1
  -1   3   4 12768.2 2082.09   1
   1  -3  -4 16561.8 3055.22   1
  -2   1  -4 19556.3 3187.49   1
  -2   1  -4 23973.0 1565.51   1
   2  -1   4 23315.8 2945.40   1
   2  -1   4 12838.1 2094.83   1
   2  -1   4 10487.1 1405.03   1
  -2   1  -4 20568.4 2683.82   1
   2  -1   4 20030.3 3060.12   1
   1   3  -5 125329. 4820.70   1
  -1  -3   5 124727. 2823.80   1
   1   3  -5 102290. 5056.74   1
  -1  -3   5 132567. 5820.42   1
  -2   3   4 8406.91 1777.80   1
  -2   3   4 9852.70 1592.26   1
   2  -3  -4 11120.7 1636.89   1
   2  -3  -4 15131.9 1665.46   1
   2  -3  -4 7681.90 2126.45   1
  -2  -2  -2 143721. 4103.53   1
  -2  -2  -2 128238. 3669.78   1
   2   2   2 135315. 3730.67   1
  -3   4   2 108155. 2944.38   1
   3  -4  -2 120367. 4529.18   1
  -3   4   2 117998. 3333.58   1
   3  -4  -2 124577. 4023.82   1
   3  -4  -2 118288. 3499.77   1
   3  -4  -2 132527. 4348.02   1
   0   1   5 72534.9 2406.32   1
   0   1   5 71030.9 4321.27   1
   0  -1  -5 63433.9 3092.85   1
   0   1   5 69311.9 2985.41   1
   0   1   5 73825.9 9107.21   1
   0  -1  -5 88367.7 4243.31   1
  -2  -1  -3 150109. 4158.36   1
   2   1   3 143450. 4948.97   1
   2   1   3 159792. 3807.16   1
   2   1   3 127375. 3205.43   1
   0   5   0 -106.03 700.610   1
   0  -5   0 464.230 544.550   1
   0  -5   0 1525.16 912.170   1
   0   5   0 -459.36 1224.09   1
   0   5   0 2133.10 2460.83   1
   0   5   0 432.000 753.850   1
   2  -4  -3 36466.2 2468.88   1
  -2   4   3 29677.5 1981.66   1
  -2   4   3 31717.8 2338.27   1
   2  -4  -3 34103.7 3807.36   1
   2  -4  -3 31466.1 2261.85   1
  -3   2   4 107287. 4387.94   1
   3  -2  -4 106507. 3911.89   1
   3  -2  -4 108994. 3493.66   1
   3  -2  -4 112396. 2824.30   1
  -3   2   4 104030. 3231.13   1
   3  -2  -4 84344.8 2682.65   1
  -1   4   3 47396.6 2967.33   1
  -1   4   3 45813.4 1991.86   1
   1  -4  -3 53635.7 5102.06   1
  -1  -4   4 2339.23 1228.02   1
   1   4  -4 1448.15 1067.90   1
   1   4  -4 290.600 568.970   1
   1   4  -4 4854.41 3243.40   1
   0   5  -3 2448.78 1163.08   1
   0  -5   3 5452.59 1816.35   1
   0   5  -3 4165.55 1286.26   1
   0  -5   3 1580.27 881.050   1
   0   5  -3 4166.80 1730.87   1
   0  -5   3 3844.06 1501.70   1
  -1   3  -5 5841.84 1061.59   1
   1  -3   5 7446.27 2674.67   1
  -1   3  -5 5249.69 1542.97   1
   1  -3   5 6689.85 1638.30   1
   1  -3   5 13967.8 3109.08   1
  -3   4  -2 51639.7 7547.97   1
   3  -4   2 49437.9 3089.06   1
   3  -4   2 60223.8 3687.07   1
  -3   4  -2 59357.2 3094.30   1
  -2  -3   4 31624.9 3168.45   1
   2   3  -4 16310.2 2324.80   1
   2   3  -4 17555.6 2650.20   1
  -2  -3   4 14505.5 2213.91   1
   2   3  -4 15002.4 2554.79   1
  -2  -2   5 172248. 6977.79   1
   2   2  -5 154129. 9135.22   1
  -2  -2   5 168100. 7256.63   1
   2   2  -5 165535. 5667.91   1
   2   2  -5 117562. 2801.51   1
  -2  -2   5 112358. 3155.57   1
   1   4   1 126876. 5388.62   1
   1   4   1 122420. 2829.55   1
   1   4   1 127149. 3421.46   1
  -3  -1   4 174015. 8916.66   1
  -3  -1   4 143329. 3465.59   1
  -3  -1   4 136535. 4213.56   1
   3   1  -4 134806. 3204.83   1
   3   1  -4 165406. 5424.82   1
  -3  -1   4 160432. 3647.25   1
   3   1  -4 146203. 3934.20   1
   3   1  -4 157983. 4285.25   1
  -3  -2   2 56331.9 3424.63   1
   3   2  -2 40568.0 2491.10   1
   3   2  -2 42311.8 3384.09   1
  -3  -2   2 39066.9 1248.40   1
   3   1   1 23426.7 991.590   1
   3   1   1 20947.5 2185.29   1
  -3  -1  -1 30798.0 1177.51   1
   3   0   2 32563.7 3318.07   1
   3   0   2 27722.6 3707.22   1
  -3   0  -2 25518.8 1565.57   1
   3   0   2 26237.0 1325.74   1
  -3   0  -2 31055.7 1586.10   1
   3   0   2 26032.7 1362.12   1
   1  -2  -5 4597.14 1088.36   1
  -1   2   5 3073.22 2064.35   1
   1  -2  -5 812.640 725.580   1
  -1   2   5 2011.17 1002.96   1
  -1   2   5 3201.56 2323.32   1
  -3  -2   1 1097.91 428.630   1
   3   2  -1 -2247.1 1985.11   1
  -1   0  -5 130613. 7342.53   1
  -1   0  -5 140224. 3492.74   1
   1   0   5 143515. 4002.63   1
   1   0   5 177851. 4640.32   1
  -1   0  -5 157928. 4563.16   1
   1   0   5 144962. 4834.63   1
  -2   2   5 6361.42 1974.39   1
  -2   2   5 9893.15 1293.99   1
   2  -2  -5 6496.20 1769.58   1
   3   2  -3 20334.8 2043.01   1
   3   2  -3 22436.9 4271.23   1
  -3  -2   3 33538.9 4117.55   1
  -3  -2   3 23486.1 2805.62   1
  -2   5  -3 718.770 781.620   1
  -2   5  -3 -589.59 1478.64   1
  -2   5  -3 630.480 686.620   1
   2  -5   3 -645.49 1162.96   1
   2  -5   3 -1242.2 1220.05   1
  -2   4  -4 4986.25 885.640   1
  -2   4  -4 5031.82 1442.54   1
   2  -4   4 4733.93 1677.87   1
  -2   4  -4 1667.45 1121.41   1
   2  -4   4 7432.09 2070.27   1
   2   3   1 62467.9 2335.04   1
   2   3   1 87234.2 1794.85   1
  -3   2  -3 986.540 473.840   1
   3  -2   3 273.460 491.320   1
  -3   2  -3 237.040 861.790   1
   3  -2   3 -119.61 836.970   1
   3  -2   3 1733.82 2280.88   1
  -3   2  -3 -881.95 1363.55   1
   4  -2  -1 23817.7 2983.82   1
  -4   2   1 22676.7 3687.31   1
  -4   2   1 17698.0 1822.05   1
   4  -2  -1 23105.4 1874.29   1
   0   4  -5 25773.5 3052.01   1
   0   4  -5 29308.9 2017.74   1
   0  -4   5 35180.8 2342.63   1
   0  -4   5 29482.1 2247.60   1
  -3   5   0 7012.08 2250.78   1
   3  -5   0 7424.22 1779.26   1
   3  -5   0 11238.9 2866.46   1
   3  -5   0 6321.75 1890.78   1
  -3   5   0 6468.73 1642.20   1
   1   1  -6 6652.24 1986.65   1
  -1  -1   6 13167.6 2226.20   1
  -1  -1   6 8715.29 2245.15   1
  -1  -1   6 6077.08 1371.92   1
  -2   0  -4 107561. 4321.55   1
  -2   0  -4 104408. 4850.63   1
  -2   0  -4 88154.9 4179.51   1
   2   0   4 101276. 6699.89   1
   2   0   4 99616.3 3873.29   1
   2   0   4 101635. 4071.52   1
   3  -3   3 75399.4 3834.34   1
  -3   3  -3 78223.0 3006.22   1
   3  -3   3 74763.1 3842.81   1
  -3   3  -3 82577.8 6064.42   1
   3  -3   3 85621.6 4520.34   1
  -2   5   2 41969.1 2943.54   1
   2  -5  -2 37003.9 2480.64   1
   2  -5  -2 40526.0 2688.32   1
   2  -5  -2 36238.2 1994.84   1
   4  -2  -2 144928. 5761.65   1
  -4   2   2 146779. 5644.81   1
   4  -2  -2 160327. 6439.06   1
  -4   2   2 146826. 5347.69   1
  -4   2   2 141827. 5307.02   1
   3  -5   1 53242.0 3763.89   1
   3  -5   1 59525.0 3654.08   1
  -3   5  -1 59905.9 4874.92   1
   3  -5   1 62325.1 8637.39   1
  -4   1   1 156138. 6252.33   1
   4  -1  -1 161745. 6417.00   1
  -4   1   1 188128. 6963.77   1
   4  -1  -1 177038. 6610.06   1
   0  -5  -1 50237.7 2306.62   1
   0  -5  -1 45475.4 2197.36   1
   0   5   1 52234.3 2335.71   1
   0   5   1 53337.8 3894.54   1
   0   5   1 58169.9 2872.22   1
   4  -1  -2 12636.2 2486.30   1
   4  -1  -2 8249.12 1647.72   1
   4  -1  -2 7318.92 2063.22   1
  -4   1   2 6453.53 1702.69   1
  -4   1   2 9878.76 1810.99   1
  -1   5  -4 40291.1 4139.33   1
   1  -5   4 43948.2 3114.51   1
  -1   5  -4 31397.5 2123.55   1
   1  -5   4 40648.2 5036.74   1
   1   3   3 4306.77 1170.52   1
   1   3   3 2556.49 2215.43   1
   1   3   3 21445.1 2622.28   1
   1   3   3 17947.8 2318.16   1
  -1   0   6 45014.8 7350.78   1
  -1   0   6 38648.8 2167.25   1
  -1   0   6 47746.2 5045.36   1
   1   0  -6 35964.4 2297.22   1
   0   3   4 3530.17 1675.69   1
   0   3   4 6353.70 1543.52   1
   0  -3  -4 6462.02 1578.90   1
   0   3   4 4051.63 1337.61   1
   0   3   4 3020.32 679.060   1
   1  -5  -2 723.440 845.330   1
  -1   5   2 839.550 928.490   1
  -1   5   2 1529.57 1397.81   1
   1   2   4 22165.3 2704.64   1
   1   2   4 19691.8 2880.36   1
  -1  -2  -4 19104.0 2095.86   1
   1   2   4 27589.0 2414.88   1
   1   2   4 29498.6 2649.96   1
   4  -3  -1 180382. 7156.11   1
   4  -3  -1 202706. 7978.95   1
   3  -5  -1 53489.4 3218.60   1
   3  -5  -1 55870.8 4528.61   1
  -3   5   1 52976.6 3093.95   1
   3  -5  -1 55127.7 2536.53   1
  -1  -2   6 288976. 10699.0   1
   1   2  -6 248682. 11339.4   1
  -1  -2   6 352766. 5899.75   1
  -1  -2   6 293072. 6878.23   1
   0   5  -4 42910.3 2511.25   1
   0   5  -4 31909.1 2650.47   1
   0  -5   4 42895.6 5159.46   1
   0  -5   4 31310.9 1997.38   1
   0   5  -4 31334.4 1840.50   1
   0  -1   6 53394.4 4984.31   1
   0  -1   6 48381.7 2578.47   1
   0   1  -6 56144.8 3769.45   1
   0  -1   6 52468.3 5701.36   1
  -3   4   3 38257.7 4687.54   1
   3  -4  -3 26898.8 1631.81   1
   3  -4  -3 40445.4 5837.09   1
   3  -4  -3 30125.7 2499.80   1
   0  -2   6 85.3400 1053.92   1
   0  -2   6 -728.11 1779.02   1
   0   2  -6 2653.01 1910.36   1
   0  -2   6 -674.51 1126.86   1
  -3   3   4 30066.2 1862.40   1
   3  -3  -4 39045.0 5288.95   1
   3  -3  -4 30048.1 2000.14   1
   3  -3  -4 35326.9 2502.98   1
  -3   3   4 29387.7 3869.56   1
   3   2   0 67290.2 3210.34   1
   1  -4   5 -6.8200 1297.97   1
   1  -4   5 826.140 1442.29   1
  -1   4  -5 -456.89 1752.19   1
  -1   4  -5 833.620 986.780   1
   1  -4   5 2039.68 1001.87   1
   3  -1   3 82650.9 5394.21   1
  -3   1  -3 91242.7 3723.55   1
   3  -1   3 84451.3 3670.35   1
  -3   1  -3 77154.9 3186.62   1
   3  -1   3 85789.6 3752.03   1
   3   0  -5 5788.89 1371.96   1
   3   0  -5 6770.55 2068.64   1
  -3   0   5 4772.01 1091.49   1
  -3   0   5 13855.2 3502.43   1
   3   0  -5 6294.18 2407.30   1
  -3   0   5 5992.82 1420.74   1
  -4   3   0 12347.5 2105.44   1
   4  -3   0 11463.0 3362.40   1
   4  -3   0 14507.5 1631.03   1
  -2  -4   2 43432.8 2624.56   1
   2   4  -2 53217.5 3591.76   1
  -1  -5   2 2073.55 1221.14   1
   1   5  -2 3703.12 1894.72   1
   1   5  -2 3103.02 729.420   1
  -1  -5   2 3355.83 962.630   1
   1   5  -2 3331.11 1187.52   1
  -3   1   5 50908.6 2628.59   1
   3  -1  -5 49063.5 2792.73   1
  -3   1   5 44104.5 6056.44   1
  -3   1   5 57212.2 3923.74   1
   3  -1  -5 42079.2 1959.64   1
   3  -1  -5 47535.7 3488.85   1
   0   4   3 -892.82 1357.97   1
   0  -4  -3 -709.85 583.890   1
   0   4   3 1177.24 589.300   1
   0   4   3 -539.92 992.580   1
  -4   1   0 236.500 673.170   1
   4  -1   0 -478.87 1386.36   1
   4  -1   0 936.630 814.080   1
   4  -3  -2 4593.22 1352.95   1
  -4   3   2 3299.99 800.570   1
   4  -3  -2 2178.24 740.600   1
  -4   3   2 547.840 1040.51   1
   4  -3  -2 3044.87 1698.18   1
  -1  -5   1 42108.7 2041.94   1
   1   5  -1 40578.7 1827.48   1
  -1  -5   1 38065.0 2526.46   1
   1   5  -1 38546.4 2417.73   1
   3   2  -4 1249.98 564.990   1
   3   2  -4 3301.14 849.400   1
   3   2  -4 1746.57 1833.24   1
  -3  -2   4 3861.09 1279.27   1
  -3   4  -3 -81.910 364.030   1
   3  -4   3 -501.58 1269.66   1
  -3   4  -3 -923.76 1797.42   1
   3  -4   3 100.320 1971.98   1
   2   4  -1 75971.9 3924.31   1
  -2  -4   1 70561.0 2574.42   1
   2   4  -3 89339.8 5919.94   1
   2   4  -3 95275.9 5039.79   1
  -2  -4   3 102301. 4011.53   1
  -1   6  -1 1752.42 1086.64   1
  -1   6  -1 974.830 455.780   1
  -1   6  -1 3776.34 1447.35   1
   1  -6   1 -96.830 1130.28   1
   1  -6   1 2162.54 875.030   1
  -1  -4   5 36006.4 2247.74   1
  -1  -4   5 42846.3 3576.29   1
   1   4  -5 35126.3 1763.58   1
   4  -1  -3 171232. 7026.75   1
  -4   1   3 184349. 6941.20   1
   4  -1  -3 162569. 6356.22   1
   4  -1  -3 145911. 5282.54   1
  -4   1   3 178608. 6755.56   1
  -4   1   3 155220. 5832.90   1
   0   2   5 -424.68 647.790   1
   0   2   5 -1125.6 1221.63   1
   0  -2  -5 260.210 256.270   1
   0   2   5 111.350 542.940   1
   0  -2  -5 -354.34 939.620   1
   0   2   5 3354.18 2197.45   1
  -2   0   6 52968.8 3138.98   1
  -2   0   6 59259.9 9194.70   1
   2   0  -6 61398.8 3298.41   1
  -2   0   6 57381.4 3968.34   1
   3  -5   2 430.010 1470.82   1
   3  -5   2 0.13000 1414.45   1
  -3   5  -2 -1010.2 1581.51   1
  -2  -3   5 -1541.2 1570.21   1
   2   3  -5 -1243.0 2088.90   1
  -2  -3   5 340.060 304.820   1
   4  -2  -3 88.6600 702.520   1
  -4   2   3 -98.180 498.200   1
   4  -2  -3 2535.96 850.190   1
  -4   2   3 -311.39 1040.84   1
   4  -2  -3 393.470 356.940   1
   1   5  -3 371429. 4821.77   1
   1   5  -3 321662. 3572.13   1
  -1  -5   3 345043. 2847.23   1
  -2  -1   6 161706. 7628.13   1
   2   1  -6 191537. 7379.85   1
  -2  -1   6 223441. 9597.82   1
   4   0  -2 144829. 6617.44   1
  -4   0   2 129754. 5443.23   1
   4   0  -2 131381. 5291.72   1
  -4   0   2 132355. 5014.38   1
   4   0  -2 109539. 3996.57   1
   2  -6   1 188133. 7683.80   1
   2  -6   1 191009. 7536.67   1
   2  -6   1 213749. 8076.25   1
  -2   6  -1 190203. 7195.97   1
   0   0   6 -440.94 1111.04   1
   0   0   6 812.480 1842.87   1
   0   0   6 1849.73 1295.98   1
   0   0  -6 -126.95 893.490   1
   3   1  -5 5189.56 2662.54   1
  -3  -1   5 2390.29 632.430   1
  -3  -1   5 3159.52 1357.69   1
   3   1  -5 1286.50 517.220   1
  -3  -1   5 5812.53 1679.17   1
  -3  -1   5 1123.84 640.590   1
   3   1  -5 2454.28 691.500   1
   0  -3   6 173162. 6877.91   1
   0   3  -6 187452. 7836.84   1
   0  -3   6 200259. 10571.3   1
   0  -3   6 147079. 5972.41   1
   4   0  -1 6989.52 2326.62   1
  -4   0   1 13651.2 1354.31   1
   4   0  -1 14462.9 1950.41   1
   4   0  -1 8790.28 1994.99   1
   1   4   2 42608.1 1799.93   1
   1   4   2 40044.9 3053.43   1
  -4   2  -1 14050.7 1232.21   1
   4  -2   1 18584.8 1901.34   1
   4  -2   1 6849.21 2330.85   1
   1  -1  -6 1599.71 776.360   1
  -1   1   6 2623.71 1284.02   1
  -1   1   6 1297.04 1162.58   1
  -1   1   6 2153.66 1127.93   1
   2  -6   0 58258.2 10263.6   1
  -2   6   0 58278.6 3344.91   1
   2  -6   0 70970.9 3443.76   1
  -2   6   0 60249.1 2927.70   1
   2  -6   0 57624.1 3307.71   1
   2   2   3 26152.3 3043.40   1
  -2  -2  -3 26292.6 1958.47   1
   2   2   3 28344.3 2001.77   1
   2   2   3 39305.9 1995.34   1
  -2  -2  -3 13463.9 2029.47   1
  -3  -1  -2 4115.09 1590.85   1
  -3  -1  -2 11268.5 2182.13   1
   3   1   2 9788.62 1798.89   1
   3   1   2 13465.9 1036.16   1
   2  -4  -4 69506.6 4605.20   1
  -2   4   4 62771.5 4939.36   1
   2  -4  -4 88322.3 3462.71   1
   1   1   5 53860.0 4344.94   1
  -1  -1  -5 35550.0 6208.87   1
   1   1   5 51406.2 3860.19   1
   1   1   5 71119.1 3759.29   1
  -1  -1  -5 47616.7 3588.43   1
   1   1   5 45930.1 2586.59   1
   3  -5  -2 70438.0 7797.52   1
   3  -5  -2 73579.3 3717.27   1
  -3   5   2 64709.0 3327.06   1
   3  -5  -2 68744.3 3555.43   1
   3  -5  -2 78369.4 4072.90   1
  -1   6   0 165905. 6467.90   1
  -1   6   0 176950. 7694.96   1
  -1   6   0 162647. 6047.45   1
   1  -6   0 163666. 6341.86   1
   1  -6   0 185294. 7123.31   1
  -3   2   5 61006.9 4553.89   1
  -3   2   5 57611.3 4525.98   1
   3  -2  -5 72147.7 3772.99   1
   3  -2  -5 63210.1 2753.65   1
  -3   2   5 67938.4 3276.10   1
   3  -2  -5 65251.0 6165.12   1
   2  -2   5 15901.7 1550.38   1
   2  -2   5 24045.1 2993.92   1
  -2   2  -5 23019.2 1702.25   1
  -2   2  -5 19004.8 2855.54   1
   2  -2   5 20064.4 2631.31   1
   2  -6   2 10071.8 2150.49   1
  -2   6  -2 11329.1 2596.75   1
   2  -6   2 11779.2 2715.64   1
  -1  -3   6 16683.6 3049.92   1
   1   3  -6 7177.60 1922.56   1
  -1  -3   6 8066.21 1500.85   1
  -1  -3   6 5448.64 1894.82   1
  -4   4   1 11311.8 1905.74   1
   4  -4  -1 11676.6 3096.88   1
   4  -4  -1 9573.11 2426.69   1
  -4   4   0 69976.3 2782.04   1
   4  -4   0 82122.5 4724.82   1
   4  -4   0 73563.1 3860.90   1
   4   0  -3 1237.78 402.230   1
   4   0  -3 1786.88 447.200   1
  -4   0   3 4157.04 2042.55   1
  -4   0   3 2793.31 1022.99   1
   4   0  -3 999.940 2910.81   1
   4   0  -3 1712.87 1201.83   1
   2  -3   5 401.010 1608.21   1
   2  -3   5 1242.65 1690.50   1
   2  -3   5 3128.05 1073.15   1
  -2   3  -5 2672.20 1423.93   1
  -2   3  -5 2257.64 901.000   1
  -2   1   6 4803.87 2701.08   1
  -2   1   6 300.400 1166.83   1
  -2   1   6 17237.2 2931.71   1
   2  -1  -6 -815.45 1670.89   1
   2  -1  -6 6982.38 3969.96   1
   2  -5   4 102213. 4696.18   1
  -2   5  -4 96748.2 4519.35   1
   2  -5   4 86309.9 4373.57   1
  -2   5  -4 83707.9 5829.50   1
  -1  -5   0 17090.5 1065.98   1
   1   5   0 10211.3 1676.82   1
   1   5   0 -314.09 1961.57   1
  -2   3   5 138237. 5539.17   1
   2  -3  -5 132848. 5673.72   1
  -2   3   5 127086. 6384.52   1
   1  -4  -4 1655.86 790.720   1
  -1   4   4 4193.75 2588.43   1
  -1   4   4 816.170 944.230   1
  -1   4   4 633.150 1177.23   1
   1  -6   3 11117.9 2345.25   1
  -1   6  -3 12265.1 2518.54   1
   1  -6   3 16901.3 2807.00   1
  -1   6  -3 12845.5 2372.08   1
   2   4   0 16316.2 2001.17   1
   2   4   0 -2085.8 1337.84   1
   4  -3  -3 21201.0 3277.12   1
   4  -3  -3 16501.3 1262.47   1
   4  -3  -3 24719.1 4145.17   1
  -4   3   3 17328.0 1404.11   1
  -4   3   3 18976.7 2198.19   1
  -3   0  -3 3118.11 1341.43   1
  -3   0  -3 5522.80 1331.91   1
   3   0   3 7711.79 1460.25   1
   3   0   3 9267.79 1783.18   1
   3   0   3 8154.30 1994.09   1
   3   0   3 2027.30 2525.45   1
  -2  -2   6 9244.37 1995.17   1
  -2  -2   6 11273.1 1811.85   1
   2   2  -6 8643.54 2055.92   1
  -2  -2   6 22051.7 4294.30   1
   2   1   4 32283.5 3318.87   1
   2   1   4 32103.3 1935.71   1
   2   1   4 24971.5 3742.74   1
  -2  -1  -4 26274.1 1841.89   1
   2   4  -4 2070.38 1106.00   1
  -2  -4   4 3527.02 1534.67   1
   2   4  -4 2169.58 1564.01   1
   2   4  -4 2238.63 718.120   1
   2   3   2 33291.8 1980.57   1
   2   3   2 33719.3 2581.56   1
   3   2   1 5673.17 895.910   1
   3   2   1 9115.84 1960.46   1
  -1   3   5 -13.670 331.820   1
  -1   3   5 235.630 2193.70   1
  -1   3   5 -130.11 1207.38   1
   1  -3  -5 -55.940 876.550   1
   4  -1   1 5407.73 2612.26   1
  -4   1  -1 9862.64 1725.48   1
   4  -1   1 8790.04 1768.64   1
   4  -1   1 6473.10 1036.36   1
   4   0   0 4658.09 997.060   1
   4   0   0 4713.02 2124.11   1
  -4   0   0 8339.41 1578.71   1
   4   0   0 9713.58 1903.64   1
   1  -2   6 5891.07 1723.74   1
   1  -2   6 9389.54 2241.12   1
   1  -2   6 6576.71 1974.11   1
  -1   2  -6 7223.39 1837.50   1
  -3  -3   2 5274.98 894.050   1
   3   3  -2 2998.62 2022.56   1
   0   5   2 -21.690 508.040   1
   0   5   2 1482.79 2303.38   1
   0   5   2 778.180 395.920   1
   0  -5  -2 242.590 359.910   1
   2  -1   5 21203.2 2826.54   1
   2  -1   5 24589.1 2077.12   1
  -2   1  -5 27313.1 4137.27   1
   2  -1   5 28416.2 2428.09   1
  -2   1  -5 25027.8 1620.04   1
   2  -5  -3 14920.3 1322.64   1
  -2   5   3 15122.3 1966.57   1
   2  -5  -3 18088.9 3457.19   1
  -1  -5   4 3789.41 1312.24   1
   1   5  -4 4845.91 1155.71   1
   1   5  -4 3700.54 1150.62   1
   1   5  -4 6492.48 2537.18   1
   0   6  -2 1045.16 995.860   1
   0  -6   2 1368.63 1076.43   1
   0   6  -2 862.980 638.680   1
   0   6  -2 2437.88 1239.44   1
   0  -6   2 1538.05 904.520   1
  -4   4   2 3140.10 780.840   1
   4  -4  -2 7412.23 2062.39   1
   4  -4  -2 2275.99 1903.85   1
   4  -4  -2 3378.11 1421.91   1
  -4   4  -1 664.190 314.270   1
   4  -4   1 -1407.0 1981.11   1
   4  -4   1 257.590 1515.20   1
   2  -6  -1 64079.2 3102.11   1
  -2   6   1 56513.1 3619.37   1
   2  -6  -1 55246.1 2938.54   1
  -2   6   1 51457.8 2795.47   1
   0  -6   1 9465.02 1902.53   1
   0   6  -1 9405.38 1737.63   1
   0   6  -1 4546.88 1600.36   1
   0  -6   1 3706.81 833.160   1
   0   6  -1 5319.54 1303.70   1
  -4   1   4 7626.71 1559.28   1
   4  -1  -4 5193.72 993.450   1
   4  -1  -4 4050.11 2554.63   1
   4  -1  -4 3495.98 1202.48   1
  -4   1   4 3828.03 1065.32   1
   4  -1  -4 8120.02 2069.57   1
  -3  -3   3 40458.4 2531.83   1
   3   3  -3 34953.4 3932.76   1
   0   5  -5 50532.1 2501.44   1
   0  -5   5 60488.8 5585.60   1
   0   5  -5 45609.1 2862.19   1
   0  -5   5 46132.4 2805.51   1
   1  -3   6 2340.57 1247.35   1
   1  -3   6 416.840 469.190   1
  -1   3  -6 565.890 598.760   1
   1  -3   6 1289.56 1421.26   1
   1  -1   6 32081.6 3785.84   1
  -1   1  -6 24427.8 3356.79   1
   1  -1   6 25481.5 2023.14   1
   3   3  -1 106748. 5344.94   1
   3  -5   3 39167.6 3048.13   1
  -3   5  -3 49137.3 4004.62   1
   3  -5   3 35642.0 2770.80   1
  -3   5  -3 44210.9 5788.44   1
  -1   5  -5 388.140 895.760   1
   1  -5   5 403.200 1020.14   1
  -1   5  -5 2322.94 1887.30   1
   1  -5   5 1686.34 1174.17   1
   3  -3   4 1168.09 1942.97   1
   3  -3   4 346.530 983.450   1
   3  -3   4 1834.03 819.460   1
  -3   3  -4 908.100 522.720   1
  -3   3  -4 -1653.2 1701.32   1
  -2   4  -5 90079.9 8147.30   1
  -2   4  -5 68794.0 4051.47   1
   2  -4   5 91301.6 4871.00   1
   2  -4   5 90402.6 4577.73   1
   2  -4   5 99888.1 4597.31   1
   4  -2  -4 13309.7 1438.48   1
   4  -2  -4 14214.9 2656.18   1
  -4   2   4 15457.3 1664.79   1
   4  -2  -4 15283.0 2831.56   1
  -4   2   4 14615.1 2026.57   1
  -1   5   3 2833.86 2086.36   1
  -1   5   3 2812.41 982.640   1
   1  -5  -3 5228.84 1636.83   1
  -3   2  -4 134368. 5784.15   1
   3  -2   4 135308. 6662.12   1
   3  -2   4 182704. 7370.99   1
   3  -2   4 145869. 5436.15   1
  -3   2  -4 132442. 4952.26   1
  -3  -2   5 18814.2 2872.90   1
  -3  -2   5 29381.2 3989.75   1
   3   2  -5 18832.7 1895.41   1
  -3  -2   5 38256.0 5856.55   1
   3   2  -5 30238.2 3579.95   1
  -2   6  -3 79398.1 3846.88   1
   3  -4  -4 987.520 936.050   1
  -3   4   4 -78.600 813.690   1
   3  -4  -4 901.830 1264.61   1
  -1   6   1 35684.7 2030.51   1
  -1   6   1 36264.2 3458.55   1
   1  -6  -1 31684.1 1615.91   1
  -1   6   1 35601.2 3736.93   1
   1  -6  -1 37425.7 3280.22   1
   0   1   6 -272.08 1360.62   1
   0  -1  -6 1553.83 751.520   1
   0   1   6 43.0000 503.990   1
   0   1   6 1384.22 953.790   1
   0   6  -3 10215.7 2121.29   1
   0   6  -3 8927.56 1872.31   1
   0   6  -3 12004.2 2124.82   1
   0  -6   3 10084.8 1995.65   1
   4   1  -2 29348.8 1452.57   1
   4   1  -2 46330.4 3647.91   1
   0  -4   6 198.950 1223.14   1
   0   4  -6 1666.17 2086.36   1
   0  -4   6 188.570 1487.26   1
   0  -4   6 -395.15 1419.19   1
   4   0  -4 124991. 5276.60   1
  -4   0   4 116816. 4584.27   1
   4   0  -4 134998. 6500.70   1
  -4   0   4 143374. 5619.65   1
  -4   0   4 119949. 4831.47   1
   4   0  -4 115484. 4267.52   1
  -4   0   4 142165. 6608.07   1
   4   0  -4 131244. 5229.26   1
   3  -6   0 157293. 6379.17   1
  -3   6   0 168306. 6972.91   1
   3  -6   0 139337. 5614.90   1
   3  -6   0 155680. 7265.27   1
  -3   6   0 160560. 6323.61   1
   3  -6   1 2737.79 1078.70   1
  -3   6  -1 5315.22 1488.01   1
   3  -6   1 7488.18 2365.99   1
   4  -3   2 43287.3 3459.60   1
   4  -3   2 68241.1 3985.47   1
   4  -2   2 1895.78 1545.95   1
  -4   2  -2 3760.99 1375.96   1
   4  -2   2 457.990 1955.24   1
  -4   2  -2 2057.77 615.030   1
   4  -2   2 2940.98 649.740   1
  -4  -1   1 2465.54 682.600   1
   4   1  -1 13.0400 1087.92   1
   4   1  -1 4080.62 1047.38   1
  -4  -1   3 111405. 5173.94   1
   4   1  -3 95398.1 3803.09   1
   4   1  -3 98122.6 5738.98   1
   4   1  -3 95130.8 3629.82   1
  -4  -1   3 98391.8 3827.34   1
   4   1  -3 117458. 5739.19   1
   0   6   0 1008.54 1826.58   1
   0   6   0 833.550 1026.00   1
   0  -6   0 1457.43 1047.28   1
   0   6   0 373.520 564.150   1
   0  -6   0 629.810 550.440   1
  -3   3   5 983.080 1021.75   1
   3  -3  -5 986.560 1308.88   1
   3  -3  -5 -31.470 1115.20   1
  -3   3   5 384.360 2282.29   1
  -2   2   6 123179. 6754.09   1
  -2   2   6 109219. 4500.67   1
   2  -2  -6 123673. 4907.51   1
  -2   2   6 134822. 11707.3   1
   2  -2  -6 129522. 5457.90   1
   3  -5  -3 1414.52 870.690   1
   3  -5  -3 1504.61 1701.87   1
  -3   5   3 -663.27 949.350   1
   3   3  -4 392.270 413.740   1
  -3  -3   4 569.230 301.270   1
  -3  -3   4 -270.57 1003.35   1
   3   3  -4 -869.13 722.700   1
   3   3  -4 -925.51 1959.52   1
   3  -4   4 260187. 9499.62   1
   3  -4   4 307998. 3360.42   1
  -3   4  -4 277860. 9861.21   1
  -3   4  -4 298084. 6420.21   1
   3  -4   4 300423. 4015.98   1
  -1   2   6 11688.2 2526.91   1
  -1   2   6 12700.5 3255.16   1
  -1   2   6 11430.3 2131.85   1
   1  -2  -6 13041.9 2526.59   1
   1  -2  -6 15883.8 2557.46   1
   1   5   1 1265.67 2453.59   1
  -1  -5  -1 13030.2 2272.02   1
   1   5   1 7745.92 1341.37   1
  -3   0   6 142211. 6994.37   1
   3   0  -6 133138. 5610.42   1
   3   0  -6 150823. 6318.49   1
  -3   0   6 147173. 6028.07   1
  -3   0   6 156722. 5968.98   1
   1  -6   4 84452.5 4247.28   1
  -1   6  -4 100977. 4492.13   1
   1  -6   4 104732. 9694.33   1
  -1   6  -4 106981. 6484.94   1
   1   3   4 199813. 7793.89   1
   1   3   4 228164. 8519.66   1
   1   3   4 204352. 8763.34   1
  -4   5   0 1430.19 1137.58   1
   4  -5   0 1811.24 1857.91   1
   4  -5   0 -1139.4 1611.35   1
   4   0   1 139216. 6744.58   1
   4   0   1 129172. 4814.14   1
  -4   0  -1 153231. 5649.97   1
   4   0   1 142077. 5268.67   1
  -3   1  -4 15954.6 2325.10   1
   3  -1   4 14362.2 3328.91   1
  -3   1  -4 16970.3 1398.06   1
   3  -1   4 18318.6 1382.13   1
   3  -1   4 19434.2 1671.09   1
  -2   0  -5 12707.7 3171.84   1
   2   0   5 30544.5 3701.53   1
   2   0   5 19107.9 4066.44   1
  -2   0  -5 29187.5 3743.45   1
   2   0   5 27562.4 1951.60   1
  -4   4   3 6669.12 1651.87   1
   4  -4  -3 9835.87 2599.19   1
   4  -4  -3 10780.8 2628.24   1
   4  -4  -3 4459.34 1140.94   1
  -2  -3   6 130761. 6227.60   1
   2   3  -6 138636. 6771.63   1
  -2  -3   6 113557. 5568.88   1
   2   4   1 16713.8 1716.77   1
   2   4   1 26615.9 2751.27   1
  -1  -4   6 82633.2 6328.93   1
  -1  -4   6 97615.2 4289.97   1
  -1  -4   6 96114.4 4746.82   1
   1   4  -6 82871.7 7534.95   1
   3  -6  -1 13364.7 2593.15   1
   3  -6  -1 16647.4 2160.30   1
  -3   6   1 16330.2 1867.83   1
   3  -6  -1 20166.8 3329.92   1
   2   4  -5 3349.98 2029.23   1
   2   4  -5 1375.79 511.590   1
  -2  -4   5 4099.60 1611.29   1
   3   3   0 14077.7 1861.53   1
   3   3   0 12225.7 2465.11   1
   4  -5  -1 8083.21 2106.86   1
   4  -5  -1 8544.74 2260.17   1
  -4   5   1 5380.33 1279.18   1
   1  -4   6 22079.9 2184.84   1
  -1   4  -6 25270.4 2745.51   1
   1  -4   6 28226.5 2696.48   1
   1  -4   6 36427.1 5385.65   1
   3  -1  -6 15917.9 2066.69   1
  -3   1   6 17485.0 2508.58   1
  -3   1   6 26689.2 4606.59   1
  -3   1   6 12908.6 2594.40   1
   3  -1  -6 19639.9 3538.52   1
   1   0   6 4130.29 1454.14   1
   1   0   6 8947.11 1876.29   1
  -1   0  -6 7736.51 2221.89   1
   1   0   6 6491.54 1595.85   1
  -3   6  -2 74474.8 9968.34   1
   3  -6   2 73864.4 8924.26   1
   3  -6   2 79023.7 4542.78   1
   4  -4   2 2320.10 2319.72   1
  -4   4  -2 1639.07 369.320   1
   4  -4   2 3328.82 2469.94   1
   4  -3  -4 3226.53 1168.45   1
   4  -3  -4 4844.09 1863.03   1
   4  -3  -4 5751.08 1243.74   1
  -4   3   4 3374.11 779.560   1
   0   4   4 20845.8 2894.75   1
   0   4   4 18297.7 2512.27   1
   0  -4  -4 37541.7 3841.55   1
   0   4   4 29935.9 1780.48   1
   1   1  -7 15679.6 2277.77   1
  -1  -1   7 18058.8 3309.87   1
  -1  -1   7 19550.8 4055.77   1
  -3  -1   6 2420.20 1067.35   1
   3   1  -6 32.2700 1736.49   1
  -3  -1   6 2388.72 506.430   1
  -3  -1   6 2490.72 2307.51   1
   0   3   5 34048.4 3173.08   1
   0  -3  -5 33734.0 3664.43   1
   0   3   5 18766.1 1690.46   1
   0   3   5 17550.3 3089.38   1
   0   6  -4 22803.3 1641.52   1
   0   6  -4 21909.7 2130.47   1
   0  -6   4 26313.0 2231.71   1
   0  -6   4 36594.4 4543.13   1
  -1  -5   5 3352.10 1816.78   1
   1   5  -5 647.930 702.090   1
   1   5  -5 -167.73 1619.50   1
   2  -6  -2 15644.0 1771.22   1
  -2   6   2 5106.24 2167.23   1
   2  -6  -2 7223.70 976.110   1
   4  -1   2 7678.37 1082.49   1
   4  -1   2 4961.70 2572.41   1
  -4   1  -2 6827.56 1097.20   1
  -4   1  -2 5132.92 917.660   1
   4  -1   2 5636.77 1162.66   1
   4  -5   1 1778.57 1442.64   1
   4  -5   1 742.200 1620.66   1
   1   4   3 202783. 7449.78   1
   1   4   3 234902. 8394.94   1
  -1  -4  -3 260854. 9505.68   1
   1   4   3 240569. 8661.25   1
   1   4   3 255573. 9713.50   1
   1   2   5 232969. 8697.08   1
   1   2   5 253689. 9093.01   1
  -1  -2   7 2485.14 1907.10   1
   1   2  -7 1872.40 1439.61   1
  -1  -2   7 -415.93 1166.32   1
   4   1   0 4596.22 1101.09   1
   4   1   0 6622.02 2006.88   1
   4   1   0 3760.80 594.520   1
   3   1   3 1001.23 788.470   1
  -3  -1  -3 1180.07 843.390   1
  -3  -1  -3 502.970 858.580   1
   3   1   3 -643.67 492.860   1
   4   1  -4 -236.73 2355.57   1
  -4  -1   4 3630.39 2443.79   1
   4   1  -4 1105.02 672.160   1
  -4  -1   4 -142.55 490.710   1
   4   1  -4 279.730 398.360   1
   4   1  -4 -149.94 386.160   1
   3   2   2 -465.96 778.600   1
   3   2   2 189.370 264.990   1
   3   2   2 194.920 246.940   1
  -2   5  -5 26855.9 4046.57   1
   2  -5   5 28759.1 2958.61   1
   2  -5   5 31754.8 3287.19   1
  -1   0   7 1755.73 981.980   1
   1   0  -7 2646.74 1387.00   1
  -1   0   7 1957.03 831.320   1
  -1   0   7 4559.31 1599.92   1
   0  -2   7 88076.2 5360.75   1
   0  -2   7 90742.2 5267.48   1
   0   2  -7 100407. 4821.65   1
   0  -2   7 83523.8 4250.98   1
   2  -6   4 13259.8 2461.33   1
  -2   6  -4 9755.83 2322.06   1
   2  -6   4 11141.9 2110.60   1
  -4   1   5 1491.48 1182.48   1
   4  -1  -5 -140.96 402.670   1
  -4   1   5 -654.91 699.780   1
   4  -1  -5 514.280 1908.89   1
   4  -1  -5 356.480 428.260   1
   4  -1  -5 -741.16 930.620   1
  -4   1   5 633.340 1643.09   1
   4  -5  -2 -504.98 1583.85   1
   4  -5  -2 432.540 793.070   1
  -4   5   2 -354.06 555.960   1
   4  -5  -2 -511.41 1308.92   1
  -2  -5   2 102168. 3809.77   1
   2   5  -2 93335.6 4904.88   1
   2   5  -2 84313.0 4143.93   1
  -1   6   2 718.360 1505.07   1
   1  -6  -2 2506.97 441.700   1
   1  -6  -2 4170.43 1014.34   1
  -1   6   2 3643.40 772.770   1
   0  -1   7 27809.4 3176.24   1
   0  -1   7 22094.3 3263.88   1
   0   1  -7 26909.5 2413.47   1
   2  -4  -5 1410.12 843.220   1
  -2   4   5 -612.02 1055.54   1
   2  -4  -5 1184.61 742.500   1
  -2   4   5 1214.37 1323.92   1
   0   6   1 1942.64 658.330   1
   0  -6  -1 2111.68 555.730   1
   0   6   1 1875.45 1681.09   1
   0   6   1 3010.70 804.190   1
   0  -6  -1 1956.31 737.830   1
  -2  -1   7 8796.50 2371.06   1
  -2  -1   7 7976.87 2255.06   1
   2   1  -7 5687.43 1638.71   1
   2   5  -3 28970.2 3543.64   1
   2   5  -3 35037.4 2428.59   1
  -2  -5   3 41346.6 2063.51   1
   2   2   4 208015. 7478.10   1
  -2  -2  -4 233184. 8901.92   1
   2   2   4 204449. 8057.89   1
   2   2   4 192744. 7373.73   1
  -3   2   6 7041.30 3922.87   1
  -3   2   6 2960.45 746.300   1
  -3   2   6 1784.30 475.690   1
   3  -2  -6 3815.08 1501.90   1
   3  -2  -6 4386.52 1292.67   1
   4   0  -5 1565.52 653.390   1
  -4   0   5 600.930 954.380   1
  -4   0   5 1708.23 1014.36   1
   4   0  -5 958.340 494.400   1
   4   0  -5 48.4700 999.710   1
   0   5   3 10599.5 2045.13   1
   0   5   3 12309.9 2824.81   1
   0   5   3 10683.9 1453.58   1
   0  -5  -3 12313.3 1971.50   1
   2   3   3 201039. 7561.52   1
   2   3   3 201511. 7804.72   1
   2   3   3 202729. 8285.85   1
   2   0  -7 5122.47 1907.71   1
   3  -5   4 19701.9 2471.90   1
  -3   5  -4 14114.1 2175.56   1
   3  -5   4 25184.2 2906.87   1
  -3   5  -4 22570.3 4177.69   1
   2  -5  -4 167.650 146.940   1
   2  -5  -4 254.370 395.040   1
  -2   5   4 19.0500 1167.16   1
   2  -5  -4 2736.53 1191.83   1
   3   3  -5 1753.10 1129.46   1
  -3  -3   5 2342.32 988.470   1
   3   3  -5 84.6900 1907.42   1
  -3  -3   5 319.950 340.260   1
   3  -6  -2 2858.88 631.240   1
  -3   6   2 3671.72 1551.90   1
   3  -6  -2 2730.97 1802.62   1
   3  -6  -2 2858.94 1582.72   1
   4  -2  -5 7186.85 1801.77   1
   4  -2  -5 4175.24 927.050   1
  -4   2   5 6757.62 1375.22   1
   4  -2  -5 7170.05 1487.24   1
  -4   2   5 3353.99 2439.65   1
  -4   2   5 4130.16 1088.92   1
   1   6  -2 36637.4 1823.76   1
   1   6  -2 24163.5 4857.35   1
   1   6  -2 38665.3 2946.77   1
  -1  -6   2 37629.9 2046.42   1
   0   3  -7 2325.73 2364.88   1
   0  -3   7 4745.43 1408.32   1
   0  -3   7 4846.88 2236.31   1
   0  -3   7 1660.84 957.350   1
   0  -2  -6 2933.02 595.010   1
   0   2   6 1075.91 821.230   1
   0   2   6 2036.11 1372.94   1
   0   2   6 1948.09 1431.60   1
   3  -6   3 417.990 1536.14   1
  -3   6  -3 1077.31 392.210   1
   3  -6   3 1027.17 1436.73   1
  -3   6  -3 -594.47 1264.50   1
  -2  -5   1 4442.03 680.830   1
   2   5  -1 3776.56 1807.27   1
  -1  -3   7 207276. 7792.87   1
  -1  -3   7 235369. 10666.8   1
   1   3  -7 160732. 6457.40   1
  -1  -3   7 197107. 8507.69   1
   3   2  -6 -251.05 1823.95   1
  -3  -2   6 1757.50 984.750   1
  -3  -2   6 1138.51 1094.20   1
   3   0   4 270.830 813.830   1
   3   0   4 -228.75 570.280   1
  -3   0  -4 1183.66 1063.68   1
  -3   0  -4 451.850 1057.29   1
  -4   5  -2 -1094.5 1545.83   1
   4  -5   2 1559.41 1618.29   1
  -4   5  -2 1601.08 487.670   1
   4  -5   2 94.4400 1328.42   1
   0   5  -6 12142.3 1611.32   1
   0  -5   6 16379.4 1969.29   1
   0  -5   6 18833.4 2575.47   1
   0   5  -6 19852.4 3159.56   1
   1   6  -3 -338.34 1354.32   1
   1   6  -3 1050.43 525.120   1
   1   6  -3 238.940 605.970   1
  -1  -6   3 -41.480 604.070   1
   2  -7   1 8151.93 2578.34   1
   2  -7   1 7398.06 1054.85   1
  -2   7  -1 9714.83 2049.99   1
   2  -7   1 14585.8 2326.77   1
   4  -3   3 5077.31 1228.85   1
  -4   3  -3 4206.09 678.140   1
   4  -3   3 7101.68 1233.25   1
  -4  -2   2 4011.83 964.510   1
   4   2  -2 2165.38 1610.95   1
   4   2  -2 5408.39 2314.21   1
  -4  -2   2 4817.89 736.340   1
  -1   4   5 19765.9 3265.67   1
  -1   4   5 25396.0 2572.95   1
   1  -4  -5 45382.6 2654.81   1
   2   2  -7 203556. 8127.15   1
  -2  -2   7 208732. 9114.16   1
  -2  -2   7 186236. 8523.35   1
  -2   3  -6 1263.60 1152.22   1
   2  -3   6 3360.52 1978.35   1
   1  -7   2 -513.92 1625.88   1
   1  -7   2 -1016.2 1022.10   1
  -1   7  -2 299.750 1181.89   1
  -1  -6   1 4674.02 967.010   1
   1   6  -1 2210.41 508.840   1
   1   6  -1 2263.07 1219.38   1
  -1  -6   1 1316.49 951.820   1
   2  -2   6 2464.16 844.310   1
  -2   2  -6 1087.17 650.840   1
   2  -2   6 -605.75 1648.21   1
   2  -2   6 2845.22 1161.84   1
   3   3   1 -691.14 976.850   1
   4   2  -3 1011.92 1774.68   1
   4   2  -3 -69.300 657.210   1
   1  -7   1 76413.4 3579.92   1
   1  -7   1 85679.0 3579.33   1
  -1   7  -1 82057.9 3953.45   1
   2  -7   2 179755. 7285.85   1
  -2   7  -2 175420. 7074.56   1
   2  -7   2 177525. 7217.19   1
   2  -3  -6 7552.54 1871.36   1
  -2   3   6 6451.64 1535.66   1
   2  -3  -6 8838.48 1730.49   1
  -2   3   6 8756.83 3031.56   1
   1  -6   5 85357.7 6085.45   1
  -1   6  -5 80087.3 3504.11   1
  -1   6  -5 95491.0 5594.58   1
   1  -6   5 97998.8 5028.09   1
   4  -2   3 67368.6 3581.72   1
   4  -2   3 66255.4 2940.44   1
   4  -2   3 65565.7 4684.43   1
   0   0   7 6844.07 1512.50   1
   0   0   7 5998.00 1733.41   1
   0   0   7 4393.26 1098.93   1
   0   0  -7 5449.17 1262.92   1
  -2  -5   4 117443. 4637.81   1
   2   5  -4 110062. 4819.01   1
   2   5  -4 94581.5 4272.94   1
   2   5  -4 117886. 5286.81   1
  -4   4   4 83752.6 3661.35   1
   4  -4  -4 84520.7 4717.11   1
   4  -4  -4 76985.5 3363.11   1
   4  -4  -4 79102.5 5182.26   1
   1   5   2 65259.6 4127.02   1
  -1  -5  -2 76536.5 4572.03   1
   1   5   2 62425.1 2991.86   1
   1   5   2 52867.6 2971.72   1
   1   5   2 64647.4 2615.33   1
   1  -5   6 77.3100 1600.64   1
  -1   5  -6 -174.73 760.900   1
   1  -5   6 -17.970 1442.44   1
  -1   5  -6 -689.88 1613.92   1
   3  -4  -5 362917. 9226.46   1
   1   1   6 69834.6 3499.24   1
   1   1   6 59294.5 2774.82   1
  -1  -1  -6 51777.1 3439.29   1
   1   1   6 49063.5 3817.95   1
  -2   7   0 146491. 5852.05   1
  -2   7   0 145560. 6765.14   1
   2  -7   0 144242. 5354.84   1
   2  -7   0 142513. 5753.39   1
   2  -7   0 127069. 7219.69   1
  -1   5   4 15989.9 2623.93   1
   1  -5  -4 17355.4 2722.17   1
  -1   5   4 6450.70 1682.87   1
  -1   1   7 3333.18 1143.46   1
  -1   1   7 2854.33 914.600   1
   1  -1  -7 4919.56 1441.72   1
  -1   1   7 5511.82 1863.76   1
  -2   1   7 34050.0 5585.36   1
   2  -1  -7 43688.1 4624.67   1
  -2   1   7 44216.7 3351.66   1
   2  -1  -7 50810.3 6546.87   1
  -2  -1  -5 65680.8 3237.11   1
   2   1   5 85817.9 3984.94   1
   2   1   5 88712.0 3804.92   1
   2   1   5 64281.3 2541.93   1
   2   1   5 88882.5 4022.75   1
  -3   5   4 328796. 3491.53   1
   3   4  -2 72179.0 4256.21   1
   4  -4   3 77823.0 4563.67   1
  -4   4  -3 56645.6 3441.14   1
   4  -4   3 65929.6 3573.81   1
  -4   4  -3 68469.5 2797.57   1
  -4  -1  -1 296980. 2058.85   1
   4   1   1 238975. 8710.21   1
  -4  -2   1 69891.1 2622.21   1
   4   2  -1 58545.9 3422.81   1
  -3  -4   3 9702.13 1596.27   1
   3   4  -3 11162.8 1475.93   1
   3   4  -3 13056.0 2560.96   1
  -3  -4   3 14827.6 1497.41   1
   0  -6   5 17757.8 2134.14   1
   0   6  -5 19298.8 2787.80   1
   0  -6   5 20915.9 2935.92   1
   0   6  -5 13538.9 1650.76   1
  -4  -1   5 13441.1 2245.57   1
   4   1  -5 7430.11 1079.46   1
   4   1  -5 13813.1 2640.64   1
  -4  -1   5 11358.8 1372.90   1
   4   1  -5 11013.2 1696.95   1
  -4  -1   5 14236.0 2821.58   1
   4   1  -5 12696.3 2092.35   1
   3  -3   5 107269. 5513.14   1
  -3   3  -5 101185. 3885.44   1
  -3   3  -5 88113.3 5893.01   1
   3  -3   5 83077.6 5135.25   1
   3  -3   5 112519. 4729.31   1
   2   4   2 87456.5 3237.63   1
   2   4   2 95104.1 4687.33   1
   2   4   2 88729.6 4402.98   1
   2   4   2 89357.6 4128.38   1
   1  -7   3 147446. 5680.47   1
   2   4  -6 -166.72 1874.25   1
   5  -2  -2 4699.85 1430.10   1
   5  -2  -2 5914.64 688.460   1
   5  -2  -2 10395.0 1584.13   1
   4  -5  -3 36191.2 4520.50   1
   4  -5  -3 46826.8 2891.59   1
  -4   5   3 52862.7 2628.90   1
   4  -5  -3 43190.6 2326.66   1
   4  -5  -3 52025.1 3694.77   1
  -1   3   6 21879.7 2139.80   1
   1  -3  -6 15591.8 2334.18   1
  -1   3   6 20702.2 1469.34   1
  -1   3   6 20462.0 3753.06   1
   1  -3  -6 30569.4 3147.54   1
   5  -2  -1 132298. 5291.99   1
   5  -2  -1 80349.7 4171.11   1
   5  -3  -1 23811.5 2051.62   1
   5  -3  -1 8109.79 1817.60   1
   1   6  -4 68470.3 4892.29   1
   1   6  -4 89004.5 4197.34   1
  -1  -6   4 92810.5 3993.87   1
   1   6  -4 91054.0 4554.75   1
   2  -4   6 -549.79 1108.18   1
  -2   4  -6 408.500 1033.06   1
   2  -4   6 488.950 1709.45   1
   2  -4   6 1491.95 1211.44   1
  -4   6   0 19081.6 2376.58   1
   4  -6   0 23222.6 3335.41   1
   4  -6   0 17321.1 2354.88   1
  -3   2  -5 19102.3 3649.72   1
   3  -2   5 10383.5 3204.49   1
   3  -2   5 25135.3 2002.54   1
   3  -2   5 25246.7 3111.83   1
  -3   2  -5 19028.0 1830.30   1
   1  -7   0 4281.06 1181.46   1
   1  -7   0 4107.20 834.190   1
  -1   7   0 4893.88 1081.57   1
  -1   7   0 2096.85 1869.63   1
   4  -3  -5 58372.3 3454.29   1
  -4   3   5 59727.7 5447.56   1
   4  -3  -5 63074.8 7593.80   1
   2  -6  -3 630.330 414.700   1
  -2   6   3 1315.02 2137.19   1
   2  -6  -3 1497.39 774.260   1
  -2   1  -6 14617.0 2720.49   1
   2  -1   6 19931.2 2900.65   1
   2  -1   6 19829.7 2202.99   1
  -4  -2   4 33287.1 1659.51   1
  -4  -2   4 35510.7 5178.80   1
   4   2  -4 35096.7 1916.87   1
   4   2  -4 30439.4 2407.47   1
   5  -3  -2 88986.5 3856.47   1
   5  -3  -2 86389.5 7573.78   1
  -5   3   2 83590.0 3167.36   1
   2   5   0 12267.0 1894.72   1
  -2  -5   0 18646.8 1903.24   1
   2   5   0 13623.2 2476.96   1
  -2   7  -3 -157.94 1088.06   1
   2  -7   3 960.790 1060.47   1
   2  -7   3 1163.26 1327.68   1
   1  -2   7 -20.730 1611.49   1
   1  -2   7 244.170 1146.96   1
   1  -2   7 899.710 646.700   1
  -1   2  -7 667.470 800.640   1
  -1  -5   6 58383.5 2625.53   1
   0  -4   7 82255.7 3969.87   1
   0  -4   7 86781.4 6724.02   1
   0   4  -7 90461.6 4691.35   1
   0  -4   7 73357.6 3382.90   1
   3  -4   5 16911.7 2521.43   1
   3  -4   5 4004.93 2068.08   1
  -3   4  -5 3339.62 1450.42   1
   3  -4   5 414.090 1659.22   1
  -3   4  -5 3337.13 714.790   1
   4  -6   1 12356.2 2555.66   1
  -4   6  -1 7247.09 1571.40   1
   4  -6   1 8666.11 2023.60   1
   1   6   0 2275.04 2283.59   1
   1   6   0 1188.92 892.550   1
   1   6   0 5412.98 783.130   1
  -1  -6   0 2308.23 642.730   1
  -4   6   1 23564.9 1729.51   1
   4  -6  -1 19683.0 2356.81   1
  -5   1   2 139052. 5322.77   1
   5  -1  -2 120456. 4771.46   1
   5  -1  -2 140629. 6651.26   1
   5  -1  -2 105674. 3785.16   1
  -3  -4   4 6085.78 1008.78   1
   3   4  -4 8994.82 2428.92   1
   3   4  -4 10217.3 1715.00   1
  -3  -4   4 9977.76 1593.96   1
  -1   3  -7 11268.7 1865.99   1
   1  -3   7 9472.27 1933.38   1
   1  -3   7 12057.3 2003.32   1
   1  -3   7 16899.3 2572.38   1
   4  -1   3 5058.32 996.650   1
   4  -1   3 12678.2 2937.59   1
  -4   1  -3 -50.270 771.170   1
  -4   1  -3 1223.67 1119.16   1
   4  -1   3 846.450 1152.56   1
  -3   3   6 261264. 10747.2   1
   3  -3  -6 276501. 3801.09   1
   3  -3  -6 281451. 4273.24   1
  -3   3   6 260272. 9560.08   1
   3  -7   1 129348. 5579.98   1
   3  -7   1 121577. 12506.6   1
  -3   7  -1 126339. 5609.17   1
   5  -2  -3 41652.3 4493.08   1
   5  -2  -3 40015.0 2753.44   1
  -5   2   3 41265.7 1963.84   1
   5  -2  -3 40652.0 1750.28   1
   5  -2   0 3328.24 1555.13   1
   5  -2   0 7368.53 1470.31   1
   5  -1  -1 2496.20 1323.49   1
  -5   1   1 3280.16 778.980   1
   5  -1  -1 1920.19 1090.11   1
  -2   7   1 4672.11 947.390   1
   2  -7  -1 3426.43 551.460   1
   2  -7  -1 4537.20 1275.07   1
  -2   7   1 4994.05 1861.08   1
   2   3  -7 228.380 1962.59   1
  -2  -3   7 542.610 205.890   1
  -2  -3   7 3164.08 2480.59   1
  -2  -3   7 1745.91 1724.94   1
   3  -7   0 21159.0 2230.73   1
  -3   7   0 19430.5 2944.18   1
  -3   7   0 20086.1 4336.50   1
   3  -7   0 19950.8 2283.96   1
   3  -7   0 19403.3 3605.43   1
   0   6   2 2295.83 629.990   1
   0   6   2 740.400 1535.98   1
   0   6   2 2565.73 925.810   1
   0  -6  -2 4429.38 900.050   1
   2  -6   5 6878.30 1522.97   1
  -2   6  -5 9789.72 2189.25   1
   2  -6   5 13196.2 2452.61   1
  -3   0   7 19770.9 2823.57   1
  -3   0   7 21049.9 4017.71   1
   3   0  -7 16939.0 2968.77   1
   3   0  -7 19227.1 3410.80   1
  -3   0   7 12904.6 2135.57   1
  -3   6   3 246257. 9239.71   1
   3  -6  -3 269914. 10126.6   1
   3  -6  -3 273180. 2981.51   1
  -1  -4   7 36122.6 2971.82   1
  -1  -4   7 45898.7 5878.93   1
   1   4  -7 39806.9 3380.22   1
  -1  -4   7 41260.7 2134.16   1
   0   7  -2 3809.37 1501.47   1
   0  -7   2 2129.28 1256.91   1
   0   7  -2 3094.15 741.000   1
   4   2   0 7018.00 2144.40   1
   4   2   0 4103.68 630.050   1
   4   2   0 9550.62 1917.64   1
  -5   4   1 17010.0 1438.19   1
   5  -4  -1 20994.0 2259.59   1
   5  -4  -1 30006.8 2391.89   1
   1  -1   7 4591.74 892.370   1
  -1   1  -7 1463.63 677.650   1
   5  -1  -3 1922.65 1271.30   1
  -5   1   3 2256.69 1270.83   1
   5  -1  -3 2265.94 469.170   1
   5  -1  -3 4243.62 1065.04   1
   4  -5   3 1267.17 1180.30   1
  -4   5  -3 1120.58 456.430   1
   4  -5   3 2339.47 2231.20   1
  -4   5  -3 -260.10 1778.16   1
   2   5  -5 1239.92 381.840   1
  -2  -5   5 965.200 521.010   1
   2   5  -5 2475.68 2472.01   1
   2   5  -5 3671.71 884.450   1
   5  -3  -3 87.7200 386.410   1
   5  -3  -3 1726.39 1218.22   1
  -5   3   3 461.190 260.310   1
   5  -3  -3 1217.94 1386.14   1
   3  -6   4 25386.5 2969.43   1
  -3   6  -4 24025.5 3825.22   1
   3  -6   4 31774.0 3232.30   1
   1  -6  -3 1015.56 1076.27   1
  -1   6   3 2325.22 2109.46   1
   3  -7   2 7441.03 1728.62   1
   3  -7   2 2341.15 974.500   1
  -3   7  -2 -133.58 1336.95   1
  -3  -2  -3 26800.8 4420.20   1
   3   2   3 13606.1 2160.89   1
   3   2   3 30821.2 2150.57   1
  -3  -3   6 1570.65 1905.90   1
   3   3  -6 2553.00 1644.34   1
  -3  -1   7 123997. 6734.55   1
  -3  -1   7 134116. 12262.9   1
   3   1  -7 101781. 4786.58   1
  -3  -1   7 103510. 4003.79   1
  -3   1  -5 18779.7 2392.54   1
   3  -1   5 23770.6 3112.65   1
   3  -1   5 19283.6 2416.42   1
   3  -1   5 12854.6 2761.69   1
  -4   1   6 33921.2 2034.78   1
   4  -1  -6 40988.9 5052.83   1
  -4   1   6 36885.5 3107.90   1
   4  -1  -6 29488.5 3076.63   1
  -4   1   6 39486.5 5776.96   1
   0  -7   3 319.740 922.700   1
   0   7  -3 363.570 1363.95   1
   0   7  -3 1003.71 630.540   1
   5  -4   0 12578.3 2393.37   1
   5  -4   0 13435.7 1966.95   1
   0   7  -1 1245.02 1072.80   1
   0  -7   1 -447.55 689.100   1
   0   7  -1 1498.65 825.650   1
   0  -7   1 686.460 680.600   1
   0   1   7 2086.71 946.570   1
   0   1   7 475.730 597.600   1
   0  -1  -7 302.210 345.220   1
   0   1   7 2187.42 1283.69   1
   1  -7   4 38688.0 2494.85   1
  -1   7  -4 41303.3 3122.31   1
   1  -7   4 49900.9 5842.85   1
   5  -4  -2 263.270 1023.24   1
  -5   4   2 939.110 351.880   1
   5  -4  -2 1109.55 1096.53   1
  -4   0   6 3321.37 767.090   1
  -4   0   6 2128.35 1561.63   1
  -4   0   6 4774.71 1298.19   1
   4   0  -6 6946.93 1740.65   1
   4   0  -6 860.550 1690.13   1
   1   3   5 5552.68 1565.85   1
   1   3   5 10138.0 1744.34   1
   1   3   5 7192.02 1814.26   1
   3  -1  -7 36652.6 7027.22   1
  -3   1   7 38440.0 5872.47   1
  -3   1   7 21562.0 4302.83   1
   3  -1  -7 34415.8 3227.81   1
  -3   1   7 44190.1 4216.39   1
   1   4   4 10601.3 1152.42   1
   1   4   4 10325.8 1803.88   1
   1   4   4 12758.6 1834.18   1
   2  -2  -7 10362.1 2014.11   1
  -2   2   7 11606.4 2122.84   1
   2  -2  -7 6282.90 1537.48   1
  -2   2   7 5293.16 1467.08   1
  -4   6  -2 12063.2 2627.38   1
   4  -6   2 10973.2 2023.34   1
  -4   6  -2 8698.21 1327.66   1
   4  -6   2 11479.9 2408.00   1
   4  -6  -2 34049.9 5666.22   1
  -4   6   2 32525.6 2178.96   1
   4  -6  -2 30465.1 2448.88   1
  -1   4  -7 -309.06 1423.58   1
   1  -4   7 788.580 1387.66   1
   1  -4   7 2233.47 1353.66   1
   1  -4   7 -1052.1 1426.43   1
   3   1   4 11400.5 2119.06   1
   3   1   4 10735.5 1336.31   1
   1  -7  -1 1312.62 749.100   1
  -1   7   1 943.370 752.360   1
  -1   7   1 2374.55 1663.47   1
   0  -4  -5 12266.9 1997.79   1
   0   4   5 9053.36 1788.38   1
   0   4   5 3534.95 1734.96   1
   5  -1   0 4019.37 1021.64   1
  -5   1   0 4989.86 900.290   1
   3   4   0 18791.8 2830.91   1
   3   4   0 18765.0 2823.02   1
   3  -7  -1 45945.0 3577.91   1
   3  -7  -1 44412.5 6091.18   1
   3  -7  -1 40950.9 2073.64   1
  -3   7   1 45664.6 3728.58   1
   2  -5   6 19155.5 2573.84   1
   2  -5   6 21097.3 2773.51   1
  -2   5  -6 15696.3 3105.55   1
   2  -5   6 21728.4 3496.45   1
  -1  -6   5 1720.20 1339.58   1
   1   6  -5 4758.24 1565.37   1
   1   6  -5 3360.10 766.500   1
   3  -5   5 159180. 7279.79   1
   3  -5   5 143336. 6014.20   1
  -3   5  -5 122730. 9407.90   1
  -4  -2   5 1161.07 446.380   1
   4   2  -5 653.720 1647.26   1
   4   2  -5 877.910 528.360   1
   5  -3   1 19233.8 3149.35   1
   5  -3   1 28615.8 2753.24   1
  -1   2   7 7898.84 1444.92   1
  -1   2   7 10544.4 2127.29   1
  -1   2   7 6684.68 1123.01   1
   1  -2  -7 7851.53 1314.93   1
  -2   0  -6 21322.2 3063.89   1
   2   0   6 26442.2 2784.76   1
   2   0   6 24034.2 2101.66   1
   5   0  -2 30913.0 3104.50   1
   5   0  -2 15205.9 2416.78   1
   5   0  -2 18461.5 2182.62   1
  -5   0   2 30092.0 1766.46   1
   3   3   2 1142.55 319.300   1
   3   3   2 4019.66 1088.36   1
   3   3   2 562.670 235.060   1
   4  -2  -6 39057.3 3299.66   1
  -4   2   6 33076.7 3673.89   1
  -4   2   6 20699.0 3540.08   1
  -4   2   6 40622.4 3360.77   1
   4  -2  -6 42152.9 5056.12   1
   2  -7   4 1627.66 977.460   1
   2  -7   4 193.420 1256.99   1
   3   4  -5 1205.46 202.350   1
   3   4  -5 944.380 984.060   1
   3   4  -5 2426.99 1593.46   1
  -3  -4   5 3660.30 812.010   1
   5  -2  -4 460.780 793.750   1
   5  -2  -4 2247.03 834.260   1
  -5   2   4 1084.33 464.200   1
   5  -2  -4 2422.07 975.550   1
   4   1   2 17154.6 1761.53   1
   4   1   2 19235.1 2003.37   1
   4   1   2 17553.7 3175.73   1
  -4  -1  -2 19594.9 2156.08   1
   5  -2   1 16955.3 2810.40   1
   5  -2   1 20873.2 1645.89   1
   0   5   4 10834.7 2199.84   1
   0   5   4 10158.7 1361.86   1
   0  -5  -4 17288.3 2548.78   1
   0   5   4 10540.7 3511.02   1
  -5   0   3 61746.9 2647.89   1
   5   0  -3 58724.4 2578.91   1
   5   0  -3 87619.1 4900.37   1
  -5   0   3 49063.1 2533.90   1
   5   0  -3 70678.4 4502.29   1
  -5   1   4 25087.6 3105.51   1
   5  -1  -4 29953.8 3081.94   1
   5  -1  -4 40064.3 4560.73   1
   5  -1  -4 27763.2 3662.22   1
   5  -1  -4 25054.5 1344.12   1
  -5   1   4 29438.4 2311.83   1
   2   5   1 28066.8 2978.16   1
   2   5   1 26014.5 2340.37   1
   4  -3   4 111044. 5859.58   1
   4  -3   4 102387. 4600.79   1
   4  -3   4 122998. 5207.38   1
   0   3   6 1695.75 565.170   1
   0   3   6 10681.8 1693.62   1
   0   3   6 7408.58 2504.87   1
   4  -5  -4 5367.31 1372.69   1
  -4   5   4 4843.03 1214.20   1
   4  -5  -4 5414.77 1417.46   1
  -4   4   5 3479.33 1074.99   1
   4  -4  -5 8828.60 1847.95   1
   4  -4  -5 3607.86 1176.83   1
   5  -4   1 72873.2 3662.81   1
  -4  -1   6 35294.5 4190.78   1
  -4  -1   6 25753.2 3907.69   1
  -4  -1   6 28567.7 1724.20   1
   4   1  -6 29104.2 3110.88   1
   4   1  -6 31489.1 4828.57   1
   5   0  -1 21766.7 2426.24   1
   5   0  -1 18779.9 1930.48   1
   5   0  -1 23650.2 2996.38   1
   5   0  -1 23156.1 2454.84   1
  -5   0   1 23413.9 1402.05   1
   0  -7   4 8814.21 1496.66   1
   0   7  -4 11685.6 1575.39   1
   0   7  -4 9059.57 1618.36   1
  -3  -2   7 21819.1 3154.39   1
   3   2  -7 14835.3 2505.50   1
  -3  -2   7 18021.8 3255.21   1
   1   6   1 24906.3 1953.63   1
  -1  -6  -1 34731.9 2732.86   1
   1   6   1 26476.5 3131.28   1
   1   6   1 25649.3 1303.52   1
   0   7   0 5446.85 813.830   1
   0  -7   0 7991.61 1298.20   1
   0  -7   0 3651.01 703.880   1
   0   7   0 5435.85 2289.96   1
   0   7   0 12634.9 1818.35   1
   2   3   4 24994.6 2888.68   1
   2   3   4 27644.6 2419.27   1
   2   3   4 18512.2 2565.21   1
  -2   5   5 44609.4 2760.26   1
  -2   5   5 41467.6 3582.92   1
   2  -5  -5 55182.6 6317.40   1
  -1   0  -7 16953.2 3610.06   1
   1   0   7 28846.3 2075.29   1
  -3   7  -3 13400.9 3407.49   1
   3  -7   3 10742.2 2947.51   1
   3  -7   3 17853.6 2544.16   1
   5  -4  -3 -332.65 968.080   1
  -5   4   3 641.300 405.810   1
   5  -4  -3 1173.36 739.370   1
   5  -4  -3 -1001.0 1264.48   1
   0   6  -6 49788.6 2171.84   1
   0  -6   6 77643.4 6760.67   1
   0  -6   6 64252.2 3352.61   1
   0   6  -6 66902.4 4819.69   1
   1  -6   6 -606.12 980.930   1
  -1   6  -6 -633.85 683.870   1
  -1   6  -6 -605.67 1625.19   1
   1  -6   6 677.780 1213.60   1
   1   2   6 924.630 1167.99   1
   1   2   6 1389.77 837.000   1
   1   2   6 3235.27 1620.59   1
  -1  -1   8 2783.97 1339.21   1
   1   1  -8 2459.86 1486.55   1
  -1  -1   8 3937.31 1245.83   1
  -1  -2   8 53923.2 4800.08   1
   1   2  -8 51219.8 2962.56   1
  -1  -2   8 56812.0 6273.63   1
  -4   0  -3 935.690 690.020   1
   4   0   3 1516.64 1700.81   1
  -4   0  -3 922.770 870.180   1
   4   0   3 1133.70 766.890   1
   4   0   3 1791.66 1087.37   1
   4  -4   4 173.880 1388.33   1
  -4   4  -4 5939.67 2133.40   1
  -4   4  -4 3495.39 773.450   1
   4  -4   4 5676.28 1556.58   1
  -4  -3   3 1491.48 446.050   1
  -4  -3   3 5799.07 1363.98   1
   4   3  -3 3336.11 1789.45   1
  -4  -3   2 89471.4 2598.62   1
   4   3  -2 95181.7 4541.45   1
   4   3  -2 78171.1 3616.92   1
   1   5   3 1328.30 574.410   1
   1   5   3 -379.01 1339.62   1
   1   5   3 339.740 461.160   1
  -1  -5  -3 1507.77 650.420   1
   1   5   3 706.000 1215.14   1
   2  -4  -6 77743.0 7993.40   1
  -2   4   6 57421.2 4591.21   1
   2  -4  -6 53677.6 3151.75   1
  -2   4   6 62839.2 3989.39   1
   5  -5  -1 22258.3 2814.34   1
   5  -5  -1 21541.8 2490.74   1
   2  -7  -2 991.020 742.950   1
   2  -7  -2 1072.94 963.170   1
  -2   7   2 -808.23 1656.83   1
   0  -5   7 -253.02 1397.89   1
   0   5  -7 376.990 1839.92   1
   0  -5   7 2582.72 1708.62   1
   5  -3  -4 2052.53 1795.71   1
  -5   3   4 1140.75 583.950   1
   5  -3  -4 1813.90 620.090   1
   5  -3  -4 -324.72 843.850   1
   4  -2   4 4403.47 2413.07   1
  -4   2  -4 2230.21 713.520   1
   4  -2   4 3253.12 713.190   1
   4  -2   4 2498.72 1980.12   1
   3  -2  -7 172772. 17122.2   1
  -3   2   7 164156. 8232.63   1
  -3   2   7 179315. 22187.8   1
   3  -2  -7 165307. 5685.51   1
   5  -5   0 13863.7 3459.53   1
   5  -5   0 15482.0 2694.32   1
   2   2   5 6375.88 1713.92   1
   2   2   5 9343.20 2484.63   1
  -2  -2  -5 5581.74 1794.59   1
   2   2   5 6123.38 1796.94   1
   4   2   1 10408.1 2442.92   1
  -3   5   5 922.500 1015.32   1
   3  -5  -5 -63.160 511.110   1
   3  -5  -5 1153.24 1143.83   1
   2   4   3 10053.9 2586.16   1
   2   4   3 4615.57 1042.56   1
   2   4   3 9107.23 2469.42   1
   2   1  -8 -913.94 1083.71   1
   3   0   5 700.380 808.220   1
   3   0   5 2075.22 1578.79   1
   2   4  -7 69687.4 3941.11   1
  -5   0   4 2501.97 1282.75   1
   5   0  -4 -176.74 838.980   1
  -5   0   4 557.210 1252.81   1
   5   0  -4 244.340 358.010   1
   5   0  -4 1492.54 1554.02   1
   5   0  -4 -55.520 719.070   1
   0  -2   8 2432.19 832.520   1
   0   2  -8 980.130 1460.49   1
   0  -2   8 -237.60 1248.01   1
   0  -2   8 311.570 1591.55   1
  -4   6  -3 4156.72 1687.14   1
   4  -6   3 4375.70 2512.29   1
   4  -6   3 1113.75 1410.05   1
  -4   6  -3 858.010 514.530   1
   4   3  -4 986.840 1669.78   1
   1   0  -8 4609.28 1785.98   1
  -1   0   8 8266.05 2241.81   1
  -1   0   8 9856.32 2718.58   1
   5  -5  -2 2328.36 1170.34   1
   5  -5  -2 2181.87 835.820   1
  -2   6   4 21179.8 2718.44   1
   2  -6  -4 29130.4 3375.66   1
   3  -7  -2 160522. 5688.41   1
  -3   7   2 157952. 5674.71   1
   4   3  -1 6823.83 2246.40   1
   4   3  -1 4203.19 1763.83   1
   5  -1   1 1415.41 690.720   1
  -5   1  -1 819.420 714.810   1
   5  -1   1 1861.36 1787.56   1
  -2  -5   6 2646.32 1182.34   1
   2   5  -6 2867.43 2139.93   1
   4  -6  -3 4790.20 1897.96   1
   4  -6  -3 4188.33 1087.28   1
  -4   6   3 3317.32 1105.52   1
   4  -6  -3 5808.37 2435.15   1
   1  -7   5 82626.8 7540.96   1
  -1   7  -5 88697.2 4983.75   1
   1  -7   5 84566.9 3827.13   1
  -3   4   6 571.720 991.210   1
   3  -4  -6 396.350 640.480   1
  -3   4   6 2993.01 2333.67   1
   3  -4  -6 273.080 1203.13   1
  -1  -3   8 9942.63 2471.28   1
  -1  -3   8 20852.0 3516.43   1
   1   3  -8 9354.11 2572.87   1
  -1  -3   8 12536.7 3326.42   1
  -2  -6   3 110419. 3585.94   1
   2   6  -3 109264. 4625.57   1
   2   6  -3 83120.9 4351.65   1
   2   6  -3 75818.4 2799.48   1
   2   0  -8 21393.9 2182.14   1
  -2   0   8 21726.0 3567.68   1
  -2   0   8 29017.2 3408.58   1
  -1   5  -7 8033.34 2481.70   1
   1  -5   7 16610.1 2578.16   1
   1  -5   7 8791.92 2324.45   1
   1  -5   7 9683.53 2839.76   1
   2   6  -2 10067.6 2771.68   1
   5   0   0 2112.92 1875.71   1
   5   0   0 382.570 505.080   1
  -5   0   0 4151.36 1172.04   1
   4  -3  -6 1578.57 1258.81   1
  -4   3   6 2633.71 1014.17   1
   4  -3  -6 1912.83 958.880   1
  -4   3   6 684.450 1721.25   1
   1  -5  -5 25582.6 2832.69   1
  -1   5   5 18319.1 2244.43   1
  -1   5   5 9787.35 2983.85   1
   0  -1   8 13167.6 3008.19   1
   0   1  -8 13353.5 3150.78   1
   0  -1   8 11171.8 3490.01   1
   2   2  -8 1672.41 1800.40   1
  -2  -2   8 3108.52 1127.00   1
  -2  -2   8 1429.28 2133.60   1
   0  -3   8 74065.9 4114.63   1
   0  -3   8 84057.8 4734.32   1
   0   3  -8 83374.2 5089.89   1
   0  -3   8 66969.2 3123.76   1
  -5   5  -1 7303.85 1665.31   1
  -5   5  -1 8153.85 1742.74   1
   5  -5   1 10784.9 2990.83   1
   5  -5   1 14166.7 3376.46   1
  -1   4   6 12935.0 3030.71   1
  -1   4   6 773.700 1327.61   1
   1  -4  -6 18516.2 2390.70   1
   1   5  -7 74372.5 3807.90   1
  -1  -5   7 87343.5 5672.19   1
  -1  -5   7 83322.2 3978.50   1
   4  -5   4 84086.7 3790.11   1
  -4   5  -4 73287.2 2506.81   1
  -4   5  -4 78199.6 8979.04   1
   4  -5   4 112110. 5995.56   1
  -4   7   0 3191.78 2122.12   1
   4  -7   0 1675.17 725.870   1
   4  -7   0 3284.39 1817.38   1
   3  -6  -4 1918.25 1004.35   1
   3  -6  -4 42.8800 369.580   1
  -3   6   4 2539.44 1012.52   1
   3   4   1 1709.83 1189.80   1
   3   4   1 1005.35 1050.35   1
   5  -3   2 4484.61 1807.70   1
   5  -3   2 4011.98 1603.89   1
   1  -7  -2 2201.99 920.260   1
  -1   7   2 1.29000 1545.15   1
  -1   7   2 717.950 429.180   1
   1  -7  -2 912.890 453.030   1
   0   6   3 55813.6 3498.98   1
   0   6   3 33868.6 2937.25   1
   0   6   3 49456.8 1910.99   1
   0  -6  -3 59153.4 4375.62   1
  -4   7  -1 4298.77 2131.77   1
   4  -7   1 5160.68 1990.07   1
   4  -7   1 5827.06 2982.30   1
  -4   7  -1 910.600 1089.97   1
   2  -3   7 28310.8 3582.73   1
   2  -3   7 25230.2 2348.83   1
  -2   3  -7 18691.9 3124.08   1
   2  -3   7 14593.2 3745.87   1
   0   2   7 53207.2 2870.83   1
   0   2   7 28525.6 3654.87   1
   0  -2  -7 44019.6 2604.92   1
   3  -6   5 1806.70 1342.54   1
  -3   6  -5 3350.57 898.090   1
   3  -6   5 1937.69 1613.30   1
   3  -3   6 50343.7 2753.20   1
   3  -3   6 50634.5 4978.74   1
   3  -3   6 44100.5 4150.74   1
  -3   3  -6 40718.8 6165.58   1
   2  -3  -7 47045.8 5674.21   1
  -2   3   7 45657.2 5189.08   1
   2  -3  -7 39489.9 2007.47   1
  -2   3   7 41110.9 2439.82   1
   5  -4   2 3671.70 1529.71   1
   5  -4   2 2649.24 1481.36   1
   4  -1   4 2024.30 814.610   1
   4  -1   4 4912.32 1404.59   1
   4  -1   4 5710.83 2670.67   1
  -4   1  -4 3649.91 1087.06   1
   2   6  -4 3069.32 866.250   1
   2   6  -4 4241.54 1289.12   1
   2   6  -4 5658.03 1950.35   1
  -2  -6   4 4775.15 1403.91   1
   5  -1  -5 10158.9 2158.78   1
  -5   1   5 9821.18 2885.56   1
   5  -1  -5 7212.02 2854.29   1
   5  -1  -5 9987.99 4259.26   1
   5  -1  -5 11932.2 3072.52   1
  -5   1   5 16571.2 2864.09   1
   5   1  -2 4093.56 1518.79   1
   5   1  -2 2927.08 432.760   1
  -5  -1   2 2561.74 598.080   1
   5   1  -2 4549.58 1177.21   1
  -4  -2   6 10130.0 3229.23   1
   4   2  -6 653.550 1872.33   1
   0  -7   5 33385.4 4021.45   1
   0   7  -5 25918.5 2785.58   1
   0  -7   5 30265.6 2471.14   1
   0   7  -5 24258.4 1788.76   1
  -2   2  -7 9881.21 2805.94   1
   2  -2   7 3912.52 1946.18   1
   2  -2   7 11081.6 2588.88   1
   2  -2   7 15853.1 2526.52   1
   0   7   1 2042.11 499.670   1
   0   7   1 2755.69 1118.48   1
   0   7   1 25.4400 1584.73   1
   0  -7  -1 2388.29 655.380   1
   0  -7  -1 231.470 556.840   1
   1   6  -6 807.470 603.430   1
   1   6  -6 5668.23 2028.62   1
  -1  -6   6 960.640 1364.57   1
  -5   2   5 1272.85 625.810   1
   5  -2  -5 5012.99 1543.73   1
   5  -2  -5 2078.88 607.610   1
   5  -2  -5 5420.91 2540.03   1
   5  -2  -5 1425.32 872.410   1
   2  -6   6 17337.7 2568.69   1
  -2   6  -6 14334.3 3557.17   1
   2  -6   6 16704.5 2198.93   1
   3   5  -3 89823.6 3170.33   1
  -3  -5   3 114828. 3318.92   1
   3   5  -3 135627. 5640.07   1
  -5  -1   3 -29.970 880.580   1
   5   1  -3 1729.04 365.140   1
  -5  -1   3 2039.75 445.570   1
   5   1  -3 537.610 1005.90   1
   5   1  -3 3965.95 1052.28   1
   5   1  -3 223.030 1626.47   1
  -3  -4   6 -88.910 1440.45   1
   3   4  -6 4270.33 1787.35   1
   2   6  -1 7835.63 2207.92   1
  -2  -6   1 15830.8 1764.30   1
  -5   4   4 35149.3 2853.85   1
   5  -4  -4 46967.9 4847.10   1
   5  -4  -4 32652.7 5311.58   1
   5  -4  -4 35444.6 1824.78   1
   2  -8   1 112049. 4171.89   1
  -2   8  -1 116002. 6681.78   1
   2  -8   1 116730. 14476.8   1
   1   7  -2 17373.5 1194.24   1
  -1  -7   2 19904.4 1728.91   1
   1   7  -2 14313.1 3396.98   1
   4  -7  -1 3147.80 1111.64   1
  -4   7   1 7535.65 2075.39   1
   4  -7  -1 7919.18 2234.13   1
   2  -8   2 2417.59 1467.83   1
  -2   8  -2 4799.80 1539.16   1
   2  -8   2 3355.84 1990.71   1
  -3  -3   7 1326.49 777.870   1
  -3  -3   7 1250.09 1728.32   1
   3   3  -7 3667.27 1708.45   1
   5  -2   2 2330.70 1979.48   1
   5  -2   2 1260.51 296.350   1
   5  -2   2 4017.98 1572.94   1
   1   7  -3 39849.8 1632.57   1
   1   7  -3 37699.4 2578.13   1
   1   7  -3 20363.1 4507.20   1
  -1  -7   3 48694.5 2191.85   1
   3   5  -2 50364.2 3728.84   1
   2  -7   5 33473.7 3805.40   1
   2  -7   5 39091.1 2639.76   1
  -2   7  -5 28749.7 4792.39   1
   2   1   6 18902.5 2248.69   1
   2   1   6 24051.4 1960.27   1
   3  -7   4 2394.43 2119.34   1
  -3   7  -4 1264.21 724.310   1
   3  -7   4 562.290 1354.47   1
  -3   4  -6 109334. 5158.68   1
   2  -4   7 3981.31 2994.87   1
  -2   4  -7 834.540 996.820   1
   3  -2   6 10071.7 3275.69   1
  -3   2  -6 10552.4 3562.84   1
   3  -2   6 13582.5 3189.85   1
   3  -2   6 10633.8 2518.35   1
  -1   6   4 36792.4 2959.88   1
   1  -6  -4 36496.1 5280.20   1
   5  -5  -3 61127.7 3186.77   1
   5  -5  -3 59182.3 8430.96   1
  -5   5   3 60282.4 2344.90   1
   5  -5  -3 52165.8 2468.65   1
  -2   1   8 5456.80 1699.00   1
  -2   1   8 7210.14 2183.73   1
   2  -1  -8 5356.93 1551.56   1
  -4  -3   5 4876.00 1343.61   1
   4   3  -5 3719.20 950.000   1
   4   3  -5 3062.53 1609.71   1
   1  -8   2 65489.3 3380.37   1
  -1   8  -2 50687.3 2972.56   1
   4  -7   2 12684.2 3433.30   1
  -4   7  -2 10094.6 2542.59   1
   4  -7   2 7223.42 2307.83   1
   1   1   7 5651.54 2510.87   1
  -1  -1  -7 10291.5 2683.88   1
   1   1   7 8065.31 1923.02   1
   1   1   7 13984.5 3240.28   1
  -5  -1   1 4849.31 1179.29   1
   5   1  -1 4837.90 1567.30   1
   5   1  -1 4045.17 1491.04   1
  -3  -5   4 4970.98 1286.09   1
  -3  -5   4 3480.66 700.040   1
   3   5  -4 4302.21 1540.17   1
   3   5  -4 1949.39 1030.63   1
   4   3   0 2487.78 1067.31   1
   4   3   0 8182.00 2732.98   1
   4   0  -7 41603.0 3051.39   1
  -4   0   7 53161.2 3806.55   1
   4   0  -7 48978.8 5517.60   1
  -4   0   7 39716.3 5430.05   1
  -4   0   7 41410.0 2014.70   1
   0   0  -8 3614.46 1228.14   1
   0   0   8 5232.10 3048.66   1
   0   0   8 6034.45 1722.69   1
  -1   1   8 1185.69 1393.09   1
   1  -1  -8 3594.14 1521.39   1
  -1   1   8 1281.43 680.330   1
  -1   1   8 2997.32 1028.90   1
   4  -1  -7 10412.3 2787.52   1
  -4   1   7 11321.2 2735.73   1
   4  -1  -7 7714.04 2137.51   1
  -4   1   7 5272.72 1768.70   1
  -4   1   7 13021.7 3970.78   1
   5   0  -5 5091.27 1205.82   1
   5   0  -5 6788.66 2586.47   1
   5   0  -5 6451.39 2000.36   1
  -5   0   5 5562.48 1494.50   1
  -5   0   5 5119.02 2146.97   1
   5   0  -5 7726.37 2072.78   1
   2   5   2 16648.9 2275.87   1
   2   5   2 19235.0 1058.76   1
   2   5   2 23123.3 2297.29   1
   2   5   2 15235.8 2379.30   1
  -1   3   7 14553.6 3067.40   1
  -1   3   7 17802.7 3515.06   1
   1  -3  -7 30045.6 4871.75   1
   1  -3  -7 11748.3 2810.71   1
  -1   3   7 32864.7 2435.77   1
   0  -4   8 5972.91 1951.56   1
   0  -4   8 12485.8 3315.11   1
   0  -4   8 7545.32 2018.15   1
   0   4  -8 4522.18 1948.04   1
  -2  -3   8 141580. 6798.04   1
  -2  -3   8 170596. 7041.99   1
  -2  -3   8 116092. 3535.96   1
   2   3  -8 104529. 4226.84   1
   3  -3  -7 3822.10 2082.41   1
  -3   3   7 2431.60 3139.03   1
  -3   3   7 2181.03 946.460   1
   3  -3  -7 2967.72 1130.14   1
   1  -8   1 -41.740 848.930   1
  -1   8  -1 1894.34 1293.91   1
   1  -8   1 -134.48 617.120   1
  -1  -7   1 2298.15 755.530   1
   1   7  -1 1644.36 645.400   1
   1   7  -1 867.800 770.510   1
   1   6   2 11138.8 2447.46   1
   1   6   2 12835.3 3586.16   1
   1   6   2 9519.75 2451.66   1
   1   6   2 11549.7 2437.74   1
  -1  -6  -2 10462.5 2420.65   1
  -2   8   0 7418.42 1917.55   1
   2  -8   0 7171.00 1648.67   1
   2  -8   0 5939.73 1559.53   1
  -2   8   0 8619.36 2883.95   1
   3   2   4 8052.25 2249.22   1
  -3  -2  -4 3397.50 854.970   1
   3   2   4 8434.33 1932.74   1
   3   2   4 5650.05 1685.62   1
   5   1  -4 24520.2 2500.44   1
  -5  -1   4 19727.0 1385.29   1
   5   1  -4 15346.5 2840.20   1
   5   1  -4 12231.0 3153.92   1
   5   1  -4 21161.6 2022.58   1
  -5   3   5 513.300 587.810   1
   5  -3  -5 1990.52 1175.20   1
   5  -3  -5 -302.00 1440.69   1
   5  -3  -5 693.410 1127.91   1
   5  -3  -5 2666.52 1143.07   1
  -2   8  -3 116249. 5803.36   1
   2  -8   3 143612. 15677.7   1
   2  -8   3 135441. 5094.37   1
   1   7  -4 2037.90 1858.23   1
  -1  -7   4 1271.53 1118.46   1
   1   7  -4 855.740 525.200   1
  -1   8  -3 1632.39 1393.76   1
   1  -8   3 1031.59 1553.97   1
   1  -8   3 -2687.0 1797.59   1
  -1  -4   8 117873. 6732.29   1
  -1  -4   8 113311. 4581.17   1
  -5   6   0 6486.47 1533.41   1
   5  -6   0 9555.97 2806.98   1
   5  -6   0 10902.9 2955.59   1
   3   5  -1 14265.7 3761.51   1
   3   5  -1 11941.5 3087.67   1
   3   3   3 3095.34 2003.84   1
   3   3   3 1504.89 459.020   1
   5  -5   2 29971.9 2836.70   1
   5  -5   2 2585.41 2177.95   1
   2  -1   7 19343.3 1960.82   1
   2  -1   7 17773.1 2615.99   1
  -2   1  -7 17777.3 2558.85   1
   5  -6  -1 18595.0 2316.84   1
  -5   6   1 15562.7 2043.29   1
   5  -6  -1 16964.8 3057.42   1
   4  -5  -5 166733. 5639.24   1
  -4   5   5 155873. 5190.09   1
   4  -5  -5 189881. 20613.6   1
   2  -7  -3 14194.9 3449.69   1
  -2   7   3 13355.5 3841.27   1
   5   0   1 76521.7 2633.91   1
   5   0   1 97601.9 4317.85   1
  -5   0  -1 65093.9 2212.94   1
   5   0   1 65241.2 2448.40   1
  -3   0   8 37073.1 5852.15   1
   3   0  -8 40312.3 2884.08   1
  -3   0   8 17285.7 3965.52   1
  -3   0   8 40499.3 4064.27   1
  -3   8  -1 6566.60 1986.50   1
  -3   8  -1 10812.7 3555.72   1
   3  -8   1 6225.94 2087.69   1
   3  -8   1 8254.01 2479.63   1
  -4  -1  -3 9095.87 2480.18   1
   4   1   3 18492.2 1433.03   1
   4   1   3 16426.0 1503.02   1
  -4  -1  -3 12503.8 2884.23   1
  -3  -1   8 8648.29 2743.73   1
  -3  -1   8 8846.81 2187.16   1
  -3  -1   8 4643.81 1250.91   1
   3   1  -8 5674.57 2023.05   1
  -2  -6   5 42542.8 2377.16   1
   2   6  -5 15589.7 3556.30   1
   2   6  -5 22506.3 2393.60   1
   2   6  -5 41139.3 3093.55   1
  -4  -1   7 5244.79 2223.00   1
  -4  -1   7 2059.69 998.740   1
   4   1  -7 -2184.4 1933.65   1
  -4  -1   7 -12.130 351.970   1
   1  -2   8 1660.36 2124.73   1
  -1   2  -8 3692.82 1222.95   1
   1  -2   8 3354.57 927.720   1
   1  -2   8 4751.38 2373.49   1
  -1   3  -8 8309.27 2258.66   1
   1  -3   8 5006.60 1847.23   1
   1  -3   8 7816.76 2224.65   1
   1  -3   8 13308.4 3370.37   1
   4   2   2 20656.9 1190.03   1
   4   2   2 18358.7 1826.23   1
   3  -5   6 1778.65 2095.41   1
  -3   5  -6 -64.770 1021.59   1
   3  -5   6 685.240 1033.27   1
   3  -5   6 175.480 1300.91   1
  -3   7   3 2598.76 1890.73   1
   3  -7  -3 5320.00 1990.06   1
  -4   7   2 8221.78 2353.10   1
   4  -7  -2 7743.59 2596.89   1
   4  -7  -2 6968.25 2156.14   1
   3  -8   2 92285.6 10245.4   1
  -3   8  -2 96891.4 5154.24   1
   3  -8   2 116737. 5123.00   1
  -4   6  -4 728.560 320.220   1
   4  -6   4 5438.41 2705.39   1
   4  -6   4 119.350 1821.74   1
  -4   6  -4 -936.32 1695.56   1
   5  -1   2 19294.6 2181.92   1
  -5   1  -2 14559.2 3006.14   1
   5  -1   2 18596.6 1998.51   1
  -2  -6   0 12612.2 2808.66   1
   2   6   0 18755.2 2437.12   1
   2   6   0 17740.0 2147.17   1
  -3   8   0 44726.1 3494.98   1
   3  -8   0 35148.9 5276.11   1
  -3   8   0 38029.0 5853.95   1
   3  -8   0 45857.7 3440.41   1
   1   4   5 472.320 241.360   1
   1   4   5 1051.32 1092.04   1
   1   4   5 592.830 1019.30   1
   4  -2  -7 8359.55 2318.65   1
  -4   2   7 5857.08 1738.02   1
   4  -2  -7 6275.98 2000.71   1
   5  -6   1 2608.85 1214.16   1
   5  -6   1 3737.15 2027.33   1
  -5   6  -1 3755.71 955.350   1
  -5   6  -1 3174.89 1126.85   1
  -3   1  -6 555.920 1135.44   1
   3  -1   6 1416.80 742.650   1
   3  -1   6 1829.57 1551.05   1
   3  -1   6 529.640 1129.38   1
  -4   4   6 95488.6 5319.50   1
   4  -4  -6 111877. 4661.00   1
  -4   4   6 92359.7 3427.71   1
   4  -4  -6 87889.6 5659.97   1
   0   6  -7 12939.8 2793.09   1
   0  -6   7 22326.0 4316.03   1
   0   6  -7 30157.5 4054.68   1
   0  -6   7 23868.1 2686.07   1
   4  -6  -4 99240.6 6107.08   1
   4  -6  -4 98308.6 4711.69   1
  -4   6   4 98225.4 3952.25   1
   3   1   5 16212.8 1936.37   1
   3   1   5 15238.9 2638.54   1
   1  -8   0 13162.6 3093.86   1
  -1   8   0 8060.23 2200.99   1
  -1   8   0 8521.47 2673.98   1
   2  -5   7 1144.09 852.850   1
   2  -5   7 756.890 1355.59   1
   2  -5   7 1116.93 1429.02   1
  -2   5  -7 1320.68 1477.94   1
  -4   3  -5 10434.0 3283.45   1
  -4   3  -5 580.020 562.420   1
   4  -3   5 12509.0 2851.69   1
   4  -3   5 2839.36 1771.34   1
   4  -3   5 14714.4 3683.48   1
  -5   6   2 58218.3 2591.09   1
   5  -6  -2 61204.4 6620.79   1
   5  -6  -2 67993.3 3704.24   1
  -3  -5   5 1591.04 1069.85   1
   3   5  -5 1179.86 421.980   1
   3   5  -5 2444.57 1668.63   1
  -3  -5   5 690.780 304.990   1
   3   5  -5 1636.19 844.550   1
  -3   1   8 41076.0 6304.29   1
  -3   1   8 23204.1 4735.02   1
   3  -1  -8 53329.4 3376.12   1
  -3   1   8 56103.2 6619.47   1
   3  -1  -8 52911.4 8708.43   1
  -5  -1   0 62662.3 2161.47   1
   5   1   0 62119.4 4535.74   1
   5   1   0 53012.5 2433.32   1
   5   1   0 58811.2 2154.56   1
   4  -4   5 51038.3 3487.89   1
  -4   4  -5 51353.5 5657.41   1
   4  -4   5 56687.0 4484.02   1
   4  -4   5 54842.9 2993.07   1
  -4   4  -5 51692.9 1963.87   1
  -1   6  -7 4191.57 1778.48   1
   1  -6   7 6526.36 2270.04   1
   1  -6   7 2950.78 1215.32   1
   1  -7   6 110894. 5123.65   1
   1  -7   6 94532.6 6911.74   1
  -1   7  -6 106415. 5971.60   1
   1   3   6 1767.31 1097.61   1
   1   3   6 4185.22 1327.98   1
   1   3   6 5405.25 1985.92   1
   4  -7   3 15152.6 2841.98   1
  -4   7  -3 16694.2 2928.88   1
   4  -7   3 16146.8 2713.89   1
  -4   0  -4 7238.51 1943.92   1
   4   0   4 15139.6 2996.50   1
  -4   0  -4 7128.12 1764.23   1
   4   0   4 10222.0 2468.23   1
   4   0   4 10897.8 2553.88   1
  -1   8  -4 3404.49 1623.85   1
  -1  -7   0 6785.65 1569.20   1
   1   7   0 6852.17 3069.54   1
   1   7   0 605.290 893.630   1
   2  -8  -1 1244.32 541.520   1
  -2   8   1 -543.90 1790.50   1
   2  -8  -1 -456.39 1132.32   1
  -2   8   1 269.150 850.900   1
   2   5  -7 914.660 1894.37   1
  -2  -5   7 -464.28 1138.20   1
   0   4   6 4075.11 1429.82   1
   0   4   6 11688.2 3260.53   1
  -3  -2   8 75369.1 7684.80   1
  -3  -2   8 68272.1 2092.89   1
   3   2  -8 82062.1 4125.18   1
   0   5   5 7213.36 2774.14   1
   0   5   5 8392.33 2501.21   1
   0  -5  -5 10025.6 2581.79   1
   1  -1   8 7286.41 1986.35   1
  -1   1  -8 5555.09 1843.87   1
   1  -4   8 16882.2 1813.65   1
   1  -4   8 44730.5 5857.20   1
  -1   4  -8 19302.1 2703.91   1
   1  -4   8 23477.8 2562.39   1
   1   5   4 1717.90 951.980   1
   1   5   4 3616.07 734.980   1
   1   5   4 2212.87 866.900   1
   1   5   4 3323.30 633.130   1
   5  -3   3 7632.46 1857.42   1
   5  -3   3 12047.2 2391.79   1
   5   1  -5 1824.75 673.200   1
   5   1  -5 3318.91 2256.97   1
   5   1  -5 6704.52 1199.66   1
  -5  -1   5 8463.12 2729.56   1
   2  -8   4 22092.7 3665.57   1
  -2   8  -4 16342.4 2830.67   1
   2  -8   4 17711.5 2769.19   1
   5  -4   3 8796.04 2000.20   1
   5  -4   3 13761.3 2268.89   1
  -5   4  -3 6982.72 825.640   1
   3   4   2 5757.93 1943.60   1
   1   7  -5 25298.9 3125.13   1
  -1  -7   5 34740.6 4576.33   1
   1   7  -5 27586.9 3986.95   1
   5  -5  -4 4230.81 2076.21   1
  -5   5   4 9310.98 1398.63   1
   5  -5  -4 5652.86 1364.77   1
  -2   2   8 31141.8 5898.37   1
   2  -2  -8 33344.3 4352.78   1
  -2   2   8 37837.2 6023.60   1
  -2   2   8 26526.7 3525.10   1
   2  -2  -8 38807.8 7030.92   1
   0  -7   6 24322.3 3546.70   1
   0   7  -6 24436.3 4385.99   1
   0  -7   6 23462.1 4461.37   1
   0   7  -6 12614.2 1580.30   1
   4   4  -3 52743.8 6933.05   1
  -4  -4   3 44069.0 5107.51   1
   4   4  -3 35512.9 4780.20   1
  -4  -4   3 28606.9 3329.33   1
   0   7   2 71512.8 9171.33   1
   0  -7  -2 86549.1 10786.0   1
   0   7   2 56967.7 6725.80   1
   1  -7  -3 106324. 2759.46   1
  -1   7   3 93859.0 11568.7   1
   3  -8   3 5937.20 1749.44   1
  -3   8  -3 5538.74 1335.93   1
   3  -8   3 7125.23 1909.17   1
   5  -1  -6 2726.94 2339.08   1
  -5   1   6 2617.60 752.390   1
   5  -1  -6 5192.83 1347.56   1
   5  -1  -6 1092.50 595.470   1
  -5   1   6 4737.72 2545.18   1
  -5   1   6 2443.57 720.870   1
   4  -2   5 1010.53 1162.68   1
   4  -2   5 3158.35 1485.55   1
  -4   2  -5 1200.92 420.960   1
   4  -2   5 871.410 384.760   1
   4   3  -6 -236.62 1841.37   1
   3   5   0 -698.69 1167.85   1
   3   5   0 -226.75 1292.93   1
   0   8  -2 5328.29 1775.31   1
   0  -8   2 5241.34 1482.85   1
  -2   5   6 94.9200 1080.50   1
  -2   5   6 2578.61 1934.26   1
   2  -5  -6 1341.37 884.720   1
   5  -4  -5 13725.2 3143.33   1
   5  -4  -5 14116.6 2582.79   1
  -5   4   5 11855.9 1977.63   1
   2   3   5 14981.2 2617.54   1
   2   3   5 6589.97 1233.00   1
   2   3   5 25055.7 4130.29   1
  -2  -3  -5 9327.42 1540.22   1
   2   3   5 20122.5 3088.48   1
   3  -8  -1 5271.81 1249.89   1
  -3   8   1 20396.7 3428.15   1
  -3   8   1 58669.8 7695.99   1
   3  -8  -1 61195.1 7560.26   1
   0   1   8 39006.4 4761.72   1
   0  -1  -8 61745.0 7410.99   1
   0   1   8 78496.6 9863.64   1
   0   1   8 36229.3 7469.06   1
   0  -8   3 1458.65 1468.29   1
   0   8  -3 922.050 1612.80   1
   4   3   1 21638.7 3319.28   1
   2   4   4 24002.7 3625.27   1
   2   4   4 23441.7 3247.09   1
   2   4   4 17894.8 3179.46   1
   2   4   4 17021.5 1812.66   1
   5  -2  -6 14055.7 2598.67   1
   5  -2  -6 14838.2 2636.07   1
  -5   2   6 46496.4 6648.74   1
   5  -2  -6 9350.74 2783.09   1
  -5   2   6 15366.4 2321.77   1
   0  -5   8 65039.4 7908.30   1
   0  -5   8 89273.3 10865.2   1
   0  -5   8 68609.3 11122.2   1
   0   5  -8 69797.9 9068.97   1
   3  -5  -6 66558.3 10156.7   1
  -3   5   6 60820.8 7880.59   1
  -3   5   6 45508.3 6526.77   1
  -5  -2   3 10093.2 1878.51   1
  -5  -2   3 11041.4 1256.98   1
   5   2  -3 9597.51 1805.02   1
   5   2  -3 10881.5 2741.39   1
   5   2  -3 8302.56 1570.39   1
   3  -7   5 11957.5 2725.12   1
   3  -7   5 10111.0 2123.80   1
  -3   7  -5 12239.2 2643.46   1
  -2  -4   8 22604.8 4015.23   1
   2   4  -8 18098.9 3349.11   1
  -4   5  -5 25613.6 4025.81   1
  -4   5  -5 28075.3 3578.37   1
   4  -5   5 37830.0 5194.01   1
   4  -5   5 23265.5 4002.45   1
   2   0   7 3711.75 1454.71   1
   2   0   7 10988.7 1818.66   1
  -2   0  -7 8029.04 1653.04   1
  -4  -4   4 25822.0 3668.35   1
   4   4  -4 23980.7 4017.50   1
   4   4  -4 4236.31 1066.75   1
   2  -6  -5 13378.8 2416.57   1
  -2   6   5 8023.36 2159.82   1
  -2   6   5 3277.83 2086.05   1
  -3  -4   7 16454.6 3577.03   1
   3   4  -7 13635.2 2814.60   1
   4   2  -7 40775.1 5720.29   1
  -4  -2   7 40776.4 7066.59   1
  -4  -2   7 28163.9 5116.31   1
   5  -6   2 9677.94 2603.99   1
  -5   6  -2 360.650 248.330   1
   5  -6   2 910.510 1554.86   1
  -5  -2   2 12800.0 2002.72   1
  -5  -2   2 10464.8 1216.88   1
   5   2  -2 12816.8 2734.39   1
   5   2  -2 10162.1 1567.19   1
   5   2  -2 7295.04 1651.61   1
   5  -2   3 13139.9 3044.62   1
  -5   2  -3 8294.57 1210.91   1
   5  -2   3 9937.02 2236.93   1
   5  -2   3 6793.97 1216.32   1
  -1  -6   7 72173.1 8573.67   1
   3  -6  -5 84210.8 9806.96   1
   3  -6  -5 69075.7 8261.71   1
  -3   6   5 78917.3 9531.29   1
   3  -6  -5 81901.4 11731.2   1
  -5   0   6 28908.6 3661.36   1
   5   0  -6 26637.9 5046.19   1
   5   0  -6 35821.4 6045.90   1
  -5   0   6 40079.7 6835.43   1
  -5   0   6 31579.6 5212.91   1
   5   0  -6 31514.5 5098.64   1
   1  -2  -8 53094.8 7203.07   1
  -1   2   8 44743.1 8474.60   1
  -1   2   8 44193.1 5361.35   1
  -1   2   8 93607.0 11139.7   1
   0  -8   1 13918.7 1846.15   1
   0   8  -1 12956.5 2334.55   1
   0   8  -1 11196.0 3140.50   1
   5  -5   3 18763.9 3476.21   1
  -5   5  -3 16011.2 2324.11   1
   5  -5   3 29334.8 4197.26   1
   2  -7   6 8202.06 2074.04   1
   2  -7   6 6231.22 1989.06   1
  -2   7  -6 5250.77 1237.83   1
   0  -3  -7 2044.01 525.980   1
   0   3   7 1136.65 992.800   1
   0   3   7 921.040 1170.68   1
   0   3   7 627.210 411.330   1
   2  -4  -7 2198.83 1136.26   1
  -2   4   7 9963.81 3563.01   1
  -2   4   7 1150.98 990.610   1
   2  -4  -7 579.360 1108.82   1
  -4   3   7 37654.1 5308.83   1
   4  -3  -7 43984.5 7044.20   1
  -4   3   7 41443.9 6284.23   1
   4  -3  -7 36742.8 4931.90   1
  -5   6   3 9072.66 1493.66   1
   5  -6  -3 6851.85 1817.97   1
   5  -6  -3 3799.36 1393.96   1
   0   6   4 736.440 1271.87   1
   0  -6  -4 3852.50 1193.01   1
   0   6   4 456.660 1376.88   1
   2   6  -6 4690.95 697.200   1
   2   6  -6 8991.50 2467.90   1
  -2  -6   6 11612.0 2188.23   1
   1  -8  -1 2637.66 692.660   1
  -1   8   1 5785.64 1112.29   1
  -1   8   1 3581.89 1787.74   1
   1  -8  -1 6227.62 1366.23   1
  -3   2   8 4716.75 1649.21   1
   3  -2  -8 539.970 969.550   1
  -3   2   8 2029.46 925.160   1
   3  -2  -8 3877.75 1160.08   1
   3  -6   6 67728.3 9071.41   1
  -3   6  -6 44042.1 7466.32   1
   3  -6   6 49803.0 6437.68   1
   4  -7  -3 36434.0 4868.09   1
  -4   7   3 34212.6 4548.11   1
   4  -7  -3 32356.8 4510.04   1
   5   2  -4 26941.1 4885.20   1
  -5  -2   4 20865.2 2653.20   1
   5   2  -4 14711.4 1946.07   1
  -5  -2   4 17352.6 2914.16   1
   1   5  -8 56990.9 7183.95   1
  -1  -5   8 62495.6 10450.3   1
  -1  -5   8 58448.6 7272.27   1
  -1  -5   8 66413.4 8099.35   1
   2   2   6 3052.17 728.760   1
   2   2   6 9460.29 1605.05   1
   6  -3  -2 2279.11 1330.48   1
   6  -3  -2 8556.75 1539.19   1
   0   8  -4 4375.26 2266.65   1
   0  -8   4 3334.08 1580.70   1
   4   4  -1 208.590 1632.34   1
   4   4  -1 1246.72 1849.51   1
   1   2   7 8331.32 4021.74   1
   1   2   7 3156.69 715.790   1
   1   2   7 6030.94 1467.89   1
  -1  -2  -7 4981.00 1328.06   1
   6  -3  -1 16401.8 2591.38   1
   6  -3  -1 19322.6 3488.10   1
   2   6   1 16571.1 2811.00   1
   2   6   1 15263.5 3284.89   1
   1   2  -9 2754.05 1887.01   1
  -1  -2   9 2018.45 1913.96   1
  -1  -2   9 242.650 582.470   1
  -5   0  -2 60748.2 7121.75   1
   5   0   2 73092.3 8686.34   1
   5   0   2 51078.1 6664.38   1
   5   0   2 44634.7 6942.57   1
   6  -2  -2 21228.1 4185.62   1
   6  -2  -2 12997.8 1910.98   1
   3  -4  -7 78789.1 12756.7   1
   3  -4  -7 52909.9 6361.39   1
  -3   4   7 44337.0 6978.39   1
  -3   4   7 53436.6 6443.23   1
   3   0   6 37860.6 4884.57   1
   3   0   6 41692.1 5821.01   1
   5   2  -1 9998.43 1881.67   1
   5   2  -1 9318.29 1468.30   1
  -5  -2   1 15282.4 1824.47   1
   5   2  -1 11376.4 2773.57   1
  -1  -1   9 22318.0 4776.43   1
   1   1  -9 18839.5 2915.58   1
  -1  -1   9 20366.8 3366.82   1
  -3  -5   6 29160.8 3891.21   1
   3   5  -6 20404.3 3489.40   1
   1   0   8 30984.5 5008.44   1
   1   0   8 20231.4 3905.16   1
   1  -5   8 22256.4 3641.54   1
   1  -5   8 25822.5 4571.78   1
  -1   5  -8 16080.6 2478.77   1
  -5   3   6 9621.02 3106.16   1
  -5   3   6 11071.4 1845.95   1
   5  -3  -6 11282.2 2095.56   1
   5  -3  -6 18700.7 3792.41   1
   4  -8   1 31127.0 6282.30   1
   4  -8   1 43406.3 5760.13   1
  -4   8  -1 36197.0 5185.17   1
  -4   8  -1 34593.3 8153.93   1
  -3  -3   8 1267.66 2393.51   1
   3   3  -8 150.270 1737.80   1
  -3  -3   8 -384.95 920.290   1
   1  -8   5 66291.4 8190.07   1
  -1   8  -5 66688.8 8551.45   1
   1  -8   5 67606.3 9900.74   1
   5   1   1 27609.6 3387.71   1
   5   1   1 30857.2 3911.15   1
  -5  -1  -1 27052.8 3272.52   1
   2  -6   7 3311.82 1466.78   1
  -2   6  -7 3178.19 1361.55   1
   2  -6   7 8267.13 3599.96   1
  -1   5   6 7057.27 3145.14   1
  -1   5   6 10817.6 2143.49   1
   1  -5  -6 15367.0 2520.01   1
   4  -8   0 8922.84 2521.93   1
  -4   8   0 5354.53 2424.86   1
   4  -8   0 6005.21 1418.71   1
   6  -2  -1 15589.9 1944.15   1
   6  -2  -1 24834.0 4747.73   1
   1   6   3 1600.59 485.860   1
  -1  -6  -3 2469.64 911.710   1
   1   6   3 5406.61 2650.30   1
   1   6   3 5621.30 2569.14   1
   1   6   3 2229.29 756.820   1
   4  -1   5 9814.97 2826.97   1
   4  -1   5 5296.97 1192.63   1
   4  -1   5 2878.19 1285.86   1
  -4  -4   5 1773.24 1732.99   1
   4   4  -5 1521.07 805.390   1
   6  -2  -3 516.510 1056.41   1
   6  -2  -3 1993.89 1269.38   1
   2   5   3 8535.34 1020.41   1
   2   5   3 13717.6 2328.79   1
   2   5   3 14443.3 2685.93   1
   6  -4  -1 529.060 993.750   1
   6  -4  -1 718.700 1460.69   1
   6  -3  -3 255.840 266.110   1
   6  -3  -3 -391.88 1393.53   1
   6  -3  -3 3790.60 964.750   1
  -2  -1   9 4488.50 1709.69   1
   2   1  -9 261.420 1042.14   1
  -2  -1   9 1650.61 1259.21   1
   5  -7   0 595.010 1122.69   1
  -5   7   0 173.500 862.370   1
   5  -7   0 67.3400 1597.67   1
   1   7   1 21963.2 3074.32   1
   1   7   1 24670.1 5115.44   1
   1   7   1 21358.8 2648.42   1
  -1  -7  -1 31816.6 4275.18   1
   6  -4  -2 2744.48 1204.80   1
   6  -4  -2 4009.06 1729.86   1
   2  -8  -2 164.170 1025.02   1
   2  -8  -2 624.450 396.580   1
  -2   8   2 -474.87 1718.48   1
   3  -8   4 3519.63 1427.34   1
   3  -8   4 3603.04 1643.66   1
  -3   8  -4 2523.88 1194.91   1
   4  -7   4 19900.9 3635.14   1
  -4   7  -4 21583.8 4115.48   1
   4  -7   4 10564.3 2377.49   1
  -1  -3   9 13304.5 3990.08   1
   1   3  -9 11016.5 2405.15   1
  -1  -3   9 5805.41 1343.45   1
  -1  -3   9 15607.5 2718.02   1
   0   8   0 4209.94 1963.17   1
   0  -8   0 12737.2 1910.19   1
   0   8   0 6521.75 1723.28   1
   0  -8   0 4647.04 1170.78   1
  -3   8   2 7877.77 3355.92   1
   3  -8  -2 11548.7 2273.25   1
   3  -8  -2 5939.69 1059.71   1
   3  -7  -4 2480.77 4214.51   1
  -3   7   4 9730.60 2238.59   1
   2  -7  -4 47852.9 6773.63   1
  -2   7   4 34430.3 5074.41   1
  -5   7   1 85024.0 10179.1   1
   5  -7  -1 66017.7 10658.4   1
   5  -7  -1 93299.0 11341.9   1
  -2  -2   9 3144.74 1134.58   1
   2   2  -9 2264.81 1941.88   1
  -2  -2   9 4177.39 2691.75   1
  -1   6   5 21975.2 3625.48   1
   1  -6  -5 28048.7 4157.13   1
  -1   6   5 10488.6 2367.69   1
   2  -8   5 -757.98 1686.87   1
   2  -8   5 2066.95 1814.08   1
  -2   8  -5 1695.65 1354.50   1
  -5  -1   6 -228.96 1365.44   1
   5   1  -6 1560.20 631.090   1
   5   1  -6 0.08000 804.960   1
   5   1  -6 1630.67 1805.73   1
   6  -3   0 46272.5 6418.54   1
   6  -3   0 38622.3 5968.51   1
   4  -8   2 28772.4 5237.21   1
   4  -8   2 43036.5 5696.95   1
  -4   8  -2 28642.6 5632.45   1
   1   7  -6 1743.22 696.520   1
  -1  -7   6 4058.13 1661.90   1
   1   7  -6 3026.26 1479.18   1
   5  -1   3 5379.79 3001.03   1
   5  -1   3 11322.1 2116.34   1
   5  -1   3 7213.66 1048.40   1
   5  -7   1 -30.310 1545.57   1
  -5   7  -1 3126.43 1573.06   1
   5  -7   1 2594.05 1538.44   1
  -1   4   7 15238.8 2239.22   1
   1  -4  -7 24087.4 4655.29   1
  -1   4   7 6559.28 1658.15   1
   0  -2   9 50631.7 7262.41   1
   0   2  -9 47085.6 6297.43   1
   0  -2   9 24231.5 3913.89   1
   0  -2   9 32011.9 5530.59   1
   4  -6   5 72235.4 9606.96   1
  -4   6  -5 46835.4 7841.41   1
   4  -6   5 50223.4 6346.00   1
  -2   0   9 7622.26 1873.27   1
   2   0  -9 5414.51 1681.93   1
  -2   0   9 4454.45 1919.71   1
   6  -1  -2 35332.1 5265.29   1
   6  -1  -2 35176.0 4632.86   1
  -5  -2   5 7064.41 1546.03   1
   5   2  -5 1777.93 726.720   1
   5   2  -5 7211.85 2394.89   1
  -4   0   8 12089.8 2718.03   1
  -4   0   8 8353.71 1863.40   1
   4   0  -8 11524.3 2090.13   1
   4   0  -8 6834.69 1995.51   1
  -4   0   8 4798.16 1016.21   1
   6  -4   0 3216.65 1186.85   1
   6  -4   0 5053.73 2340.75   1
   3  -3   7 7270.78 1756.02   1
  -3   3  -7 4647.84 1594.93   1
   3  -3   7 6684.59 2392.49   1
   4   2   3 2036.91 360.650   1
   4   2   3 1533.58 662.710   1
   4   2   3 591.950 947.890   1
   4  -8  -1 33334.9 4814.84   1
  -4   8   1 31226.5 4574.68   1
   4  -8  -1 28823.9 5044.74   1
  -1   0   9 2155.03 1170.92   1
  -1   0   9 -203.30 1818.84   1
   1   0  -9 536.520 1201.79   1
   3   5   1 33327.9 4807.69   1
   3   5   1 74934.2 9558.00   1
   4  -5  -6 4599.51 1460.59   1
   4  -5  -6 1869.59 1442.34   1
  -4   5   6 -3.7400 815.590   1
   0  -3   9 3874.04 1302.72   1
   0  -3   9 2207.28 1837.57   1
   0  -3   9 3386.38 1563.39   1
   0   3  -9 2359.70 1621.06   1
   2   7  -3 2759.71 2590.24   1
   2   7  -3 2246.82 866.140   1
   6  -1  -3 3064.56 1509.32   1
   6  -1  -3 3626.73 551.080   1
   6  -1  -3 6296.32 1306.10   1
   3  -4   7 10760.4 2280.18   1
  -3   4  -7 3160.65 1689.30   1
   3  -4   7 6351.92 2599.19   1
   3  -4   7 5253.09 1093.52   1
   4  -6  -5 522.630 1415.96   1
   4  -6  -5 1940.09 949.100   1
   4  -6  -5 2450.94 1438.62   1
  -4   6   5 2179.06 1160.44   1
   3   3   4 8719.56 1296.87   1
   3   3   4 7531.66 1996.10   1
  -3  -3  -4 2160.12 783.380   1
   5  -6   3 12508.7 2644.31   1
  -5   6  -3 6937.24 1661.82   1
   5  -6   3 11885.5 2025.30   1
  -6   4   3 27311.0 3492.15   1
   6  -4  -3 20132.1 2598.86   1
   6  -4  -3 41124.8 7547.62   1
   6  -4  -3 21774.9 4653.57   1
  -4   1   8 12121.6 3147.16   1
  -4   1   8 18413.5 4415.86   1
   4  -1  -8 29992.2 4533.35   1
  -4   1   8 29993.6 5317.07   1
   4  -1  -8 24553.6 4238.82   1
  -2   3  -8 704.280 737.100   1
   2  -3   8 2542.53 1544.20   1
   2  -3   8 1572.10 677.490   1
   2  -3   8 889.700 1730.45   1
   4   1   4 27.2000 576.300   1
  -4  -1  -4 2411.50 785.170   1
   4   1   4 1146.78 972.850   1
   6  -2   0 2046.47 2284.54   1
   6  -2   0 571.350 782.270   1
   5  -5  -5 1910.85 868.010   1
  -5   5   5 4843.89 1039.64   1
   5  -5  -5 8295.86 2071.80   1
   0   8  -5 10113.9 2965.44   1
   0  -8   5 7057.33 1530.40   1
  -2  -7   2 2313.72 791.490   1
   2   7  -2 3360.00 2395.48   1
   2   7  -2 103.470 341.530   1
   6  -2  -4 6197.45 1479.17   1
   6  -2  -4 10550.2 2122.65   1
   2  -3  -8 849.390 621.120   1
   2  -3  -8 758.290 1058.91   1
  -2   3   8 1815.73 855.850   1
   0   1  -9 2531.07 1036.51   1
   0  -1   9 3258.74 1776.23   1
   0  -1   9 4439.87 2820.89   1
   6  -1  -1 2934.46 1208.64   1
   6  -1  -1 1610.36 1876.95   1
   4   4   0 11145.9 2265.73   1
   4   4   0 13732.6 2511.53   1
   3   6  -3 281.380 547.380   1
  -3  -6   3 4407.62 710.920   1
   3   6  -3 5076.24 1615.62   1
  -3  -6   3 2412.33 651.060   1
   3   2   5 2774.27 558.170   1
   3   2   5 3561.08 1083.57   1
  -3  -2  -5 2671.50 1186.45   1
   3   2   5 6708.33 1982.22   1
   4   1  -8 88994.3 11295.9   1
  -4  -1   8 101580. 11802.0   1
  -4  -1   8 96346.2 13455.6   1
  -4  -1   8 119978. 6838.13   1
   5   2   0 1846.80 312.100   1
   5   2   0 2315.95 1264.61   1
   5   2   0 1006.64 1466.08   1
   4   3  -7 4251.46 2567.62   1
  -4  -3   7 3290.98 1479.31   1
   2   7  -4 20582.2 3454.65   1
   2   7  -4 42399.4 5590.19   1
  -2  -7   4 50861.5 6131.98   1
   2   7  -4 16318.2 3609.18   1
   2  -4   8 48602.0 7079.24   1
  -2   4  -8 29657.2 4820.51   1
   2  -4   8 38190.8 5754.80   1
   2  -4   8 34645.5 5095.60   1
   6  -5  -1 8006.53 1856.46   1
   6  -5  -1 -2552.7 1635.59   1
  -5   7   2 -106.45 820.630   1
   5  -7  -2 2501.47 2121.94   1
   5  -7  -2 1616.01 2215.09   1
   3  -2   7 199.670 890.830   1
   3  -2   7 1459.37 1871.17   1
  -3   2  -7 2680.90 1036.78   1
   3  -2   7 1250.76 677.820   1
   6  -3  -4 1784.03 2255.31   1
   6  -3  -4 2988.20 1399.73   1
  -6   3   4 4092.21 755.680   1
   2  -2   8 1361.92 2060.64   1
  -2   2  -8 124.590 1318.25   1
   2  -2   8 148.770 627.690   1
   2  -2   8 -807.33 945.990   1
   1  -7   7 584.120 739.760   1
  -1   7  -7 3208.32 2460.81   1
   1  -7   7 2200.77 1442.92   1
   5  -4   4 32401.1 4912.10   1
   5  -4   4 34988.4 4943.91   1
   0   2   8 3856.08 895.010   1
   0   2   8 8818.91 1934.74   1
   0  -2  -8 5406.77 1205.34   1
   0   2   8 1076.77 1761.59   1
   5  -6  -4 34932.1 6514.89   1
  -5   6   4 41265.5 6044.18   1
   5  -6  -4 58437.7 9006.98   1
  -2  -3   9 59837.3 10519.8   1
  -2  -3   9 28380.4 5247.56   1
  -2  -3   9 29314.5 3891.26   1
   2   3  -9 27707.2 4674.83   1
   0  -7   7 71235.7 8891.10   1
   0   7  -7 48072.9 5781.12   1
   0   7  -7 87647.6 11369.9   1
   0  -7   7 76957.9 12540.5   1
   3   6  -2 9180.20 2515.89   1
   2   1   7 -157.65 1229.69   1
   2   1   7 -455.31 982.210   1
   5  -3   4 10604.1 3009.86   1
  -5   3  -4 4382.07 860.010   1
   5  -3   4 6106.83 1707.56   1
   5  -3   4 8261.46 1758.31   1
   4   3   2 8742.23 1841.12   1
  -3  -6   4 28225.0 3343.53   1
  -3  -6   4 45716.7 5442.35   1
   3   6  -4 38366.6 5751.48   1
   3   6  -4 11438.6 2351.20   1
   3   6  -4 9897.72 2398.34   1
   0   7   3 3142.57 1755.89   1
   0   7   3 6158.82 2226.34   1
   6  -5  -2 35753.6 6871.52   1
  -6   5   2 34246.0 4308.00   1
   6  -5  -2 44899.6 6023.00   1
   5  -7   2 33911.8 5317.50   1
  -5   7  -2 15953.2 2374.59   1
   5  -7   2 24730.5 3794.90   1
   0  -6   8 30.9000 1321.53   1
   0   6  -8 3581.58 2156.05   1
   0  -6   8 1258.13 1360.45   1
   3  -3  -8 28009.0 5346.51   1
   3  -3  -8 20788.7 3073.62   1
  -3   3   8 23976.7 4073.94   1
  -3   3   8 22305.3 4866.97   1
   6  -1  -4 1200.51 530.380   1
   6  -1  -4 863.680 2824.35   1
   6  -1  -4 1287.86 870.460   1
   6  -1  -4 1333.83 609.700   1
   5  -4  -6 8484.52 1706.02   1
  -5   4   6 40353.9 4884.73   1
   1  -8  -2 147582. 3153.48   1
  -1   8   2 136991. 5118.24   1
   3   4   3 12520.6 1246.02   1
   3   4   3 14832.5 1517.73   1
   3   4   3 13945.3 2709.87   1
   6  -5   0 473.580 973.600   1
   6  -5   0 -732.26 1851.14   1
  -5   1   7 77557.9 10893.0   1
  -5   1   7 60126.6 7415.80   1
   5  -1  -7 52737.9 7292.93   1
  -5   1   7 58123.0 8238.15   1
   5  -1  -7 51513.6 8126.88   1
  -2  -5   8 35664.3 5092.34   1
   2   5  -8 25755.3 4195.93   1
  -2   9  -2 17310.7 3215.98   1
   2  -9   2 18384.9 3365.37   1
   2  -9   2 17531.3 4783.41   1
  -1  -4   9 3023.82 1192.02   1
   1   4  -9 759.070 1499.87   1
  -1  -4   9 2108.51 1694.10   1
  -1  -4   9 3729.20 1946.82   1
   4  -4  -7 1591.66 1173.74   1
   4  -4  -7 1555.43 1335.84   1
  -4   4   7 42.8500 781.550   1
  -4   4   7 2584.97 2741.04   1
   4  -8   3 10993.2 2616.35   1
  -4   8  -3 12110.9 2357.48   1
   4  -8   3 11945.8 2947.93   1
   3  -5   7 55193.1 7533.81   1
   3  -5   7 20053.2 4463.36   1
  -3   5  -7 25954.1 7264.07   1
   3  -5   7 40356.5 6937.45   1
   0  -4   9 19877.6 4303.64   1
   0   4  -9 11962.8 2968.09   1
   0  -4   9 8388.80 1835.86   1
   0  -4   9 8428.68 1819.19   1
   4   4  -6 2341.03 2735.01   1
  -4  -4   6 172.290 1125.82   1
   6  -3   1 5948.39 2516.18   1
   6  -3   1 5593.93 1791.82   1
  -2   9  -1 9473.02 2212.35   1
  -2   9  -1 10100.6 2279.88   1
   2  -9   1 12330.0 2352.82   1
   2  -1  -9 3575.31 1504.97   1
  -2   1   9 2096.95 869.670   1
  -2   1   9 -733.04 1859.62   1
   6  -4   1 87409.9 11765.0   1
   6  -4   1 70757.6 8590.10   1
   2   7  -1 2234.19 917.390   1
   2   7  -1 3295.00 1693.64   1
  -2  -7   1 1199.58 593.580   1
   4  -2  -8 9200.35 2538.27   1
  -4   2   8 15119.7 3799.16   1
  -4   2   8 11097.0 1758.68   1
   4  -2  -8 12288.3 2658.82   1
   4  -7  -4 2603.77 1391.77   1
   4  -7  -4 143.280 277.490   1
   1  -7  -4 35283.7 4997.00   1
  -1   7   4 26148.8 4373.42   1
   2   6  -7 5244.59 2389.72   1
  -2  -6   7 3570.31 1436.79   1
   1   8  -3 16208.0 2656.37   1
  -1  -8   3 24002.7 3420.72   1
  -3  -1   9 12954.2 2654.72   1
  -3  -1   9 17720.6 2420.35   1
  -3  -1   9 5807.48 1489.81   1
   3   1  -9 14027.5 3006.23   1
  -5   5  -4 6748.77 1258.09   1
   5  -5   4 12859.2 2902.44   1
   5  -5   4 8993.29 2797.31   1
  -5   0   7 11024.8 3106.34   1
  -5   0   7 4484.02 1100.18   1
   5   0  -7 4690.42 1838.88   1
  -5   0   7 10920.7 2962.54   1
   5   0  -7 8277.36 2001.47   1
   4  -4   6 12265.1 2662.99   1
   4  -4   6 5520.58 1914.48   1
   4  -4   6 2897.77 1010.88   1
  -4   4  -6 8230.52 2726.10   1
   3  -7   6 13511.5 3279.40   1
  -3   7  -6 11463.2 3386.03   1
   3  -7   6 17544.1 3272.42   1
   4  -8  -2 14429.6 3281.29   1
  -4   8   2 11296.8 2553.95   1
   4  -8  -2 10391.7 2910.85   1
  -3   0   9 14683.6 4616.21   1
  -3   0   9 -1341.3 651.260   1
   5  -2  -7 3603.54 1961.41   1
  -5   2   7 3661.69 2655.77   1
   5  -2  -7 3413.11 1222.44   1
  -5   2   7 3183.50 711.010   1
   4  -3   6 -1387.4 1000.68   1
   4  -3   6 277.280 412.460   1
  -4   3  -6 353.340 628.110   1
   4  -3   6 2099.99 1588.88   1
  -1  -8   2 3136.92 1055.91   1
   1   8  -2 1636.33 514.960   1
   1   8  -2 2948.71 2057.93   1
   1   1   8 4729.96 2656.24   1
  -1  -1  -8 3351.33 1164.16   1
   1   1   8 7850.53 2128.17   1
  -1   6  -8 8273.74 2731.02   1
   1  -6   8 5396.99 2010.95   1
   1  -6   8 4797.41 1819.75   1
  -1   3   8 592.140 589.820   1
   1  -3  -8 1755.43 807.380   1
   0  -8  -1 103023. 2401.12   1
   0   8   1 92937.6 9003.62   1
   2  -9   3 36401.9 4184.03   1
   2  -9   3 31875.2 4986.56   1
  -2   9  -3 19856.7 3737.26   1
   4   0   5 18337.1 2491.05   1
   4   0   5 8954.94 2882.62   1
   4   0   5 13420.7 3027.19   1
   6  -1   0 2298.81 856.100   1
   6  -1   0 4296.75 1552.48   1
  -5  -3   3 18660.2 1708.57   1
   5   3  -3 42074.7 5472.51   1
   5   3  -3 32339.0 3477.14   1
  -5  -3   3 24211.6 4401.49   1
  -6   4   4 1803.06 447.700   1
   6  -4  -4 2750.73 984.360   1
   6  -4  -4 3969.40 1271.19   1
   6  -4  -4 1722.11 462.800   1
   6   0  -3 63605.0 6276.08   1
   1  -8   6 17358.1 2691.71   1
  -1   8  -6 14009.1 3565.94   1
   1  -8   6 18553.1 3147.10   1
  -2  -7   5 8086.20 1808.65   1
   2   7  -5 4911.00 2104.48   1
   2   7  -5 1127.50 380.110   1
  -6   0   2 2714.24 674.730   1
   6   0  -2 7462.20 1736.05   1
   6   0  -2 3574.87 1446.88   1
   6   0  -2 2741.01 631.690   1
  -3  -4   8 9623.44 2842.10   1
   3   4  -8 11460.2 3234.15   1
   3   5  -7 9604.40 2947.13   1
  -3  -5   7 18632.9 2791.28   1
   2   6   2 3559.06 1333.03   1
   2   6   2 3433.48 1362.94   1
   2   6   2 5920.38 819.170   1
   5  -2   4 2655.06 1511.26   1
   5  -2   4 912.210 1979.89   1
  -5   2  -4 3814.30 893.200   1
   5  -2   4 4324.50 1092.61   1
   1   4   6 3350.74 797.750   1
   1   4   6 1541.80 1110.48   1
   1   4   6 -361.21 1191.26   1
  -1   1   9 39873.2 5662.52   1
   1  -1  -9 77573.4 7459.04   1
  -1   1   9 113953. 5680.75   1
   2  -5   8 -644.28 1338.15   1
  -2   5  -8 1687.69 1061.08   1
   2  -5   8 866.120 1042.96   1
   2  -5   8 2579.99 2192.45   1
   0   0  -9 80465.5 9181.44   1
   0   0   9 106193. 4973.39   1
   0   0   9 90377.9 9334.01   1
   3  -9   1 17712.8 3013.88   1
  -3   9  -1 13589.0 3449.70   1
  -3   9  -1 13021.9 3027.74   1
   3  -9   1 14688.2 4680.39   1
   3   6  -1 4726.85 2916.37   1
   3   6  -1 365.920 1336.03   1
  -4  -2   8 6729.12 2217.83   1
  -4  -2   8 6531.52 1448.90   1
   4   2  -8 8492.78 2943.40   1
   1  -9   2 19121.1 2358.72   1
  -1   9  -2 16624.9 2310.75   1
   6  -5  -3 2046.87 1812.87   1
  -6   5   3 128.570 298.290   1
   6  -5  -3 -1114.7 1087.77   1
   3   1   6 2043.55 1263.21   1
   3   1   6 103.310 737.760   1
   3   6  -5 3755.22 987.420   1
  -3  -6   5 7215.40 1678.35   1
  -3  -6   5 3086.23 769.060   1
   3   6  -5 4512.30 1722.49   1
   3   6  -5 2780.84 782.760   1
   5   2  -6 3749.44 878.220   1
   5   2  -6 8504.02 3401.39   1
  -5  -2   6 8674.51 2409.92   1
  -5  -1  -2 37965.4 3523.65   1
   5   1   2 68447.8 5860.09   1
   5   1   2 52699.7 6020.56   1
   2  -1   8 9378.75 2152.47   1
   2  -1   8 2030.70 1387.89   1
  -2   1  -8 10165.3 2345.03   1
  -1  -8   4 22784.2 2653.43   1
   1   8  -4 17334.4 2457.69   1
   3  -8   5 2171.88 1462.67   1
   3  -8   5 1600.58 1061.98   1
  -3   8  -5 502.420 1792.29   1
   1   5   5 6601.49 2204.36   1
   1   5   5 1478.62 1035.75   1
   3  -9   2 2593.23 1662.50   1
  -3   9  -2 1094.78 1052.28   1
   3  -9   2 4459.93 1762.45   1
   6  -2   1 5293.18 2348.24   1
   6  -2   1 4652.78 1212.41   1
   5   3  -2 5320.47 2169.09   1
   5   3  -2 3024.56 1143.18   1
   1   6  -8 13681.2 3118.64   1
  -1  -6   8 16442.7 2060.23   1
  -1  -6   8 19455.3 2937.54   1
  -5  -3   4 9373.34 1774.30   1
   5   3  -4 5502.63 2563.63   1
  -5  -3   4 7271.46 1850.09   1
   5   3  -4 8163.59 1835.96   1
  -3   8   3 754.950 1670.97   1
   3  -8  -3 1714.21 815.250   1
   3  -8  -3 1186.90 1078.05   1
   1  -9   3 17494.7 2480.03   1
  -1   9  -3 14011.6 3143.01   1
   3   2  -9 4297.94 2057.63   1
  -3  -2   9 5581.89 1963.02   1
  -3  -2   9 2032.13 425.200   1
  -2   9   0 423.380 1627.72   1
  -2   9   0 1623.33 530.930   1
   2  -9   0 1084.45 864.780   1
   2  -9   0 303.830 1181.19   1
   3  -1   7 25252.2 4370.17   1
  -3   1  -7 31093.7 3561.28   1
   3  -1   7 35856.3 3818.97   1
   3  -1   7 37523.1 5029.86   1
   5   0   3 21026.5 4395.28   1
  -5   0  -3 15034.6 2733.29   1
   5   0   3 45183.7 4246.46   1
   5   0   3 37264.1 3362.74   1
   6  -5   1 4170.01 1216.91   1
   6  -5   1 2868.71 2141.78   1
  -4   5  -6 10008.6 2672.32   1
   4  -5   6 14416.3 3392.54   1
   4  -5   6 11175.9 2713.30   1
   4  -5   6 10631.5 2488.04   1
   1   7   2 3698.18 919.910   1
   1   7   2 7925.28 2829.13   1
   1   7   2 478.740 306.100   1
  -1  -7  -2 1500.73 522.100   1
   1   7   2 3487.30 1522.12   1
   6  -2  -5 1511.33 719.100   1
  -6   2   5 1923.15 488.750   1
   6  -2  -5 4281.48 1276.18   1
   6  -2  -5 1964.84 1254.88   1
   6  -2  -5 555.690 1827.45   1
   2  -8  -3 48712.8 6194.05   1
  -2   8   3 47382.3 5525.09   1
   2  -8  -3 29097.8 2472.22   1
   2  -7   7 15830.1 2684.73   1
   2  -7   7 17696.3 3030.93   1
  -2   7  -7 13755.4 3364.86   1
   1  -3   9 2784.47 2352.46   1
   1  -3   9 1801.93 1137.90   1
   1  -3   9 -436.57 1323.85   1
  -1   3  -9 1876.25 1272.60   1
   0   5   6 1761.79 1833.23   1
   0  -5  -6 3280.66 1044.35   1
   0   5   6 2964.23 1276.71   1
   5  -7  -3 37836.1 6364.86   1
  -5   7   3 37505.4 3693.54   1
   5  -7  -3 40280.0 4618.11   1
  -1   9  -1 18438.7 3499.11   1
  -1   9  -1 24538.8 3737.77   1
   1  -9   1 26612.5 3011.15   1
  -1  -8   1 5236.24 1203.79   1
   1   8  -1 6005.70 975.060   1
   1   8  -1 4148.09 1455.19   1
   1   8  -1 7333.95 3603.42   1
  -3   1   9 -259.07 2193.84   1
   3  -1  -9 2220.81 1223.46   1
  -3   1   9 914.120 615.300   1
   6   0  -4 6621.92 2516.24   1
  -6   0   4 4385.60 1846.97   1
   6   0  -4 7407.52 1643.99   1
   6   0  -4 4505.60 1268.41   1
   6   0  -4 3976.43 817.190   1
   4  -2   6 2118.91 495.980   1
   4  -2   6 -698.73 1888.11   1
   4  -2   6 2948.56 2070.10   1
   3  -9   0 47970.8 5212.75   1
  -3   9   0 41401.6 5070.18   1
  -3   9   0 31354.2 7836.41   1
   3  -9   0 37771.5 6032.14   1
   6   0  -1 207.840 142.580   1
   6   0  -1 1375.16 2119.98   1
  -6   0   1 97.0500 325.400   1
   6   0  -1 2692.81 1051.91   1
   4  -7   5 6095.05 2898.02   1
  -4   7  -5 2283.61 1164.62   1
   4  -7   5 366.900 1484.91   1
  -3   6   6 3120.90 2416.30   1
  -3   6   6 6803.06 1942.58   1
   3  -6  -6 4718.61 836.230   1
   3  -6  -6 6657.40 2001.69   1
  -4  -5   3 3554.00 515.170   1
   4   5  -3 7837.69 2461.15   1
   1  -2   9 3117.61 1954.19   1
  -1   2  -9 4110.78 1691.59   1
   1  -2   9 5665.79 1402.86   1
   1  -2   9 2636.36 1372.74   1
   2  -8   6 59203.0 5658.35   1
  -2   8  -6 43329.3 5694.23   1
   2  -8   6 54445.8 7677.02   1
   6  -1  -5 6089.48 1479.09   1
  -6   1   5 3821.25 1907.13   1
   6  -1  -5 5944.10 970.220   1
   6  -1  -5 9625.62 2273.81   1
   6  -1  -5 6992.89 3258.23   1
   2   4   5 1444.39 368.860   1
   2   4   5 649.620 425.190   1
   2   4   5 -31.950 955.310   1
   2   4   5 3434.57 2292.25   1
   0   8  -6 62582.8 7314.58   1
   0  -8   6 52334.3 5188.25   1
   0  -8   6 54520.8 7633.77   1
   5   1  -7 49557.7 6243.14   1
  -5  -1   7 45456.4 6931.28   1
  -5  -1   7 48811.6 7351.36   1
  -5  -1   7 33985.0 3123.48   1
  -2   6   6 -205.13 1658.87   1
  -2   6   6 1390.30 1237.00   1
   2  -6  -6 1387.42 837.530   1
  -1  -7   7 1186.04 1070.43   1
   1   7  -7 1313.62 1822.41   1
   1   7  -7 1327.58 708.640   1
   6  -3  -5 2547.96 1237.79   1
   6  -3  -5 1273.37 2565.51   1
   6  -3  -5 5692.75 1515.54   1
  -6   3   5 2899.93 877.860   1
   2   4  -9 6883.59 2594.98   1
  -2  -4   9 2749.37 589.740   1
  -2  -4   9 6047.82 1370.74   1
   6  -6  -1 32373.6 5884.40   1
   6  -6  -1 39256.3 4910.41   1
   1   3   7 9356.36 2505.06   1
   1   3   7 5906.39 1339.20   1
   1   3   7 9241.62 2392.18   1
   5  -7   3 3407.54 2345.31   1
   5  -7   3 -1031.1 1588.82   1
  -5   7  -3 988.240 2075.85   1
  -5   7  -3 -334.27 226.370   1
   4   5  -4 17792.9 3412.29   1
  -4  -5   4 11522.1 2037.05   1
  -4  -5   4 641.720 309.690   1
   3  -5  -7 2317.31 1152.25   1
  -3   5   7 1180.76 1029.19   1
   3  -5  -7 700.780 360.540   1
  -3   5   7 3060.22 2207.25   1
  -2   5   7 1726.34 1618.29   1
   2  -5  -7 3944.86 1228.92   1
  -2   5   7 2775.01 1470.42   1
   5   2   1 63327.8 5762.73   1
   5   2   1 48136.5 5654.53   1
   0   4   7 17696.1 2460.16   1
   0   4   7 17618.4 3725.93   1
   0   4   7 11899.2 2107.59   1
  -5   3   7 18277.8 2856.51   1
   5  -3  -7 7844.49 2112.49   1
   5  -3  -7 30525.4 3502.00   1
  -5   3   7 33469.2 5034.32   1
   4   4   1 6601.52 2160.01   1
   4   4   1 8490.75 2182.94   1
   3  -9   3 16329.4 5867.27   1
   3  -9   3 36755.7 4696.75   1
  -3   9  -3 16757.7 4536.22   1
   2  -9   4 7441.32 2339.92   1
  -2   9  -4 7684.65 2188.15   1
   2  -9   4 8382.76 2495.00   1
   3  -6   7 3147.29 2184.55   1
   3  -6   7 10076.1 3641.31   1
  -3   6  -7 3362.70 1401.69   1
   2   3   6 -275.27 868.820   1
   2   3   6 2090.27 1738.98   1
   2   3   6 214.850 334.180   1
   1  -4   9 122874. 11548.8   1
   1  -4   9 83057.8 7897.96   1
  -1   4  -9 59448.3 7686.34   1
   1  -4   9 79661.2 7367.38   1
   4   5  -2 1973.37 2188.21   1
   6  -6   0 4127.37 2456.12   1
   6  -6   0 14018.8 3223.56   1
   5  -6   4 42902.2 5257.42   1
   5  -6   4 53184.6 5655.65   1
  -5   6  -4 28419.8 3140.62   1
  -5   6  -4 39418.8 4665.51   1
   2   7   0 18879.2 3698.97   1
   2   7   0 12648.1 2615.79   1
   2   7   0 13428.6 2273.71   1
   0   6   5 23940.5 3854.78   1
   0  -6  -5 21068.7 2733.74   1
   0   6   5 15226.5 3905.25   1
   3   5   2 6018.35 1629.10   1
   3   5   2 9871.84 2682.60   1
   0  -5   9 6660.89 1947.74   1
   0   5  -9 9808.83 3114.46   1
   0  -5   9 9287.67 2484.32   1
   0  -5   9 15413.1 3674.09   1
   1  -9   4 1738.69 1473.47   1
  -1   9  -4 487.810 1429.88   1
   5   3  -1 2339.80 1999.11   1
   5   3  -1 4251.77 1506.48   1
   5   3  -1 6470.45 2334.70   1
   4  -8   4 46971.8 5417.56   1
  -4   8  -4 45857.7 7215.49   1
   4  -8   4 46731.6 9313.73   1
   5   3  -5 37372.0 5900.27   1
  -5  -3   5 23481.7 5093.32   1
   5   3  -5 37550.0 3634.56   1
  -5  -3   5 29841.5 2677.37   1
   1   8  -5 3117.33 2244.18   1
  -1  -8   5 2382.06 1218.87   1
   1   8  -5 1042.08 484.180   1
  -6   6   2 214.880 321.320   1
   6  -6  -2 2418.09 2061.84   1
   6  -6  -2 -843.28 1490.27   1
   1   6   4 18019.0 3384.86   1
  -1  -6  -4 10097.4 2064.97   1
   1   6   4 6658.18 1372.70   1
   1   6   4 8104.01 1906.89   1
   1   6   4 14328.3 3950.69   1
  -4   3   8 6633.79 2173.55   1
   4  -3  -8 4450.64 1443.58   1
   4  -3  -8 5479.65 1888.91   1
  -4   3   8 12191.0 4354.71   1
   6  -4   2 5252.40 1897.12   1
   6  -4   2 11313.9 3955.62   1
   3  -7  -5 5103.29 1462.11   1
   3  -7  -5 1541.34 608.370   1
  -3   7   5 1330.28 1184.05   1
   5  -8   0 47488.4 5196.52   1
  -5   8   0 37856.8 4213.98   1
   5  -8   0 39251.7 6035.46   1
   2   5   4 2349.07 616.010   1
   2   5   4 122.010 1097.41   1
   2   5   4 1377.35 763.760   1
   2   5   4 2131.63 955.630   1
   1   5  -9 2504.67 2296.34   1
  -1  -5   9 4146.88 2025.40   1
  -1  -5   9 966.710 1401.41   1
  -1  -5   9 1199.77 1067.21   1
  -2   2   9 2366.94 1601.77   1
   2  -2  -9 3032.34 1802.48   1
  -2   2   9 2153.40 1050.52   1
   6  -3   2 1433.41 1096.74   1
   6  -3   2 3896.99 2032.31   1
   1  -9   0 8522.77 1673.82   1
  -1   9   0 10403.6 2750.86   1
  -1   9   0 10145.1 2498.12   1
   1  -9   0 17239.7 2301.11   1
  -1   1  -9 54690.1 8474.23   1
   1  -1   9 66123.6 7529.23   1
   5  -1   4 7192.54 3306.52   1
   5  -1   4 14734.5 2856.90   1
   5  -1   4 14987.8 3169.06   1
  -5   1  -4 12808.8 2509.10   1
   5  -8   1 33767.3 5833.62   1
  -5   8  -1 32328.1 4187.44   1
   5  -8   1 33306.0 4228.87   1
   6  -5  -4 23967.8 5195.13   1
   6  -5  -4 22802.5 2254.98   1
  -6   5   4 23744.7 3433.77   1
   6  -5  -4 36672.2 5187.15   1
  -2  -7   6 7867.74 1822.09   1
   2   7  -6 8484.25 2801.14   1
   2   7  -6 6192.18 860.180   1
   6  -1   1 17076.5 2207.39   1
   6  -1   1 10715.8 3392.64   1
   3   6   0 9651.79 2506.39   1
   3   6   0 45508.5 4942.72   1
  -2   7   5 8821.62 2536.24   1
   2  -7  -5 7346.92 1867.54   1
  -4   8   3 2572.79 1533.75   1
   4  -8  -3 8790.67 2750.65   1
   4  -8  -3 3713.75 1043.91   1
  -3  -3   9 23914.9 5000.66   1
  -3  -3   9 27926.6 6409.64   1
   3   3  -9 25247.3 3581.52   1
   5  -6  -5 2006.98 717.290   1
  -5   6   5 1180.80 1099.63   1
   3   6  -6 538.020 263.180   1
   3   6  -6 728.850 2066.68   1
  -3  -6   6 3148.18 1506.31   1
  -2   9   1 1884.94 760.010   1
  -2   9   1 2007.33 1789.86   1
   2  -9  -1 385.780 473.230   1
   2  -9  -1 3206.85 1968.10   1
  -3   9   1 13461.2 3578.65   1
  -3   9   1 12117.0 2775.51   1
   3  -9  -1 9560.03 1727.88   1
   3  -9  -1 15994.7 2266.95   1
  -5   5   6 1788.85 916.860   1
   5  -5  -6 3026.78 1894.14   1
   5  -5  -6 2284.34 1286.28   1
   4  -6   6 5531.60 2301.24   1
  -4   6  -6 10071.9 2662.55   1
   4  -6   6 9639.91 2950.94   1
  -4  -5   5 7180.25 1540.00   1
   4   5  -5 1428.60 1822.28   1
   4   5  -5 213.840 476.130   1
   4   4  -7 4601.77 2240.40   1
  -4  -4   7 8569.72 2604.65   1
   6   0  -5 22684.8 3735.90   1
   6   0  -5 6968.25 1818.69   1
   6   0  -5 6754.78 3169.49   1
   6   0  -5 334.800 411.170   1
  -6   0   5 1674.88 2049.20   1
   5  -8  -1 -6.9500 1514.50   1
   5  -8  -1 2518.25 1072.49   1
  -5   8   1 158.670 953.850   1
   2  -6   8 24795.5 3631.99   1
   2  -6   8 29169.0 4343.05   1
   2  -6   8 24942.4 3603.16   1
  -2   6  -8 17726.0 3700.24   1
   6  -6   1 15222.0 4027.25   1
   6  -6   1 23685.5 3413.10   1
   6   0   0 8863.33 2706.08   1
  -6   0   0 12966.8 2343.45   1
   6   0   0 13946.6 2607.10   1
   6  -4  -5 2188.90 1524.36   1
   6  -4  -5 2521.04 772.660   1
  -6   4   5 1495.57 734.910   1
   6  -4  -5 3689.69 1072.08   1
   1   8   0 53395.8 6358.18   1
   1   8   0 50801.6 6058.78   1
   1   8   0 60017.1 5139.53   1
  -1  -8   0 58594.3 5887.46   1
   6  -5   2 26463.2 2734.35   1
   6  -5   2 61358.6 7285.47   1
   2   0   8 922.110 1046.19   1
  -2   0  -8 -390.16 963.090   1
   2   0   8 3811.47 1265.09   1
  -4   6   6 2250.60 1219.84   1
   4  -6  -6 1095.18 310.620   1
   4  -6  -6 5073.95 1515.62   1
   4  -6  -6 970.360 952.280   1
   4   2   4 1488.63 1033.33   1
   4   2   4 3793.64 1051.66   1
   4   2   4 741.300 435.020   1
  -4  -2  -4 -133.51 635.950   1
  -2   4   8 1413.13 798.560   1
  -2   4   8 4875.29 1869.07   1
   2  -4  -8 1267.41 573.690   1
  -4  -3   8 33478.8 6120.09   1
   4   3  -8 30882.0 4825.09   1
   4   5  -1 5193.34 2252.36   1
   4   5  -1 2432.95 1664.02   1
   0  -1  -9 19246.9 2781.24   1
   0   1   9 5251.72 2490.81   1
   0   1   9 18479.9 2742.15   1
  -1   8   3 22742.7 3366.76   1
   1  -8  -3 33480.9 4293.35   1
   3  -2  -9 10961.4 2921.91   1
  -3   2   9 12891.6 2892.12   1
   3  -2  -9 8943.15 2247.87   1
  -3   2   9 4656.05 1253.40   1
   6   1  -3 11112.0 2468.53   1
  -6  -1   3 9335.61 1839.98   1
   6   1  -3 6696.07 1774.21   1
  -6  -1   3 9440.82 2478.91   1
   6   1  -3 4084.52 897.750   1
   6   1  -3 7703.05 2624.40   1
   4  -1   6 27215.6 4215.47   1
   4  -1   6 32584.8 3971.91   1
   4  -1   6 19714.1 4248.71   1
   4  -9   1 3056.52 2082.19   1
  -4   9  -1 1461.18 889.030   1
  -4   9  -1 -764.16 1431.42   1
   4  -9   1 2592.22 1256.99   1
   3  -4  -8 10027.2 2525.50   1
  -3   4   8 6490.69 1547.00   1
   3  -4  -8 5007.93 1244.31   1
  -3   4   8 6238.08 4048.58   1
   0   8   2 24741.3 4538.26   1
   0  -8  -2 22742.3 2887.60   1
   0  -9   3 48247.8 4738.66   1
   0   9  -3 49848.2 6379.68   1
   2   2   7 512.310 885.120   1
   3  -9   4 2846.94 1553.12   1
  -3   9  -4 7430.67 2381.97   1
   3  -9   4 6098.80 2903.40   1
   0   9  -2 16238.4 3128.07   1
   0  -9   2 13897.9 2808.37   1
  -6  -1   2 6254.15 600.770   1
   6   1  -2 7508.89 1708.48   1
   6   1  -2 3078.68 967.870   1
   6   1  -2 5418.53 1222.28   1
   1  -5   9 2810.75 2098.68   1
   1  -5   9 -650.05 1242.99   1
   1  -5   9 -579.49 1500.27   1
  -1   5  -9 2080.08 977.250   1
   4   3   3 -2.8200 190.340   1
   0   3   8 40106.8 4498.08   1
   0  -3  -8 23031.3 4304.50   1
   0   3   8 20865.5 4591.09   1
   6  -6  -3 80760.0 7770.59   1
  -6   6   3 69188.1 5928.96   1
   6  -6  -3 67698.4 11654.5   1
  -1   2   9 2840.24 1238.72   1
  -1   2   9 403.930 448.360   1
   1  -2  -9 1098.97 1018.34   1
   4  -9   0 8240.60 2019.62   1
  -4   9   0 7555.89 2668.26   1
  -4   9   0 6986.55 2066.09   1
   4  -9   0 7833.73 2282.37   1
   6  -2   2 14967.9 3021.83   1
  -4   5   7 26651.0 4460.76   1
   4  -5  -7 25533.1 4319.90   1
  -4   5   7 22296.5 2901.58   1
   4  -5  -7 23728.0 2875.06   1
   3   0   7 12605.4 2745.24   1
   3   0   7 12917.6 2828.81   1
   1  -5  -7 14644.8 3484.43   1
  -1   5   7 13186.1 3050.82   1
  -1   5   7 4014.09 1772.48   1
   1  -6  -6 14664.8 3415.64   1
  -1   6   6 13580.4 3407.56   1
  -1   6   6 2965.39 2235.34   1
  -5   8  -2 6171.97 3237.46   1
   5  -8   2 3345.21 1780.68   1
   5  -8   2 3485.07 1759.86   1
   5  -4   5 5050.20 1014.32   1
  -5   4  -5 4728.82 875.320   1
   5  -4   5 3475.68 2561.15   1
   5  -4   5 2822.31 1367.73   1
   4  -9   2 -730.24 1971.03   1
   4  -9   2 -26.510 1523.54   1
  -4   9  -2 737.570 811.500   1
   5   2  -7 -631.01 1980.82   1
  -5  -2   7 2739.39 2188.24   1
   6   1  -4 10366.1 1750.40   1
   6   1  -4 48864.0 6029.37   1
   6   1  -4 42994.8 6815.27   1
   0   7  -8 3914.11 2029.65   1
   0  -7   8 308.330 1213.13   1
   0   7  -8 -187.26 437.730   1
   0  -7   8 2670.58 1422.29   1
  -6   2   6 536.540 1679.40   1
   6  -2  -6 4269.48 1453.56   1
  -6   2   6 7272.18 1813.03   1
   6  -2  -6 5872.36 1318.42   1
   1  -9   5 3690.05 2246.87   1
  -1   9  -5 4608.26 3006.86   1
   1  -9   5 3301.95 1984.44   1
   4  -7  -5 12932.7 2573.62   1
   4  -7  -5 15147.5 3996.33   1
  -4   7   5 6576.25 1922.76   1
   4  -7  -5 4342.97 1151.48   1
  -5   7   4 1030.36 1142.93   1
   5  -7  -4 1083.31 2392.90   1
   5  -7  -4 2023.80 1077.12   1
   0  -7  -4 42855.4 5918.53   1
   0   7   4 47197.1 5442.98   1
   0   7   4 34254.6 4375.88   1
  -4   0   9 9218.02 2407.95   1
   4   0  -9 7298.08 2444.57   1
  -4   0   9 2676.15 1050.67   1
  -4   0   9 8105.50 2481.18   1
   5   3   0 41527.6 5522.11   1
   5   3   0 21041.0 3458.02   1
   5   3   0 32813.8 3725.46   1
   2  -9   5 36363.4 6371.90   1
  -2   9  -5 21052.3 4708.99   1
   2  -9   5 36842.9 4103.64   1
   4   1   5 714.960 689.860   1
   1   2   8 26373.5 3296.28   1
  -1  -2  -8 22370.8 3461.23   1
   1   2   8 8725.91 2242.80   1
   1   2   8 19636.1 3678.84   1
  -1   7  -8 6003.12 2116.69   1
   1  -7   8 5183.28 2044.88   1
   1  -7   8 2137.65 1210.45   1
  -2  -6   8 30898.0 3987.16   1
   2   6  -8 21742.0 4010.67   1
   3   3   5 -644.27 927.900   1
  -3  -3  -5 458.870 459.080   1
   3   3   5 -404.96 246.720   1
   3   3   5 414.170 597.700   1
   5  -3   5 6672.14 1649.59   1
   5  -3   5 3550.12 2771.12   1
  -5   3  -5 3902.90 724.800   1
   5  -3   5 5971.19 1747.94   1
  -6   1   6 19670.4 3366.32   1
   6  -1  -6 14516.3 4108.89   1
   6  -1  -6 14400.7 3313.47   1
  -6   1   6 11165.2 3581.85   1
   6  -1  -6 16683.7 5547.78   1
   5  -4  -7 2754.80 1189.73   1
  -5   4   7 4350.51 2904.58   1
   5  -4  -7 4106.69 1772.28   1
  -5   4   7 2467.41 978.610   1
  -1  -2  10 5547.64 2043.04   1
   1   2 -10 11889.3 3502.80   1
  -1  -2  10 6298.34 2937.61   1
  -1  -2  10 11203.4 2645.06   1
  -5  -3   6 2038.06 1142.74   1
   5   3  -6 1120.26 336.990   1
   5   3  -6 13931.2 3619.97   1
   0  -9   4 1028.43 1156.99   1
   0   9  -4 -1055.2 1887.51   1
   1  -8   7 89001.4 12571.5   1
  -1   8  -7 87615.5 9410.46   1
   1  -8   7 93096.2 8401.60   1
   5  -8  -2 22950.6 3684.16   1
   5  -8  -2 32246.7 3810.90   1
  -5   8   2 26379.4 3164.54   1
  -5   1   8 1801.18 592.250   1
   5  -1  -8 -404.20 1593.19   1
  -5   1   8 103.930 576.420   1
  -5   1   8 7661.72 2935.81   1
   5  -1  -8 1557.74 711.910   1
   5  -5   5 2283.01 1018.30   1
   5  -5   5 17551.7 3389.22   1
  -5   5  -5 11932.2 3661.28   1
  -5   5  -5 981.950 522.740   1
   3  -8   6 2067.86 1416.69   1
  -3   8  -6 5310.49 2040.19   1
   3  -8   6 1421.07 1610.47   1
  -4  -1   9 764.800 624.380   1
  -4  -1   9 1498.08 1011.87   1
   4   1  -9 1291.01 1615.66   1
  -4  -1   9 1545.82 1152.11   1
   0  -9   1 81371.7 7192.59   1
   0   9  -1 67938.3 6458.44   1
   0   9  -1 60987.3 7516.63   1
   3   5  -8 65223.0 6985.14   1
  -3  -5   8 85679.9 7675.55   1
  -1  -8   6 7531.72 2069.79   1
   1   8  -6 5324.92 2109.39   1
   1   8  -6 4890.04 1043.12   1
   3   4   4 152.460 383.100   1
   3   4   4 -20.950 217.930   1
   3   4   4 3107.86 1427.74   1
   5   0  -8 69978.2 7520.38   1
  -5   0   8 104959. 7325.71   1
  -5   0   8 59383.9 5159.71   1
   5   0  -8 69269.3 7129.09   1
  -4   1   9 4978.75 2358.88   1
   4  -1  -9 15609.1 3772.29   1
   4  -1  -9 8162.22 1994.73   1
  -4   1   9 12728.1 2729.82   1
  -1  -1  10 4644.11 2848.40   1
   1   1 -10 3205.13 2000.71   1
  -1  -1  10 4622.85 1347.05   1
  -2  -1  10 5421.73 1443.16   1
   2   1 -10 3546.25 1547.13   1
  -2  -1  10 3266.21 1675.45   1
   6   1  -1 937.600 296.160   1
   6   1  -1 54.8400 368.330   1
  -6  -1   1 1331.84 686.940   1
   6   1  -1 1398.11 1703.54   1
   3  -8  -4 1556.76 761.190   1
   3  -8  -4 568.910 307.220   1
  -3   8   4 -605.19 1365.34   1
  -5   7  -4 6993.14 1730.10   1
   5  -7   4 24245.8 4067.24   1
  -5   7  -4 18439.1 4347.05   1
   5  -7   4 9562.55 2637.16   1
   2   7   1 9246.14 2125.79   1
   2   7   1 13207.3 3360.54   1
   2   7   1 10841.9 2533.57   1
   2   6   3 4653.34 1077.42   1
   2   6   3 7278.67 2403.10   1
   2   6   3 11882.4 2472.97   1
   2   6   3 6299.76 661.080   1
  -6   3   6 1122.85 2641.98   1
   6  -3  -6 2726.62 1280.47   1
  -6   3   6 1280.57 557.210   1
   6  -3  -6 -154.86 1593.88   1
   6  -3  -6 1903.90 971.880   1
   2   2 -10 10289.5 3279.66   1
  -2  -2  10 15336.3 3571.04   1
  -2  -2  10 9378.04 3664.10   1
  -5  -1  -3 2499.15 561.300   1
   5   1   3 4625.76 2199.72   1
   5   1   3 7101.67 1780.54   1
   5   1   3 8648.32 1786.35   1
   1   0   9 3081.22 1374.50   1
  -1   0  -9 2047.16 849.130   1
   1   0   9 1181.56 2299.02   1
  -1   9   1 37615.2 6984.83   1
  -1   9   1 21796.1 5256.46   1
   1  -9  -1 22586.6 3497.03   1
   1  -9  -1 49568.8 7515.63   1
  -1  -3  10 32083.7 6165.11   1
   1   3 -10 25653.0 4840.03   1
  -1  -3  10 18845.5 3774.08   1
  -1  -3  10 18015.7 4817.41   1
   4   5  -6 4493.09 1946.84   1
  -4  -5   6 33476.1 5371.94   1
   4  -9  -1 18865.1 3876.37   1
  -4   9   1 13716.7 2556.74   1
   4  -9  -1 14842.5 3736.41   1
  -2  -5   9 32727.7 5882.81   1
   2   5  -9 20944.7 4212.16   1
   6  -6   2 5050.63 2703.59   1
   6  -6   2 6413.71 1977.31   1
  -6   6  -2 4468.21 1098.71   1
   3  -4   8 8984.32 2630.25   1
   3  -4   8 14151.4 3202.93   1
  -3   4  -8 11414.7 2931.53   1
   3  -4   8 8074.55 3321.86   1
   3  -7   7 7575.62 3208.24   1
  -3   7  -7 7883.68 2782.38   1
   3  -7   7 10475.0 2780.28   1
   3  -3   8 4524.96 1801.64   1
   3  -3   8 4146.21 1261.99   1
   3  -3   8 4763.01 2109.53   1
  -3   3  -8 4894.88 1781.39   1
   0   8  -7 4983.63 2577.21   1
   0  -8   7 5602.48 2597.72   1
   0  -8   7 5777.11 1826.08   1
   0   8  -7 2247.31 975.650   1
  -1   4   8 40409.2 6358.06   1
  -1   4   8 22640.8 5571.60   1
   1  -7  -5 47983.7 8027.47   1
  -1   7   5 49535.5 8015.00   1
  -1   7   5 30744.4 6295.87   1
  -6   7   1 328.060 752.610   1
   6  -7  -1 2791.80 1466.41   1
   6  -7  -1 3.66000 1486.68   1
   1   7   3 2106.45 606.530   1
   1   7   3 27642.9 5189.01   1
   1   7   3 15192.8 3006.30   1
   1   7   3 39249.5 6967.15   1
   6  -7   0 23040.5 4337.44   1
   6  -7   0 19307.2 4075.15   1
   3   2   6 2626.92 1024.01   1
   3   2   6 1034.24 812.030   1
  -3   9   2 -369.83 1786.29   1
   3  -9  -2 1401.53 1508.34   1
   3  -9  -2 1269.63 562.480   1
  -4   9  -3 25950.8 7091.54   1
   4  -9   3 29893.1 6854.31   1
   4  -9   3 33888.6 6013.61   1
  -5   2   8 29664.5 7153.44   1
  -5   2   8 20935.5 4745.80   1
   5  -2  -8 7110.61 3374.52   1
   5  -2  -8 20907.4 3951.20   1
  -2   8   4 12651.5 3589.07   1
   2  -8  -4 14134.0 4309.03   1
   0   6  -9 2862.93 2739.60   1
   0  -6   9 3142.92 1498.87   1
   0  -6   9 1988.52 1030.71   1
   5   2   2 7991.74 2821.26   1
   5   2   2 5060.82 1200.76   1
   5   2   2 5211.04 1581.58   1
   6   1  -5 6087.47 1812.80   1
   6   1  -5 10040.4 4728.06   1
   6   1  -5 3663.30 1249.11   1
  -6  -1   5 4419.31 2130.20   1
   4   4   2 1719.95 1613.19   1
   4  -8   5 7351.32 2533.17   1
   4  -8   5 10304.9 3140.64   1
  -4   8  -5 4825.52 1481.61   1
  -6   0   6 7067.72 3162.74   1
  -6   0   6 5576.35 1600.38   1
   6   0  -6 5606.21 1635.41   1
   6   0  -6 11185.3 3153.24   1
   6   0  -6 9984.68 3494.43   1
   4   5   0 2267.62 902.210   1
   4   5   0 5838.04 2844.58   1
   2  -9  -2 38987.8 6062.15   1
  -2   9   2 42387.8 7527.85   1
   2  -9  -2 26112.0 3911.70   1
   4  -4  -8 13365.1 2607.00   1
  -4   4   8 10348.7 2715.81   1
   4  -4  -8 6605.16 1892.50   1
   6  -5  -5 620.600 1389.79   1
   6  -5  -5 5205.79 1632.35   1
  -6   5   5 1207.32 603.080   1
  -2   0  10 2416.73 949.910   1
   2   0 -10 -828.00 1157.08   1
  -2   0  10 -280.47 1123.93   1
  -6   0  -1 16530.3 2568.53   1
   6   0   1 22277.5 3581.12   1
   6   0   1 10102.6 3365.70   1
   5  -2   5 889.360 432.110   1
  -5   2  -5 1372.71 945.860   1
   5  -2   5 1141.80 938.830   1
   5  -2   5 1848.09 2015.53   1
  -3  -4   9 5185.10 3843.46   1
   3   4  -9 -1798.3 2140.85   1
  -3  -4   9 3284.91 1831.55   1
   6  -4   3 8027.62 2866.72   1
   6  -4   3 3660.55 2034.62   1
   3   6   1 7802.71 2620.17   1
   3   6   1 13047.4 3569.53   1
   5   0   4 3075.28 908.390   1
   5   0   4 2120.83 759.940   1
   5   0   4 734.840 1929.72   1
   4  -7   6 33946.5 5741.80   1
  -4   7  -6 23649.3 4922.07   1
   4  -7   6 17422.7 3688.30   1
   2  -8   7 -235.08 1524.45   1
  -2   8  -7 -466.57 1049.54   1
   2  -8   7 1042.55 1611.37   1
   5  -8   3 93405.1 4634.36   1
  -5   8  -3 64144.1 13939.9   1
   5  -8   3 68955.1 12940.9   1
   0  -2  10 1225.05 2181.46   1
   0   2 -10 3674.23 1485.79   1
   5   4  -3 1110.42 2690.56   1
   5   4  -3 942.680 943.540   1
  -5  -4   3 308.970 238.590   1
  -3  -6   7 56350.7 8432.52   1
   3   6  -7 50591.8 8375.20   1
   2   7  -7 13588.1 786.390   1
   2   7  -7 25209.8 5123.04   1
  -2  -7   7 39128.0 6431.62   1
   0   3 -10 3651.16 1958.36   1
   0  -3  10 2809.34 2313.89   1
   0  -3  10 2330.80 900.530   1
   0  -3  10 5006.30 2725.59   1
   5   1  -8 6723.56 2472.82   1
  -5  -1   8 5646.30 1440.07   1
  -5  -1   8 11382.5 3439.51   1
  -5  -1   8 5632.39 2385.37   1
   2  -3   9 12640.1 3120.73   1
   2  -3   9 21132.3 3987.35   1
  -2   3  -9 16137.5 3614.44   1
   2  -3   9 15045.0 3900.22   1
   1   8   1 2920.88 529.890   1
  -1  -8  -1 5117.46 1421.16   1
   1   8   1 5294.37 3518.38   1
   1   8   1 4188.82 1317.39   1
  -1  -7   8 36528.5 5593.03   1
   6  -1   2 2300.29 407.100   1
   6  -1   2 3254.61 1013.81   1
   6  -1   2 5217.40 3304.78   1
  -4  -2   9 44803.4 9312.03   1
  -4  -2   9 74193.5 12977.6   1
   4   2  -9 70018.8 10859.8   1
   3  -5   8 24557.2 4624.00   1
  -3   5  -8 15695.4 3851.34   1
   3  -5   8 23292.6 4837.77   1
   3  -5   8 19183.9 4216.97   1
  -2  -3  10 2282.53 1180.04   1
  -2  -3  10 5261.35 2596.04   1
   2   3 -10 260.930 1334.49   1
  -2  -3  10 2207.31 2278.44   1
  -6   6   4 1732.98 714.290   1
   6  -6  -4 371.710 1206.26   1
   6  -6  -4 427.640 875.750   1
   0  -9   5 4468.28 1615.66   1
   0   9  -5 5828.81 3130.96   1
   5   4  -4 13910.0 3180.37   1
  -5  -4   4 14979.7 2267.33   1
   5   4  -4 8865.43 2320.58   1
   6  -7  -2 88168.6 18482.8   1
  -6   7   2 93761.8 1903.59   1
   6  -7  -2 115744. 4608.27   1
  -6   7  -1 1091.70 585.270   1
   6  -7   1 1347.71 1741.74   1
  -6   7  -1 666.030 261.780   1
   6  -7   1 11597.0 3679.60   1
   5  -6   5 5833.84 2181.74   1
   5  -6   5 4316.53 2580.85   1
  -5   6  -5 3704.78 2813.60   1
  -2   4  -9 4118.26 1647.96   1
   2  -4   9 4509.88 1569.70   1
   2  -4   9 4471.51 1958.95   1
   2  -4   9 2613.33 1334.21   1
  -4   4  -7 1733.16 922.330   1
   4  -4   7 639.720 725.980   1
   4  -4   7 5814.58 2923.85   1
   4  -4   7 -423.94 1096.56   1
   6  -3   3 780.110 1749.85   1
   6  -3   3 2831.22 1113.46   1
  -3   2  -8 22094.8 4499.17   1
   3  -2   8 26246.4 4848.75   1
   3  -2   8 23133.8 3987.13   1
   3  -2   8 11851.2 3674.14   1
  -1   0  10 16572.6 4129.15   1
  -1   0  10 37358.9 8842.51   1
   1   0 -10 22810.1 4174.94   1
  -2   3   9 6418.47 1743.38   1
   2  -3  -9 6854.99 2244.93   1
  -2   3   9 5708.63 1919.93   1
  -2   3   9 8939.95 3666.25   1
   3   7  -3 5202.68 1409.75   1
   3   7  -3 9723.14 3078.07   1
  -3  -7   3 11853.4 2487.54   1
  -3  -7   3 4312.00 1235.47   1
   6  -5   3 3967.77 3334.20   1
   6  -5   3 1485.15 1251.04   1
   4  -2  -9 25405.8 5771.40   1
   4  -2  -9 19457.0 3704.97   1
  -4   2   9 18225.5 3978.62   1
  -4   2   9 27420.4 5363.16   1
   2   8  -3 1842.48 838.720   1
   2   8  -3 6517.52 2949.28   1
  -2  -8   3 3573.01 1227.94   1
  -1  -6   9 69006.1 10562.5   1
  -1  -6   9 59127.3 9640.56   1
  -4   8   4 5529.77 2709.66   1
   4  -8  -4 3526.95 1466.74   1
   4  -8  -4 1054.22 478.320   1
   0   9   0 61014.5 9671.30   1
   0  -9   0 85523.9 12617.9   1
   3  -9   5 4365.65 2785.74   1
   3  -9   5 2876.08 1621.63   1
  -3   9  -5 894.740 2161.20   1
   1  -6   9 34794.3 6412.65   1
   1  -6   9 28688.6 5953.22   1
   1  -6   9 38396.0 7048.81   1
  -1   6  -9 25697.8 5482.69   1
   3   5   3 19151.6 3734.21   1
   3   5   3 16753.8 2474.64   1
   3   5   3 12806.5 3242.97   1
   3   5   3 15008.5 2213.80   1
   1   4 -10 2004.40 1900.09   1
  -1  -4  10 -155.04 1469.72   1
  -1  -4  10 1294.84 1567.93   1
   4  -3   7 7446.34 3598.27   1
  -4   3  -7 2775.13 1026.04   1
   4  -3   7 4937.96 1346.75   1
   4  -3   7 3026.17 1692.24   1
   5   4  -2 1932.60 1448.82   1
   5   4  -2 2863.99 2966.52   1
  -3  -7   4 16034.0 2554.52   1
   3   7  -4 14388.8 3416.91   1
  -3   3   9 24786.2 4874.47   1
   3  -3  -9 14249.1 3657.85   1
  -3   3   9 11394.0 3329.40   1
   3  -3  -9 24373.7 4930.40   1
   4   0   6 4124.32 1531.40   1
   4   0   6 -152.90 1695.25   1
   4   0   6 4737.95 1627.03   1
   2  -7   8 -561.80 1580.20   1
   2  -7   8 2927.04 2261.43   1
  -2   7  -8 249.560 1009.47   1
  -2  -8   4 66120.6 9702.07   1
   2   8  -4 -254.32 416.310   1
   6  -4  -6 3464.09 3267.53   1
  -6   4   6 2825.75 691.460   1
   6  -4  -6 1623.34 840.540   1
   6  -4  -6 1825.16 1437.99   1
  -2   2  -9 6977.40 2023.72   1
   2  -2   9 7591.11 2248.69   1
   2  -2   9 1895.80 1114.61   1
   2  -2   9 7462.86 2990.54   1
   2   1   8 4186.64 1957.61   1
   2   1   8 3198.15 1174.44   1
  -5   8   3 21087.9 3664.17   1
   5  -8  -3 21973.5 4671.81   1
   5  -8  -3 27888.2 5054.79   1
  -6  -1   0 1420.70 546.600   1
   6   1   0 -354.24 1602.35   1
   6   1   0 2416.82 565.990   1
   4  -5   7 1234.38 1283.09   1
   4  -5   7 1696.66 805.870   1
  -4   5  -7 4053.37 2045.38   1
   4  -5   7 482.000 1507.44   1
   0   1 -10 46028.6 9908.36   1
   0  -1  10 79049.2 13049.6   1
   0  -1  10 46696.4 8301.53   1
  -2  -8   2 13154.3 866.280   1
   2   8  -2 15685.1 3434.79   1
  -3  -1  10 5033.73 1909.63   1
  -3  -1  10 4648.37 1707.97   1
   3   1 -10 1500.58 1505.29   1
  -3  -1  10 233.090 368.700   1
   0  -4  10 2741.48 2036.12   1
   0  -4  10 -543.34 1963.25   1
   0   4 -10 1128.95 1591.44   1
   0  -4  10 3351.62 2494.84   1
  -4  -4   8 25758.6 5642.70   1
   4   4  -8 23047.1 5182.21   1
   1  -9   6 76119.2 11527.8   1
  -1   9  -6 71767.1 11485.5   1
   1  -9   6 78226.4 13850.4   1
   3   7  -2 3231.37 2006.70   1
   4  -9  -2 26214.3 4702.24   1
  -4   9   2 26504.5 4889.25   1
   0  -2  -9 59464.1 9356.76   1
   0   2   9 34681.2 7696.09   1
   0   2   9 68110.2 12397.2   1
   1   5   6 22284.4 6205.96   1
   1   5   6 28477.3 5223.89   1
   1   5   6 9366.67 2376.29   1
  -5   3   8 24696.4 4233.18   1
   5  -3  -8 18776.7 3604.91   1
   5  -3  -8 33490.9 6462.43   1
  -5   3   8 13291.1 3691.03   1
  -5  -4   5 2580.72 640.800   1
   5   4  -5 1666.17 632.020   1
  -5  -4   5 2602.54 1504.59   1
   5   4  -5 8026.21 3355.17   1
   5   3   1 4193.02 1507.40   1
   5   3   1 2822.10 2043.01   1
   5  -6  -6 8757.65 2645.97   1
   5  -6  -6 23109.9 4741.24   1
  -5   6   6 14239.6 2768.73   1
  -3   0  10 3364.81 1302.29   1
  -3   0  10 2896.12 1685.78   1
   3   0 -10 2210.56 1196.29   1
  -3   6   7 8731.72 3385.99   1
   3  -6  -7 17736.4 7260.35   1
  -3   6   7 17314.0 3358.85   1
  -6  -2   3 17958.3 2789.19   1
  -6  -2   3 11231.0 3042.28   1
   6   2  -3 7519.41 2252.68   1
   6   2  -3 10297.6 3061.33   1
   2  -5   9 70291.7 10747.9   1
   2  -5   9 77839.1 11887.8   1
  -2   5  -9 59155.7 11667.3   1
   2  -5   9 86278.8 15192.3   1
   5   3  -7 105.570 2058.66   1
  -5  -3   7 3330.15 937.060   1
   2  -9   6 1419.71 1837.71   1
  -2   9  -6 1334.71 1544.42   1
   2  -9   6 1778.25 1288.61   1
   1   4   7 17504.7 4326.19   1
  -3  -2  10 8544.13 2675.59   1
  -3  -2  10 3245.69 862.660   1
  -3  -2  10 2364.87 597.200   1
   3   2 -10 3294.36 1615.63   1
  -3  -2  10 9876.02 3030.78   1
  -3  -7   5 10577.8 2474.55   1
   3   7  -5 2267.67 620.030   1
   3   7  -5 7794.45 3342.76   1
   4  -9   4 3188.84 1418.44   1
   4  -9   4 4914.97 2572.23   1
  -4   9  -4 6493.22 2514.81   1
  -2   1  10 4980.69 1938.95   1
  -2   1  10 4259.49 1773.68   1
   2  -1 -10 1008.09 914.090   1
   3   1   7 4457.95 1405.69   1
   3   1   7 2259.44 1398.37   1
   6  -2   3 2181.62 1721.98   1
   6  -2   3 1765.12 308.130   1
   6  -2   3 3308.82 1899.33   1
   2 -10   2 830.460 1230.96   1
  -2  10  -2 -1095.5 1202.50   1
   0   8   3 45582.6 7383.91   1
   0   8   3 71097.2 11260.3   1
   0  -8  -3 67410.9 11317.5   1
   6   2  -4 4796.90 3105.21   1
  -6  -2   4 4469.40 1108.52   1
  -6  -2   4 3205.96 1041.93   1
   6   2  -4 4041.70 1469.14   1
  -6  -1   6 207.660 693.090   1
   6   1  -6 1428.73 736.050   1
   6   1  -6 10365.7 3696.09   1
   6   1  -6 9870.03 2456.57   1
  -3   7   6 4634.21 2608.91   1
  -3   7   6 8830.13 2631.22   1
   3  -7  -6 5968.97 1832.51   1
   6  -7  -3 4698.47 2157.06   1
  -6   7   3 1327.51 675.540   1
   6  -7  -3 4884.61 2683.27   1
  -2  -8   5 19657.8 3372.23   1
   2   8  -5 13053.8 3259.89   1
   4  -2   7 31771.1 5719.75   1
   4  -2   7 36812.9 6014.33   1
   4  -2   7 20042.8 5391.11   1
   6  -7   2 7143.98 2763.93   1
  -6   7  -2 11218.8 2706.53   1
  -6   7  -2 6505.01 1718.50   1
   6  -7   2 19844.7 4299.02   1
   4   5  -7 4653.58 2830.82   1
  -4  -5   7 4011.27 1628.68   1
   6   2  -2 1134.87 1593.42   1
   6   2  -2 957.670 710.920   1
  -6  -2   2 1679.45 370.780   1
  -6  -2   2 2992.49 1236.52   1
   6   2  -2 1871.39 2011.15   1
  -6   6  -3 8541.69 1804.24   1
   6  -6   3 26740.7 5203.13   1
   6  -6   3 25383.6 5120.25   1
   5  -7  -5 26211.8 5361.52   1
  -5   7   5 14267.5 2653.91   1
  -5   5   7 15816.9 2788.52   1
  -5   5   7 9473.67 3675.67   1
   5  -5  -7 19014.3 3835.35   1
   5  -5  -7 16118.6 3425.62   1
  -1  -8   7 15.3900 1335.63   1
   1   8  -7 4970.14 4069.62   1
   1   8  -7 508.290 374.420   1
  -2   6   7 29465.8 5198.01   1
   2  -6  -7 32253.3 6565.11   1
   3  -6   8 15521.6 3481.29   1
  -3   6  -8 4245.45 1963.70   1
   3  -6   8 12644.8 3149.72   1
   3  -6   8 2824.01 3014.98   1
   1  -3  -9 24171.5 4523.39   1
  -1   3   9 34420.0 6155.24   1
  -1   3   9 19868.1 5182.07   1
  -1   8   4 43043.0 7393.15   1
   1  -8  -4 45910.3 7480.04   1
   2   4   6 15759.8 3368.30   1
   2   4   6 12747.3 3613.67   1
   6  -1  -7 11533.1 3282.53   1
  -6   1   7 7500.19 2485.03   1
   6  -1  -7 6089.70 2809.82   1
   6  -1  -7 3782.09 1368.95   1
   0   5   7 12362.4 3549.79   1
   0   5   7 10902.6 2898.61   1
   7  -3  -2 7017.19 2608.53   1
   7  -3  -2 5486.30 1910.32   1
  -6   2   7 9288.35 2479.76   1
  -6   2   7 12767.4 4020.17   1
   6  -2  -7 11387.9 2890.25   1
   1   6   5 18587.3 4007.75   1
   1   6   5 14475.9 3847.61   1
   5   4  -1 2956.86 1320.79   1
   5   4  -1 6395.06 2762.36   1
   5   4  -1 8066.95 2647.82   1
   2 -10   3 3958.26 2385.17   1
  -2  10  -3 1351.39 1567.08   1
   2 -10   3 3936.08 1708.59   1
   1  -9  -2 19588.9 3739.00   1
  -1   9   2 2319.52 1037.30   1
  -1   9   2 13038.4 3720.33   1
   2 -10   1 2113.22 1036.88   1
  -2  10  -1 3362.41 2155.89   1
  -2  10  -1 1798.41 1180.52   1
   5  -1   5 2585.19 1494.44   1
   5  -1   5 549.230 1992.31   1
   5  -1   5 -32.630 437.200   1
   2   4 -10 18039.5 3553.63   1
  -2  -4  10 19258.2 3342.67   1
  -2  -4  10 25591.7 5303.64   1
   5   2  -8 56406.0 9557.44   1
  -5  -2   8 40971.9 10585.6   1
  -1  -1  -9 28688.4 6140.74   1
   1   1   9 46937.4 7268.01   1
   1   1   9 26876.7 5316.75   1
   0   6   6 17920.4 3898.40   1
   0  -6  -6 17522.2 3411.80   1
   3 -10   2 13233.1 3394.46   1
  -3  10  -2 9543.78 2713.03   1
   3 -10   2 8303.26 2757.34   1
   3  -1   8 3238.40 1356.80   1
   3  -1   8 1491.93 545.560   1
  -3   1  -8 2816.30 940.230   1
   3  -1   8 1108.72 1877.61   1
   7  -4  -2 3923.45 1804.66   1
   7  -4  -2 2268.52 2054.55   1
  -2  -8   1 15039.2 2372.95   1
   2   8  -1 9467.91 3294.65   1
   2   8  -1 8580.93 2528.34   1
   3 -10   1 9831.90 3530.79   1
  -3  10  -1 2700.72 2376.89   1
  -3  10  -1 7805.92 2220.09   1
   3 -10   1 6887.20 2139.52   1
  -5   9   0 2940.03 1438.13   1
   5  -9   0 5792.56 2331.60   1
   5  -9   0 3790.76 1661.59   1
   4   6  -3 6045.10 2430.28   1
   5  -9   1 -1485.4 1850.49   1
   5  -9   1 2749.50 1424.93   1
  -5   9  -1 -291.24 1237.04   1
  -3   5   8 2165.01 2034.30   1
   3  -5  -8 3290.77 1334.30   1
   3  -5  -8 445.320 427.850   1
  -3   5   8 4319.56 3069.79   1
   2   5   5 9591.07 2635.14   1
   2   5   5 8832.36 2183.93   1
   2   5   5 9315.62 2943.24   1
  -1  -9   3 7053.45 2258.02   1
   1   9  -3 1004.16 1280.94   1
   7  -3  -3 1181.21 700.290   1
   7  -3  -3 4465.89 1467.25   1
   4   6  -4 823.180 1840.46   1
  -4  -6   4 1749.25 593.170   1
  -4  -3   9 678.140 829.080   1
  -4  -3   9 6599.66 3167.25   1
   4   3  -9 1187.86 2090.59   1
   4  -6   7 5266.74 2444.73   1
  -4   6  -7 5791.95 2124.15   1
   4  -6   7 5033.20 2713.65   1
   2  -1   9 2062.57 1589.02   1
   2  -1   9 1040.83 1546.75   1
   2  -1   9 553.910 446.940   1
  -2   1  -9 807.370 699.440   1
   3   7  -1 4770.64 2005.70   1
   3   7  -1 15544.2 3072.73   1
  -2   7   6 6968.22 2590.80   1
   2  -7  -6 10014.8 2648.42   1
  -2   7   6 5666.68 2578.75   1
   7  -3  -1 5704.85 2086.83   1
   7  -3  -1 9605.87 2696.63   1
   7  -4  -1 21577.9 4620.22   1
   7  -4  -1 19499.9 3726.37   1
   0   9  -6 7573.08 3402.73   1
   0  -9   6 3878.55 1891.70   1
   3  -9  -3 2142.48 1359.14   1
  -3   9   3 536.990 1739.00   1
   3  -9  -3 1173.62 538.520   1
   2   7   2 6892.69 3129.74   1
  -3   1  10 -1266.1 1920.26   1
   3  -1 -10 1313.82 1419.25   1
  -3   1  10 2020.87 953.590   1
  -1   1  10 19611.5 3948.67   1
   1  -1 -10 440.590 482.330   1
   4   5   1 1226.15 1415.56   1
   4   5   1 1257.07 1140.98   1
   5  -8   4 -1.5700 1894.28   1
  -5   8  -4 5075.45 2397.34   1
   5  -8   4 3016.69 2279.18   1
  -2   5   8 2167.43 1584.66   1
  -2   5   8 3782.84 1371.62   1
   2  -5  -8 9591.10 2570.07   1
   7  -2  -2 831.440 1032.75   1
   7  -2  -2 758.130 1655.57   1
   5  -7   5 23193.9 4498.71   1
   5  -7   5 20193.5 4499.29   1
  -5   7  -5 20087.6 6013.59   1
   0   0  10 -982.37 1862.12   1
   0   0  10 2802.50 948.330   1
   0   0 -10 2462.88 844.090   1
   1   9  -2 12646.2 3186.55   1
  -1  -9   2 18600.1 3113.22   1
  -1  -9   4 13553.3 1835.31   1
   1   9  -4 8983.75 2697.11   1
   7  -2  -3 19797.4 4166.67   1
   7  -2  -3 16416.3 5148.07   1
   7  -4  -3 11951.5 3333.34   1
   7  -4  -3 19411.3 3407.67   1
   4  -6  -7 10520.5 2421.04   1
  -4   6   7 4444.12 2757.89   1
  -4   6   7 5049.08 1675.13   1
   4  -6  -7 5819.25 3113.27   1
   4   3   4 424.220 435.970   1
   4   3   4 1948.73 1584.29   1
  -4   3   9 1280.77 1245.26   1
   4  -3  -9 1174.24 1540.75   1
  -4   3   9 1111.66 1276.04   1
   4  -3  -9 1705.69 698.920   1
   6   2  -5 13640.4 1548.99   1
  -6  -2   5 16487.3 3575.70   1
   2   3   7 7670.61 2707.22   1
   2   3   7 14770.5 3014.29   1
   6   0  -7 14203.5 2883.61   1
  -6   0   7 15107.0 3264.34   1
   6   0  -7 14061.4 3626.84   1
   6   0  -7 9929.16 2774.62   1
  -6   0   7 5441.07 1447.34   1
  -6   0   7 12535.6 3531.60   1
   1  -3  10 11460.6 2878.16   1
  -1   3 -10 11397.9 3386.62   1
   1  -3  10 7714.32 3398.01   1
   1  -3  10 16568.9 3662.97   1
   3 -10   3 11230.2 3657.13   1
  -3  10  -3 11637.0 3391.47   1
   3 -10   3 19163.8 3964.51   1
   0  -5  10 1608.34 1370.32   1
   0   5 -10 1820.87 1928.39   1
   0  -5  10 2403.25 1705.05   1
   0  -5  10 1566.56 1402.01   1
  -6   3   7 11577.6 3998.67   1
   6  -3  -7 12377.2 3680.60   1
   6  -3  -7 12225.9 3291.83   1
  -6   3   7 14104.3 2744.92   1
   0  -9  -1 4847.55 1491.39   1
   0   9   1 6056.80 2324.50   1
  -1  -5  10 15665.9 3431.93   1
  -1  -5  10 13070.3 3425.06   1
   1   5 -10 8615.12 3450.11   1
  -1  -5  10 14951.7 3099.13   1
   4   6  -2 1165.29 1670.42   1
   4   6  -2 -1440.4 1403.65   1
   5   4  -6 22719.4 5364.54   1
   5   4  -6 9670.98 1997.10   1
  -5  -4   6 15997.6 3266.08   1
   4   2   5 4644.89 1430.79   1
  -4   7   6 34668.4 5717.44   1
   4  -7  -6 42272.6 7901.98   1
   4  -7  -6 27958.2 4352.00   1
   5  -9  -1 22151.7 4695.62   1
  -5   9   1 20312.6 3830.26   1
   5  -9  -1 31379.3 5336.51   1
  -1  10  -2 477.270 597.760   1
   1 -10   2 1324.29 1453.01   1
   6   0   2 1999.92 475.910   1
   6   0   2 4251.40 2806.57   1
   6   0   2 2495.37 667.520   1
  -3  -3  10 17935.7 4349.99   1
   3   3 -10 13666.9 2352.14   1
  -3  -3  10 15371.3 4651.72   1
   1 -10   3 29040.5 4871.76   1
  -1  10  -3 18447.3 3738.55   1
   0   4   8 16379.8 3185.79   1
   0   4   8 9169.94 2615.34   1
   5  -9   2 28709.2 5300.09   1
  -5   9  -2 30102.4 5409.95   1
  -5   9  -2 26417.5 4859.55   1
   5  -9   2 27898.0 5695.82   1
  -6   6   5 4481.86 997.970   1
   6  -6  -5 13577.5 2937.19   1
   6  -6  -5 8156.60 3039.13   1
   3 -10   0 6181.80 2212.83   1
  -3  10   0 8162.42 2760.58   1
  -3  10   0 6497.11 1777.00   1
   1   3   8 7677.06 2880.75   1
   1   3   8 15552.5 4424.99   1
   6   2  -1 3740.25 1846.31   1
   6   2  -1 7405.43 1725.81   1
   3  -8   7 9250.97 3314.01   1
  -3   8  -7 3955.46 1716.18   1
   3  -8   7 7287.93 2849.10   1
   2  -9  -3 1980.03 898.230   1
  -2   9   3 -29.440 2172.15   1
  -1   8  -8 1655.19 1698.73   1
   1  -8   8 1883.15 1691.61   1
   1  -8   8 -438.49 1589.33   1
   2 -10   4 23436.2 4599.40   1
   4   6  -5 4049.06 1957.27   1
  -2  -6   9 2699.91 1484.71   1
   2   6  -9 1304.32 1642.04   1
  -2  10   0 494.010 1908.13   1
  -2  10   0 3542.01 736.190   1
   2 -10   0 3050.80 1319.60   1
   1  -2  10 55143.2 9316.73   1
   1  -2  10 76396.8 12094.8   1
   1  -2  10 87047.0 12389.1   1
  -1   2 -10 65019.1 14369.5   1
  -6   5   6 8765.09 1918.23   1
   6  -5  -6 5291.86 2182.86   1
   6  -5  -6 1655.38 1114.66   1
   6  -5  -6 9925.35 2426.29   1
   1  -4  10 4808.16 1728.87   1
   1  -4  10 3961.76 2773.07   1
  -1   4 -10 5254.67 1674.92   1
   1  -4  10 7114.48 2005.42   1
   5  -4   6 634.730 427.930   1
   5  -4   6 1129.60 819.270   1
  -3  -7   6 1931.85 751.350   1
   3   7  -6 5192.53 3071.78   1
   7  -2  -1 2585.55 1920.25   1
   7  -2  -1 1069.90 1018.11   1
   7  -5  -2 32620.8 5540.29   1
   7  -5  -2 22965.5 5656.97   1
   1   8   2 -456.74 427.860   1
   1   8   2 33477.0 5864.37   1
   1   8   2 23931.3 4213.65   1
   7  -5  -1 7261.88 2104.31   1
   7  -5  -1 4742.38 2267.54   1
   3  -8  -5 1490.96 1147.67   1
  -3   8   5 52.8800 1469.11   1
   7  -3  -4 35978.2 6469.85   1
   7  -3  -4 21516.7 5938.39   1
   6  -8   0 661.600 1301.91   1
  -6   8   0 3535.68 1737.15   1
   6  -8   0 319.300 873.130   1
   3   6   2 7473.68 2213.31   1
   3   6   2 8283.14 2494.49   1
   3   5  -9 -741.39 2026.39   1
  -3  -5   9 1352.07 1397.18   1
   2  -6   9 -400.54 1753.94   1
  -2   6  -9 456.560 1412.37   1
   2  -6   9 2195.86 1505.91   1
   2  -6   9 3597.17 2392.21   1
   0  -8   8 30204.2 6660.06   1
   0   8  -8 34945.5 6860.60   1
   0  -8   8 35208.1 6136.61   1
   6   1   1 53104.4 8131.33   1
   6   1   1 40114.7 6264.66   1
   6   1   1 34964.5 6677.55   1
   7  -4   0 16799.8 4115.68   1
   7  -4   0 15000.6 3008.86   1
   0   7  -9 1908.42 2042.63   1
   0  -7   9 2298.91 1466.39   1
   0  -7   9 3344.29 1137.26   1
   0   7   5 16791.2 3662.69   1
   0  -7  -5 20516.2 3800.26   1
   0   7   5 15032.9 4205.79   1
   4  -8   6 1439.50 1269.65   1
  -4   8  -6 -303.15 1797.80   1
   4  -8   6 2251.92 2333.76   1
  -3  -6   8 5976.36 1623.55   1
   3   6  -8 1937.41 2368.11   1
   6  -8  -1 59402.9 12172.0   1
  -6   8   1 79515.7 8749.19   1
   6  -8  -1 102161. 11589.5   1
   5   2   3 752.460 358.350   1
   5   2   3 1246.60 987.670   1
   5   2   3 -214.59 1793.25   1
   7  -2  -4 6023.72 1518.78   1
   7  -2  -4 4430.53 1657.79   1
   5  -5   6 1180.87 1907.02   1
  -5   5  -6 10167.4 3188.76   1
   5  -5   6 9611.68 2288.74   1
  -2  -8   6 935.980 976.010   1
   2   8  -6 75.2600 1782.09   1
   7  -3   0 -1919.4 2163.72   1
   7  -3   0 934.960 888.590   1
  -2  -7   8 11328.4 2950.10   1
   2   7  -8 8208.81 2468.67   1
   6  -4   4 -455.11 1316.33   1
   6  -4   4 2758.62 1773.73   1
   4  -9  -3 1614.05 1147.36   1
  -4   9   3 438.070 1440.25   1
   1 -10   1 10650.5 2242.91   1
  -1  10  -1 17566.2 4612.38   1
  -1  10  -1 9518.73 2242.88   1
  -5   8   4 7647.74 1912.21   1
   5  -8  -4 11849.8 3042.42   1
  -5   4   8 6537.77 3557.48   1
   5  -4  -8 6341.39 1829.21   1
  -5   4   8 9713.12 2032.14   1
   5  -4  -8 11136.9 2624.51   1
   5   1   4 1970.18 692.490   1
   5   1   4 2681.61 1790.23   1
   5   1   4 3432.43 899.260   1
   3  -9   6 -244.42 1722.52   1
  -3   9  -6 3897.98 1978.89   1
   3  -9   6 2433.76 2139.62   1
   4  -5  -8 7111.87 4222.08   1
  -4   5   8 4399.38 2780.76   1
   4  -5  -8 1216.62 1051.00   1
  -4   5   8 3593.11 1265.47   1
   6  -1   3 27070.0 4732.30   1
   6  -1   3 17653.9 3159.89   1
   6  -1   3 8559.48 3312.87   1
   2   6   4 5470.26 1398.79   1
   2   6   4 1272.69 1357.48   1
   2   6   4 6258.88 1519.72   1
   1   9  -1 83855.8 10269.6   1
  -1  -9   1 83268.5 10025.7   1
   1   9  -1 71162.5 11164.8   1
  -1  -9   5 5876.70 1767.12   1
   1   9  -5 3483.46 1766.53   1
   4   4   3 5007.77 1672.94   1
   1 -10   4 6080.14 2872.10   1
  -1  10  -4 2021.08 1489.32   1
   5  -3   6 1663.81 1596.58   1
   5  -3   6 847.140 436.080   1
   5  -3   6 492.860 2123.25   1
   6  -8   1 565.270 2417.51   1
  -6   8  -1 3863.39 1221.27   1
   4  -1   7 7175.71 1689.03   1
   4  -1   7 4156.01 1828.19   1
   4  -1   7 5012.40 1349.53   1
   1  -7   9 -457.05 1557.56   1
   1  -7   9 532.810 1176.48   1
  -1   7  -9 2814.13 1787.96   1
  -5   0   9 6225.04 2414.06   1
   5   0  -9 7554.04 2991.73   1
  -5   0   9 4221.68 1276.59   1
   6  -5   4 3186.67 1026.87   1
   6  -5   4 1254.96 2189.76   1
   5  -1  -9 16791.5 3569.08   1
  -5   1   9 17566.6 3895.70   1
   5  -1  -9 7811.30 2923.30   1
  -5   1   9 13588.5 3074.87   1
   7  -4  -4 27058.9 4892.44   1
  -7   4   4 13883.0 2984.20   1
   7  -4  -4 4942.35 1523.34   1
   7  -1  -3 3587.26 802.920   1
   7  -1  -3 1709.55 1703.72   1
   6  -7  -4 9225.55 2579.73   1
   6  -7  -4 10006.1 2667.88   1
  -6   7   4 9538.46 1982.44   1
  -1  -7  -4 14448.0 3078.80   1
   1   7   4 15979.6 3781.96   1
   5   4   0 791.020 1163.94   1
   5   4   0 1741.47 1336.38   1
   7  -5  -3 22539.3 3870.62   1
  -7   5   3 13692.0 2796.96   1
   7  -5  -3 12690.3 3243.62   1
   7  -5   0 9693.83 3098.54   1
   7  -5   0 1602.91 1727.96   1
   2  -8  -5 6658.91 2159.80   1
  -2   8   5 4440.97 1909.08   1
   6  -7   3 9711.63 2985.52   1
   6  -7   3 12716.5 3831.40   1
   7  -1  -2 386.300 777.350   1
   7  -1  -2 1501.16 1764.13   1
   2  -2 -10 1526.30 1489.83   1
  -2   2  10 -330.50 1692.62   1
  -2   2  10 1741.25 786.770   1
   1  -6  -7 15731.0 3671.76   1
  -1   6   7 10747.3 3551.89   1
  -1   6   7 15651.8 3525.01   1
   2   8   0 2981.68 1136.72   1
   2   8   0 4746.86 2726.66   1
   4 -10   1 2418.61 1324.23   1
   4 -10   1 3494.41 2153.90   1
  -4  10  -1 4682.76 1937.46   1
  -4  10  -1 5530.47 2969.63   1
   3 -10   4 3704.21 2709.32   1
  -3  10  -4 2606.32 1656.76   1
   3 -10   4 3662.07 1613.10   1
   6  -3   4 1514.76 1670.83   1
   6  -3   4 1051.89 324.480   1
   3   4   5 485.930 1020.08   1
   3   4   5 2447.14 1028.57   1
   4   1   6 22586.1 3842.79   1
   4   1   6 32250.9 5549.21   1
  -3   4   9 10909.9 2891.37   1
   3  -4  -9 6859.09 1502.21   1
  -3   4   9 14855.5 3752.62   1
   3  -4  -9 13099.1 3277.52   1
   4  -9   5 30501.7 6859.58   1
  -4   9  -5 25690.8 6859.42   1
   4  -9   5 37021.0 6590.18   1
   1  -9   7 863.790 1170.01   1
  -1   9  -7 4107.44 2713.58   1
   1  -9   7 4124.96 2156.04   1
   4   6  -1 644.610 1279.83   1
   4   6  -1 -574.56 1202.28   1
  -4   8   5 33880.0 6256.03   1
   4  -8  -5 43184.1 8149.68   1
   4  -8  -5 23263.8 3840.72   1
   5  -9  -2 10716.3 3018.99   1
  -5   9   2 5869.01 2079.24   1
   5  -9  -2 8729.56 2800.80   1
   4 -10   2 9384.18 2713.21   1
  -4  10  -2 7362.46 1986.74   1
  -4  10  -2 3448.17 1727.98   1
   4 -10   2 2728.40 1064.03   1
   3   3   6 5264.14 1643.23   1
   3   3   6 3208.99 815.290   1
   2  -4  -9 5568.02 1649.02   1
  -2   4   9 2523.76 1784.65   1
   2  -4  -9 867.530 549.220   1
  -2   4   9 1761.54 1680.47   1
   4   0 -10 32697.3 5995.67   1
  -4   0  10 22794.2 6582.42   1
  -4   0  10 36633.8 7063.98   1
   3   7   0 3254.19 2062.87   1
   3   7   0 2963.72 1863.51   1
   3  -7   8 1767.34 2028.35   1
   3  -7   8 5238.32 3660.43   1
  -3   7  -8 4245.14 1286.86   1
   6  -8  -2 1101.78 1356.88   1
  -6   8   2 -358.43 711.670   1
   6  -8  -2 2731.62 1723.31   1
   6   1  -7 25066.9 4771.99   1
   6   1  -7 11142.4 4524.12   1
   6   1  -7 3931.42 1032.17   1
  -6  -1   7 4355.99 1998.19   1
  -1   1 -10 3330.61 1803.01   1
   1  -1  10 10533.5 2548.23   1
   1  -1  10 6151.90 2220.52   1
  -5   9  -3 -466.61 2012.36   1
   5  -9   3 941.990 1948.82   1
   5  -9   3 1374.44 2573.22   1
  -3   2  10 26988.1 6397.51   1
   3  -2 -10 29060.5 5777.20   1
  -3   2  10 39844.3 7774.65   1
   1  -5  10 716.050 1378.92   1
  -1   5 -10 1046.91 780.070   1
   1  -5  10 297.930 817.440   1
   1  -5  10 -1188.5 1378.36   1
   6   2  -6 2973.97 1740.64   1
  -6  -2   6 7533.58 2053.96   1
   6   2  -6 3975.30 1041.56   1
   5   3   2 1945.16 985.810   1
  -2   8  -8 6062.78 1831.66   1
   2  -8   8 8244.18 2829.54   1
   2  -8   8 6375.26 2002.96   1
  -3  10   1 11642.6 3511.30   1
  -3  10   1 14992.0 3941.14   1
   3 -10  -1 17234.8 3499.80   1
  -4  -1  10 7976.06 2507.25   1
  -4  -1  10 4318.92 1022.63   1
   4   1 -10 417.200 1791.15   1
   7  -1  -4 14427.5 2811.48   1
   7  -1  -4 11758.7 2719.68   1
   7  -1  -4 10655.3 3938.62   1
  -6   4   7 1558.42 613.100   1
   6  -4  -7 534.950 763.880   1
  -6   4   7 -56.520 1945.34   1
   6  -4  -7 2932.84 2588.33   1
   7  -2   0 12229.1 3595.55   1
   7  -2   0 14231.3 3026.36   1
   4  -7   7 3937.53 2309.03   1
  -4   7  -7 887.310 2123.85   1
   4  -7   7 2731.63 2930.32   1
  -4  -6   6 2932.15 971.780   1
   4   6  -6 3284.91 2941.10   1
   4   6  -6 -93.710 176.660   1
  -1   5   8 3116.73 2129.16   1
   1  -5  -8 1827.29 957.600   1
  -1   5   8 1984.33 1160.05   1
  -4  10   0 35770.5 6315.72   1
  -4  10   0 33267.7 5973.41   1
   4 -10   0 43327.5 7300.31   1
   4 -10   0 28480.1 6671.08   1
  -1  -7   9 3698.54 1848.00   1
  -1  -7   9 737.990 860.060   1
   1   7  -9 2695.47 1389.71   1
   5   1  -9 35357.3 6202.54   1
  -5  -1   9 44806.3 8866.57   1
  -5  -1   9 30231.5 8356.85   1
  -5   6  -6 13920.7 2893.87   1
   5  -6   6 4271.22 2223.53   1
   5  -6   6 16410.7 5296.34   1
  -2  -5  10 4197.34 1669.03   1
  -2  -5  10 4255.88 2460.59   1
   2   5 -10 4240.28 1868.58   1
   2   0   9 5055.16 1590.41   1
   2   0   9 4058.29 1259.55   1
  -2   0  -9 5586.68 1683.85   1
  -1   7   6 2430.39 1668.44   1
   1  -7  -6 2325.26 1246.31   1
  -1   7   6 1561.35 2849.83   1
   3   0   8 1429.92 860.690   1
   3   0   8 1101.93 1524.08   1
   2   2   8 2987.82 1498.63   1
   5   3  -8 443.070 1982.17   1
  -5   2   9 6716.30 2586.19   1
  -5   2   9 7180.06 1891.67   1
   5  -2  -9 9478.10 2277.91   1
   5  -2  -9 7772.85 2654.26   1
  -2  10  -5 1837.85 849.910   1
   2 -10   5 4822.09 1897.75   1
   2 -10   5 3970.36 2148.25   1
   7  -1  -1 1053.46 1482.48   1
   7  -1  -1 3347.65 1194.26   1
   5   0   5 -79.530 710.740   1
   5   0   5 2622.54 987.590   1
   5   0   5 1366.56 1719.75   1
   6   2   0 6553.18 1512.40   1
   6   2   0 4523.52 2409.28   1
   2  -9   7 46710.5 9216.52   1
  -2   9  -7 33159.4 7194.13   1
   2  -9   7 55592.3 9414.29   1
  -2  10   1 18983.9 5046.59   1
  -2  10   1 22453.2 5070.43   1
   2 -10  -1 22749.7 4083.08   1
   7  -6  -1 24769.2 6079.33   1
   7  -6  -1 43168.4 7287.29   1
   6  -6   4 3438.49 2062.85   1
   6  -6   4 9940.78 3796.25   1
   1 -10   0 4870.13 1705.66   1
  -1  10   0 -1419.7 2111.34   1
  -1  10   0 1416.92 716.190   1
   7  -4   1 3608.60 3759.13   1
   7  -4   1 3874.94 1603.77   1
   7  -2  -5 25582.3 5559.68   1
   7  -2  -5 40127.3 7772.61   1
   7  -2  -5 36634.9 6506.94   1
   4   5  -8 2283.24 1992.26   1
   7  -3  -5 23051.8 4542.73   1
  -7   3   5 14213.8 3097.51   1
   7  -3  -5 2666.21 1052.36   1
   6  -8   2 28867.6 5456.08   1
  -6   8  -2 19315.8 3524.66   1
   6  -8   2 14964.1 3971.62   1
  -4   1  10 21348.9 5068.97   1
   4  -1 -10 26171.3 4847.97   1
  -4   1  10 31681.5 5702.20   1
   0   1  10 44986.0 8426.85   1
   0  -1 -10 31469.3 7974.60   1
   0   1  10 29567.9 6439.00   1
   5  -2   6 1572.16 1751.17   1
   5  -2   6 5754.01 1650.55   1
   5  -2   6 4343.16 858.350   1
   0   3   9 6497.64 1739.14   1
   0  -3  -9 3169.11 730.970   1
   0   3   9 6349.50 2792.61   1
   3   5   4 2923.59 1672.15   1
   3   5   4 760.850 714.660   1
   3   5   4 1118.59 428.150   1
   3   4 -10 1109.51 1885.68   1
  -3  -4  10 5550.00 2049.19   1
  -3  -4  10 1791.63 2196.20   1
  -7   6   2 13463.0 1752.63   1
   7  -6  -2 24470.4 4434.47   1
   7  -6  -2 23443.1 4689.88   1
  -4  -4   9 4619.47 2055.30   1
   4   4  -9 8591.74 3174.45   1
   1 -10   5 944.340 1356.08   1
  -1  10  -5 2457.19 2464.27   1
  -5  -4   7 1906.54 1943.22   1
   5   4  -7 5299.00 2726.78   1
   0  -9   7 25649.9 4781.44   1
   0   9  -7 23828.0 5282.71   1
   4 -10   3 2909.23 1679.78   1
  -4  10  -3 5804.64 2397.26   1
   4 -10   3 2824.58 2646.95   1
   1   8  -8 2124.72 1915.72   1
  -1  -8   8 768.430 1255.94   1
   0  -6  10 2529.70 1647.39   1
   0   6 -10 443.150 2241.14   1
   0  -6  10 1425.99 952.380   1
   0  -6  10 729.290 1579.92   1
  -1   2  10 41847.3 6712.70   1
   1  -2 -10 29066.6 6468.55   1
  -1   2  10 12261.8 4528.95   1
  -1   9   3 48592.2 8517.72   1
   1  -9  -3 56697.5 9877.96   1
   7  -5  -4 2283.24 1228.64   1
   7  -5  -4 5301.51 1355.63   1
  -7   5   4 2415.24 645.880   1
   7  -3   1 19229.6 4079.98   1
   7  -3   1 28490.6 4894.68   1
   7  -5   1 27201.7 5370.23   1
   7  -5   1 49614.0 8378.75   1
   7  -6   0 4869.51 1513.57   1
   7  -6   0 2686.58 2162.89   1
  -4  -2  10 -94.140 1677.78   1
  -4  -2  10 8964.46 2788.81   1
   4   2 -10 8646.75 3146.15   1
   1   9   0 5672.32 1736.48   1
  -1  -9   0 2080.93 926.780   1
   1   9   0 9180.51 2819.00   1
   1   9  -6 -2103.2 1803.07   1
  -1  -9   6 1358.65 1496.92   1
   3   7  -7 3066.01 2411.34   1
  -3  -7   7 5434.25 1589.89   1
   5   5  -4 7694.99 3252.54   1
   5   5  -4 4232.36 1267.49   1
   6  -2   4 3656.57 1694.79   1
   6  -2   4 2097.48 472.330   1
   6  -2   4 7235.42 2163.15   1
   5   5  -3 1871.52 1737.61   1
   5   5  -3 699.580 1008.52   1
  -6  -3   3 3249.36 608.080   1
   6   3  -3 4794.52 2306.80   1
   6   3  -3 2455.41 1533.63   1
  -5   8  -5 14008.0 3175.26   1
   5  -8   5 20855.7 4403.24   1
   5  -8   5 11680.3 3062.59   1
   0  10  -3 10806.3 2993.68   1
   0 -10   3 12869.8 2858.70   1
   1   2   9 2685.16 2367.39   1
  -1  -2  -9 853.460 915.890   1
   1   2   9 -190.11 1055.52   1
   3   2   7 9951.03 2292.40   1
   3   2   7 8880.51 2122.87   1
   6   3  -4 18712.2 4715.16   1
   6   3  -4 14708.9 2630.42   1
  -6  -3   4 9654.01 3151.35   1
   3  -4   9 34333.6 7325.10   1
   3  -4   9 34441.7 6144.41   1
   3  -4   9 38805.5 7551.35   1
  -3   4  -9 25110.2 5794.94   1
  -5   6   7 21259.3 3690.50   1
   5  -6  -7 23788.9 4530.13   1
   5  -6  -7 17804.6 3311.76   1
  -5   6   7 10754.9 3768.64   1
   6  -1  -8 15196.0 3462.69   1
  -6   1   8 24624.5 4780.18   1
  -6   1   8 20027.5 5594.63   1
   6  -1  -8 18675.3 4412.71   1
  -4   4   9 12048.1 4428.51   1
   4  -4  -9 10127.2 2285.03   1
   4  -4  -9 14247.0 3279.37   1
  -4   4   9 15594.7 3565.11   1
  -1  -2  11 13939.7 3113.89   1
  -1  -2  11 6237.76 2318.53   1
  -1  -2  11 12019.0 2979.29   1
   1   2 -11 10168.2 2776.78   1
   0   9   2 18252.1 2868.76   1
   0   9   2 41638.4 7064.93   1
   0  -9  -2 49151.9 8921.82   1
   5  -7  -6 35178.6 6510.67   1
  -5   7   6 22628.4 4186.70   1
   4 -10  -1 36180.6 6426.09   1
  -4  10   1 31791.5 6215.67   1
   0   8   4 3716.78 1995.44   1
   0   8   4 8737.98 2607.56   1
   0  -8  -4 11635.1 2251.58   1
   7  -1  -5 3955.32 1099.07   1
   7  -1  -5 794.020 2115.41   1
   7  -1  -5 2517.39 1044.55   1
  -7   1   5 1732.29 1993.92   1
   4   5   2 3243.24 1862.93   1
   4   5   2 2195.40 1502.07   1
   7  -4  -5 1226.01 665.610   1
  -7   4   5 2220.38 462.060   1
   7  -4  -5 1988.34 915.750   1
   1   6 -10 5483.74 3191.34   1
  -1  -6  10 3580.12 1559.58   1
  -1  -6  10 1145.58 564.510   1
   2   2 -11 1489.97 1464.09   1
  -2  -2  11 1687.66 1371.24   1
  -2  -2  11 2038.57 2091.25   1
  -2  -2  11 879.730 1413.61   1
   0  10  -2 34652.4 7034.43   1
   0  10  -2 29211.7 5408.34   1
   0 -10   2 38057.4 6121.88   1
   3  -9  -4 874.280 1263.48   1
  -3   9   4 2229.30 2311.15   1
  -2  -8   7 769.380 1077.81   1
   2   8  -7 502.460 1788.16   1
   3  -3   9 10965.8 3515.16   1
   3  -3   9 11945.1 2826.04   1
   3  -3   9 13910.3 2984.58   1
  -3   3  -9 14271.8 3368.72   1
  -6   2   8 9175.07 2014.70   1
   6  -2  -8 11293.0 2837.56   1
  -6   2   8 14109.1 4863.14   1
   6  -2  -8 6420.00 2999.92   1
   7   0  -3 1598.31 786.920   1
   7   0  -3 446.880 1673.61   1
   6  -8  -3 10159.0 3714.49   1
   6  -8  -3 14386.2 3365.84   1
  -6   8   3 11129.6 2233.99   1
  -1  -3  11 5331.85 1401.21   1
  -1  -3  11 955.870 1313.26   1
   1   3 -11 2124.51 1564.03   1
  -2  -1  11 174.720 1970.12   1
   2   1 -11 1439.47 1328.15   1
  -2  -1  11 2465.44 1032.35   1
   2  -7   9 24155.4 5008.16   1
  -2   7  -9 16978.9 3662.81   1
   2  -7   9 21014.0 3742.55   1
  -7   6   3 938.500 442.020   1
   7  -6  -3 2664.11 1315.32   1
   7  -6  -3 -269.02 1131.48   1
   0  10  -4 16273.4 3741.15   1
   0 -10   4 20436.5 3556.98   1
   4  -4   8 4984.77 3500.89   1
  -4   4  -8 5712.43 2255.72   1
   4  -4   8 5133.11 1321.95   1
   4  -4   8 5700.25 2125.06   1
   5   5  -5 10908.7 2159.75   1
   5   5  -5 27384.9 6411.49   1
  -5  -5   5 21553.0 3548.18   1
   6   3  -2 1698.82 1113.45   1
   6   3  -2 2676.17 1818.79   1
   6   3  -2 1798.07 1106.42   1
  -3  10  -5 4829.49 1769.80   1
   3 -10   5 386.350 2520.08   1
   3 -10   5 2839.14 1654.36   1
  -5  -2   9 5045.98 1430.83   1
   5   2  -9 1151.73 2765.54   1
  -5  -2   9 3875.33 1374.01   1
  -1   4   9 53664.1 8555.05   1
   1  -4  -9 35466.0 5613.10   1
  -1   4   9 23700.3 5632.24   1
   3  -5   9 13386.8 3044.53   1
   3  -5   9 9969.77 2669.88   1
  -3   5  -9 7975.33 2926.06   1
   2   7   3 2555.28 1044.09   1
   2   7   3 -538.00 1468.06   1
  -1  -1  11 6783.59 1744.47   1
   1   1 -11 4103.36 1580.78   1
  -1  -1  11 1504.75 1742.10   1
   5   5  -2 3263.94 1817.89   1
   5   5  -2 4710.82 2681.18   1
   4   6   0 3544.91 2129.90   1
   4   6   0 1262.56 1018.59   1
   7   0  -2 1561.78 1308.00   1
   7   0  -2 214.890 285.450   1
   6   0  -8 2182.76 1198.30   1
   6   0  -8 1120.59 2700.66   1
  -6   0   8 5536.68 2556.78   1
  -6   0   8 2070.56 966.110   1
   6  -6  -6 58176.3 9470.24   1
   6  -6  -6 70226.8 12107.3   1
  -6   6   6 43762.4 8567.37   1
  -7   0   4 24521.0 4852.36   1
   7   0  -4 8435.80 1903.68   1
   7   0  -4 36997.0 6658.41   1
   7   0  -4 614.600 1122.42   1
   7  -1   0 9210.55 2594.74   1
   6   1   2 25631.1 4040.62   1
   6   1   2 18476.2 3010.65   1
   6   1   2 9967.19 3636.12   1
  -5   9   3 7851.26 2010.64   1
   5  -9  -3 10018.6 2625.87   1
   5  -3  -9 8756.31 2232.35   1
  -5   3   9 9810.70 3867.55   1
  -5   3   9 6385.36 1767.11   1
   5  -3  -9 10678.5 2566.78   1
   6   3  -5 10683.2 3017.14   1
  -6  -3   5 5216.33 1114.05   1
   6   3  -5 6074.67 1605.29   1
   1  -8  -5 52920.7 9372.93   1
  -1   8   5 26650.5 5425.20   1
  -1   8   5 51834.3 8878.78   1
  -1   0 -10 25676.8 6230.07   1
   1   0  10 37514.5 6923.78   1
   6   0   3 24137.8 3942.09   1
   6   0   3 5325.91 2885.39   1
   6   0   3 15820.9 2586.58   1
   4  -5   8 1507.41 1599.15   1
  -4   5  -8 899.260 1044.13   1
   4  -5   8 3938.63 1188.57   1
   4  -5   8 -212.60 1278.93   1
  -1   6 -10 1361.32 845.470   1
   1  -6  10 6224.12 1760.93   1
   1  -6  10 4024.06 1450.70   1
   1  -6  10 4080.17 2378.62   1
  -4   2  10 1173.29 873.290   1
   4  -2 -10 1237.44 932.600   1
   4  -2 -10 2035.26 1694.81   1
  -4   2  10 -266.72 1553.80   1
   5  -9   4 52161.9 10839.5   1
  -5   9  -4 53006.8 11631.6   1
   5  -9   4 82152.0 9637.30   1
  -2  -3  11 32145.4 6683.59   1
  -2  -3  11 45186.5 9505.50   1
   2   3 -11 28333.2 5353.78   1
  -2  -3  11 19375.7 3564.15   1
   4   0   7 8149.31 1789.30   1
   4   0   7 7871.62 2115.16   1
   4   0   7 3108.02 2372.16   1
   7  -2   1 1963.51 1563.18   1
   7  -2   1 1663.75 2178.96   1
   5  -7   6 5747.02 4496.81   1
  -5   7  -6 1926.35 1147.96   1
   5  -7   6 5863.07 2033.73   1
   5   4   1 2991.94 1344.60   1
   5   4   1 2505.33 1563.25   1
   4  -3   8 13633.6 2425.25   1
   4  -3   8 4956.60 2992.00   1
  -4   3  -8 10307.2 3044.82   1
   4  -3   8 15996.7 3402.37   1
   2   8   1 11853.7 2441.72   1
   2   8   1 12527.4 3865.18   1
   2   8   1 11911.3 2271.20   1
   7  -6   1 829.190 1173.06   1
   7  -6   1 10038.7 2488.91   1
  -3  10   2 3163.80 1285.36   1
   3 -10  -2 8274.86 2464.63   1
  -4   9   4 3081.94 2386.94   1
   4  -9  -4 1888.61 1115.37   1
   6  -7  -5 20194.3 4430.60   1
  -6   7   5 26195.0 4220.00   1
   6  -7  -5 2023.99 1979.23   1
   5  -5  -8 5039.03 1789.38   1
  -5   5   8 7762.20 1915.37   1
   5  -5  -8 5632.68 1615.46   1
  -5   5   8 6543.46 2857.74   1
   2  -9  -4 14944.5 3227.64   1
  -2   9   4 6693.59 2654.50   1
  -4  -6   7 23597.4 4068.02   1
   4   6  -7 14594.3 3712.44   1
   0 -10   1 47191.1 7502.38   1
   0  10  -1 35905.0 6798.59   1
   0  10  -1 23894.1 4138.51   1
   6   2  -7 1527.61 569.820   1
   6   2  -7 7.52000 1810.42   1
  -6  -2   7 3276.28 1521.48   1
   6  -7   4 7954.16 2800.12   1
   6  -7   4 22524.0 4689.93   1
   4 -10   4 16993.5 4020.59   1
  -4  10  -4 25172.6 5313.59   1
   4 -10   4 34607.6 6686.82   1
  -2   0  11 3734.89 1611.74   1
   2   0 -11 1503.39 1356.59   1
  -2   0  11 1160.28 813.110   1
   5  -8  -5 7947.93 2587.42   1
  -5   8   5 5276.36 2064.92   1
  -3   7   7 2986.29 1547.54   1
  -3   7   7 2039.73 1909.38   1
   3  -7  -7 1675.98 707.570   1
  -1  -8  -3 4314.17 808.670   1
   1   8   3 6485.15 2987.91   1
   1   8   3 2988.44 481.280   1
   1   8   3 4370.88 2444.83   1
   6  -8   3 1765.19 905.530   1
   6  -8   3 5000.09 2857.49   1
  -6   3   8 3322.35 3196.60   1
   6  -3  -8 6896.95 2947.96   1
   6  -3  -8 13147.2 3587.09   1
  -6   3   8 7121.05 2409.19   1
   2  -4  10 12885.5 2275.52   1
   2  -4  10 21867.1 4234.19   1
   2  -4  10 28236.2 5715.07   1
  -2   4 -10 20429.7 5264.73   1
   3  -2   9 4428.33 1098.69   1
  -3   2  -9 444.170 492.440   1
   3  -2   9 22.1300 1143.94   1
   3  -2   9 -2370.4 2012.81   1
  -2   3 -10 2300.08 1362.91   1
   2  -3  10 12191.4 4393.92   1
   2  -3  10 2312.78 836.650   1
   2  -3  10 -328.88 1171.34   1
  -6   5   7 24921.8 6212.31   1
   6  -5  -7 32345.5 6483.41   1
  -6   5   7 24814.7 5194.65   1
   6  -5  -7 38179.0 7348.54   1
   3   7   1 21510.2 4394.08   1
   3   7   1 24164.3 4694.84   1
   1 -10  -1 3249.05 1234.99   1
  -1  10   1 2491.91 2162.62   1
  -1  10   1 3027.22 913.810   1
  -1  -4  11 26456.3 5125.76   1
  -1  -4  11 25867.3 5177.98   1
   1   4 -11 28991.9 5895.30   1
  -1  -4  11 33851.8 7797.99   1
   0   3 -11 6263.80 2496.43   1
   0  -3  11 4025.13 2527.23   1
   0  -3  11 5877.46 3597.88   1
   0  -3  11 22589.0 4190.82   1
   3  -6  -8 5042.16 2245.36   1
  -3   6   8 6232.25 2599.37   1
   1   5   7 588.300 1337.50   1
   1   5   7 2296.99 1883.16   1
   3   6   3 3625.66 1760.82   1
   3   6   3 1527.56 1105.47   1
  -7   2   6 3980.70 3183.72   1
   7  -2  -6 20928.2 4306.31   1
   7  -2  -6 1919.39 1339.74   1
   7  -2  -6 -156.08 1872.04   1
  -3   3  10 2775.30 1164.46   1
   3  -3 -10 4643.65 1714.87   1
  -3   3  10 2013.61 1489.02   1
   0  10  -5 2721.21 2533.19   1
   0 -10   5 6432.47 2673.54   1
   2  -3 -10 3109.53 994.060   1
  -2   3  10 12635.3 2168.43   1
  -2   3  10 3338.56 1661.09   1
   5  -1   6 4328.37 1377.82   1
   5  -1   6 5817.08 2088.14   1
   5  -1   6 2641.02 2622.72   1
   0  -2  11 21586.9 4919.60   1
   0  -2  11 41367.9 7715.20   1
   0   2 -11 27939.8 6233.72   1
  -4  -3  10 45805.8 9712.18   1
   4   3 -10 38489.4 7312.88   1
  -4  -3  10 38229.8 7982.80   1
   2 -10   6 21645.8 5028.93   1
  -2  10  -6 16302.8 4089.16   1
   2 -10   6 27881.3 5398.02   1
   7   0  -1 3167.08 786.920   1
   7   0  -1 995.180 1390.50   1
   3  -9   7 502.150 931.470   1
  -3   9  -7 516.780 828.560   1
   3  -9   7 2459.66 1588.12   1
   7  -4   2 25259.4 4685.90   1
   7  -4   2 26722.0 5919.59   1
   1 -10   6 6181.17 4745.04   1
  -1  10  -6 2078.25 2208.48   1
   1 -10   6 2510.27 2001.09   1
  -3  -6   9 5118.26 2124.90   1
   3   6  -9 5080.52 2924.36   1
   3   1 -11 -587.95 1299.41   1
  -3  -1  11 784.530 1217.99   1
   7  -3  -6 221.290 918.370   1
  -7   3   6 1612.60 1973.94   1
   7  -3  -6 5664.45 1857.13   1
  -7   3   6 789.560 600.580   1
   7  -3  -6 80.0800 1476.76   1
   1   6   6 2746.53 1253.25   1
   1   6   6 5288.01 2425.66   1
  -2  10   2 1174.22 2042.82   1
   2 -10  -2 220.240 969.030   1
   6   2   1 108.180 405.990   1
   6   2   1 635.760 1684.26   1
   7  -7  -1 32571.8 6477.88   1
   7  -7  -1 22839.2 5592.96   1
   4  -9   6 -73.700 1375.06   1
   4  -9   6 -169.51 1521.42   1
  -4   9  -6 611.180 2098.36   1
   7   0  -5 13717.3 4278.31   1
   7   0  -5 10083.5 2880.89   1
  -7   0   5 7471.48 3135.71   1
   7   0  -5 18335.1 3865.94   1
  -3  -8   4 11000.2 2946.88   1
   3   8  -4 6440.57 2575.91   1
   7  -5  -5 424.840 1012.95   1
  -7   5   5 1972.50 529.410   1
   7  -5  -5 1288.47 1110.30   1
  -3  -8   3 32.2600 173.330   1
   3   8  -3 20756.0 4171.35   1
   6   3  -1 2371.77 1194.92   1
   6   3  -1 6819.62 2867.35   1
   6   3  -1 2257.65 2298.00   1
  -2  -7   9 28461.6 5374.74   1
   2   7  -9 14810.7 3322.17   1
   7  -5   2 7829.83 3389.01   1
   7  -5   2 7672.62 2576.28   1
   5   5  -6 2056.94 509.950   1
   5   5  -6 3646.46 2926.66   1
  -5  -5   6 7286.03 2112.82   1
   4  -8   7 18432.3 4172.06   1
   4  -8   7 3511.35 2225.10   1
  -4   8  -7 478.720 1178.91   1
  -3   8  -8 -3127.7 1586.01   1
   3  -8   8 2205.35 1571.30   1
   3  -8   8 5413.70 3012.73   1
   3  -6   9 40167.4 7153.19   1
   3  -6   9 35415.8 7026.43   1
  -3   6  -9 25003.0 6436.61   1
   3  -6   9 23667.4 4712.94   1
  -1   0  11 61.4800 1998.23   1
   1   0 -11 1123.31 1209.34   1
  -1   0  11 3544.99 1027.77   1
   7  -6  -4 7852.25 2930.18   1
  -7   6   4 5111.04 1590.11   1
   7  -6  -4 5883.72 2136.26   1
   4  -6   8 4456.88 2472.03   1
  -4   6  -8 2530.83 970.890   1
   4  -6   8 133.230 1695.35   1
   6  -9   0 33155.1 7305.80   1
  -6   9   0 37896.7 6370.64   1
   6  -9   0 50179.4 8748.61   1
   4 -10  -2 3349.86 1317.70   1
  -4  10   2 168.170 1624.44   1
   5 -10   1 5435.95 2221.85   1
  -5  10  -1 694.010 1305.21   1
   5 -10   1 4727.39 1951.24   1
   5   5  -1 2335.27 1175.19   1
   0  -8   9 2099.11 1167.34   1
   0   8  -9 561.980 1972.71   1
   0  -8   9 3268.73 1288.41   1
  -6  -1   8 26447.8 6577.47   1
   6   1  -8 23465.8 5030.29   1
   4   3   5 -276.86 753.700   1
  -3  -2  11 5523.72 2075.38   1
  -3  -2  11 3363.66 3181.65   1
  -3  -2  11 2217.04 1310.36   1
   3   2 -11 4760.69 2683.15   1
   6  -1   4 3839.91 1100.38   1
   6  -1   4 4269.00 2553.25   1
   6  -1   4 3604.26 763.950   1
   1  -8   9 884.790 1698.27   1
   1  -8   9 524.980 1550.76   1
  -1   8  -9 598.390 1548.30   1
   0  -4  11 1936.01 1448.55   1
   0   4 -11 52.2100 1312.32   1
   0  -4  11 1566.23 1911.93   1
   0  -4  11 -1.9000 1440.02   1
  -4   7   7 3121.62 2570.07   1
  -4   7   7 9813.92 3406.19   1
   4  -7  -7 8469.99 2714.18   1
   7  -7   0 13963.0 4254.99   1
   7  -7   0 26218.2 4949.30   1
   6  -4   5 1902.83 1722.54   1
   6  -4   5 1444.05 1601.95   1
   2   5   6 6302.73 2766.21   1
   2   5   6 11612.1 3562.65   1
  -2   5 -10 5864.30 3104.21   1
   2  -5  10 4494.59 1677.79   1
   2  -5  10 6005.61 2000.06   1
   2   1   9 2276.40 1810.39   1
   2   1   9 3622.35 1694.81   1
   6  -5   5 5964.89 3579.40   1
   6  -5   5 6664.24 2315.21   1
   7  -1  -6 13186.9 3023.05   1
   7  -1  -6 25364.0 5152.82   1
   7  -1  -6 12333.9 4048.14   1
  -7   1   6 14918.4 3909.17   1
   2  -7  -7 58024.7 7686.92   1
  -2   7   7 51187.0 8857.83   1
   7  -7  -2 3412.33 1689.63   1
   7  -7  -2 3800.78 2046.92   1
   2  -2  10 9853.59 3300.08   1
   2  -2  10 7038.07 2626.36   1
  -2   2 -10 9726.24 3779.35   1
   2  -2  10 4388.24 2605.68   1
  -2   6   8 51895.1 9040.24   1
  -2   6   8 27508.6 8930.62   1
   2  -6  -8 50769.5 10195.5   1
   5   2   4 2135.39 845.580   1
   5   2   4 2543.68 2419.88   1
   5   2   4 927.240 432.460   1
   5 -10   0 9859.28 3218.21   1
  -5  10   0 7167.45 2573.15   1
   5 -10   0 8133.88 3162.18   1
  -3   8   6 1587.70 1806.68   1
  -3   8   6 9068.01 3260.03   1
   3  -8  -6 9004.53 2698.71   1
  -2  -9   3 14919.0 2636.65   1
   2   9  -3 16972.4 3614.17   1
  -3   0  11 1312.40 1041.31   1
  -3   0  11 1998.03 875.330   1
   3   0 -11 172.430 1155.21   1
   7  -3   2 1111.82 1199.82   1
   7  -3   2 363.070 1814.30   1
   6   3  -6 19342.8 4737.51   1
   6   3  -6 7331.06 1940.89   1
  -6  -3   6 9963.44 3077.95   1
   1   9   1 14308.1 2575.75   1
   1   9   1 26753.3 5175.07   1
   1   9  -7 2539.75 2641.79   1
  -1  -9   7 3253.88 2058.89   1
   0   6   7 5941.20 2293.54   1
   0   6   7 6090.66 2550.38   1
   2   4   7 13841.2 3080.00   1
   2   4   7 4995.67 2855.97   1
  -2  -9   4 7005.24 2109.98   1
   2   9  -4 2009.06 1519.35   1
   4  -2   8 5163.57 2076.16   1
   4  -2   8 2822.49 2128.70   1
   4  -2   8 8772.99 2930.51   1
   1   4   8 7516.46 2720.85   1
   1   4   8 4180.68 1591.30   1
   6  -9   1 3013.94 1188.03   1
   6  -9   1 570.180 1344.77   1
  -6   9  -1 229.580 934.080   1
  -1   9  -8 43449.3 7899.24   1
   1  -9   8 45865.3 10139.0   1
   1  -9   8 49669.5 8944.20   1
   2   6 -10 16389.7 3839.92   1
  -2  -6  10 20615.1 3907.10   1
  -4   6   8 5433.31 1977.42   1
   4  -6  -8 8811.34 2951.90   1
  -4   6   8 1042.16 1970.20   1
   4  -6  -8 4599.03 1062.71   1
  -6   9   1 1764.03 1426.07   1
   6  -9  -1 1530.28 1218.87   1
   6  -9  -1 2182.72 2122.06   1
   3   1   8 6798.72 2399.91   1
   3   1   8 5327.22 1995.96   1
  -2  -4  11 -1090.0 1378.58   1
   2   4 -11 -426.80 1676.57   1
  -2  -4  11 1632.79 939.120   1
   3   5 -10 2996.13 1821.93   1
  -3  -5  10 233.660 1503.68   1
   3   8  -5 30507.7 6236.95   1
  -3  -8   5 30610.5 5051.06   1
   5   4  -8 412.420 1821.62   1
  -5  -4   8 3190.71 2751.67   1
   4   4   4 10558.2 3215.40   1
  -5  10  -2 283.730 1443.02   1
   5 -10   2 -881.17 1515.11   1
  -5  10  -2 704.470 1666.43   1
   5 -10   2 576.770 1347.65   1
   0  -1  11 2626.44 1769.56   1
   0   1 -11 8806.36 2896.71   1
   0  -1  11 12274.9 3676.76   1
   3   8  -2 2204.86 1933.21   1
   3   8  -2 2464.66 2767.15   1
  -6   8   4 30706.4 5235.03   1
   6  -8  -4 1269.30 1457.24   1
   6  -8  -4 38646.8 6776.47   1
   0   5   8 -454.61 1060.22   1
   0   5   8 2333.47 1389.47   1
   0   2  10 3844.61 2387.03   1
   0  -2 -10 3476.12 854.920   1
   0   2  10 4809.03 1891.79   1
   5   3   3 2417.80 1353.15   1
   4   2   6 2022.52 832.280   1
   4   2   6 3197.63 1027.52   1
   3  -5  -9 1359.42 922.260   1
  -3   5   9 1192.66 1554.93   1
  -3   5   9 3399.76 1561.42   1
   7  -4  -6 2355.21 1340.15   1
   7  -4  -6 1336.14 1315.37   1
  -7   4   6 2222.53 659.530   1
   7  -4  -6 -280.96 1626.16   1
   5  -4   7 2664.60 3206.77   1
   5  -4   7 3107.45 1023.57   1
   5  -4   7 1066.41 1182.76   1
   5   1   5 8867.59 2409.20   1
   5   1   5 7745.29 2322.45   1
   5   1   5 3735.76 2258.89   1
  -3  -7   8 52787.3 8844.38   1
   3   7  -8 40002.6 7170.77   1
   0  10   0 10624.9 3659.74   1
   0 -10   0 14080.3 2687.65   1
   6  -3   5 1925.55 1623.17   1
   6  -3   5 1070.10 420.720   1
   6  -3   5 -29.590 2089.28   1
   2   9  -2 9529.77 2878.63   1
   2   9  -2 15995.4 4093.08   1
  -2  -9   2 13805.7 2510.44   1
   4  -8  -6 11850.5 3412.93   1
  -4   8   6 10974.1 3530.46   1
   5  -5   7 -716.31 1269.92   1
  -5   5  -7 -1771.1 1712.74   1
   5  -5   7 -292.91 1683.27   1
   5  -5   7 104.050 402.510   1
   7  -6   2 26859.7 5231.20   1
   7  -6   2 22973.2 4804.01   1
   7  -1   1 -152.24 1838.61   1
   7  -1   1 2452.00 871.920   1
   4   7  -4 4266.63 2706.08   1
  -5  -3   9 30039.8 7231.87   1
   5   3  -9 32628.2 6440.82   1
   0  -7  10 1409.80 956.150   1
   0   7 -10 562.420 1940.80   1
   0  -7  10 2626.98 2579.61   1
   2  -1 -11 427.110 1260.39   1
  -2   1  11 3490.27 1937.98   1
  -2   1  11 1218.14 1360.99   1
   2   6   5 2752.20 1822.22   1
   2   6   5 2890.75 919.800   1
   2   6   5 3313.14 1399.14   1
   6  -6   5 2477.26 2064.02   1
   6  -6   5 6099.58 3652.51   1
   0   7   6 1907.75 1318.89   1
   0   7   6 800.020 1446.23   1
   0  -7  -6 664.030 815.200   1
   0   9  -8 1301.86 2131.00   1
   0  -9   8 4133.35 1716.54   1
   0  -9   8 3495.43 1828.18   1
  -2  -9   5 31605.0 5344.16   1
   4   7  -3 576.010 1667.14   1
   7  -7   1 11941.7 3786.83   1
   7  -7   1 7415.76 2566.55   1
   5 -10  -1 8283.04 2767.38   1
   5 -10  -1 2445.96 1188.32   1
  -5  10   1 3259.54 1416.93   1
   4   5  -9 14151.8 3562.25   1
   1   7   5 4392.42 1805.91   1
   1   7   5 2068.07 2215.22   1
   7   1  -3 9837.83 3577.32   1
   7   1  -3 8092.81 2227.04   1
   7   1  -3 4206.17 1968.51   1
  -7  -1   3 9373.91 2892.43   1
   6  -4  -8 36842.3 6695.20   1
   6  -4  -8 49620.3 9608.04   1
  -6   4   8 37851.8 7098.11   1
  -6   4   8 33687.7 7430.51   1
  -3  -3  11 8178.32 2718.62   1
  -3  -3  11 7094.07 3279.13   1
   3   3 -11 4021.35 1636.99   1
   4  -3 -10 31036.6 6330.70   1
  -4   3  10 28061.3 6107.37   1
   4  -3 -10 24921.8 5358.23   1
   3  -1   9 4064.02 1502.12   1
  -3   1  -9 5073.55 1660.25   1
   3  -1   9 1512.59 537.140   1
   3  -1   9 -488.43 1977.30   1
   7  -7  -3 14160.6 4199.36   1
  -7   7   3 13443.9 2359.32   1
   7  -7  -3 22205.0 4661.18   1
  -2   8   6 42498.5 7756.32   1
  -2   8   6 22406.6 4684.66   1
   2  -8  -6 42816.4 8408.15   1
   5  -4  -9 18785.0 4042.59   1
  -5   4   9 12755.6 2389.58   1
  -5   4   9 11383.7 4974.67   1
  -3  10  -6 2713.05 1261.08   1
   3 -10   6 2082.68 1204.67   1
   3 -10   6 569.970 1431.35   1
  -1   3  10 19124.7 3893.78   1
   1  -3 -10 9955.57 3151.63   1
  -1   3  10 7734.24 2902.39   1
  -2  -8   8 15725.4 3532.71   1
   2   8  -8 14327.0 3652.67   1
   2  -9   8 -786.52 1462.94   1
  -2   9  -8 2426.61 984.380   1
   2  -9   8 -797.82 1510.85   1
   1   5 -11 1737.30 2923.42   1
  -2   5   9 21780.6 5282.22   1
  -2   5   9 42186.3 7285.22   1
   2  -5  -9 42714.3 9090.57   1
   6  -9   2 8586.52 2707.28   1
   6  -9   2 16239.9 3446.64   1
  -6   9  -2 10089.3 2875.99   1
   7   1  -4 3259.53 2096.02   1
   7   1  -4 850.400 1199.89   1
   7   1  -4 144.390 607.500   1
  -7  -1   4 -343.52 1177.95   1
   7   0   0 790.160 495.180   1
   4   6   1 6060.70 2590.31   1
   4   6   1 8372.13 2817.80   1
   5   0 -10 1751.76 1692.48   1
  -5   0  10 257.510 1136.43   1
  -5   0  10 3110.98 1643.30   1
   2 -11   2 2884.12 1917.72   1
  -2  11  -2 2882.23 1492.08   1
  -2  11  -2 191.610 2292.60   1
   0 -10   6 4099.06 1405.03   1
   0  10  -6 1766.55 1857.73   1
   3 -11   2 6695.45 2531.45   1
  -3  11  -2 6337.92 2272.68   1
  -3  11  -2 3962.46 2396.03   1
   6  -9  -2 12534.0 2651.18   1
  -6   9   2 14684.9 3313.58   1
   6  -9  -2 15675.0 3722.44   1
  -4  -7   5 1124.45 823.830   1
   4   7  -5 -842.53 1716.94   1
   2 -11   3 675.360 1446.48   1
  -2  11  -3 756.090 629.340   1
   5  -3   7 18381.0 3630.62   1
   5  -3   7 12316.1 3598.19   1
   5  -3   7 5771.06 4164.76   1
   0  -5  11 9195.79 3393.71   1
   0  -5  11 8036.03 2550.88   1
   0   5 -11 3565.97 2323.80   1
   0  -5  11 3463.69 1962.37   1
  -3   1  11 14487.3 3457.83   1
   3  -1 -11 29835.5 5352.41   1
  -3   1  11 34707.1 6412.37   1
  -5   9   4 14410.4 2934.15   1
   5  -9  -4 16961.0 4357.81   1
  -4  10  -5 2602.04 1370.04   1
   4 -10   5 4345.40 1950.94   1
   4 -10   5 4937.95 2562.10   1
  -7   0   6 -677.48 1726.73   1
   7   0  -6 4337.30 1195.32   1
   7   0  -6 8760.47 4460.86   1
   7   0  -6 9903.11 2824.22   1
   2   3   8 12280.9 3746.59   1
   5  -1 -10 2667.67 1481.06   1
  -5   1  10 8630.22 3339.54   1
  -5   1  10 5057.63 1766.42   1
   7  -2   2 1172.55 1161.11   1
   7  -2   2 -123.80 1869.79   1
   0  -9  -3 4518.16 934.350   1
   0   9   3 6009.71 3035.74   1
   0   9   3 6765.36 2740.23   1
  -1   9   4 16608.3 4235.89   1
   1  -9  -4 20628.5 4138.58   1
  -1   9   4 3988.77 1855.89   1
  -1  -1 -10 3235.65 1360.80   1
   1   1  10 2950.33 1178.43   1
   1   1  10 751.610 1728.04   1
   5  -8   6 11425.8 3570.57   1
  -5   8  -6 9168.79 3117.40   1
   5  -8   6 11554.6 4517.33   1
  -7  -1   2 403.640 646.390   1
   7   1  -2 12602.0 2134.81   1
   7   1  -2 6163.49 1802.99   1
   7   1  -2 4824.40 1890.84   1
   3 -11   1 3363.05 1515.25   1
  -3  11  -1 595.430 1653.74   1
  -3  11  -1 4319.77 1276.57   1
  -1  -8   9 32592.1 5619.07   1
   1   8  -9 6941.12 2615.22   1
   5  -9   5 1884.70 1901.98   1
   5  -9   5 1180.68 1750.62   1
  -5   9  -5 2193.70 1819.20   1
   1  -7  10 17771.3 3963.58   1
  -1   7 -10 15651.0 4136.81   1
   1  -7  10 11340.3 3578.69   1
   2  -6  10 36592.3 6914.52   1
   2  -6  10 42125.1 7679.47   1
  -2   6 -10 30564.0 6423.18   1
   2  -6  10 47332.0 9334.86   1
   5 -10   3 548.290 1703.66   1
  -5  10  -3 3777.58 1680.62   1
   5 -10   3 7299.90 3651.40   1
   2  -8   9 710.210 1731.82   1
  -2   8  -9 4527.43 1355.86   1
   2  -8   9 2531.45 1432.41   1
   4  -5  -9 1128.07 1107.83   1
   4  -5  -9 115.430 685.600   1
  -4   5   9 509.240 1045.44   1
  -4   5   9 4879.27 3768.13   1
  -3  -8   6 1956.15 953.320   1
   3   8  -6 204.590 1974.87   1
   5  -6   7 9393.02 4237.34   1
  -5   6  -7 11507.8 3687.87   1
   5  -6   7 12790.9 2444.79   1
   2  -1  10 1653.60 1699.38   1
   2  -1  10 4862.79 2972.83   1
  -2   1 -10 2844.11 1220.26   1
   2  -1  10 5972.53 2031.52   1
  -3  11  -3 4460.22 1241.41   1
   3 -11   3 7596.67 2606.27   1
   3 -11   3 7134.50 2969.59   1
   6   3   0 2183.94 2060.04   1
   6   3   0 -130.85 583.870   1
   6   3   0 4180.56 2683.09   1
   4   7  -2 1544.64 1602.54   1
   4   7  -2 1515.19 2161.42   1
  -3  10   3 1195.02 1826.45   1
   3 -10  -3 5940.61 2133.75   1
  -1  -7  10 53728.6 9043.24   1
   1   7 -10 40234.8 7434.12   1
  -1  -7  10 20151.9 4795.93   1
   6  -8   4 16738.9 4116.23   1
   6  -8   4 20157.0 4408.23   1
   5   1 -10 40.1300 1618.50   1
  -5  -1  10 2575.08 1816.68   1
  -5  -1  10 789.530 1381.07   1
  -2  11  -1 3317.66 1023.40   1
   2 -11   1 1142.97 1118.66   1
  -2  11  -1 4402.38 3047.81   1
  -4   7  -8 1422.16 1535.31   1
   4  -7   8 1006.11 2266.37   1
   4  -7   8 415.430 1258.89   1
  -4  -6   8 17051.3 3553.80   1
   4   6  -8 8669.90 3052.82   1
  -5  -5   7 14596.1 2968.85   1
   5   5  -7 14650.6 3501.00   1
   3   8  -1 4008.79 1165.07   1
   3   8  -1 6465.99 2434.77   1
   3   4   6 1301.82 892.840   1
   3   4   6 4018.04 1853.77   1
   4   5   3 23877.8 4468.99   1
   4   5   3 13649.1 3390.38   1
   0   4   9 1034.85 990.820   1
   0   4   9 1592.83 787.900   1
   1  -1 -11 21206.1 5073.10   1
  -1   1  11 31900.7 6123.05   1
  -1  10   2 31818.7 6390.61   1
   1 -10  -2 37287.7 7154.77   1
   3  -7   9 1453.63 1952.93   1
  -3   7  -9 1520.04 1132.22   1
   3  -7   9 3687.40 2649.06   1
   5   5   0 1246.03 1424.23   1
  -4  -4  10 1519.02 2214.57   1
   4   4 -10 433.820 2270.34   1
   1  -3  11 28615.0 5715.70   1
  -1   3 -11 23430.0 5473.41   1
   1  -3  11 13116.2 3855.81   1
   1  -3  11 23639.7 4527.87   1
   2   9  -1 -892.10 1987.22   1
  -2  -9   1 223.410 196.180   1
   2   9  -1 -795.93 1125.55   1
   7   1  -5 980.530 708.110   1
   7   1  -5 29849.7 6062.49   1
   7   1  -5 8009.25 2330.64   1
  -7  -1   5 28611.4 7164.35   1
   2   8   2 2645.08 1434.96   1
   2   8   2 6737.95 3377.27   1
   1   3   9 2777.02 1643.63   1
   1   3   9 236.690 1792.81   1
   7  -6  -5 8471.19 3526.21   1
  -7   6   5 7238.66 2251.86   1
   7  -6  -5 14344.1 3689.92   1
   1  10  -3 9279.99 2898.90   1
  -1 -10   3 11774.4 3135.57   1
   5   4   2 3710.04 968.890   1
   5   4   2 -850.68 1350.12   1
   6   2  -8 5492.28 3339.08   1
  -6  -2   8 1294.45 1593.92   1
  -3   9   5 9803.79 3474.09   1
   3  -9  -5 12073.6 5440.00   1
  -2  11  -4 628.410 792.680   1
   2 -11   4 955.460 1379.45   1
   0   0  11 13030.5 2385.96   1
   0   0 -11 21784.6 5635.81   1
   0   0  11 35852.6 7696.00   1
   6  -2   5 1050.83 332.490   1
   6  -2   5 1743.19 1797.79   1
   6  -2   5 3163.65 1808.75   1
  -1 -10   4 1287.27 896.430   1
   1  10  -4 1413.24 1441.90   1
   4  -1   8 27028.2 4920.68   1
   4  -1   8 22843.2 4719.14   1
   4  -1   8 15186.8 5072.35   1
  -1   4 -11 -532.26 1160.74   1
   1  -4  11 5163.52 2205.54   1
   1  -4  11 6034.02 2292.73   1
   1  -4  11 18509.4 4054.17   1
   7  -2  -7 845.060 2043.38   1
  -7   2   7 3029.56 3995.30   1
   7  -2  -7 -256.26 1012.31   1
  -7   2   7 1765.88 1104.59   1
   7  -2  -7 4410.72 1107.22   1
  -6   1   9 2774.78 2050.34   1
  -6   1   9 2367.82 1409.05   1
   6  -1  -9 1226.44 1768.28   1
   6  -1  -9 2812.34 1135.55   1
  -6  -3   7 4644.82 1379.93   1
   6   3  -7 15519.6 4525.77   1
   6   1   3 1202.17 596.450   1
   6   1   3 1243.21 537.090   1
   6   1   3 1842.98 1961.08   1
   4   1   7 8370.60 2499.16   1
   4   1   7 18486.3 3788.83   1
  -2  -9   6 438.170 721.300   1
   2   9  -6 1664.49 1600.23   1
   1 -10   7 44439.6 7727.11   1
  -1  10  -7 44583.2 8247.53   1
   1 -10   7 45134.8 10195.5   1
   3   5   5 6300.86 2527.43   1
   3   5   5 3418.26 840.670   1
   5   0   6 5149.38 2658.06   1
   5   0   6 16439.8 3070.44   1
   5   0   6 11841.5 3628.32   1
  -6   7   6 3568.79 974.660   1
   6  -7  -6 5037.45 1967.15   1
   6  -7  -6 11104.6 3524.49   1
   5  -7  -7 30811.7 8829.02   1
   5  -7  -7 26970.1 4824.37   1
  -5   7   7 19576.3 4644.12   1
  -5   7   7 38455.7 6786.22   1
  -4  10   3 3057.64 1598.74   1
   4 -10  -3 6673.17 2286.55   1
   7  -5  -6 42191.6 8471.58   1
   7  -5  -6 36405.1 6762.49   1
   7  -5  -6 27878.2 5948.86   1
  -7   5   6 26023.8 5358.39   1
  -1   6   8 9669.55 3606.21   1
   1  -6  -8 23504.8 4850.74   1
  -1   6   8 22878.8 4402.06   1
   6  -6  -7 6026.98 2558.94   1
  -6   6   7 5612.54 2160.80   1
   6  -6  -7 7959.55 2807.15   1
   6   4  -4 1395.06 849.990   1
   6   4  -4 5149.61 3163.94   1
  -3  11   0 16530.6 5000.30   1
  -3  11   0 14494.1 3701.15   1
   3 -11   0 29367.7 6343.13   1
   7  -4   3 992.040 1736.89   1
   7  -4   3 3809.79 1456.60   1
  -5  10   2 23069.7 5390.47   1
   5 -10  -2 22267.8 5150.08   1
  -5   2  10 17584.1 4299.39   1
  -5   2  10 9914.63 3777.74   1
   5  -2 -10 12479.4 3198.62   1
   5  -2 -10 19611.7 4474.26   1
   7  -5   3 37671.3 8846.44   1
   7  -5   3 46474.9 9449.38   1
   3   7   2 5906.84 2143.27   1
   3   7   2 7098.66 3227.31   1
   6  -7   5 8076.01 4965.29   1
   6  -7   5 2082.23 1575.01   1
  -1   7   7 20475.5 4761.25   1
   1  -7  -7 8557.70 3232.10   1
  -1   7   7 7963.31 3795.19   1
   3   3   7 12449.4 1951.32   1
   3   3   7 7460.86 2174.17   1
   2 -10   7 8655.73 3527.28   1
  -2  10  -7 4249.56 1950.43   1
   2 -10   7 3247.93 2283.14   1
   2   5 -11 20649.2 5080.56   1
  -2  -5  11 24567.7 6550.84   1
  -2  -5  11 23341.2 5348.29   1
   4   7  -6 986.230 2173.57   1
   6   4  -3 2019.77 1206.92   1
   7  -7   2 1835.59 1579.34   1
   7  -7   2 2033.97 2177.60   1
  -1   2 -11 7706.33 2999.04   1
   1  -2  11 6705.27 2763.08   1
   1  -2  11 4458.31 2313.74   1
   1  -2  11 5807.47 3476.77   1
  -1 -10   2 21135.3 5576.35   1
   1  10  -2 20704.7 4608.69   1
   1  10  -2 25973.6 6046.47   1
   4  -9  -5 10.1300 824.460   1
  -4   9   5 398.670 1243.52   1
   6   0  -9 4043.55 1610.05   1
  -6   0   9 5077.54 2218.52   1
   6   0  -9 464.510 1669.03   1
  -6   0   9 2518.40 1219.55   1
   7  -3  -7 6767.75 3932.05   1
   7  -3  -7 7770.97 2884.89   1
  -7   3   7 2089.35 1826.85   1
   7  -3  -7 1800.13 1460.63   1
  -7   3   7 6166.20 2409.01   1
   4   1 -11 21400.4 5605.69   1
  -4  -1  11 28894.0 7255.27   1
  -4  -1  11 15915.5 4714.10   1
   7  -1  -7 2319.24 1232.23   1
   7  -1  -7 11380.4 3036.60   1
   7  -1  -7 550.420 2973.25   1
  -6   2   9 6092.02 4317.10   1
   6  -2  -9 3326.29 2467.32   1
  -6   2   9 868.600 829.510   1
   6  -2  -9 -572.18 1055.67   1
  -1  11  -3 9496.87 3265.22   1
   1 -11   3 16382.3 4013.36   1
   7   1  -1 163.540 327.730   1
   7   1  -1 1180.22 1505.54   1
  -4   0  11 12165.1 3382.92   1
   4   0 -11 9778.70 3384.33   1
  -4   0  11 5645.28 2344.45   1
   0  -8  -5 5371.48 1775.82   1
   0   8   5 4628.91 2561.20   1
   0   8   5 5159.27 3174.94   1
  -2  10   3 29652.8 6847.42   1
   2 -10  -3 36035.3 7936.46   1
   6   2   2 1981.48 1791.74   1
   6   2   2 5649.46 1866.65   1
   3 -11   4 24725.5 5897.48   1
   3 -11   4 20582.4 5697.45   1
  -3  11  -4 17552.0 4436.36   1
  -5   6   8 19054.6 5767.33   1
  -5   6   8 20484.1 4479.78   1
   5  -6  -8 8703.61 4917.31   1
   5  -6  -8 12953.3 2867.35   1
  -7   7   4 527.200 365.210   1
   7  -7  -4 4479.75 2173.46   1
   7  -7  -4 447.120 759.890   1
   2   7   4 3215.67 1968.55   1
   6  -9   3 12193.1 3456.17   1
   6  -9   3 20381.0 4931.96   1
   1 -11   2 2291.92 1140.30   1
  -1  11  -2 2366.10 892.100   1
  -1  11  -2 -1993.4 2190.17   1
   7  -8  -1 2613.37 1248.02   1
  -7   8   1 1421.78 502.490   1
   7  -8  -1 2942.76 2077.50   1
   5  -2   7 10212.0 3431.36   1
   5  -2   7 2670.71 1759.11   1
   5  -2   7 6099.22 2049.75   1
   6   0   4 -8.4200 1769.50   1
   6   0   4 4057.16 1393.57   1
   6   0   4 8501.42 2904.64   1
  -3   4  10 17723.3 4131.90   1
   3  -4 -10 14899.0 3519.06   1
   3  -4 -10 14783.2 4127.16   1
  -3   4  10 8639.74 3293.08   1
   4 -11   1 38097.8 8158.95   1
  -4  11  -1 27554.2 6030.17   1
  -4  11  -1 20118.1 5800.36   1
   4 -11   1 23180.6 5842.13   1
   4 -11   2 1546.24 1758.57   1
  -4  11  -2 1261.43 1581.18   1
   4 -11   2 5730.03 3004.47   1
  -4  11  -2 244.610 722.950   1
  -3  -4  11 30184.8 7642.20   1
   3   4 -11 14216.2 4491.10   1
  -3  -4  11 14019.6 4719.35   1
   7  -8   0 22687.5 5201.76   1
   7  -8   0 18786.1 5314.09   1
   0  10   1 26214.7 5863.55   1
   0  10   1 18981.7 3804.68   1
   0 -10  -1 24028.5 6243.75   1
  -2  11   0 6371.14 2400.24   1
   2 -11   0 5255.73 2153.42   1
  -2  11   0 7686.05 3857.81   1
   6   4  -5 21412.5 5508.12   1
   6   4  -5 9403.66 2867.61   1
   5  -8  -6 22978.1 4850.22   1
  -5   8   6 29700.5 7192.33   1
   5  -8  -6 47392.1 10767.9   1
  -6   9   3 17029.0 3567.21   1
   6  -9  -3 -1137.3 2164.12   1
   6  -9  -3 28879.9 6040.66   1
   1  10  -5 1053.42 1521.03   1
  -1 -10   5 1646.83 1399.94   1
  -5  -2  10 18014.6 4876.65   1
  -5  -2  10 28433.9 7174.50   1
   5   2 -10 17132.7 4419.83   1
  -1  11  -4 14839.6 4322.64   1
   1 -11   4 25229.9 5767.40   1
   1   9   2 847.690 1345.01   1
   1   9   2 -625.19 407.130   1
   1   9   2 1954.97 1630.18   1
  -1  -9  -2 982.110 720.450   1
  -1  -9   8 -104.97 1210.64   1
   1   9  -8 388.980 1982.45   1
   4   7  -1 2918.59 1866.78   1
   4   7  -1 881.880 1655.08   1
   7  -3   3 -557.83 1501.31   1
   7  -3   3 410.500 945.090   1
   1  -5  11 2205.17 1920.05   1
   1  -5  11 2407.50 1159.95   1
  -1   5 -11 1695.34 859.210   1
   1  -5  11 1990.74 1533.17   1
  -2   9   5 5481.27 2771.88   1
  -2   9   5 21748.7 5248.19   1
   2  -9  -5 26091.2 5922.01   1
   7  -6   3 6046.11 2620.58   1
   7  -6   3 1166.23 1879.25   1
   5  -7   7 556.980 1398.95   1
  -5   7  -7 -6.0000 2027.36   1
   5  -7   7 8452.80 4534.04   1
  -2   2  11 29481.4 7492.22   1
  -2   2  11 4566.73 1909.22   1
  -2   4  10 20645.5 4580.50   1
  -2   4  10 12506.8 3546.73   1
   4   2 -11 1945.48 2409.79   1
  -4  -2  11 6303.68 2829.07   1
  -4  -2  11 2405.07 1813.74   1
  -6   8   5 15969.5 4035.65   1
   6  -8  -5 28171.4 6261.56   1
   6   4  -2 59.8400 995.270   1
   6   4  -2 321.190 2110.51   1
  -1   5   9 5604.17 2625.80   1
  -1   5   9 1518.85 1036.50   1
  -7   8   2 20269.1 4546.50   1
   7  -8  -2 38598.0 7799.52   1
   7  -8  -2 24953.1 6315.95   1
   1   8   4 -2306.4 1451.28   1
  -1  -8  -4 1172.95 455.050   1
   1   8   4 701.510 1059.80   1
   3  -2 -11 1099.90 1013.49   1
  -3   2  11 1886.08 1214.95   1
  -3   2  11 830.440 667.120   1
   5 -10   4 1012.52 1214.88   1
  -5  10  -4 -1228.0 1768.87   1
   5 -10   4 2797.62 1856.25   1
   4  -9   7 -283.50 1553.61   1
   4  -9   7 2523.33 2017.68   1
  -4   9  -7 2617.18 1412.71   1
   5   6  -4 2875.25 1942.94   1
   5   6  -4 -259.58 778.600   1
   7   0   1 3737.68 2590.86   1
   7   0   1 669.060 562.030   1
  -4   1  11 -982.46 2062.10   1
  -4   1  11 2004.31 999.260   1
   4  -1 -11 3210.45 1910.79   1
   4 -11   0 15758.5 3794.41   1
  -4  11   0 11336.5 4199.97   1
  -4  11   0 6050.79 2783.35   1
   7   1  -6 4894.24 1740.38   1
   7   1  -6 5673.71 1989.54   1
  -7  -1   6 7815.11 2837.36   1
   0  -6  11 5101.58 3266.29   1
   0  -6  11 -1302.5 1229.80   1
   0   6 -11 3582.96 2889.62   1
   0  -6  11 1709.73 928.020   1
  -6   5   8 10269.5 4961.71   1
   6  -5  -8 18671.6 4260.55   1
   6  -5  -8 12950.3 3333.05   1
  -6   5   8 14665.4 3254.14   1
   7  -1   2 4030.28 2524.18   1
   7  -1   2 206.630 599.840   1
   4 -11   3 1969.11 2238.58   1
   4 -11   3 5579.15 2710.99   1
  -4  11  -3 1344.86 852.160   1
  -3  -8   7 812.630 876.840   1
   3   8  -7 1531.81 2104.24   1
  -2  11  -5 12242.5 3686.16   1
   2 -11   5 28196.4 6139.64   1
   1 -11   1 3983.37 1839.25   1
  -1  11  -1 1012.41 604.090   1
  -1  11  -1 3373.69 2144.13   1
   3   0   9 219.280 1789.81   1
   3   0   9 7824.38 2628.20   1
   3   0   9 863.510 768.140   1
   0 -10   7 760.000 1176.13   1
   0  10  -7 3155.78 1932.17   1
   5   6  -3 2452.21 2545.55   1
  -1   8   6 3791.70 2220.63   1
  -1   8   6 1838.44 1457.92   1
   1  -8  -6 2095.83 1019.32   1
   7  -8   1 7396.92 3384.21   1
   7  -8   1 11393.4 2863.73   1
   3  -9   8 3574.83 1330.71   1
  -3   9  -8 2597.62 990.780   1
   3  -9   8 141.760 1707.20   1
   2   2   9 12345.1 3235.84   1
   2   2   9 6357.35 2461.21   1
   1   6 -11 8646.33 4281.86   1
  -1  -6  11 3006.26 877.700   1
  -1  -6  11 6191.03 2733.34   1
  -1  -6  11 4228.46 2150.48   1
  -6  -1   9 -732.40 2211.17   1
   6   1  -9 290.380 2017.31   1
  -6  -1   9 1795.05 893.710   1
   7  -4  -7 4246.49 1699.74   1
  -7   4   7 3841.76 2755.69   1
   7  -4  -7 7148.10 2938.05   1
   7  -4  -7 4456.41 2668.82   1
  -7   4   7 5477.39 1881.50   1
   1  10  -1 10338.0 3360.94   1
   1  10  -1 15646.7 4332.78   1
  -1 -10   1 8996.65 2815.29   1
   7   0  -7 9815.95 3228.19   1
   7   0  -7 9537.62 4249.30   1
   7   0  -7 3587.50 1412.61   1
  -7   0   7 5763.21 3572.59   1
   3   6   4 8283.03 3290.63   1
  -6   3   9 23326.1 5517.44   1
   6  -3  -9 22723.4 5280.00   1
  -6   3   9 19501.5 6090.91   1
   6  -3  -9 26563.7 6798.36   1
   3   8   0 10239.9 3569.29   1
   3   8   0 17235.5 4532.06   1
   2  -7  10 -564.44 2278.19   1
  -2   7 -10 826.200 1169.48   1
   2  -7  10 4790.97 2494.83   1
  -5  -4   9 3974.55 2226.92   1
   5   4  -9 1510.84 1947.33   1
   5   6  -5 4768.95 3139.15   1
   5   6  -5 261.110 574.960   1
   1  -1  11 21602.3 5019.76   1
   1  -1  11 25760.4 5924.04   1
  -1   1 -11 13265.7 4386.21   1
  -3  -6  10 1243.43 2246.73   1
   3   6 -10 633.920 1666.17   1
   2   9   0 20279.4 4813.80   1
   2   9   0 21772.4 4507.68   1
   2   0  10 -387.76 1259.90   1
   2   0  10 1472.08 1122.76   1
  -2   0 -10 2757.99 959.010   1
   4  -4 -10 360.750 490.060   1
  -4   4  10 2195.77 2251.60   1
   4  -4 -10 473.090 917.540   1
  -4   4  10 -38.120 1075.02   1
   3 -11  -1 7244.28 2536.86   1
  -3  11   1 10922.9 3010.10   1
  -3  -7   9 5301.36 2351.43   1
   3   7  -9 446.860 1728.91   1
   6   4  -6 3066.65 2010.31   1
  -6  -4   6 5693.22 2443.50   1
   3   2   8 5124.53 2449.54   1
   3   2   8 4403.17 1760.51   1
   2   7 -10 988.180 1782.58   1
  -2  -7  10 1288.96 1040.17   1
  -5   3  10 6634.84 2339.65   1
   5  -3 -10 1442.65 1825.24   1
  -5   3  10 1393.58 1744.48   1
   5  -3 -10 9988.43 3598.03   1
   5  -5  -9 34843.9 8672.84   1
   5  -5  -9 30917.1 6444.46   1
  -5   5   9 34762.9 7008.15   1
   6   3   1 5583.83 2020.84   1
   6   3   1 2427.79 1468.94   1
   4 -10   6 10594.4 4092.45   1
  -4  10  -6 7200.45 2653.11   1
   4 -10   6 8512.32 4336.91   1
  -2  -9   7 1043.99 1346.51   1
   2   9  -7 1678.30 1770.34   1
   1 -11   5 2127.17 1308.95   1
  -1  11  -5 -1085.4 1285.11   1
  -3  10  -7 3933.29 1224.35   1
   3 -10   7 7130.14 3124.10   1
   3 -10   7 3969.46 1972.26   1
   0   3  10 3367.58 1659.74   1
   0  -3 -10 2644.17 1174.03   1
   0   3  10 3960.29 1452.55   1
  -4   8  -8 -9.8200 1856.94   1
   4  -8   8 5367.76 2351.93   1
   4  -8   8 2576.31 2313.61   1
   4   7  -7 1176.19 2080.74   1
  -4  -7   7 2748.30 1129.52   1
   3  -4  10 1882.90 2558.36   1
  -3   4 -10 4522.32 2157.60   1
   3  -4  10 5045.79 2096.57   1
   3  -4  10 3282.08 1263.07   1
   5   5  -8 6343.83 3329.93   1
   6  -5   6 1742.17 1809.12   1
   6  -5   6 1860.03 1757.58   1
   1  -9   9 3227.17 1449.02   1
  -1   9  -9 130.920 1577.61   1
   1  -9   9 3293.52 2203.74   1
   6  -1   5 2714.69 2466.84   1
   6  -1   5 3770.01 681.020   1
   6  -1   5 7906.98 2811.10   1
   4   6   2 6651.36 2709.44   1
   4   6   2 7194.62 2767.52   1
  -3  11  -5 2917.94 1504.07   1
   3 -11   5 2002.79 1754.55   1
   3 -11   5 4760.95 3001.44   1
   7   1   0 -1013.1 1652.61   1
   7   2  -4 13682.9 4004.73   1
  -7  -2   4 8742.81 3078.02   1
   7   2  -4 4724.53 2219.84   1
   1  10  -6 248.520 1678.92   1
  -1 -10   6 4091.19 2487.06   1
   7   2  -3 10744.6 1666.07   1
   7   2  -3 8200.00 3375.84   1
   7   2  -3 7604.15 2773.46   1
   4  -4   9 7119.07 2555.60   1
   4  -4   9 5275.58 2707.72   1
  -4   4  -9 3814.32 1647.61   1
   4  -4   9 3034.27 2023.94   1
   5   6  -2 2571.62 1425.22   1
   5   6  -2 8417.68 3516.28   1
   6  -4   6 5792.04 3247.42   1
   6  -4   6 6908.87 2569.01   1
   6  -4   6 4334.03 1782.79   1
   7  -8  -3 1207.27 1441.21   1
   7  -8  -3 3217.13 1439.36   1
  -7   8   3 124.540 380.580   1
   8  -4  -2 10855.2 1676.05   1
   8  -4  -2 11404.7 3157.33   1
  -5  10   3 5462.20 2838.78   1
   5 -10  -3 2368.31 1397.08   1
   4  -5   9 7860.22 3174.57   1
  -4   5  -9 3239.53 1106.34   1
   4  -5   9 5752.43 2201.86   1
   0   1  11 897.890 848.990   1
   0  -1 -11 966.070 650.760   1
   0   1  11 2509.44 1865.79   1
   5   5   1 2581.52 1915.52   1
   5   5   1 1772.48 1349.92   1
  -5   9   5 39130.5 7809.47   1
   5  -9  -5 57634.2 5533.68   1
  -3   7   8 27881.9 6137.39   1
   3  -7  -8 31525.7 7772.38   1
   7  -2   3 895.770 555.390   1
  -2  -8   9 1167.32 1164.80   1
   2   8  -9 2094.79 1706.74   1
   0   8 -10 -415.18 2054.73   1
   0  -8  10 1187.42 1324.03   1
   0  -8  10 3518.20 2404.26   1
   3  -5  10 4244.69 1984.64   1
   3  -5  10 3111.87 1684.12   1
  -3   5 -10 2755.71 1735.12   1
   3  -5  10 5390.19 2115.52   1
   6   4  -1 1870.59 1255.65   1
   6   4  -1 -895.09 1136.26   1
   8  -4  -3 12145.3 4046.09   1
   8  -4  -3 11478.5 3475.48   1
  -1   2  11 5924.43 2232.73   1
   1  -2 -11 5577.25 2159.90   1
  -1   2  11 1212.32 1173.37   1
   8  -3  -3 26533.9 5707.00   1
   8  -3  -3 15962.7 4211.57   1
   6 -10   0 875.840 1683.81   1
   6 -10   0 2658.21 2752.65   1
  -6  10   0 985.580 951.410   1
   8  -3  -2 2755.32 1016.55   1
   8  -3  -2 -128.96 1247.18   1
  -4  -3  11 1068.69 2428.96   1
  -4  -3  11 4660.95 2175.30   1
   4   3 -11 11619.5 3762.98   1
   4 -11  -1 36028.3 7446.45   1
  -4  11   1 31870.5 6956.20   1
   3  -8   9 725.240 1533.08   1
   3  -8   9 -260.67 1578.33   1
  -3   8  -9 1750.71 766.910   1
   0  -9   9 -256.36 982.000   1
   0   9  -9 -530.30 1955.55   1
   0  -9   9 4136.41 1980.57   1
  -2  11   1 2251.56 2807.24   1
   2 -11  -1 208.870 1071.55   1
   5   3   4 1471.43 1211.58   1
   3  -3  10 1104.60 1885.31   1
  -3   3 -10 3925.58 895.190   1
   3  -3  10 1824.75 748.120   1
   3  -3  10 -226.83 1112.62   1
   7  -7   3 21178.6 4783.53   1
   7  -7   3 8206.20 3276.08   1
   5   2   5 2834.90 869.170   1
   5   2   5 2563.34 807.840   1
   5   2   5 1083.00 1495.27   1
   6  -8   5 5143.77 2278.00   1
   6  -8   5 4256.12 2381.81   1
  -5   9  -6 2786.61 1399.16   1
   5  -9   6 8991.98 3949.32   1
   5  -9   6 2356.83 1712.93   1
  -7   6   6 431.360 289.870   1
   7  -6  -6 878.780 1230.03   1
   7  -6  -6 2585.14 857.940   1
   7  -6  -6 3461.18 2658.99   1
  -6  10  -1 6114.49 2555.32   1
   6 -10   1 5423.54 2355.22   1
   6 -10   1 13242.9 3732.05   1
  -2  -2  12 122.830 2044.56   1
  -2  -2  12 2750.71 1395.87   1
  -2  -2  12 1936.60 990.480   1
   2   2 -12 2278.23 1739.89   1
   4 -11   4 -403.75 1711.98   1
  -4  11  -4 -74.370 1538.81   1
   4 -11   4 -82.780 2073.37   1
   1  -6  11 5010.17 2822.12   1
  -1   6 -11 5893.97 2329.88   1
   1  -6  11 8401.23 3045.11   1
   1  -6  11 8158.69 3000.67   1
   6   3  -8 6788.72 4171.77   1
  -6  -3   8 1484.59 1334.98   1
   1   2  10 1428.24 2276.66   1
  -1  -2 -10 -61.330 776.210   1
   1   2  10 1672.21 1469.09   1
   4   0   8 644.390 907.720   1
   4   0   8 7482.05 2388.67   1
   4   0   8 1344.29 1783.87   1
  -5  -6   6 7154.05 2268.16   1
   5   6  -6 5891.83 3277.89   1
   5  -1   7 22968.3 4992.39   1
   5  -1   7 14405.5 3935.15   1
   5  -1   7 9462.50 4231.66   1
  -1  -2  12 -38.460 1400.44   1
  -1  -2  12 4604.38 1853.69   1
  -1  -2  12 4875.41 3265.17   1
   1   2 -12 4202.54 2643.90   1
   1  -8  10 2867.53 1896.08   1
  -1   8 -10 3253.20 1889.08   1
   1  -8  10 1763.45 953.460   1
   8  -4  -1 1758.81 1289.41   1
   8  -4  -1 1304.99 1518.88   1
   6  -6   6 17195.4 4673.25   1
   6  -6   6 11358.4 4102.68   1
   6  -9   4 -106.17 1855.67   1
   6  -9   4 12186.6 3831.17   1
   1 -11   0 4147.46 2077.88   1
  -1  11   0 1214.14 662.800   1
  -1  11   0 2276.67 1990.19   1
  -4   2  11 34033.8 7535.60   1
  -4   2  11 28374.1 7094.74   1
   4  -2 -11 34211.4 7044.21   1
  -3  10   4 2932.86 2639.66   1
   7  -8   2 651.710 1782.32   1
   7  -8   2 856.340 1419.27   1
  -1  -3  12 6061.44 2543.83   1
   1   3 -12 14165.8 3640.32   1
  -1  -3  12 13813.8 3559.76   1
  -3   8   7 6570.94 3390.04   1
   3  -8  -7 38178.7 9614.56   1
  -3   8   7 37010.3 7452.65   1
  -7  -2   5 2819.10 1202.85   1
   7   2  -5 1259.55 2214.11   1
   7   2  -5 1678.84 1093.07   1
   4  -3   9 6959.88 2433.14   1
  -4   3  -9 6042.57 2348.31   1
   4  -3   9 686.840 2791.61   1
   4  -3   9 5616.44 2226.71   1
   7  -7  -5 780.110 2614.68   1
  -7   7   5 482.330 467.010   1
   7  -7  -5 4386.65 1964.10   1
   8  -5  -2 5974.04 2596.49   1
   8  -5  -2 6720.67 3308.03   1
  -4  -6   9 2667.00 1628.83   1
   4   6  -9 736.290 2096.24   1
   7   2  -2 -80.820 439.270   1
   7   2  -2 1702.07 1236.65   1
   7   2  -2 -72.830 1792.54   1
   5   3 -10 2211.01 1938.87   1
  -5  -3  10 3140.27 3497.17   1
  -4   7   8 12455.5 3278.41   1
   4  -7  -8 13584.8 3347.94   1
  -4   7   8 1730.44 2041.00   1
   4   5 -10 1683.67 2181.56   1
  -2  -1  12 5310.91 3062.72   1
   2   1 -12 3172.11 1573.10   1
  -2  -1  12 6202.92 2150.82   1
   1 -10  -3 9113.40 3404.87   1
  -1  10   3 6482.16 3053.62   1
   4   4   5 319.410 810.890   1
   4   7   0 6901.92 2811.94   1
   4   7   0 5393.79 2384.25   1
   4   3   6 2188.57 1250.17   1
  -3   6   9 50044.9 3030.06   1
  -3   6   9 24429.8 7648.31   1
   3  -6  -9 47050.1 11887.1   1
  -1   4  10 5422.92 2426.01   1
  -1   4  10 6724.81 2916.72   1
   6 -10  -1 20852.7 5864.73   1
  -6  10   1 21361.7 4509.45   1
   6 -10  -1 25958.1 6991.89   1
   6  -9  -4 2452.74 2099.00   1
  -6   9   4 450.320 809.440   1
  -2  -3  12 -1015.5 2190.47   1
  -2  -3  12 970.390 1049.27   1
   2   3 -12 2209.52 1540.49   1
  -2  -3  12 1918.17 1458.41   1
   1   6   7 3259.15 1387.68   1
   1   6   7 9372.61 3592.89   1
   8  -3  -4 10233.9 3375.22   1
   8  -3  -4 4023.60 1913.39   1
   8  -5  -1 2875.80 1369.64   1
   8  -5  -1 3933.42 2320.98   1
   6  -3   6 2458.98 1239.91   1
   6  -3   6 1279.42 643.820   1
   6  -3   6 2992.42 2082.96   1
   8  -3  -1 1687.44 1672.07   1
   8  -3  -1 2346.23 1074.15   1
   4 -10  -4 4012.46 1766.77   1
  -4  10   4 3718.31 1861.22   1
  -4   8   7 13046.0 3412.50   1
  -4   8   7 3580.61 1719.31   1
   4  -8  -7 15468.3 3907.28   1
   0  -9  -4 13315.9 3170.92   1
   0   9   4 16940.3 4728.12   1
   4  -6   9 -1427.6 1218.57   1
   4  -6   9 1660.42 1638.12   1
  -4   6  -9 956.120 1078.25   1
   4  -6   9 -30.810 835.510   1
   3   5 -11 2439.13 1286.03   1
  -3  -5  11 2893.35 1498.44   1
  -2  -6  11 4082.73 2283.65   1
   2   6 -11 3135.61 2372.60   1
   0  11  -3 32133.1 7083.67   1
   0 -11   3 36457.7 7313.38   1
   8  -5  -3 23454.3 7692.10   1
   8  -5  -3 29435.4 6176.60   1
   8  -2  -3 5437.10 2027.86   1
   8  -2  -3 1523.92 1157.98   1
   1   5   8 23399.9 5178.62   1
   1   5   8 5867.60 2433.98   1
   7  -2  -8 1347.75 982.040   1
  -7   2   8 1564.11 821.990   1
   7  -2  -8 2042.94 2288.77   1
   1  10   0 15939.9 4334.28   1
   1  10   0 -834.90 690.750   1
  -1 -10   0 965.270 575.240   1
   8  -4  -4 22875.6 7299.09   1
   8  -4  -4 35091.4 8176.36   1
   1 -10   8 9299.60 3347.12   1
  -1  10  -8 4903.89 2439.28   1
   1 -10   8 10351.3 3539.42   1
   2  -9   9 2636.75 2303.74   1
  -2   9  -9 1836.20 1044.96   1
   2  -9   9 2079.11 1308.89   1
   6   2  -9 29110.7 7115.32   1
  -6  -2   9 15376.4 4429.47   1
   6 -10   2 287.450 1475.68   1
  -6  10  -2 2728.26 1474.96   1
   6 -10   2 2231.66 1006.88   1
  -7   5   7 1863.79 2158.01   1
  -7   5   7 1053.69 586.390   1
   7  -5  -7 2793.05 1020.09   1
   5  -8   7 4747.06 1979.75   1
   5  -8   7 3566.94 2511.72   1
  -5   8  -7 929.260 1724.45   1
   7   1  -7 885.590 1960.98   1
   7   1  -7 -192.29 486.800   1
  -7  -1   7 -938.52 1375.39   1
   2 -11   6 4170.76 2280.87   1
  -2  11  -6 3721.85 1269.57   1
   2 -11   6 4175.67 1693.65   1
  -6   4   9 1544.39 678.720   1
   6  -4  -9 3184.59 1220.65   1
  -6   4   9 2954.24 2525.09   1
   6  -4  -9 2367.04 1827.80   1
  -1  -1  12 2391.32 1188.41   1
   1   1 -12 192.300 1198.00   1
  -1  -1  12 -2265.8 1859.89   1
   0 -11   4 7765.17 3020.55   1
   0  11  -4 5803.82 2999.45   1
   8  -2  -2 1738.21 876.970   1
   8  -2  -2 708.900 1862.19   1
   2   8   3 -207.62 1540.46   1
   7  -5   4 765.890 2233.09   1
   7  -5   4 1199.85 1020.78   1
  -2   7   8 4266.95 1804.88   1
  -2   7   8 -1019.9 2618.05   1
   2  -7  -8 6073.82 2356.21   1
   7  -1  -8 2943.94 1196.41   1
  -7   1   8 1807.50 3162.10   1
  -7   1   8 2748.44 1256.32   1
   7  -1  -8 -84.230 1683.89   1
   5 -11   1 3194.00 1522.26   1
  -5  11  -1 241.620 1471.76   1
   5 -11   1 2246.11 1743.79   1
   2   5   7 9145.33 3214.11   1
   2   5   7 37118.6 7641.04   1
   0  10   2 2119.46 2234.57   1
   3  -6  10 2085.25 919.230   1
  -3   6 -10 3049.46 1281.63   1
   3  -6  10 533.990 1334.53   1
   3  -6  10 2651.61 2028.66   1
   5   4   3 4272.52 1406.88   1
   5 -10   5 54342.0 13796.9   1
  -5  10  -5 29648.5 10386.2   1
   5 -10   5 33025.5 9564.33   1
  -1   9   5 7719.91 2723.41   1
   1  -9  -5 5125.70 1294.51   1
  -1   9   5 6842.54 2785.03   1
   5   1   6 4997.46 1453.86   1
   5   1   6 4634.17 1163.49   1
   5   1   6 452.140 1539.01   1
  -4   6   9 -684.30 2323.09   1
  -4   6   9 -5.1700 1058.64   1
   4  -6  -9 439.300 743.890   1
  -1  -4  12 -1798.9 1954.58   1
  -1  -4  12 132.780 1726.00   1
  -1  -4  12 761.470 996.250   1
   1   4 -12 1524.42 1623.67   1
   7  -4   4 54.1500 1764.08   1
   7  -4   4 879.170 1149.77   1
   0 -11   2 38318.3 9536.67   1
   0  11  -2 7652.51 2591.06   1
   0  11  -2 25887.3 7731.36   1
  -1   0 -11 4817.23 1512.42   1
   1   0  11 4850.63 1666.31   1
   2  -4  11 9363.47 2018.93   1
  -2   4 -11 2821.35 1177.00   1
   2  -4  11 3803.04 1942.34   1
   2  -4  11 2785.70 1413.02   1
  -1  -8  10 6505.11 2089.08   1
   1   8 -10 7773.72 3589.39   1
   3  -2  10 1357.00 2143.76   1
  -3   2 -10 1018.31 861.670   1
   3  -2  10 1243.43 1239.32   1
   3  -2  10 1483.20 811.130   1
   8  -2  -4 16719.8 4512.59   1
   8  -2  -4 31421.4 8277.42   1
  -6  -4   7 690.110 1039.65   1
   6   4  -7 4351.71 2227.96   1
   5   6  -1 4877.42 2192.68   1
   5   6  -1 89.8000 972.640   1
  -5  11  -2 1209.99 1340.30   1
   5 -11   2 2716.80 1497.65   1
  -5  11  -2 3730.42 2580.31   1
   5 -11   2 5677.43 2479.83   1
  -2  10  -8 31358.2 8961.16   1
   2 -10   8 43032.4 12678.9   1
   2 -10   8 58338.9 14629.6   1
  -1  11  -6 1668.86 1596.14   1
   1 -11   6 1439.82 1429.51   1
   5 -11   0 22892.5 6254.43   1
   5 -11   0 12943.8 4043.56   1
  -5  11   0 14131.1 4369.39   1
  -3   3  11 4887.35 2151.25   1
   3  -3 -11 21124.4 5836.55   1
  -3   3  11 17214.2 4962.19   1
  -7   3   8 37699.9 9939.76   1
   7  -3  -8 45127.4 12321.9   1
  -7   3   8 20674.5 6243.28   1
   7  -3  -8 34747.0 9710.49   1
   5  -5   8 37.8800 408.780   1
   5  -5   8 -100.67 1222.33   1
  -5   5  -8 2821.98 2487.48   1
   5  -5   8 2045.93 1978.32   1
  -3  -8   8 2726.34 1120.68   1
   3   8  -8 1709.96 2854.85   1
   8  -4   0 -5.1600 1801.67   1
   8  -4   0 3503.96 1424.89   1
   2   6   6 33662.8 8827.29   1
   2   6   6 6368.82 2144.85   1
   2  -3  11 2688.50 1798.16   1
  -2   3 -11 3710.27 1458.72   1
   2  -3  11 5387.69 2239.98   1
   2  -3  11 1614.65 2022.96   1
   1   7   6 6284.06 1791.66   1
   1   7   6 13186.7 4095.04   1
   3   1 -12 -597.06 1122.59   1
  -3  -1  12 1729.00 1755.29   1
  -3  -1  12 676.510 489.990   1
  -3  11   2 1413.09 1899.25   1
   3 -11  -2 2045.28 1764.86   1
  -2   0  12 573.310 476.410   1
  -2   0  12 3334.14 1540.95   1
   2   0 -12 1144.92 1289.72   1
   5  -4   8 8204.95 2064.09   1
   5  -4   8 15182.5 4346.84   1
   5  -4   8 10576.2 4419.87   1
   4   5   4 2686.06 1325.04   1
   4   5   4 2861.55 1264.59   1
   0   6   8 2710.22 1842.59   1
   0   6   8 1550.35 1364.40   1
   3   7   3 167.470 620.800   1
   3   7   3 4950.91 2167.55   1
  -2   6   9 7814.41 2361.75   1
   2  -6  -9 9995.44 3056.43   1
   6  -7  -7 14271.6 4112.88   1
  -6   7   7 8888.64 2257.33   1
   6  -7  -7 9064.46 2269.02   1
   2 -10  -4 3710.17 1578.20   1
  -2  10   4 2130.31 1781.38   1
  -2   8   7 9314.32 2087.42   1
   2  -8  -7 12021.7 3603.99   1
  -3  -2  12 6535.71 2893.64   1
  -3  -2  12 9593.87 1636.27   1
   3   2 -12 5504.55 2345.07   1
   4   2   7 1348.43 956.780   1
   4   2   7 3159.09 1387.28   1
   8  -5   0 684.220 1629.32   1
   8  -5   0 897.940 985.360   1
   7  -6   4 18738.0 5317.29   1
   7  -6   4 8478.96 4047.42   1
   0  -3  12 20421.5 5549.42   1
   0  -3  12 26578.7 7564.46   1
   0  -3  12 11849.8 4174.67   1
   0   3 -12 12068.8 3929.54   1
   6   1   4 1078.29 711.570   1
   6   1   4 -577.51 1709.61   1
  -7  -2   6 5118.71 1473.73   1
   7   2  -6 608.500 537.210   1
   7   2  -6 9504.00 2797.50   1
   7   0   2 6786.10 3445.74   1
   6   2   3 544.880 479.440   1
   6   2   3 1594.07 1735.85   1
   7  -8  -4 71.4600 1404.03   1
   7  -8  -4 1684.17 1148.03   1
  -7   8   4 1020.13 898.210   1
   0  -7  11 3891.01 2369.44   1
   0   7 -11 -1280.2 1924.87   1
   0  -7  11 2123.96 1032.97   1
   2   4   8 6968.25 2808.63   1
   2   4   8 34206.3 8625.33   1
   6  -7   6 -1263.8 1468.03   1
   6  -7   6 97.8600 2695.96   1
  -2   3  11 3643.66 1633.74   1
   2  -3 -11 4048.85 1197.44   1
  -2   3  11 3644.57 1415.70   1
   8  -6  -2 19147.7 5794.25   1
   8  -6  -2 30192.9 7761.48   1
   7   2  -1 790.750 2140.26   1
   7   2  -1 4407.73 3004.79   1
   7   2  -1 1599.06 618.100   1
   3   8   1 12848.9 4136.45   1
   0   7   7 3543.94 1744.55   1
   0   7   7 3513.26 1721.58   1
   2   9   1 1678.96 807.690   1
   2   9   1 8189.73 3001.94   1
   6 -10  -2 275.140 1102.16   1
   6 -10  -2 5382.51 3036.61   1
  -6  10   2 6844.97 1891.56   1
   8  -5  -4 -91.050 1035.30   1
   8  -5  -4 856.700 1818.82   1
   4  -2   9 15659.5 4377.37   1
   4  -2   9 20092.0 5235.68   1
   4  -2   9 10629.2 4377.69   1
   8  -6  -1 931.880 1172.61   1
   8  -6  -1 3702.02 2335.70   1
  -2   5 -11 -737.91 1534.13   1
   2  -5  11 5283.69 1669.10   1
   2  -5  11 4590.41 2009.37   1
   2  -5  11 2434.12 2066.31   1
   7  -9   0 3971.16 2423.17   1
   7  -9   0 4044.75 2099.49   1
  -1 -10   7 -35.160 934.240   1
   1  10  -7 1696.18 1824.96   1
   3  -9  -6 21470.6 5915.37   1
  -3   9   6 18662.9 5395.55   1
  -3   9   6 68.3400 1696.76   1
   8  -2  -1 5993.41 1599.40   1
   8  -2  -1 5222.71 2652.79   1
   2   4 -12 46916.2 11912.0   1
  -2  -4  12 77415.6 7483.89   1
   0 -11   5 7898.91 1852.48   1
   0  11  -5 6916.09 2193.96   1
   7  -9  -1 29954.4 7949.58   1
   7  -9  -1 24637.3 8094.95   1
  -7   9   1 22982.7 5852.64   1
   0  10  -8 16830.8 5454.74   1
   0 -10   8 16114.5 4760.10   1
   8  -3  -5 30717.2 8317.87   1
   8  -3  -5 30553.4 8892.29   1
   8  -3  -5 22206.0 6832.50   1
   3   9  -4 4171.06 1975.94   1
   0  -2  12 1706.15 1660.13   1
   0   2 -12 1771.47 1281.43   1
   0  -2  12 4765.41 2007.36   1
   0  -2  12 5201.31 1492.72   1
   5  -4 -10 26459.6 6947.25   1
   5  -4 -10 13128.4 6188.88   1
  -5   4  10 33290.5 9010.63   1
  -5   4  10 9225.60 3072.39   1
  -5  -6   7 1576.81 1179.86   1
   5   6  -7 2046.50 1771.11   1
  -4  11   2 82.2600 1513.33   1
   4 -11  -2 3238.59 2167.73   1
  -5   0  11 16636.0 4838.87   1
  -5   0  11 2392.36 1835.25   1
   5   0 -11 10661.8 4188.76   1
  -7   0   8 5667.58 2464.46   1
   7   0  -8 2452.05 2009.71   1
   7   0  -8 2412.14 813.230   1
   8  -3   0 16067.7 5596.50   1
   8  -3   0 19910.4 5183.75   1
   1   9   3 -203.10 1606.78   1
  -1  -9  -3 2580.73 715.580   1
   1   9   3 3038.10 2238.33   1
   6  -8  -6 18219.4 4989.31   1
  -6   8   6 28141.9 7027.73   1
   6  -8  -6 43476.4 11824.4   1
   1   9  -9 -2836.6 1932.25   1
  -1  -9   9 991.980 1383.73   1
   4  -9  -6 44741.6 11928.6   1
  -4   9   6 34981.9 9116.41   1
   0   4 -12 3980.66 1145.53   1
   0  -4  12 9149.53 2346.85   1
   0  -4  12 7790.94 4962.90   1
   0  -4  12 2108.78 2115.60   1
  -6   6   8 23359.4 6652.01   1
   6  -6  -8 34635.6 9322.25   1
  -6   6   8 14339.4 5248.70   1
   6  -6  -8 17194.3 4838.31   1
   3 -11   6 80.2500 1823.10   1
   3 -11   6 3486.94 1244.22   1
  -3  11  -6 -2199.7 1813.76   1
  -5   6  -8 1914.04 1054.69   1
   5  -6   8 -437.75 1335.86   1
   5  -6   8 -913.24 1899.07   1
   6   4   0 2674.93 1035.86   1
   6   4   0 4792.43 1925.57   1
   6   4   0 3011.65 1235.81   1
   1   4   9 2186.44 1952.00   1
   1   4   9 1566.65 1384.08   1
   7  -3   4 1841.09 2560.65   1
   7  -3   4 3593.27 2060.63   1
  -3   0  12 34386.7 9371.11   1
   3   0 -12 23414.3 6221.74   1
  -3   0  12 18246.6 6015.82   1
   4 -11   5 8778.14 2446.94   1
   4 -11   5 12921.5 3684.37   1
  -4  11  -5 10902.4 3894.78   1
  -4  -7   8 7342.66 1792.27   1
   4   7  -8 5762.30 2999.71   1
   2  -8  10 11411.2 3661.32   1
  -2   8 -10 7165.49 1963.45   1
   2  -8  10 6463.55 2847.99   1
   7   1   1 1307.97 1683.57   1
   3   1   9 652.790 769.080   1
   3   1   9 1256.42 1304.96   1
   7  -1   3 954.610 1948.34   1
   7  -1   3 6206.82 1514.28   1
   3   9  -3 -5.2100 1452.69   1
  -3   5  10 26977.0 6940.15   1
   3  -5 -10 25248.2 7930.07   1
   2   9  -8 -355.89 1687.34   1
  -2  -9   8 3433.21 1239.87   1
   6  -1 -10 2931.94 1049.89   1
  -6   1  10 946.950 643.780   1
   6  -1 -10 907.740 1726.78   1
  -6   1  10 3988.12 2026.38   1
   0  11  -1 3482.61 1560.32   1
   0  11  -1 2680.01 2673.28   1
   0 -11   1 4848.38 1682.05   1
   8  -6  -3 3695.76 2139.33   1
   8  -6  -3 -1976.5 1975.47   1
  -4  -4  11 23866.6 6852.30   1
   4   4 -11 16944.9 5322.49   1
  -4  -4  11 14800.8 4546.49   1
  -5  11  -3 1231.75 924.090   1
   5 -11   3 1359.02 1346.80   1
  -5  11  -3 2730.69 1481.02   1
   5 -11   3 -328.84 1424.82   1
   1   7 -11 2355.26 3120.82   1
  -1  -7  11 -1014.5 1393.74   1
   2   1  10 3917.74 1749.37   1
   2   1  10 3403.58 1581.18   1
  -6  10  -3 1890.06 1560.83   1
   6 -10   3 4348.09 1597.45   1
   0   5   9 2189.58 1223.53   1
   0   5   9 1759.57 1511.38   1
   6  -2   6 4409.41 1271.37   1
   6  -2   6 7458.39 2078.88   1
   6  -2   6 2937.51 2813.45   1
   8  -4  -5 2886.95 1222.72   1
   8  -4  -5 1908.68 1246.71   1
   5   1 -11 3723.11 2508.15   1
  -5  -1  11 968.240 1095.04   1
  -5  -1  11 4052.91 1591.71   1
   8  -1  -3 1033.35 1556.68   1
   5  -3   8 2081.08 1594.93   1
   5  -3   8 1790.05 818.920   1
   5  -3   8 -154.36 1945.94   1
   8  -2  -5 2084.59 1125.35   1
   8  -2  -5 1680.73 1794.19   1
   8  -2  -5 8227.10 1758.33   1
   7  -9   1 7446.03 2683.94   1
   7  -9   1 2152.36 1619.95   1
  -4   7  -9 1917.00 1397.66   1
   4  -7   9 881.310 1939.19   1
   4  -7   9 546.850 1314.06   1
   7  -8   3 3789.18 1623.11   1
   7  -8   3 4587.51 2518.94   1
  -5  11   1 20685.1 5775.52   1
   5 -11  -1 29838.1 7747.47   1
   5 -11  -1 20232.3 6406.59   1
  -5   1  11 13657.2 4144.60   1
  -5   1  11 23546.6 6584.11   1
   5  -1 -11 24008.2 6639.40   1
   3   9  -5 2491.05 1897.90   1
  -3  -9   5 3698.06 964.310   1
  -6   0  10 4993.43 2301.72   1
  -6   0  10 2814.14 1094.88   1
   6   0 -10 226.160 1615.97   1
   2  -2  11 1539.55 800.140   1
   2  -2  11 4100.17 1856.09   1
  -2   2 -11 1845.26 1212.59   1
   2  -2  11 3440.05 2686.90   1
   1   0 -12 3909.14 1272.14   1
  -1   0  12 383.310 1707.51   1
  -1   0  12 14464.8 4386.26   1
  -1  11   1 11579.5 4216.11   1
   1 -11  -1 15694.5 4596.93   1
   5  -7  -8 3164.80 1240.87   1
  -5   7   8 2669.97 2854.62   1
  -5   7   8 -444.71 910.130   1
  -3  -3  12 15813.0 4908.62   1
   3   3 -12 6667.13 2210.22   1
  -3  -3  12 2194.92 2307.32   1
  -2  11   2 19960.8 5705.99   1
   2 -11  -2 36496.3 9212.63   1
   8  -6   0 1322.38 1171.62   1
   8  -6   0 82.6900 1621.09   1
   8  -1  -4 706.450 990.960   1
   8  -1  -4 1374.21 2436.08   1
   8  -1  -4 4393.14 1128.33   1
  -5   8   7 2367.72 1004.80   1
   5  -8  -7 4151.74 1560.53   1
  -5  10   4 44782.0 11354.2   1
   5 -10  -4 38794.2 11831.5   1
   7  -9  -2 1536.76 1257.49   1
   7  -9  -2 1146.10 1060.61   1
  -7   9   2 1044.01 683.360   1
  -1   7 -11 3325.53 933.190   1
   1  -7  11 -416.74 1349.73   1
   1  -7  11 3770.92 2105.61   1
  -4   3  11 1218.56 611.970   1
   4  -3 -11 614.260 546.970   1
  -4   3  11 -704.24 2082.68   1
   6   0   5 2273.13 2471.86   1
   6   0   5 -55.210 238.440   1
   6   0   5 507.340 631.320   1
   4   8  -4 8250.53 3071.20   1
   6   3   2 887.080 1641.54   1
   6   3   2 53.1400 464.060   1
   8  -1  -2 477.260 1808.91   1
  -7   4   8 3879.81 1195.23   1
   7  -4  -8 812.770 1571.02   1
  -7   4   8 -33.840 2216.27   1
   7  -4  -8 3176.86 1418.31   1
   1   5 -12 37598.6 10216.2   1
  -1  -5  12 36713.7 9195.58   1
  -1  -5  12 47736.0 12939.3   1
  -2 -10   4 950.620 702.310   1
   2  10  -4 2836.28 1682.78   1
   6   5  -4 4485.99 3260.70   1
   6   5  -4 1205.85 717.680   1
   6  -2 -10 5546.49 2470.23   1
  -6   2  10 6820.02 1907.51   1
   6  -2 -10 11913.2 3733.42   1
  -6   2  10 6094.19 1825.33   1
   2   7   5 8390.75 2615.56   1
   5   5  -9 3110.36 2876.44   1
   3   5   6 18367.3 5035.77   1
   2  10  -3 2882.87 1152.50   1
  -4   5  10 7323.60 2676.87   1
   4  -5 -10 3312.29 873.630   1
  -4   5  10 2198.61 969.100   1
   3  -7  10 35080.7 9859.33   1
   3  -7  10 50796.2 13014.4   1
  -3   7 -10 22475.7 7821.05   1
   3   4   7 12464.0 3517.69   1
   3   4   7 14420.2 3859.33   1
   7  -7   4 1448.36 1770.30   1
   7  -7   4 1632.58 1918.75   1
   4 -10   7 1071.30 1705.52   1
   4 -10   7 -1931.1 1731.75   1
  -4  10  -7 3367.09 1668.06   1
   4   8  -3 2850.01 2053.76   1
   4  -9   8 3201.22 2481.44   1
  -4   9  -8 1452.46 1142.85   1
   4  -9   8 4449.51 2426.01   1
   0   8   6 1364.74 1098.30   1
   0  -8  -6 1906.36 623.710   1
   0   8   6 797.850 1514.35   1
   4   8  -5 5744.48 2784.08   1
  -2   5  10 7634.68 2908.36   1
  -2   5  10 5772.44 2024.94   1
   0   2  11 4073.66 1758.82   1
   0   2  11 5767.83 3661.85   1
   0  -2 -11 1579.39 797.210   1
   3   9  -2 387.830 1945.94   1
   3   9  -2 3218.74 1881.08   1
   0  -1  12 7167.57 2194.83   1
   0   1 -12 6841.24 2061.74   1
   6   5  -3 2310.38 1518.97   1
   6   5  -3 -836.50 1737.05   1
   6   5  -3 280.500 1144.60   1
   2  -6  11 -31.860 1312.53   1
   2  -6  11 1841.25 1540.17   1
  -2   6 -11 1403.49 836.400   1
   2  -6  11 9.08000 1412.81   1
   6   5  -5 4463.43 3415.61   1
   5   5   2 2408.97 1205.05   1
   5   5   2 1108.88 1317.49   1
   2  -9  -6 10733.6 3086.65   1
  -2   9   6 -284.42 1549.91   1
  -2   9   6 11002.0 4224.59   1
   8  -5   1 -1114.8 1706.97   1
   8  -5   1 -186.57 934.670   1
   3  -1  10 2389.80 1713.50   1
   3  -1  10 3482.00 3036.66   1
  -3   1 -10 1988.33 1753.12   1
   3  -1  10 1966.44 836.810   1
   8  -4   1 17867.1 5665.12   1
   8  -4   1 20405.2 5449.17   1
   5   4 -10 7571.81 2285.97   1
  -5  -4  10 5430.03 2942.74   1
   6  -9   5 12479.6 4013.08   1
  -6   9  -5 9201.36 2549.59   1
   6  -9   5 14990.7 5172.73   1
   5   0   7 4551.45 1395.52   1
   5   0   7 3450.57 1102.46   1
   5   0   7 -446.99 1819.73   1
   0  -5  12 1584.87 1648.71   1
   0  -5  12 711.670 981.310   1
   0   5 -12 381.470 1429.48   1
   0  -5  12 -112.99 697.420   1
   4   7   1 4357.16 1797.80   1
   4   7   1 7712.17 2423.96   1
   1  10   1 3567.69 2510.56   1
  -2   1  12 22054.4 7425.82   1
   2  -1 -12 5059.75 2389.01   1
  -2   1  12 -522.27 1222.54   1
  -2 -10   5 1854.00 956.240   1
   2  10  -5 2296.17 1637.88   1
  -5   6   9 840.690 2295.12   1
   5  -6  -9 106.840 673.850   1
  -5   6   9 1192.25 897.270   1
   5  -6  -9 23.8600 1512.72   1
   1   8   5 3432.66 1115.95   1
   1   8   5 1702.03 1605.37   1
   8  -2   0 -1041.7 2117.93   1
   8  -2   0 2382.71 1308.95   1
  -6  -1  10 1711.64 2624.44   1
  -6  -1  10 5862.57 1502.01   1
   6   1 -10 3930.41 2800.28   1
  -7   7   6 22977.1 6491.37   1
   7  -7  -6 29805.7 8079.65   1
   7  -7  -6 13982.9 4814.64   1
   2   3   9 16063.9 4406.03   1
   0  11  -6 2089.86 2625.15   1
   0 -11   6 5520.10 2178.59   1
   5   2 -11 -1181.1 2050.68   1
  -5  -2  11 1323.44 1210.92   1
  -5  -2  11 1669.71 1080.21   1
   8  -5  -5 97.4000 1513.02   1
   8  -5  -5 4139.65 1710.71   1
   3 -10   8 3644.25 1911.76   1
  -3  10  -8 4291.49 1907.31   1
   3 -10   8 5228.11 2072.68   1
   5   6   0 650.870 1166.82   1
   5   6   0 -275.28 971.710   1
   8  -6  -4 412.720 668.500   1
   8  -6  -4 -1120.5 1811.22   1
  -3  -7  10 16732.5 5047.05   1
   3   7 -10 9207.43 2764.86   1
  -3  -9   6 30975.3 7622.46   1
   3   9  -6 27717.1 7546.96   1
   5  -7   8 12175.3 3755.34   1
  -5   7  -8 11127.1 3709.25   1
   5  -7   8 8744.90 3791.10   1
   6   3  -9 3589.76 2174.19   1
   8  -1  -5 12534.6 4454.83   1
  -8   1   5 13627.3 4423.28   1
   8  -1  -5 16341.9 4924.57   1
   8  -1  -5 22406.9 6046.30   1
  -3   1  12 858.030 1071.97   1
  -3   1  12 2527.80 1390.10   1
   3  -1 -12 -1099.3 1072.69   1
   4   6   3 1625.39 1561.26   1
   4   6   3 115.800 963.640   1
  -6   9   5 21948.7 5647.48   1
   6  -9  -5 30278.2 8160.94   1
   7  -6  -7 37025.2 9474.54   1
   7  -6  -7 39476.5 10973.6   1
  -7   6   7 22874.3 6712.78   1
  -5   2  11 3250.60 1418.60   1
  -5   2  11 2723.46 797.300   1
   5  -2 -11 5429.99 1840.26   1
  -1   3  11 9273.49 2143.28   1
  -1   3  11 6321.22 2078.26   1
  -7  -2   7 6878.19 2825.00   1
   7   2  -7 10891.2 4306.17   1
   7  -9   2 1177.59 1448.73   1
   7  -9   2 -164.08 1265.23   1
  -6  10   3 5899.90 2069.93   1
   6 -10  -3 6991.49 2528.98   1
   6 -10  -3 4395.75 2147.37   1
  -3   9  -9 5096.14 1712.74   1
   3  -9   9 6111.86 3250.49   1
   3  -9   9 3233.83 1917.79   1
   6  -5  -9 15790.6 4342.01   1
  -6   5   9 19575.0 5961.38   1
  -6   5   9 13013.7 5352.78   1
   6  -5  -9 34497.7 9827.80   1
   2 -11   7 4047.35 2412.43   1
  -2  11  -7 6031.26 2090.28   1
   2 -11   7 7291.79 2074.62   1
   7   2   0 2864.21 1914.99   1
  -1   7   8 16789.3 5293.60   1
  -1   7   8 39433.4 11022.0   1
   1  -7  -8 28228.0 8715.56   1
   7   3  -4 6045.72 2769.83   1
   7   3  -4 2700.55 1112.99   1
   8  -7  -1 9636.64 3007.25   1
   8  -7  -1 13903.4 4406.67   1
   7   1  -8 719.000 1927.07   1
  -7  -1   8 7158.41 2129.46   1
   2  10  -2 -2330.7 1818.80   1
   2  10  -2 -1049.9 1011.74   1
   4   1   8 4727.95 1269.47   1
   4   1   8 846.630 1651.88   1
   4   1   8 2301.62 1225.84   1
   3 -12   2 1279.44 1184.25   1
  -3  12  -2 332.610 540.190   1
  -3  12  -2 -150.07 1685.34   1
   8  -1  -1 1313.45 2403.13   1
   8  -1  -1 1179.03 545.740   1
   7  -2   4 7508.02 3424.37   1
   7  -2   4 6610.58 1785.51   1
   6   4  -8 14264.2 4922.42   1
  -6  -4   8 10249.9 3977.76   1
   8  -7  -2 5038.85 1974.83   1
   8  -7  -2 3634.24 1610.62   1
  -5   9   6 2282.04 927.580   1
   5  -9  -6 4343.34 1657.39   1
  -2  -5  12 1018.06 1451.12   1
  -2  -5  12 1326.04 977.630   1
   2   5 -12 2152.18 1770.08   1
  -1  11  -7 3187.04 1987.20   1
   1 -11   7 1506.33 1014.59   1
   6  -8   6 -253.55 1744.95   1
  -6   8  -6 -279.34 2095.31   1
   6  -8   6 3836.02 2614.68   1
   5 -11   4 35059.8 9087.60   1
  -5  11  -4 18264.0 5295.66   1
   5 -11   4 23953.7 7405.82   1
   3   6   5 5506.10 2269.91   1
   7   3  -3 531.570 1751.49   1
  -8   3   6 4266.05 3309.20   1
   8  -3  -6 5499.44 1900.77   1
   8  -3  -6 2883.44 2147.28   1
   8  -3  -6 3964.31 1102.53   1
  -3  12  -3 2147.99 984.480   1
  -3  12  -3 2694.83 2432.80   1
   3 -12   3 1950.47 1386.50   1
   4  -1   9 4638.97 1340.97   1
   4  -1   9 1176.10 1833.33   1
   4  -1   9 3096.88 1557.29   1
   4   8  -2 420.480 1235.69   1
   4   8  -2 7717.09 3523.98   1
   8  -6   1 9994.86 3132.36   1
   8  -6   1 5205.96 2146.43   1
   8  -3   1 2181.07 1311.22   1
   8  -3   1 2128.73 3226.71   1
   5  -2   8 18880.7 5063.83   1
   5  -2   8 13159.0 3996.51   1
   5  -2   8 6328.19 2647.36   1
   0  11   0 817.170 1883.41   1
   0  11   0 4838.92 1459.50   1
   0 -11   0 3397.71 1347.70   1
   4   8  -6 501.210 2153.34   1
  -7   9   3 2086.83 978.970   1
   7  -9  -3 5634.43 1942.55   1
   7  -9  -3 1699.16 1623.89   1
   2 -12   3 -191.06 1033.16   1
  -2  12  -3 869.660 476.030   1
   5  -9   7 3344.58 2284.14   1
   5  -9   7 473.650 1856.53   1
  -5   9  -7 5553.48 1733.08   1
  -1   6   9 32129.5 8280.62   1
  -1   6   9 16118.8 5213.59   1
   5 -11  -2 9015.29 2593.37   1
  -5  11   2 4587.26 1958.26   1
   6   5  -2 853.990 995.660   1
   6   5  -2 412.540 956.710   1
   6   5  -2 162.890 1698.86   1
   3   3   8 7986.67 2083.65   1
   3   3   8 8565.54 1970.72   1
   1   1  11 1102.38 776.900   1
  -1  -1 -11 1156.00 934.950   1
  -2  12  -2 343.330 582.080   1
  -2  12  -2 2503.76 2785.83   1
   2 -12   2 -771.14 1127.55   1
  -4  -1  12 22565.1 6353.87   1
   4   1 -12 11960.2 3519.86   1
   3   6 -11 -849.99 2203.98   1
  -3  -6  11 2119.25 1684.90   1
  -3  -4  12 -755.67 2398.58   1
  -3  -4  12 1793.61 1814.64   1
   3   4 -12 572.120 1634.73   1
   2   8 -10 13067.8 4094.36   1
  -2  -8  10 21247.2 6038.80   1
   8  -2  -6 15561.5 3794.19   1
  -8   2   6 7975.93 3362.00   1
   8  -2  -6 7474.77 2781.42   1
   8  -2  -6 9145.52 3365.37   1
  -2   1 -11 4075.45 1761.95   1
   2  -1  11 4367.71 2349.05   1
   2  -1  11 2516.61 1117.18   1
   2  -1  11 1737.06 1551.98   1
   0   4  10 3979.44 1816.84   1
   0   4  10 -2101.4 1518.71   1
  -3  12  -1 20965.1 6140.01   1
  -3  12  -1 12343.7 3789.85   1
   3 -12   1 22823.0 5625.44   1
   7   3  -5 3292.49 1324.47   1
   7   3  -5 3121.80 2534.54   1
  -6   3  10 1538.42 675.880   1
   6  -3 -10 4140.67 2282.98   1
  -6   3  10 4380.75 2319.30   1
   6  -3 -10 5446.21 2347.20   1
   6   5  -6 6803.48 3169.44   1
  -7   8   5 1484.29 708.450   1
   7  -8  -5 332.990 2638.08   1
   7  -8  -5 1754.88 1577.32   1
   5 -10   6 -2044.5 1982.35   1
  -5  10  -6 1941.22 856.180   1
   5 -10   6 3138.69 2077.41   1
   8  -7   0 -988.74 1595.03   1
   8  -7   0 250.930 1382.81   1
  -3  10   5 918.440 1717.71   1
   3 -10  -5 1981.08 896.510   1
  -4   0  12 -214.89 1359.58   1
   4   0 -12 277.620 1333.29   1
  -4   0  12 2300.09 1279.12   1
  -1  10   4 4068.17 1775.18   1
  -1  10   4 9308.66 3650.17   1
   1 -10  -4 6305.25 1757.12   1
  -3  11   3 -882.04 1996.38   1
   1   3  10 205.490 938.080   1
   1   3  10 972.070 1360.68   1
   6 -10   4 16366.4 4812.43   1
   6 -10   4 42261.7 10033.2   1
  -6  10  -4 24618.7 6651.06   1
   4   6 -10 -666.74 2175.04   1
  -4  -6  10 974.490 1379.80   1
   5   6  -8 2880.95 2745.47   1
  -5  -6   8 1125.95 821.820   1
  -1   8   7 8204.60 2646.79   1
   1  -8  -7 13551.3 3417.50   1
  -1   8   7 24522.8 6142.14   1
  -4  10   5 31241.3 7491.21   1
   4 -10  -5 32869.4 8308.82   1
   2   7 -11 2577.03 3130.99   1
  -2  -7  11 4820.06 1957.39   1
   1  -9  10 1943.00 2185.57   1
   1  -9  10 2220.65 1195.27   1
  -1   9 -10 -1411.3 1570.06   1
   8  -4  -6 2505.87 2344.88   1
   8  -4  -6 4517.47 2362.23   1
   8  -4  -6 1642.97 662.940   1
  -2 -10   6 28891.4 6406.55   1
   2  10  -6 1630.62 1609.91   1
   1  -3  12 3610.57 1826.40   1
   1  -3  12 4549.56 2757.03   1
  -1   3 -12 1141.61 890.320   1
   1  -3  12 1804.74 746.030   1
  -1   4 -12 7717.19 2430.69   1
   1  -4  12 6752.03 3261.09   1
   1  -4  12 15505.9 4323.56   1
   1  -4  12 10217.6 2991.22   1
   8  -7  -3 1874.01 1620.60   1
   8  -7  -3 577.970 1354.70   1
   0  10   3 3927.56 1921.73   1
   0 -10  -3 8122.57 2181.43   1
   0  10   3 9309.75 3707.67   1
  -1 -10   8 5213.43 2266.24   1
   1  10  -8 2267.26 2097.34   1
   4 -11  -3 3089.83 1378.57   1
  -4  11   3 -258.52 1491.87   1
   0  -9  10 7703.53 2812.94   1
   0  -9  10 3983.16 1675.39   1
   0   9 -10 2983.45 2551.26   1
   3   9  -1 6356.98 2069.06   1
   3   9  -1 10428.0 4154.32   1
  -4  -2  12 35892.4 9810.50   1
   4   2 -12 22790.0 5590.89   1
  -4  -2  12 14636.5 5151.52   1
   2 -12   4 4074.78 2283.35   1
  -2  12  -4 2095.25 1264.91   1
   6  -5   7 7598.87 2593.93   1
   6  -5   7 3688.95 1822.90   1
   8   0  -3 -346.35 1567.36   1
   8   0  -3 932.890 385.060   1
   8   0  -3 3011.71 2144.36   1
  -8   0   3 2920.90 1463.52   1
  -1   1  12 5594.90 2066.14   1
   1  -1 -12 1844.49 798.870   1
  -1   1  12 3782.41 2851.77   1
   3   8  -9 22789.7 5738.49   1
  -3  -8   9 32230.9 7397.39   1
  -8   0   4 4387.30 2347.26   1
   8   0  -4 -390.67 836.300   1
   8   0  -4 498.520 337.500   1
   8   0  -4 -245.39 1773.84   1
   6  -1   6 1732.93 1866.50   1
   6  -1   6 42.5200 703.850   1
   6  -1   6 196.770 345.140   1
   7   3  -2 1691.45 1252.67   1
   7   3  -2 2027.63 1673.69   1
   7   3  -2 -235.65 523.680   1
  -4  11  -6 1875.96 1624.62   1
   4 -11   6 4230.57 1855.41   1
   4 -11   6 1122.99 1445.94   1
  -3  12  -4 3247.56 1355.29   1
   3 -12   4 8044.16 3517.97   1
   3 -12   4 1775.22 1470.95   1
   6   4   1 1732.43 2028.85   1
   6   4   1 -413.82 1008.49   1
   6   4   1 317.460 637.700   1
   4  -8   9 1565.71 1505.82   1
   4  -8   9 877.230 1993.02   1
  -4   8  -9 -332.52 1104.51   1
  -2  12  -1 837.580 702.210   1
  -2  12  -1 291.060 1853.63   1
   2 -12   1 2059.77 1660.49   1
  -7   5   8 40586.8 9603.33   1
   7  -5  -8 50387.6 5945.94   1
  -7   5   8 22527.9 6014.28   1
   1 -10   9 7929.85 3148.50   1
   1 -10   9 11162.8 3601.97   1
  -1  10  -9 6259.51 1858.02   1
   7  -2  -9 14206.9 4336.17   1
  -7   2   9 27856.8 7480.45   1
   7  -2  -9 21953.8 5713.54   1
  -7   2   9 26776.8 7253.52   1
  -7   1   9 -245.89 942.420   1
   7  -1  -9 1733.17 1849.08   1
  -7   1   9 2826.45 1488.43   1
   7  -1  -9 2600.87 1084.83   1
  -3   4  11 7779.37 2793.12   1
  -3   4  11 2378.65 1683.70   1
   4 -12   2 33171.1 7925.00   1
  -4  12  -2 18670.3 5200.49   1
  -4  12  -2 18443.8 4917.15   1
   4 -12   2 20558.4 5583.62   1
   5   7  -4 5541.47 2924.05   1
   6  -4   7 1861.42 726.470   1
   6  -4   7 1492.75 625.970   1
   0   0  12 1898.78 1053.31   1
   0   0  12 -9.0000 1699.45   1
   0   0 -12 1413.65 1156.63   1
   7  -5   5 -789.66 1140.44   1
   7  -5   5 4020.22 3218.83   1
   5   3   5 3595.28 1137.16   1
   2   9   2 1710.62 1316.46   1
   3   8   2 2869.25 2288.35   1
   6   2 -10 717.430 1841.04   1
  -6  -2  10 1299.88 934.350   1
   6  -6   7 4335.52 1993.25   1
   6  -6   7 3034.84 1901.04   1
   3 -11   7 2219.97 1463.68   1
  -3  11  -7 -200.65 1112.04   1
   3 -11   7 1963.83 1579.28   1
  -4  12  -1 9178.93 3535.48   1
  -4  12  -1 8259.50 3202.10   1
   4 -12   1 26146.5 6782.92   1
  -1  -6  12 2600.90 1505.82   1
   1   6 -12 -949.55 1964.25   1
  -1  -6  12 1766.66 2004.83   1
   7  -8   4 2891.32 2631.19   1
   7  -8   4 2520.13 1609.77   1
   8  -1  -6 1626.28 880.130   1
  -8   1   6 975.930 1480.77   1
   8  -1  -6 4430.83 1330.78   1
  -1 -11   4 17248.1 4365.52   1
   1  11  -4 2503.69 1757.33   1
   2  10  -1 1767.31 1248.69   1
   2  10  -1 5810.41 2522.25   1
   1  11  -3 13406.3 5674.64   1
  -1 -11   3 11375.6 2697.84   1
   1  11  -3 9775.82 2988.28   1
   5   7  -5 1045.42 1928.19   1
   0  -6  12 6830.96 2717.68   1
   0   6 -12 2477.84 2197.75   1
   0  -6  12 4501.75 2485.63   1
   0  -6  12 3912.65 1978.80   1
   1 -11  -2 3944.02 1332.71   1
  -1  11   2 -461.09 1719.41   1
   8   0  -2 912.250 1438.37   1
   7   0   3 1803.33 2401.70   1
   2  -7  11 27135.3 6906.38   1
   2  -7  11 32703.7 7594.56   1
  -2   7 -11 24566.1 7429.60   1
   3   9  -7 -192.73 1792.64   1
  -3  -9   7 2138.78 1138.12   1
   7   1   2 3007.00 3071.21   1
   5  -5 -10 1016.16 819.200   1
   5  -5 -10 3686.85 1555.11   1
  -5   5  10 58.3600 473.410   1
  -5   5  10 1216.05 2785.14   1
  -3  12   0 4602.75 1291.70   1
  -3  12   0 6573.96 3100.71   1
   3 -12   0 4670.93 1820.25   1
   1  -2  12 4241.22 3453.51   1
   1  -2  12 3509.72 1573.03   1
   1  -2  12 2498.41 1069.93   1
  -1   2 -12 5010.75 1944.76   1
   4   5 -11 -2435.9 1742.36   1
   7   3  -6 5326.17 3280.57   1
  -7  -3   6 1155.80 887.160   1
   4   7  -9 4697.46 2409.87   1
  -4  -7   9 5431.44 1798.72   1
   7  -4   5 3996.16 2502.92   1
   7  -4   5 5196.24 1697.80   1
   1  -5  12 6068.86 2304.02   1
  -1   5 -12 1456.81 1229.98   1
   1  -5  12 2069.26 1256.85   1
  -5  -3  11 15970.7 4370.26   1
   5   3 -11 8364.02 3282.18   1
  -5  -3  11 7685.22 3838.52   1
   5   7  -3 3578.06 2239.18   1
   5   7  -3 2349.97 1651.99   1
   2   8   4 3834.22 2349.47   1
   8  -6  -5 1895.47 906.560   1
   8  -6  -5 24196.0 6443.54   1
   0  -8  11 2925.50 1449.88   1
   0   8 -11 7354.89 3394.32   1
   0  -8  11 1109.37 821.730   1
  -4   1  12 30903.6 7968.31   1
   4  -1 -12 34435.3 7798.17   1
  -4   1  12 45545.8 11629.4   1
   0   9   5 1637.92 1638.89   1
   0   9   5 2137.52 1593.44   1
   0  -9  -5 1075.75 544.880   1
   7  -6   5 1922.94 1823.98   1
   7  -6   5 1398.15 2462.02   1
  -4  12  -3 2084.09 989.850   1
   4 -12   3 6374.42 2966.78   1
  -4  12  -3 4143.36 2845.77   1
   4 -12   3 2251.82 1718.39   1
   5   2   6 3548.91 2277.29   1
   5   2   6 5901.53 1529.46   1
   8  -1   0 2508.70 2209.29   1
   8  -1   0 9309.60 2364.38   1
   8  -5   2 5503.07 2135.02   1
   8  -5   2 17606.6 4501.16   1
  -1   5  10 19327.6 4756.03   1
  -1   5  10 3538.98 1950.53   1
   8   0  -5 2890.44 2030.01   1
   8   0  -5 2545.35 1148.39   1
  -8   0   5 3567.18 2816.40   1
   8   0  -5 1196.75 656.190   1
   7  -9   3 3680.30 2350.43   1
   7  -9   3 5237.16 2512.70   1
   8  -7   1 1226.53 896.020   1
   8  -7   1 852.800 1384.75   1
   8  -2   1 2843.52 2047.20   1
   8  -2   1 10615.3 2736.76   1
  -5   3  11 4346.72 4084.21   1
   5  -3 -11 20765.4 7652.06   1
   5  -3 -11 7366.01 2214.16   1
  -5   3  11 4166.28 1804.66   1
   6 -11   1 5005.17 1959.33   1
  -6  11  -1 1413.84 1065.24   1
   6 -11   1 1142.25 1494.39   1
   5   4   4 7105.75 2035.30   1
   2   9  -9 11087.7 3432.34   1
  -2  -9   9 19152.2 4847.91   1
   4   8  -1 1713.84 1554.68   1
   4   8  -1 1615.80 1002.31   1
   7  -3  -9 1369.88 1135.96   1
   7  -3  -9 5.59000 1520.26   1
  -7   3   9 2176.91 2745.60   1
  -7   3   9 1802.19 940.200   1
   0 -11   7 6574.24 2257.95   1
   0  11  -7 7449.77 3363.18   1
   3  -8  10 94.2800 1648.35   1
  -3   8 -10 1977.91 1457.32   1
   3  -8  10 54.4700 2079.79   1
   6 -11   0 7465.04 2828.38   1
  -6  11   0 4912.21 1958.22   1
   6 -11   0 4759.81 2248.88   1
   2 -10   9 2155.95 1405.93   1
   2 -10   9 2410.23 1892.85   1
  -2  10  -9 -525.45 1475.67   1
   0 -10   9 5720.66 2643.46   1
   0  10  -9 2127.96 2025.61   1
  -2   4  11 4993.77 1865.97   1
  -2   4  11 4047.22 1822.56   1
   7   0  -9 1532.45 2157.96   1
  -7   0   9 5159.86 2320.59   1
   7   0  -9 1877.37 909.260   1
   8  -4   2 1319.19 1138.21   1
   8  -4   2 3300.00 2357.03   1
  -4  -8   7 497.620 579.860   1
   4   8  -7 6218.00 3748.69   1
   6   5  -1 440.980 982.140   1
   6   5  -1 4242.71 1642.83   1
   5  -8   8 1404.99 1908.77   1
   5  -8   8 4921.01 2116.95   1
  -5   8  -8 1881.91 1112.79   1
   2 -11  -3 6567.32 2260.40   1
  -2  11   3 5316.71 3504.09   1
  -1  12  -3 17199.7 5493.30   1
   1 -12   3 22684.0 5406.16   1
  -1  12  -3 11391.9 3470.98   1
   3  -2 -12 25838.2 6472.66   1
  -3   2  12 12827.3 4025.01   1
  -3   2  12 27346.0 6892.99   1
   1  11  -5 1026.79 1427.39   1
  -1 -11   5 6156.89 1804.71   1
  -4   4  11 10609.8 3634.75   1
   4  -4 -11 12300.3 3708.51   1
  -4   4  11 10493.3 2987.94   1
   4  -4 -11 2805.20 1113.34   1
   8  -5  -6 3159.49 1424.47   1
   8  -5  -6 3374.87 2773.03   1
   8  -5  -6 2980.49 1255.31   1
  -2  10   5 35.9400 1367.11   1
  -2  10   5 6495.28 2756.69   1
   2 -10  -5 3193.21 1279.84   1
   6   5  -7 2190.74 1937.44   1
  -6  -5   7 405.870 615.310   1
  -2  12  -5 1643.78 882.790   1
   2 -12   5 6306.98 3054.92   1
   1  11  -2 4723.14 3039.57   1
  -1 -11   2 1822.97 998.010   1
   1  11  -2 28.8200 1144.47   1
  -2   2  12 1101.67 1386.50   1
   2  -2 -12 3681.71 1419.50   1
  -2   2  12 5511.51 1839.17   1
  -4  -3  12 1349.09 1092.21   1
  -4  -3  12 4581.89 4093.74   1
   4   3 -12 2364.54 2113.30   1
   4 -12   0 53381.9 3909.70   1
  -4  12   0 42680.4 10159.3   1
   1  -8  11 -211.80 996.730   1
   1  -8  11 5423.39 2133.29   1
  -1   8 -11 3731.59 2179.25   1
   3   0  10 990.500 2437.87   1
   3   0  10 411.850 890.770   1
   3   0  10 3485.99 1831.37   1
  -3   8   8 4300.69 2542.40   1
   3  -8  -8 3164.50 1114.27   1
  -3   8   8 3225.05 2036.81   1
   8  -7  -4 5248.66 1580.02   1
   8  -7  -4 4582.94 2052.91   1
   3   7   4 2416.06 1840.24   1
   4   4   6 -801.26 676.020   1
   2  -9  10 2979.40 1387.20   1
   2  -9  10 2176.47 1005.44   1
  -2   9 -10 1302.80 908.190   1
   6   2   4 2374.41 1532.12   1
   6   2   4 1464.26 554.110   1
  -3   7   9 4226.74 3953.40   1
  -3   7   9 1702.01 1252.23   1
   3  -7  -9 1735.28 1197.89   1
  -4   8   8 4087.97 2229.15   1
  -4   8   8 3699.17 2679.95   1
   4  -8  -8 3837.38 2009.98   1
   6  -3   7 3898.12 1159.27   1
   6  -3   7 -1219.0 2081.47   1
   6  -3   7 5649.29 1892.23   1
  -1  12  -4 1364.90 664.060   1
   1 -12   4 733.040 1065.99   1
   8  -6   2 4621.94 1469.09   1
   8  -6   2 3502.12 1777.04   1
  -1  12  -2 591.290 645.850   1
  -1  12  -2 3471.77 2895.34   1
   1 -12   2 1288.73 1580.92   1
  -5  10   5 1812.85 1458.75   1
   5 -10  -5 6735.08 2082.83   1
   7  -9  -4 1560.76 1155.23   1
  -7   9   4 15099.0 3438.56   1
   7  -9  -4 -222.73 1728.96   1
  -6   7   8 5909.85 3557.36   1
  -6   7   8 8047.89 2196.07   1
   6  -7  -8 14185.4 4101.61   1
   6  -7  -8 2979.32 1025.85   1
   6 -11   2 -779.99 1996.32   1
   6 -11   2 2003.48 1513.62   1
  -6  11  -2 1306.31 1517.84   1
   5   7  -6 2393.59 1911.06   1
   6  -8  -7 13056.3 3788.58   1
   6  -8  -7 7507.21 2369.83   1
  -6   8   7 5306.25 1952.00   1
   2   2  10 -501.35 1047.36   1
   2   2  10 1500.60 1073.31   1
  -1   9   6 12351.7 3865.08   1
  -1   9   6 9216.61 3153.53   1
  -6  10   4 5996.72 1285.20   1
   6 -10  -4 7164.02 2671.48   1
   5 -11   5 -261.37 1937.24   1
  -5  11  -5 -688.28 1893.81   1
   5 -11   5 1982.62 1378.77   1
  -4   7   9 2309.09 2107.18   1
  -4   7   9 4233.06 1531.22   1
   4  -7  -9 3956.18 1511.21   1
  -2  12   0 937.160 488.810   1
   2 -12   0 1549.66 1385.79   1
  -2  12   0 1274.43 1995.42   1
   7   2  -8 3500.63 2174.47   1
  -7  -2   8 2981.16 1304.48   1
   3   2   9 3030.52 1141.16   1
   3   2   9 3540.48 2069.94   1
   7 -10   0 5206.46 3014.60   1
   7 -10   0 14672.0 4545.51   1
   7  -1   4 2705.23 2534.40   1
   7  -1   4 7260.48 2013.64   1
  -4   5 -10 3028.55 1522.17   1
   4  -5  10 2144.39 831.570   1
   4  -5  10 548.680 1429.89   1
   1   9   4 887.340 1526.19   1
  -1  -9  10 1751.43 2060.14   1
   1   9 -10 11600.0 4713.48   1
  -6   4  10 6611.84 2485.40   1
   6  -4 -10 3887.68 1417.06   1
  -6   4  10 2913.89 771.220   1
   6  -4 -10 5386.51 1942.60   1
   7   3  -1 417.270 645.880   1
   7   3  -1 725.810 1729.48   1
   7   3  -1 1564.48 1060.26   1
   5   6   1 1003.94 1016.86   1
   5   6   1 932.890 1001.58   1
   6  -7   7 41104.1 9494.91   1
   6  -7   7 24786.7 6879.11   1
  -4   4 -10 5121.30 1759.21   1
   4  -4  10 1916.95 2500.39   1
   4  -4  10 6949.33 2019.98   1
   4  -4  10 392.800 1341.23   1
   2  10  -7 2102.47 1770.66   1
  -2 -10   7 -239.49 775.600   1
   7   2   1 714.840 1453.02   1
  -3  12  -5 11561.9 3664.16   1
   3 -12   5 17566.5 5317.49   1
   3 -12   5 21318.7 5773.00   1
   6 -11  -1 -1806.6 1463.37   1
   6 -11  -1 -241.15 2396.09   1
  -6  11   1 8427.35 2860.68   1
   1   8 -11 10878.5 4571.18   1
  -1  -8  11 22717.1 5645.77   1
   5  -1   8 672.440 538.640   1
   5  -1   8 -1699.6 1978.42   1
   5  -1   8 5629.57 2003.43   1
   8  -8  -1 11868.2 3474.85   1
   8  -8  -1 4194.00 1860.77   1
   5   7  -2 -31.790 1392.57   1
   5   7  -2 924.820 1395.86   1
   0 -11  -1 -512.07 523.490   1
   0  11   1 -1523.0 1847.24   1
   5 -11  -3 25937.2 7238.76   1
  -5  11   3 31309.1 7563.38   1
   7  -3   5 6001.87 1572.11   1
   7  -3   5 2697.19 2760.25   1
   6   1   5 1052.94 1737.94   1
   6   1   5 1317.52 516.070   1
   8   0  -1 783.750 1249.37   1
   1  10   2 6658.41 2490.41   1
   4   3   7 -247.36 637.520   1
   4   5   5 1829.33 1133.89   1
   4   5   5 330.970 768.700   1
   7 -10  -1 1625.42 1499.89   1
   7 -10  -1 -850.30 1733.88   1
  -3  -5  12 22235.6 5701.16   1
  -3  -5  12 26450.2 6704.06   1
   3   5 -12 15035.9 4179.77   1
   8  -3  -7 465.680 962.160   1
   8  -3  -7 2846.16 2477.91   1
  -8   3   7 2202.65 2548.06   1
   8  -3  -7 536.380 1083.32   1
   7  -7   5 5304.69 2315.62   1
   7  -7   5 2274.14 3138.38   1
  -4  12  -4 706.110 1207.13   1
   4 -12   4 5210.80 2902.11   1
   4 -12   4 884.800 2463.88   1
   6   3   3 1321.40 791.030   1
   6   3   3 963.060 1777.25   1
   8  -2  -7 1103.27 986.360   1
  -8   2   7 4470.69 2741.30   1
   8  -2  -7 6867.35 2180.48   1
   8  -2  -7 7197.19 3731.22   1
   8  -3   2 3682.10 1332.58   1
   8  -3   2 47.0000 1859.95   1
   7 -10   1 3198.27 2359.37   1
   7 -10   1 934.740 1171.53   1
   2   6 -12 21641.1 5707.94   1
  -2  -6  12 31699.4 7704.77   1
   3  -4  11 -514.66 1141.16   1
   3  -4  11 -88.740 986.290   1
   3  -4  11 935.430 2019.20   1
  -3   4 -11 1450.05 885.160   1
  -2   0 -11 3803.12 1226.38   1
   2   0  11 3301.88 1364.57   1
   2   0  11 -345.14 1236.93   1
   8  -8  -2 2957.56 1929.32   1
   8  -8  -2 -446.99 1955.06   1
   4   7   2 497.530 1109.06   1
   4   7   2 14.6300 865.760   1
   8  -8   0 6387.00 2498.42   1
   8  -8   0 9315.83 3346.63   1
   3  -5  11 1390.23 1825.00   1
   3  -5  11 2667.76 1258.59   1
  -3   5 -11 3918.86 1878.07   1
   3  -5  11 -343.96 1115.60   1
   1  -1  12 -537.97 1384.61   1
   1  -1  12 -735.76 1021.35   1
  -1   1 -12 1461.59 1268.27   1
   1  -1  12 1299.35 2787.09   1
   6  -9   6 586.560 1595.65   1
  -6   9  -6 3691.46 3185.59   1
   6  -9   6 288.640 1678.75   1
   3   9   0 4452.32 2870.88   1
   3   9   0 3941.73 1470.57   1
   5   5 -10 2863.86 1962.75   1
   1  -6  12 2631.17 1917.98   1
   1  -6  12 2918.83 2213.43   1
  -1   6 -12 1017.02 1010.28   1
   1  -6  12 2278.56 1232.95   1
   8   0  -6 3458.97 1164.07   1
  -8   0   6 12190.2 3969.35   1
   8   0  -6 11044.9 4489.41   1
   8   0  -6 7200.31 2211.02   1
  -4   9   7 7599.41 2689.45   1
   4  -9  -7 6959.18 2166.54   1
  -4   9   7 945.090 1934.95   1
   4   0   9 357.010 1634.32   1
   4   0   9 1358.48 526.650   1
   4   0   9 1568.79 1542.30   1
   3  -9  -7 2059.58 844.800   1
  -3   9   7 -46.210 1375.44   1
  -3   9   7 1597.74 1876.27   1
   1   6   8 2018.91 1383.26   1
   1   6   8 3539.90 1667.52   1
  -4   6 -10 4468.59 1503.02   1
   4  -6  10 1912.92 1564.62   1
   4  -6  10 3610.02 1281.45   1
   4  -6  10 6858.24 2567.12   1
   6   4  -9 2510.46 2104.53   1
  -6  -4   9 4757.82 2189.93   1
   5   1   7 4393.96 1306.39   1
   5   1   7 6070.05 1817.53   1
   5   1   7 2033.49 2589.98   1
   1 -11   8 27065.0 6880.00   1
   1 -11   8 18420.4 7124.51   1
  -1  11  -8 12947.5 3964.60   1
   1 -12   5 9844.96 3055.28   1
  -1  12  -5 6278.28 2054.33   1
  -7   7   7 1541.06 910.920   1
   7  -7  -7 3079.52 1343.51   1
   7  -7  -7 1934.09 1193.35   1
   1  11  -6 2819.96 2331.46   1
  -1 -11   6 2097.27 1707.25   1
   3 -12  -1 1123.23 1141.57   1
  -3  12   1 -2065.4 2083.89   1
   7   3  -7 -905.56 2191.49   1
  -7  -3   7 1688.60 1182.09   1
   1 -12   1 136.630 402.060   1
  -1  12  -1 2937.48 2648.26   1
  -1  12  -1 33.4600 696.740   1
   0   3  11 -870.49 2206.67   1
   0   3  11 3589.70 1760.67   1
  -3   6  10 -179.22 1342.81   1
  -3   6  10 1460.30 1173.01   1
   3  -6 -10 1130.66 773.900   1
   2 -11   8 -1220.9 1806.96   1
   2 -11   8 3748.85 2329.95   1
  -2  11  -8 2698.18 1887.53   1
  -6   6   9 13699.6 3269.88   1
   6  -6  -9 20645.4 5320.18   1
  -6   6   9 4741.92 2504.52   1
   6  -6  -9 7392.91 2323.58   1
   6 -10   5 6961.01 2766.92   1
  -6  10  -5 4618.69 2339.64   1
   6 -10   5 -664.29 1859.91   1
   7  -4  -9 37176.9 9788.68   1
  -7   4   9 23190.8 5890.42   1
   7  -4  -9 25252.0 6435.88   1
  -7   4   9 17827.5 5726.11   1
   4  -2 -12 250.100 391.780   1
  -4   2  12 3481.15 2038.15   1
  -4   2  12 1403.19 896.510   1
   5   5   3 2362.41 1090.40   1
   5   5   3 3475.43 1095.39   1
   4 -10   8 3369.57 1589.58   1
  -4  10  -8 3772.60 1759.57   1
   4 -10   8 2576.01 1691.80   1
   4  -3  10 4565.77 2159.97   1
  -4   3 -10 3302.40 1917.77   1
   4  -3  10 5172.93 1547.29   1
   4  -3  10 6661.65 2296.96   1
   7   1  -9 864.930 2186.84   1
  -7  -1   9 -985.80 1862.33   1
  -6   9   6 12023.3 3349.92   1
   6  -9  -6 19095.1 5585.64   1
   3  -3  11 1695.03 891.970   1
  -3   3 -11 1766.37 1331.38   1
   3  -3  11 1553.98 1780.85   1
   3  -3  11 3623.22 2700.33   1
   1  11  -1 361.630 981.990   1
   1  11  -1 5489.13 3180.95   1
   2  10   0 393.750 1455.54   1
   2  10   0 985.790 574.570   1
  -8   4   7 1578.76 1723.68   1
   8  -4  -7 3102.41 2118.45   1
   8  -4  -7 1289.53 1119.82   1
   1   7   7 6159.40 2496.87   1
   1   7   7 4696.11 1737.01   1
   6 -11   3 308.110 1320.04   1
   6 -11   3 2047.44 2178.94   1
  -6  11  -3 -698.52 1045.46   1
  -2   7   9 13860.4 4304.69   1
   2  -7  -9 30483.0 9250.69   1
  -2   7   9 36521.1 8349.04   1
   2   6   7 10092.2 3076.53   1
   2   6   7 3356.22 1928.16   1
   8  -1  -7 6058.11 1974.84   1
   8  -1  -7 8031.60 3866.97   1
   8  -1  -7 5096.20 1673.31   1
  -8   1   7 4835.65 2153.48   1
   8  -7   2 17924.7 4946.70   1
   8  -7   2 12672.6 3866.07   1
   7  -8  -6 2194.69 1339.68   1
  -7   8   6 1308.20 741.920   1
   4 -12  -1 3748.33 2019.42   1
  -4  12   1 1359.62 1539.64   1
   4  -6 -10 2545.47 1094.57   1
  -4   6  10 319.280 964.630   1
  -4   6  10 788.040 1876.33   1
  -2  -2  13 3080.52 1592.76   1
   2   2 -13 1801.51 2029.88   1
  -2  -2  13 2153.45 1414.57   1
  -2  -2  13 2735.08 2102.74   1
   5  -5   9 1852.03 1070.80   1
   5  -5   9 4374.29 2912.03   1
  -5   5  -9 886.080 1724.66   1
   5  -5   9 2934.99 1607.38   1
   7 -10  -2 3923.14 2381.68   1
  -7  10   2 592.480 586.290   1
   7 -10  -2 3097.69 1679.37   1
   2   5   8 391.320 994.160   1
   2   5   8 9538.77 2876.69   1
   2  -8  -8 30187.5 8333.00   1
  -2   8   8 46641.4 10637.3   1
  -2   8   8 20161.1 5977.46   1
   5   6  -9 1573.12 2201.70   1
  -5  -6   9 3286.21 1324.95   1
   6   3 -10 3656.43 2488.56   1
  -6  -3  10 3348.01 1736.20   1
   8  -8  -3 -900.66 2020.52   1
   8  -8  -3 1211.78 1267.53   1
   0   1  12 -1041.3 1053.44   1
   0  -1 -12 1085.72 870.860   1
   0   1  12 1002.84 1856.61   1
   5 -12   1 21354.1 5399.28   1
  -5  12  -1 27172.9 4187.83   1
   5 -12   1 35443.2 3653.05   1
   1   5   9 1730.12 1622.51   1
   1   5   9 3362.51 1661.67   1
   8   1  -4 4347.53 1854.38   1
   8   1  -4 2680.38 1622.82   1
   3   9  -8 3128.65 2335.52   1
  -3  -9   8 4296.14 1502.87   1
  -6   0  11 -1014.7 2323.25   1
   6   0 -11 943.560 1641.95   1
  -6   0  11 2675.21 1544.91   1
   7 -10   2 1761.62 1496.28   1
   7 -10   2 1332.53 1541.30   1
  -6   1  11 1074.50 674.820   1
   6  -1 -11 2210.31 1364.19   1
  -6   1  11 1383.30 942.710   1
  -1   2  12 4769.92 1854.76   1
  -1   2  12 4839.89 1899.17   1
  -5   8   8 395.530 1620.36   1
  -5   8   8 6422.92 1929.08   1
   5  -8  -8 8169.68 1955.21   1
   5   7  -7 5783.39 2258.89   1
   3  -6  11 23853.7 3695.53   1
   3  -6  11 22550.9 4511.16   1
   3  -6  11 23097.5 3730.42   1
  -3   6 -11 16927.9 4208.02   1
   7  -6  -8 1712.56 1028.47   1
  -7   6   8 1576.79 810.230   1
  -7   6   8 1484.69 1924.45   1
  -1  -3  13 2429.16 1614.20   1
  -1  -3  13 2696.81 2832.13   1
  -1  -3  13 2725.07 1426.33   1
   1   3 -13 1744.14 2027.80   1
  -2  -3  13 2644.48 2137.28   1
   2   3 -13 2651.41 2364.48   1
  -2  -3  13 6995.43 2074.40   1
   5  -4   9 3147.93 1578.30   1
   5  -4   9 -859.77 1966.90   1
   5  -4   9 2545.79 1255.11   1
  -5  12  -2 -319.86 1229.20   1
  -5  12  -2 941.670 2035.14   1
   5 -12   2 -1289.7 1242.15   1
   5 -12   2 1849.09 1769.81   1
   1   2  11 1443.58 822.550   1
   1   2  11 2151.57 1681.68   1
   8   1  -3 2659.19 1463.94   1
   8   1  -3 4273.42 2727.11   1
   6 -11  -2 1437.24 1294.78   1
  -6  11   2 4013.47 1977.33   1
   6 -11  -2 5769.44 2184.54   1
   2 -12   6 25376.1 3250.68   1
   8  -8   1 112.430 1296.60   1
   8  -8   1 16.9500 958.170   1
   8  -1   1 -2165.6 1728.99   1
   1   2 -13 1579.16 1844.74   1
  -1  -2  13 -0.9900 1346.57   1
  -1  -2  13 1771.49 1958.87   1
   4 -11  -4 19758.8 3656.80   1
  -4  11   4 20867.5 3301.32   1
   4   8   0 11.2700 1039.65   1
   4   8   0 5407.65 2386.36   1
   8  -6  -6 14293.3 3412.26   1
   8  -6  -6 24044.0 5396.79   1
   8  -6  -6 18188.5 4329.89   1
   6  -2   7 3631.81 1307.89   1
   6  -2   7 1405.41 564.670   1
   6  -2   7 778.700 2016.41   1
  -3  11   4 1093.91 1662.30   1
   3 -11  -4 2555.56 1517.41   1
  -2  -1  13 3838.45 1777.14   1
  -2  -1  13 7079.66 1507.66   1
   2   1 -13 1894.66 1411.54   1
   5  -6   9 3250.46 1921.99   1
  -5   6  -9 922.770 961.380   1
   5  -6   9 2238.82 1974.52   1
   0  -7  12 1867.02 1931.45   1
   0   7 -12 1036.54 1529.12   1
  -1   4  11 7850.63 1881.40   1
  -1   4  11 5626.41 2429.17   1
   6   0   6 -641.49 2014.94   1
   6   0   6 -440.14 362.850   1
   6   0   6 -11.380 622.530   1
   6   5   0 5019.08 1916.19   1
   6   5   0 2355.17 1399.73   1
   6   5   0 -382.06 1109.90   1
   4   4 -12 -34.010 1614.05   1
  -4  -4  12 2848.50 1699.11   1
  -4  -4  12 25.0300 2160.48   1
  -5   7   9 1739.15 2074.73   1
  -5   7   9 3727.50 1705.75   1
   5  -7  -9 3792.16 1157.97   1
  -5  -4  11 1248.13 2003.37   1
   5   4 -11 -626.12 2157.82   1
   5 -10   7 2690.17 2100.94   1
  -5  10  -7 3532.34 1051.96   1
   5 -10   7 2625.83 1829.20   1
   0   7   8 2103.96 2331.90   1
   0   7   8 1442.04 1997.77   1
   3 -10   9 869.970 1292.42   1
  -3  10  -9 3272.74 1895.93   1
   3 -10   9 4215.36 1345.88   1
   4  -9   9 -189.00 1583.07   1
  -4   9  -9 2557.05 1484.74   1
   4  -9   9 5382.41 2360.91   1
   4   2   8 1827.67 616.630   1
   4   2   8 2628.92 1043.14   1
  -1 -10   9 350.260 1219.82   1
   1  10  -9 2488.85 3094.51   1
   4   8  -8 1127.98 2005.83   1
  -4  -8   8 6142.02 1191.12   1
   8  -7  -5 6265.44 2309.39   1
   8  -7  -5 10917.7 3707.85   1
   7  -9   4 4453.98 1654.28   1
   7  -9   4 2291.70 2164.04   1
   2  -8  11 7418.57 1873.08   1
   2  -8  11 803.060 1297.80   1
  -2   8 -11 1124.77 1228.52   1
   4 -11   7 2271.90 2029.12   1
  -4  11  -7 3537.31 1291.53   1
   4 -11   7 3255.38 1512.88   1
   4   6   4 876.690 900.740   1
   4   6   4 817.010 1213.40   1
   5   7  -1 1962.21 1066.36   1
   5   7  -1 -1080.0 1153.75   1
  -5  12   0 13357.5 3371.31   1
   5 -12   0 12417.2 2454.29   1
  -5   0  12 10813.6 2665.09   1
  -5   0  12 4404.23 1458.57   1
   5   0 -12 4793.55 2159.66   1
   6   5  -8 -467.48 2017.82   1
   8   1  -5 3005.85 1911.98   1
   8   1  -5 1321.59 1016.31   1
   8   1  -5 1584.82 621.590   1
  -8  -1   5 1847.95 1170.08   1
   6   4   2 -1272.3 1669.45   1
   6   4   2 2066.59 1126.95   1
   6   4   2 124.150 956.770   1
   0   6   9 415.640 1211.51   1
   0   6   9 1084.35 835.230   1
  -2  12   1 -702.23 1930.81   1
   2 -12  -1 5651.27 1686.05   1
  -3  -7  11 1326.38 1289.82   1
   3   7 -11 2165.82 1376.72   1
  -5   4  11 1173.85 1775.69   1
   5  -4 -11 2987.30 1766.14   1
   5  -4 -11 -229.53 841.910   1
  -5   4  11 615.730 620.060   1
  -1  -7  12 22084.2 3830.09   1
   1   7 -12 13096.5 3388.11   1
   6  -8   7 0.20000 1408.95   1
  -6   8  -7 -1372.3 1879.04   1
   6  -8   7 399.400 1961.78   1
   7  -2   5 2922.43 2875.23   1
  -5  -1  12 14384.2 2851.03   1
  -5  -1  12 45079.7 7138.17   1
   5   1 -12 18668.0 3251.05   1
  -2   6  10 11260.9 3761.13   1
  -2   6  10 29953.7 3377.40   1
   8  -2   2 4613.00 1240.80   1
   8  -2   2 1701.98 1662.65   1
   8   0   0 2993.07 1874.29   1
  -1  -4  13 8855.91 2369.32   1
  -1  -4  13 16589.0 3106.99   1
   1   4 -13 6389.48 2289.04   1
   2   7   6 1607.25 1693.20   1
   4 -12   5 1652.91 1935.97   1
  -4  12  -5 1477.98 1302.52   1
   4 -12   5 417.200 1542.62   1
   8  -5   3 22.6800 848.050   1
   8  -5   3 7350.07 3635.41   1
   5  -9  -7 16047.9 3340.99   1
  -5   9   7 9753.65 2033.46   1
  -6  -1  11 560.050 780.860   1
  -6  -1  11 -859.26 1627.37   1
   6   1 -11 362.600 1747.70   1
   4  -7  10 1787.48 2292.78   1
  -4   7 -10 2033.29 1507.60   1
   4  -7  10 483.780 1306.98   1
   6  -2 -11 2882.49 1409.21   1
  -6   2  11 2142.09 914.320   1
   6  -2 -11 2953.91 2039.12   1
  -6   2  11 -1998.3 1713.62   1
   7   3   0 -383.96 1360.45   1
   7   3   0 3573.18 2568.62   1
   0 -11   8 4712.87 1908.36   1
   0  11  -8 4138.58 3013.54   1
   5 -12   3 2692.53 1248.06   1
  -5  12  -3 757.690 1012.59   1
  -5  12  -3 158.930 1503.50   1
   5 -12   3 -275.13 1318.14   1
   8   1  -2 -432.15 1151.84   1
   8   1  -2 4647.09 3266.58   1
   7   4  -4 2386.87 1525.39   1
   7   4  -4 474.920 625.870   1
   7  -8   5 1581.42 1594.84   1
   7  -8   5 602.740 1636.41   1
   3 -12   6 8426.66 2864.46   1
  -3  12  -6 5807.89 2095.41   1
   3 -12   6 5000.44 2276.35   1
   3   8 -10 -1538.1 1647.43   1
  -3  -8  10 2437.64 1553.65   1
   2   4   9 2284.69 1005.81   1
   2  -9  -7 32799.6 6346.08   1
  -2   9   7 34884.2 4171.94   1
  -3  -2  13 1213.25 2108.09   1
   3   2 -13 2443.19 1918.49   1
  -3  -2  13 948.980 804.810   1
  -2   4 -12 808.160 460.370   1
   2  -4  12 4177.35 1524.44   1
   2  -4  12 1899.18 1680.53   1
   2  -4  12 1376.47 2147.27   1
   3  -2  11 4528.90 2777.35   1
  -3   2 -11 4716.65 1445.58   1
   3  -2  11 6967.00 1842.41   1
   3  -2  11 6116.01 1550.42   1
  -1  11   3 4857.72 2579.19   1
   1 -11  -3 1014.70 773.110   1
   1 -12   6 2536.20 1930.92   1
  -1  12  -6 3802.47 1297.73   1
  -3  -1  13 18879.1 4507.09   1
   3   1 -13 14283.3 2581.32   1
  -3  -1  13 12394.0 4552.83   1
  -5   9  -8 3239.50 1494.65   1
   5  -9   8 2805.31 1735.17   1
   5  -9   8 2467.25 1581.81   1
  -3   3  12 1919.81 1259.85   1
  -3   3  12 1280.65 951.670   1
  -1  -1  13 2529.08 2065.87   1
   1   1 -13 -639.89 1119.11   1
  -1  -1  13 5484.65 1657.53   1
   1 -12   0 5356.57 1656.72   1
  -1  12   0 1377.18 2566.14   1
   6   6  -4 1552.11 1122.04   1
   6   6  -4 625.640 2032.87   1
   1   8   6 564.510 804.390   1
   1   8   6 -1390.7 1366.40   1
   0  10   4 1568.11 1178.06   1
   0 -10  -4 1318.26 518.550   1
   0  10   4 2417.94 1729.31   1
  -2  -4  13 3963.07 1770.06   1
  -2  -4  13 591.280 1524.01   1
   2   4 -13 1322.57 1862.58   1
   4  -2  10 1609.66 893.190   1
   4  -2  10 2473.91 2768.72   1
   4  -2  10 41.1300 951.530   1
   8  -4   3 533.890 842.900   1
   8  -4   3 3154.97 2911.70   1
   5  -1 -12 3487.30 1978.35   1
  -5   1  12 2938.48 1381.80   1
  -5   1  12 5705.44 2441.28   1
   7   4  -5 2073.14 1565.20   1
   5  -3   9 8905.55 1794.37   1
   5  -3   9 21292.8 3284.00   1
   5  -3   9 1497.43 2146.61   1
   8  -6   3 7151.48 2875.99   1
   8  -6   3 9713.95 1984.20   1
  -3  11  -8 3465.34 1143.35   1
   3 -11   8 5899.94 2273.56   1
   3 -11   8 6806.93 2208.91   1
   8  -5  -7 13179.7 2511.40   1
  -8   5   7 7904.94 4229.80   1
   8  -5  -7 5644.03 1876.01   1
   8  -5  -7 9559.09 2410.62   1
   0   8   7 1281.38 1510.07   1
   0   8   7 -1827.1 1477.45   1
  -4  10   6 8289.99 2589.24   1
   4 -10  -6 6463.08 1610.52   1
  -7   9   5 1750.44 1101.98   1
   7  -9  -5 6476.95 1890.90   1
   2  10  -8 195.010 1684.40   1
  -2 -10   8 1837.46 1546.80   1
   2   9   3 1698.28 1372.10   1
   7   4  -3 1293.89 1284.62   1
   6   6  -5 3036.13 2674.46   1
  -1  10   5 6355.49 2329.61   1
   1 -10  -5 410.690 476.500   1
  -1  10   5 1539.43 1605.04   1
   8   0  -7 -254.04 698.230   1
   8   0  -7 -2195.8 2003.26   1
  -8   0   7 -837.01 1704.88   1
   1  11  -7 4539.67 2185.27   1
  -1 -11   7 2429.81 1401.76   1
  -2  -8  11 2503.23 2182.16   1
   2   8 -11 967.250 1919.18   1
   3   5   7 8204.80 2306.36   1
  -2   5 -12 3381.14 1483.12   1
   2  -5  12 2151.25 1948.17   1
   2  -5  12 1306.47 1154.36   1
   2  -5  12 1828.32 1977.40   1
   2  -3  12 93.1600 1193.90   1
   2  -3  12 967.300 1009.50   1
  -2   3 -12 -197.26 1340.63   1
   2  -3  12 2584.22 2424.89   1
   0  12  -3 4663.01 1795.73   1
   0  12  -3 7142.42 3225.72   1
   0 -12   3 8311.22 1805.18   1
  -3  10   6 2292.06 2351.07   1
  -3  10   6 4235.44 2578.71   1
   3 -10  -6 2781.48 1003.00   1
   3  -9  10 1312.77 2044.34   1
  -3   9 -10 1970.92 1470.30   1
   3  -9  10 4577.08 1657.40   1
   7   1   3 -544.64 1667.09   1
   7 -10  -3 3667.70 2283.07   1
  -7  10   3 682.980 862.640   1
   7 -10  -3 4627.53 1998.21   1
   0  12  -4 10450.4 2120.63   1
   0 -12   4 17406.8 2274.15   1
   3   8   3 1493.79 1907.25   1
  -4  -6  11 1802.10 2035.80   1
   4   6 -11 2616.33 1896.94   1
  -1   0 -12 -115.60 1133.97   1
   1   0  12 3882.49 1227.64   1
   1   0  12 3305.69 2157.28   1
   5 -11   6 17336.9 3916.82   1
   5 -11   6 14666.2 4099.51   1
  -5  11  -6 12043.9 3304.20   1
  -4  -7  10 5689.13 1617.62   1
   4   7 -10 7897.96 2813.78   1
  -2   0  13 6356.79 2063.61   1
  -2   0  13 1488.37 2273.09   1
   2   0 -13 2499.01 1284.52   1
   5  -7   9 848.110 1234.22   1
  -5   7  -9 4.30000 1182.49   1
   5  -7   9 805.470 2361.53   1
  -6   5  10 20815.8 3448.63   1
   6  -5 -10 10835.9 1999.15   1
   6  -5 -10 23570.7 4250.19   1
  -6   5  10 18455.7 6232.42   1
   1  -7  12 5000.94 2014.91   1
  -1   7 -12 4996.77 1377.41   1
   1  -7  12 2115.92 2191.36   1
   8  -8  -4 680.990 1106.05   1
   8  -8  -4 1997.77 1961.92   1
   6   6  -3 458.450 819.870   1
   6   6  -3 535.690 1219.01   1
   6   6  -3 2630.78 1750.79   1
  -3   5  11 2028.80 1425.52   1
  -3   5  11 3869.13 1287.24   1
   6 -11   4 2179.11 2103.86   1
   6 -11   4 2758.67 1912.79   1
  -6  11  -4 1489.52 1979.07   1
   5   2 -12 90.7700 1721.17   1
  -5  -2  12 -443.79 2293.70   1
  -5  -2  12 2997.92 2017.26   1
  -2   3  12 3059.74 1189.57   1
  -2   3  12 2966.16 963.770   1
   1  11   0 -983.48 1987.52   1
   0   3 -13 1071.71 753.940   1
   0  -3  13 3058.37 1202.53   1
   0  -3  13 3966.69 2553.50   1
   0  -3  13 99.4100 1461.54   1
  -3  -3  13 7665.27 1877.25   1
   3   3 -13 2572.06 2027.39   1
  -3  -3  13 2999.79 3886.98   1
  -5   6  10 5345.39 5223.71   1
  -5   6  10 2300.83 1097.46   1
  -6  10   5 26090.3 2980.47   1
   6 -10  -5 29177.0 4725.35   1
   1   4  10 2289.04 1438.07   1
   1   4  10 2776.21 1294.12   1
   7 -10   3 3117.34 2354.69   1
   7 -10   3 -577.82 1926.10   1
   7  -1 -10 4309.24 1316.57   1
  -7   1  10 3902.97 1613.56   1
   7  -1 -10 1930.28 1772.06   1
  -5  12   1 10110.2 2672.54   1
   5 -12  -1 8016.36 1880.76   1
   3  -7  11 849.770 1451.21   1
  -3   7 -11 1538.55 1332.74   1
   3  -7  11 610.880 2260.90   1
  -5  11   4 2776.44 1788.62   1
   5 -11  -4 3734.25 1255.54   1
  -8  -1   6 8218.86 2099.50   1
   8   1  -6 -475.02 2366.92   1
  -7   5   9 105.940 2101.48   1
   7  -5  -9 -200.68 1284.06   1
  -7   5   9 1286.30 612.940   1
   7  -5  -9 1717.62 1103.84   1
   3   1  10 2469.45 1294.72   1
   3   1  10 284.440 1009.62   1
   3 -12  -2 -15.590 1059.52   1
  -3  12   2 2883.28 1941.24   1
   0  11   2 4142.99 2391.08   1
   0 -11  -2 7308.40 1398.76   1
   7   0   4 2579.80 2374.46   1
   1 -10  10 3624.04 1546.77   1
   1 -10  10 5388.01 2317.43   1
  -1  10 -10 5064.41 1724.95   1
   7   3  -8 2560.19 2305.65   1
  -7  -2   9 -1163.8 1591.65   1
   7   2  -9 -230.44 1903.13   1
   3   4   8 4738.17 1681.19   1
   3   4   8 4876.01 1199.81   1
   3   6   6 5301.64 2147.80   1
   0   5  10 6470.85 2005.63   1
   8  -8   2 1043.35 554.240   1
   8  -8   2 893.950 1326.66   1
  -3   0  13 1895.73 1290.95   1
   3   0 -13 3230.16 2023.90   1
  -3   0  13 3827.26 1118.66   1
   0  -4  13 11117.6 4193.43   1
   0  -4  13 -984.67 1408.20   1
   0   4 -13 3576.79 937.030   1
   0  -4  13 7524.01 2633.57   1
  -2  11   4 6447.85 2783.96   1
   2 -11  -4 6763.72 1388.62   1
  -7   2  10 290.310 909.210   1
   7  -2 -10 -46.720 921.090   1
   7  -2 -10 2666.24 1452.98   1
  -7   2  10 3033.52 1649.88   1
   4 -12  -2 867.530 1141.44   1
  -4  12   2 -1069.0 1371.33   1
   5   0   8 3915.67 2860.76   1
   5   0   8 2474.88 1507.74   1
   5   0   8 940.670 1079.94   1
   2   9 -10 -1207.5 1903.80   1
  -2  -9  10 367.330 1094.26   1
   7  -5   6 2706.08 1180.26   1
   7  -5   6 5897.36 3086.53   1
   0  12  -2 1905.80 894.110   1
   0  12  -2 947.840 2010.36   1
   0 -12   2 7358.57 1699.39   1
   7   2   2 -1429.7 1998.51   1
   3   9   1 1450.27 1514.22   1
   8  -2  -8 2933.91 2071.77   1
   8  -2  -8 4405.62 1437.36   1
   8  -2  -8 3333.58 1380.58   1
   4  -5 -11 2905.90 1227.38   1
  -4   5  11 30.7300 1119.11   1
   4  -3 -12 2679.72 935.770   1
  -4   3  12 5157.33 1242.30   1
  -4   3  12 1197.87 1269.31   1
   7   4  -6 36.4200 1751.35   1
  -3  -6  12 367.380 1429.28   1
   3   6 -12 753.510 1689.90   1
   6   6  -6 1740.64 1805.11   1
   3  10  -4 1026.65 1379.57   1
   0 -12   5 475.270 1201.57   1
   0  12  -5 941.950 1696.64   1
  -1  -5  13 437.580 1352.79   1
  -1  -5  13 -278.89 1571.03   1
   1   5 -13 -2702.1 2099.04   1
   0   9 -11 1134.75 1957.69   1
   0  -9  11 1411.11 1579.16   1
   6 -11  -3 5998.23 1894.76   1
  -6  11   3 4860.49 1588.85   1
   7  -6   6 2796.50 2231.06   1
   7  -6   6 -96.500 1322.10   1
   5   6   2 3061.21 1361.23   1
   0  -2  13 7678.17 1532.06   1
   0  -2  13 4868.47 1516.52   1
   0   2 -13 3768.96 1189.41   1
   0  -2  13 9309.81 2912.84   1
   8  -9  -1 1271.56 1341.75   1
   8  -9  -1 12784.2 3079.53   1
  -8   3   8 3087.49 2701.07   1
  -8   3   8 1182.43 621.440   1
   8  -3  -8 951.860 1096.54   1
   5   7  -8 2295.17 1984.18   1
   8  -3   3 979.160 2232.46   1
   8  -3   3 693.360 646.600   1
   8   1  -1 2584.04 1755.08   1
  -5  12  -4 1242.36 1162.25   1
   5 -12   4 -298.19 1525.74   1
   5 -12   4 3060.29 2614.39   1
   8  -7   3 3233.23 2319.20   1
   8  -7   3 5459.75 1942.62   1
   2   1  11 2084.18 854.550   1
   2   1  11 286.150 1173.45   1
   7   4  -2 2028.08 1242.11   1
   7   4  -2 5155.27 2103.56   1
   7   4  -2 517.700 1066.37   1
   6   2 -11 -40.470 1764.63   1
  -6  -2  11 4577.05 1611.01   1
  -6  -2  11 3215.59 1413.67   1
  -7   0  10 2648.59 1353.25   1
  -7   0  10 323.220 771.180   1
   7   0 -10 623.800 1911.37   1
   3  10  -5 3101.96 1508.72   1
  -1   9 -11 4284.13 1279.27   1
   1  -9  11 5584.01 2174.14   1
   1  -9  11 1049.18 1053.91   1
   6  -3 -11 4988.90 1490.41   1
  -6   3  11 4527.72 1408.76   1
   6  -3 -11 3293.37 1880.49   1
  -6   3  11 5052.03 2377.04   1
   0  10 -10 2308.65 2615.66   1
   0 -10  10 700.640 1220.36   1
   8  -9   0 8093.78 2566.22   1
   8  -9   0 6350.37 2115.79   1
   2  10   1 1482.66 1482.72   1
   4   9  -4 1516.52 1670.07   1
   7  -4   6 2783.66 1906.19   1
   7  -4   6 2179.84 2403.41   1
   2  -6  12 2162.84 2150.64   1
  -2   6 -12 4386.37 1434.93   1
   2  -6  12 7648.99 2489.72   1
   2  -6  12 6773.84 2027.05   1
   5  -2 -12 7047.59 2108.21   1
  -5   2  12 7666.71 2471.08   1
  -5   2  12 7907.08 1740.10   1
   3  10  -3 -1076.0 1943.67   1
   3  10  -3 1090.08 1329.29   1
   2  -2  12 5816.40 3023.09   1
  -2   2 -12 2956.74 1019.77   1
   2  -2  12 4797.05 1380.96   1
   2  -2  12 -275.58 1259.24   1
  -2  -7  12 3337.35 2121.35   1
   2   7 -12 284.580 1874.05   1
   5 -10  -6 30822.0 5702.30   1
  -5  10   6 28954.2 3846.56   1
   4   9  -5 9558.96 2745.68   1
   1  10   3 2743.41 1755.95   1
  -8   1   8 8054.31 3761.12   1
   8  -1  -8 4192.38 2578.36   1
   8  -1  -8 4484.57 1098.22   1
   6  -5   8 3276.52 1797.49   1
   6  -5   8 2355.92 1583.47   1
   8  -9  -2 -9.4100 1478.19   1
   8  -9  -2 3832.40 2526.98   1
  -2   5  11 4007.48 1611.89   1
  -2   5  11 15182.0 2738.74   1
  -1   7   9 215.040 1038.24   1
  -1   7   9 -1375.2 1246.66   1
   6   6  -2 -1208.9 1342.94   1
   6   6  -2 2663.27 1728.62   1
   6   6  -2 -584.28 1101.72   1
   2 -12   7 4093.91 1680.70   1
  -2  12  -7 3151.07 1279.11   1
   2 -12   7 9011.97 3727.21   1
   2   8   5 646.220 1234.17   1
  -1   0  13 3037.28 2608.27   1
   1   0 -13 3856.50 928.560   1
  -1   0  13 940.190 783.950   1
  -7   3  10 5107.37 2350.20   1
   7  -3 -10 10928.3 1835.89   1
  -7   3  10 8473.95 1761.28   1
   7  -3 -10 3774.44 1592.60   1
   5   7   0 -223.10 1155.08   1
   5   7   0 246.730 931.900   1
   6  -1   7 456.190 660.670   1
   6  -1   7 432.390 323.010   1
   6  -1   7 -1021.2 1689.15   1
   6 -10   6 10260.3 3543.38   1
  -6  10  -6 11304.4 3226.87   1
   6 -10   6 16698.6 3297.71   1
   0  -5  13 10178.7 6173.34   1
   0  -5  13 4447.60 2113.02   1
   0  -5  13 788.310 914.580   1
   0   5 -13 765.090 686.860   1
   5   3   6 2512.48 1214.88   1
   2 -10  10 -792.23 1364.03   1
   2 -10  10 -259.76 1433.23   1
  -2  10 -10 -864.22 1407.85   1
   6  -6   8 8172.14 2153.74   1
   6  -6   8 9572.87 3060.30   1
  -1   8   8 4575.75 1753.32   1
   1  -8  -8 917.990 740.200   1
  -1   8   8 1299.61 1260.46   1
  -2  -5  13 46028.3 3706.22   1
  -2  -5  13 49640.7 7573.43   1
   2   5 -13 37705.4 4449.47   1
   4   9  -3 2985.89 1366.78   1
   4   9  -3 -572.45 1973.34   1
   5  -2   9 -476.76 1832.73   1
   5  -2   9 3055.87 764.120   1
   5  -2   9 4603.53 1602.59   1
   4   1   9 1163.56 1667.42   1
   4   1   9 -20.170 822.180   1
   4   1   9 1278.85 915.350   1
   5   4   5 1070.90 958.000   1
   4  -8  10 1798.10 3140.07   1
   4  -8  10 9040.12 2607.27   1
  -4   8 -10 4877.03 2220.78   1
   0  -9  -6 7122.35 1264.48   1
   0   9   6 1359.07 1521.00   1
   0   9   6 877.940 648.040   1
   3   9  -9 -1022.2 1593.26   1
  -3  -9   9 3856.08 1412.36   1
   8  -7  -6 2316.86 1299.23   1
   8  -7  -6 4504.84 2260.05   1
   4   7   3 -79.060 992.640   1
  -3  -4  13 11558.0 2877.16   1
   3   4 -13 3459.50 2457.22   1
   2   3  10 3396.10 1808.00   1
   2   3  10 1118.41 1222.27   1
  -3   1 -11 -66.870 1354.41   1
   3  -1  11 802.280 1033.28   1
   3  -1  11 -1130.1 1113.07   1
   3  -1  11 2416.76 2043.38   1
   8  -4  -8 12773.9 2459.19   1
  -8   4   8 10729.8 2043.88   1
   8  -4  -8 8262.82 2729.93   1
  -8   4   8 17007.7 4079.52   1
   2 -10  -6 12079.2 2425.32   1
  -2  10   6 4969.39 2311.39   1
  -2  10   6 11503.2 2667.77   1
   1 -11   9 2724.01 1650.46   1
  -1  11  -9 3175.11 1238.35   1
   1 -11   9 3494.64 1568.90   1
   4   5 -12 1979.84 1728.98   1
   6  -4   8 1580.93 1939.19   1
   6  -4   8 -164.22 925.660   1
  -6  -4  10 4333.29 2297.67   1
   6   4 -10 1010.10 1978.67   1
   7  -7   6 4103.78 2231.09   1
   7  -7   6 1423.63 2643.99   1
   4   8   1 3952.07 1789.18   1
   4   8   1 1132.47 816.660   1
   8  -1   2 1743.61 1622.63   1
   4 -12   6 12617.9 2209.31   1
   4 -12   6 4755.70 1806.02   1
  -4  12  -6 3479.13 1883.50   1
   8  -9   1 10454.8 2634.06   1
   8  -9   1 5111.25 2996.99   1
   3  10  -6 1728.39 1677.30   1
   0 -12   1 2935.63 837.680   1
   0  12  -1 4013.92 1902.65   1
   6   5   1 1005.95 1219.71   1
   6   5   1 1090.13 943.580   1
   6   5   1 2016.80 1910.65   1
   2  11  -4 -1123.0 1307.82   1
   6  -8  -8 -908.71 1253.32   1
  -6   8   8 1756.41 1896.11   1
  -6   8   8 81.8100 1192.02   1
   2 -12  -2 7194.67 2052.94   1
  -2  12   2 1086.02 1888.22   1
   1 -12   7 936.390 1237.28   1
  -1  12  -7 2771.08 1185.64   1
   7  -1   5 2580.65 2773.26   1
  -5  -3  12 5039.00 1229.88   1
  -5  -3  12 10294.2 3480.67   1
   5   3 -12 2630.63 2190.84   1
   6   2   5 3817.80 1046.53   1
   6   2   5 2984.51 2243.85   1
  -4  -8   9 11874.4 3480.49   1
   4   8  -9 2710.80 2809.99   1
   9  -4  -3 2787.61 1518.53   1
   9  -4  -3 4756.18 1691.73   1
   0   2  12 232.480 1902.18   1
   0   2  12 2509.47 1315.43   1
   4   1 -13 -233.17 1376.06   1
  -4  -1  13 539.820 1255.92   1
  -4  -1  13 152.800 869.780   1
   1 -12  -1 3439.64 1178.08   1
  -1  12   1 1634.97 1847.63   1
   6  -9   7 3197.85 2380.16   1
   6  -9   7 4775.39 2199.10   1
  -6   9  -7 1123.41 1824.30   1
   4   9  -6 4463.34 3217.24   1
   3   3   9 3435.25 1433.94   1
   3   3   9 4038.34 1233.69   1
   3   7   5 1731.33 1713.71   1
   8  -6  -7 5813.83 2004.34   1
   8  -6  -7 3270.08 2015.67   1
   8  -6  -7 3806.44 1891.19   1
   0 -12   6 2693.27 2105.21   1
   0  12  -6 2363.79 1993.68   1
   9  -4  -2 2983.47 1446.64   1
   9  -4  -2 4550.48 2472.21   1
   6   3   4 1889.20 1629.72   1
   6   3   4 3708.17 890.390   1
   0  -1  13 3535.37 1104.18   1
   0   1 -13 3609.67 1608.91   1
   0  -1  13 1498.28 2316.14   1
   4  -1  10 1625.79 685.230   1
   4  -1  10 3682.68 1646.78   1
   4  -1  10 5608.46 1784.65   1
  -3   1  13 18845.0 5358.20   1
   3  -1 -13 8880.14 2802.29   1
  -2   1  13 5784.55 1965.58   1
   2  -1 -13 1217.53 893.320   1
  -2   1  13 -632.23 1683.10   1
   2 -11   9 8687.82 3385.78   1
  -2  11  -9 7935.84 2581.12   1
   2 -11   9 3627.46 1823.37   1
   6   5  -9 6438.96 3403.63   1
  -1   6  10 2568.35 1684.60   1
  -1   6  10 1272.85 1102.52   1
   5  -8   9 6032.98 2555.22   1
   5  -8   9 7780.26 4183.82   1
  -5   8  -9 4917.59 1902.18   1
  -5  -6  10 278.760 1074.51   1
   5   6 -10 1114.77 2163.58   1
   6   6  -7 2829.50 1642.04   1
   3  10  -2 833.690 1714.63   1
   3  10  -2 4641.39 1856.56   1
   1   9   5 -211.92 1564.85   1
   1   9 -11 5639.24 3164.96   1
  -1  -9  11 4226.62 2000.24   1
   5 -12  -2 9172.89 4509.81   1
  -5  12   2 71.2800 1341.26   1
   2  11  -3 3760.15 1810.63   1
   2  11  -3 2985.18 3362.51   1
  -7   8   7 3940.86 1279.99   1
   7  -8  -7 6849.88 2369.56   1
   2  11  -5 4169.98 1909.65   1
   7  -9   5 2167.08 2322.48   1
   7  -9   5 1083.46 1600.42   1
   9  -5  -2 -28.980 1596.39   1
   9  -5  -2 352.100 404.310   1
  -8  -1   7 1392.02 833.980   1
   8   1  -7 7334.90 3099.87   1
   7   4  -7 3292.24 2823.89   1
   7 -10  -4 1461.87 750.360   1
  -7  10   4 1719.45 1110.07   1
   7 -10  -4 601.040 1135.71   1
   8   2  -4 2607.98 2798.15   1
   8   2  -4 1175.83 1353.53   1
   7   3   1 637.580 1487.46   1
   7   3   1 2527.35 1909.86   1
  -7  -1  10 2296.47 1603.79   1
   7   1 -10 600.270 2753.82   1
  -7   7   8 1660.90 1913.65   1
   7  -7  -8 2702.16 1628.52   1
  -7   7   8 7312.52 2193.53   1
   7  -7  -8 5559.36 1793.89   1
   6  -7  -9 2745.66 1549.16   1
  -6   7   9 -109.41 881.750   1
  -6   7   9 3795.60 2905.70   1
   9  -5  -3 4043.06 1211.14   1
   9  -5  -3 1791.63 869.100   1
  -4  -2  13 -167.65 2614.86   1
  -4  -2  13 11847.4 4623.70   1
   4   2 -13 4415.57 2295.54   1
   3 -12   7 728.960 1781.42   1
  -3  12  -7 -896.78 1720.72   1
   3 -12   7 1297.25 1393.67   1
   5   5 -11 1362.01 2022.46   1
   7  -3   6 64.4400 1984.85   1
   7  -3   6 5377.01 2119.46   1
   0  -8  12 526.810 1213.74   1
   0   8 -12 243.730 1571.73   1
   8  -9  -3 13083.5 4393.84   1
   8  -9  -3 1250.09 1149.88   1
   9  -3  -3 4316.22 1629.64   1
   9  -3  -3 3778.41 1923.65   1
   7 -11   0 -100.06 1590.43   1
   7 -11   0 1520.59 1673.01   1
  -1   3  12 2031.94 1745.76   1
  -1   3  12 938.740 740.330   1
   8  -8  -5 3066.48 1485.66   1
   8  -8  -5 11286.9 3960.07   1
  -4   0  13 35600.9 4292.16   1
  -4   0  13 11402.6 4112.40   1
   4   0 -13 20251.5 5520.99   1
   5   2   7 741.530 1690.35   1
   5   2   7 5394.07 1983.82   1
  -6   9   7 996.610 884.700   1
   6  -9  -7 833.980 774.730   1
  -1 -11   8 11744.7 3669.84   1
   1  11  -8 9077.63 3528.49   1
   9  -4  -4 2392.40 939.660   1
   9  -4  -4 2038.46 1112.29   1
   8   2  -3 387.260 979.740   1
   8   2  -3 834.240 2089.47   1
   6  -7   8 3095.79 1807.04   1
  -6   7  -8 739.520 1735.29   1
   6  -7   8 6640.42 3594.52   1
   7 -11   1 1174.05 1493.68   1
   7 -11   1 2963.94 2248.92   1
   7   4  -1 1799.21 2099.74   1
   7   4  -1 4618.65 1773.48   1
   7   4  -1 545.590 1720.67   1
   8   2  -5 2735.28 2076.27   1
  -8   0   8 1397.92 1161.24   1
   8   0  -8 7401.17 3098.33   1
   8   0  -8 7801.16 2559.58   1
   3 -13   2 23265.5 6705.73   1
  -3  13  -2 6739.48 2245.25   1
  -3  13  -2 7812.27 2882.09   1
   9  -3  -2 1490.40 1268.94   1
   9  -3  -2 1777.44 874.300   1
   6 -12   1 2039.26 1482.10   1
   6 -12   1 -540.82 1304.69   1
  -6  12  -1 1296.43 1092.98   1
   7 -10   4 6033.67 2195.42   1
   7 -10   4 2673.46 2127.24   1
   2  -9  11 7974.62 3003.53   1
  -2   9 -11 4495.67 1546.75   1
   2  -9  11 4230.55 1646.75   1
   5  -5 -11 -392.07 1346.61   1
  -5   5  11 932.230 648.470   1
  -5   5  11 320.610 2299.66   1
  -3  13  -3 594.730 866.000   1
  -3  13  -3 1577.15 1841.64   1
   3 -13   3 50.3100 1158.33   1
   4   9  -2 579.440 1342.79   1
   4   9  -2 336.010 1691.83   1
   5   5   4 3870.62 1464.65   1
   5   5   4 973.040 706.100   1
   4 -11  -5 1928.74 1252.07   1
  -4  11   5 1014.14 2129.24   1
  -6  11  -5 18499.7 5581.34   1
   6 -11   5 30583.6 3780.44   1
   6 -11   5 13360.9 3990.97   1
   9  -3  -4 9163.93 2766.80   1
   9  -3  -4 2275.72 825.080   1
   0   4  11 8728.35 2860.40   1
   0   4  11 3036.07 1402.83   1
   9  -5  -1 1622.85 1744.49   1
   9  -5  -1 3286.85 2380.28   1
   8  -2   3 2125.34 729.760   1
   8  -2   3 3884.14 2349.23   1
   1  -9  -7 1239.95 824.290   1
  -1   9   7 2829.95 1233.76   1
  -1   9   7 2670.30 1713.10   1
   3  -8  11 14499.6 4096.56   1
  -3   8 -11 7634.18 3164.46   1
   3  -8  11 13060.3 4266.68   1
   9  -4  -1 118.740 1548.15   1
   9  -4  -1 1882.36 789.000   1
   8  -8   3 3200.44 2409.52   1
   8  -8   3 6970.51 2552.29   1
   7 -11  -1 4306.10 2499.97   1
  -7  11   1 1343.90 523.910   1
   7 -11  -1 6466.26 2659.05   1
   6   1   6 3582.27 2918.75   1
   6   1   6 1057.08 531.640   1
  -1  -6  13 24969.7 7670.66   1
   1   6 -13 14233.4 4287.37   1
  -1  -6  13 27153.0 7770.24   1
   1  11   1 4916.21 2357.08   1
   8  -5   4 606.710 2314.57   1
   8  -5   4 4253.74 2146.20   1
  -4  10  -9 10352.1 3340.39   1
   4 -10   9 18002.3 5277.42   1
   4 -10   9 11499.4 6960.43   1
   2  10  -9 -792.08 1533.85   1
  -2 -10   9 858.120 905.410   1
   5   8  -4 3909.61 1552.55   1
   6 -12   0 664.000 1423.16   1
   6 -12   0 -1449.8 2198.99   1
   8   1   0 3310.41 2175.55   1
   0  11  -9 5521.81 2999.47   1
   0 -11   9 5167.64 2399.67   1
   5 -12   5 20136.2 6484.82   1
  -5  12  -5 14092.8 5796.88   1
   5 -12   5 26355.4 7312.50   1
   4  -8  -9 2632.64 1451.41   1
  -4   8   9 52.7000 1228.55   1
   2  -7  12 2123.82 1453.19   1
   2  -7  12 -661.78 1163.37   1
   2  -7  12 368.660 1796.52   1
  -2   7 -12 2694.93 1174.28   1
   5   8  -5 4717.94 2262.18   1
   4 -11   8 9417.85 3386.33   1
  -4  11  -8 6586.95 2632.69   1
   4 -11   8 6108.47 2495.13   1
   6  -3   8 3027.20 1566.19   1
   6  -3   8 4733.48 3119.28   1
  -2   1 -12 1458.35 707.680   1
   2  -1  12 1384.60 896.180   1
   2  -1  12 782.070 1611.40   1
   2  -1  12 1049.85 1255.76   1
   4   4   7 4486.45 1756.05   1
  -1 -10  10 -388.12 1223.08   1
   1  10 -10 304.160 2130.93   1
   9  -5  -4 8193.55 3136.45   1
   9  -5  -4 3319.29 1630.38   1
   3 -11  -5 6341.95 2152.94   1
  -3  11   5 4705.25 2344.91   1
   6 -12   2 2150.13 1919.33   1
  -6  12  -2 2921.35 1933.86   1
   6 -12   2 3686.21 1796.60   1
   1   3  11 6691.02 2361.10   1
   1   3  11 3890.98 2372.00   1
   1   1  12 1621.10 596.690   1
  -1  -1 -12 907.040 537.230   1
  -1  -8  12 5731.07 3096.85   1
   1   8 -12 1210.41 1875.86   1
   8  -6   4 -221.38 2253.61   1
   8  -6   4 1860.40 1526.95   1
   6   6  -1 3335.39 1518.63   1
   6   6  -1 752.990 1165.57   1
   6   6  -1 574.550 1083.41   1
   4   5   6 2198.05 1202.92   1
   9  -6  -2 1549.21 1600.43   1
   9  -6  -2 1959.86 1431.52   1
   7  -9  -6 5203.10 2281.66   1
   7  -9  -6 7500.40 3101.62   1
  -7   9   6 1487.20 897.650   1
   7  -4 -10 -71.960 1381.03   1
   7  -4 -10 3751.32 1263.96   1
  -7   4  10 1618.67 813.430   1
  -7   4  10 3377.89 3764.48   1
   2  11  -2 436.620 860.860   1
   2  11  -2 793.730 2101.90   1
  -3   8   9 5463.04 2414.28   1
   3  -8  -9 13065.0 4016.15   1
  -3   8   9 5374.54 4065.18   1
   2  11  -6 604.730 1521.20   1
  -6  -3  11 2239.06 1802.30   1
   6   3 -11 3162.58 2016.93   1
  -2  13  -3 2948.42 1181.83   1
  -2  13  -3 5167.09 2393.64   1
   2 -13   3 2627.79 1101.32   1
   1  -8  12 2040.91 1777.91   1
  -1   8 -12 2952.95 1334.15   1
   1  -8  12 1832.52 967.190   1
  -5   3  12 1313.23 722.230   1
   5  -3 -12 1547.03 1124.63   1
  -5   3  12 248.370 2111.10   1
   6   4   3 2180.59 1778.16   1
   6   4   3 4858.37 2587.88   1
   6   4   3 1978.04 805.050   1
   1  -4  13 7088.16 3779.40   1
  -1   4 -13 3430.97 1457.60   1
   1  -4  13 -247.59 1162.55   1
   1  -4  13 5071.10 1841.10   1
   6  -4 -11 13958.3 4220.99   1
  -6   4  11 13493.5 5109.56   1
   6  -4 -11 16077.8 4478.28   1
  -6   4  11 17117.8 5804.78   1
   0   6 -13 1282.32 1044.60   1
   0  -6  13 1205.34 1436.85   1
   0  -6  13 2955.54 1560.07   1
   4 -12  -3 7860.48 3124.80   1
  -4  12   3 7517.90 3199.06   1
  -3  13  -1 -614.79 655.570   1
   3 -13   1 2240.00 1996.12   1
  -3  13  -1 -506.14 1688.26   1
   8  -9   2 467.570 1010.91   1
   8  -9   2 997.510 1075.65   1
  -3   4  12 4427.83 1795.66   1
  -3   4  12 1754.36 1059.04   1
  -4   9   8 -1131.0 2044.60   1
   4  -9  -8 1895.61 1084.18   1
  -4   9   8 648.930 1319.71   1
  -3  13  -4 1742.34 1068.07   1
   3 -13   4 1573.55 1145.87   1
   5 -10   8 675.710 1422.55   1
  -5  10  -8 5111.50 1941.43   1
   5 -10   8 1821.39 1382.25   1
   3  10  -7 6351.24 2270.20   1
   1  -3  13 737.080 777.900   1
   1  -3  13 684.250 1790.16   1
  -1   3 -13 1064.51 910.660   1
   1  -3  13 483.740 1226.60   1
   9  -6  -3 54.7300 660.520   1
   9  -6  -3 1360.79 822.390   1
  -4  -3  13 9848.82 3800.15   1
   4   3 -13 5192.56 1988.72   1
  -4  -3  13 17075.0 5248.59   1
  -8   5   8 1.09000 1882.92   1
   8  -5  -8 627.400 1936.79   1
  -8   5   8 451.940 285.020   1
   8  -5  -8 729.430 1230.81   1
   7 -11   2 2471.98 2267.13   1
   7 -11   2 2410.66 2126.39   1
  -7   6   9 2018.87 771.380   1
   7  -6  -9 2393.02 857.340   1
  -7   6   9 8490.85 4670.11   1
   7  -6  -9 1622.39 1135.48   1
  -2  13  -2 -244.08 573.810   1
  -2  13  -2 2059.73 1787.36   1
   2 -13   2 -878.87 934.410   1
   4 -13   2 1244.34 1847.40   1
  -4  13  -2 3032.76 1430.97   1
  -4  13  -2 2411.92 934.490   1
  -6  11   4 14761.6 4115.49   1
   6 -11  -4 21754.6 6996.20   1
  -3  12   3 1920.09 1902.35   1
   3 -12  -3 3408.12 1484.73   1
   4   9  -7 3673.37 2209.41   1
   8  -4   4 6455.70 3460.95   1
   8  -4   4 2727.06 1502.49   1
   8   2  -2 1813.48 1492.92   1
   8   2  -2 -443.27 1045.52   1
   9  -6  -1 880.910 1326.58   1
   9  -6  -1 1267.73 2078.15   1
   5   8  -3 1400.05 2032.14   1
   5   8  -3 1033.48 1371.16   1
  -7  -3   9 1775.12 1372.17   1
   7   3  -9 1826.96 2593.06   1
   7  -8   6 1295.62 1474.63   1
   7  -8   6 615.200 1728.71   1
   9  -2  -3 1766.86 1288.62   1
  -4   7  10 2759.10 1389.57   1
   4  -7 -10 2826.99 1241.42   1
  -4   7  10 1292.06 1604.64   1
   2 -13   4 364.930 1084.82   1
  -2  13  -4 3157.87 1816.03   1
   9  -3  -1 4348.95 2856.24   1
   9  -3  -1 987.610 863.100   1
  -4   1  13 1841.18 782.100   1
   4  -1 -13 -1016.0 1012.98   1
  -4   1  13 1355.01 1559.80   1
  -5  11  -7 1923.96 1428.06   1
   5 -11   7 2389.41 1692.43   1
   5 -11   7 429.480 1896.47   1
   8   2  -6 4263.92 2519.90   1
  -3   7  10 4209.87 2046.79   1
  -3   7  10 1897.97 978.390   1
   3  -7 -10 4054.79 1545.74   1
   3  -9  -8 2579.31 1472.62   1
  -3   9   8 3336.45 1343.99   1
   1 -11  -4 685.600 313.290   1
  -1  11   4 391.720 1152.72   1
  -1  11   4 3289.65 2349.14   1
   5   8  -6 -53.070 1879.24   1
   9  -4  -5 1935.58 905.680   1
   9  -4  -5 3902.38 928.570   1
   5   7  -9 2879.65 2996.59   1
  -5  -7   9 1273.74 832.490   1
   1  -1 -13 321.150 637.120   1
  -1   1  13 -813.45 1413.50   1
  -1   1  13 879.980 697.330   1
   9  -2  -4 752.850 620.460   1
   9  -2  -4 4227.67 2447.56   1
  -4  13  -3 10366.2 3916.53   1
  -4  13  -3 8616.92 3227.05   1
   4 -13   3 8512.43 3189.18   1
   4 -13   3 12726.8 3939.58   1
   0  12   0 -2261.4 1778.79   1
  -6   6  10 5331.85 3949.92   1
  -6   6  10 1511.38 877.550   1
   6  -6 -10 3046.95 1767.27   1
   9  -3  -5 1677.38 603.500   1
   9  -3  -5 2483.84 1250.72   1
   9  -3  -5 2247.53 1646.26   1
  -4  13  -1 21130.0 6285.66   1
   4 -13   1 34074.0 3272.06   1
  -4  13  -1 9036.98 3370.02   1
   1  -5  13 2667.41 1781.49   1
   1  -5  13 3967.29 1517.01   1
  -1   5 -13 1782.35 1230.49   1
   6 -12  -1 724.520 1947.32   1
  -6  12   1 3281.21 2144.25   1
   6 -12  -1 2208.40 1953.06   1
   3  10  -1 388.710 846.390   1
   3  10  -1 1096.10 1438.54   1
  -3  -5  13 14245.4 4201.78   1
  -3  -5  13 14530.4 4783.29   1
   3   5 -13 6416.22 2919.40   1
  -4   4  12 2180.04 650.180   1
  -4   4  12 -234.95 1562.85   1
   7 -11  -2 14526.3 4588.90   1
  -7  11   2 8060.42 2436.86   1
   7 -11  -2 14643.5 5276.72   1
  -5  11   5 25366.5 6930.62   1
   5 -11  -5 35249.7 5647.64   1
   9  -5   0 1386.90 2348.58   1
   9  -5   0 1943.33 1540.98   1
  -1   5  11 6915.14 2241.87   1
  -1   5  11 3144.26 1411.95   1
   4   3   8 1923.08 967.120   1
   9  -2  -2 9.00000 649.310   1
   9  -2  -2 -895.12 1272.91   1
   0 -12   7 9595.06 3237.85   1
   0  12  -7 3141.93 2183.13   1
   8  -7   4 3863.02 1750.39   1
   8  -7   4 2089.37 2232.81   1
   3 -11   9 14042.2 5317.03   1
  -3  11  -9 12766.6 4243.93   1
   3 -11   9 16471.4 4576.70   1
   3   8 -11 5901.00 2639.28   1
  -3  -8  11 5623.83 2315.88   1
   6 -12   3 -1463.1 1289.55   1
   6 -12   3 1804.31 2386.30   1
  -6  12  -3 -646.39 1043.11   1
   2   6 -13 2576.75 1965.08   1
  -2  -6  13 -104.28 1626.80   1
   5  -1   9 3056.32 1973.36   1
   5  -1   9 1198.74 566.760   1
   5  -1   9 672.070 1796.51   1
   0  11   3 2130.69 1637.52   1
   0   0 -13 2136.09 1229.35   1
   0   0  13 2300.03 1185.09   1
  -6  10   6 -203.93 860.860   1
   6 -10  -6 5027.31 1975.16   1
   3   9   2 1082.05 1863.99   1
   3 -10  10 1632.89 1016.13   1
  -3  10 -10 4638.84 2183.12   1
   3 -10  10 4930.45 2375.55   1
   8  -9  -4 1359.78 1589.59   1
   8  -9  -4 4707.04 2273.34   1
   9  -4   0 1317.53 997.110   1
   9  -4   0 1077.80 2469.00   1
   4   6   5 3218.12 955.670   1
   4  -5  11 928.420 1266.56   1
  -4   5 -11 -1804.1 1379.51   1
   4  -5  11 809.120 1000.89   1
   6   6  -8 3813.92 2594.32   1
  -5   8   9 4903.49 1806.50   1
   5  -8  -9 7519.79 2386.52   1
  -5   8   9 6698.13 4194.40   1
   6  -8   8 7238.12 4003.39   1
  -6   8  -8 8491.14 3232.27   1
   6  -8   8 19180.3 5391.95   1
   1  -2  13 278.040 1285.00   1
   1  -2  13 1858.59 1024.11   1
   1  -2  13 1657.35 1657.72   1
  -1   2 -13 2345.97 1137.32   1
  -2   4  12 3686.32 1637.00   1
  -2   4  12 6113.74 2424.37   1
   9  -6  -4 5457.00 2279.59   1
   9  -6  -4 2765.37 1176.78   1
  -2  13  -1 2313.77 1810.61   1
   2 -13   1 1223.48 1178.24   1
   5   4 -12 404.470 2033.74   1
  -5  -4  12 4780.39 3200.57   1
   7   2 -10 2984.62 2765.14   1
  -7  -2  10 1769.53 1166.89   1
  -8   2   9 4757.85 2390.07   1
  -8   2   9 2471.35 987.220   1
   8  -2  -9 3218.59 1086.87   1
   8  -2  -9 4475.72 2608.70   1
   2   9   4 3261.60 1360.65   1
   7   1   4 2086.20 1678.75   1
   2  10   2 571.910 1359.55   1
   5   1   8 1469.25 760.840   1
   5   1   8 -85.520 1545.91   1
   7  -2   6 2960.94 1130.27   1
   7  -2   6 -1130.0 1856.65   1
  -3   2  13 786.790 888.500   1
   3  -2 -13 -215.56 880.080   1
  -3   2  13 2014.13 1078.95   1
   9  -5  -5 4349.94 1735.98   1
   9  -5  -5 3273.34 1093.37   1
   7   4  -8 -455.93 1888.74   1
   5   7   1 717.700 999.320   1
   5   7   1 86.1000 913.280   1
   6   0 -12 40.8900 1626.52   1
  -6   0  12 -131.48 1406.62   1
  -6   0  12 3564.12 1631.70   1
   4   9  -1 1150.58 1348.13   1
   4   9  -1 1477.87 1563.02   1
  -4   4 -11 3424.30 1679.35   1
   4  -4  11 -852.24 2065.42   1
   4  -4  11 1921.40 1274.37   1
   4  -4  11 -195.06 1201.73   1
   9  -6   0 772.530 973.090   1
   9  -6   0 -100.87 1460.87   1
   0  10   5 50.7300 1508.22   1
  -2  12  -8 1472.50 1537.88   1
   2 -12   8 1220.38 1459.56   1
   2 -12   8 60.2100 1087.62   1
  -4  -7  11 -134.16 1075.23   1
   4   7 -11 -809.62 1643.81   1
   7   2   3 3483.65 2610.34   1
   1  12  -4 -18.040 1449.56   1
   3 -13   0 2513.50 1217.57   1
  -3  13   0 1342.46 1697.84   1
   9  -2  -5 6118.89 2093.76   1
   9  -2  -5 2341.27 2435.36   1
   9  -2  -5 3517.71 2104.81   1
  -9   2   5 1795.44 1245.45   1
  -3  -7  12 256.680 1244.11   1
   3   7 -12 3272.51 1720.99   1
   5  -9  -8 1786.05 920.030   1
  -5   9   8 3110.14 2476.67   1
  -5   9   8 407.350 976.380   1
  -4   9 -10 3174.41 1111.11   1
   4  -9  10 4422.80 2677.77   1
   4  -9  10 196.760 1321.64   1
   3   0  11 2343.66 1612.40   1
   3   0  11 1697.45 673.970   1
   3   0  11 443.970 1875.75   1
   3   2  10 1953.66 1850.01   1
   3   2  10 602.240 791.740   1
   3   8   4 -408.47 1214.68   1
  -2  13  -5 5437.09 2134.73   1
   2 -13   5 10722.8 3510.31   1
  -5  12   3 82.9500 1191.37   1
   5 -12  -3 808.130 1752.16   1
  -6   1  12 1390.22 754.480   1
   6  -1 -12 1406.22 1690.71   1
  -6   1  12 2347.19 1835.05   1
   3 -13   5 20820.5 5979.61   1
  -3  13  -5 7667.93 2735.05   1
  -4  13  -4 -1350.5 1295.96   1
   4 -13   4 8860.94 3894.58   1
   4 -13   4 3845.07 2190.11   1
  -8   3   9 8035.25 2467.59   1
   8  -3  -9 8636.00 3061.83   1
  -8   3   9 1324.47 2282.04   1
   8  -3  -9 4886.86 2597.22   1
   8   1  -8 1030.66 1809.80   1
  -8  -1   8 3337.05 2249.48   1
   5   8  -2 2113.35 1358.45   1
   5   8  -2 1266.48 1219.62   1
  -4   6 -11 617.540 879.410   1
   4  -6  11 -425.68 1527.57   1
   4  -6  11 2182.86 1755.30   1
   4  -6  11 1521.05 915.310   1
  -8   1   9 1430.03 1217.07   1
   8  -1  -9 -230.69 1778.33   1
   8  -1  -9 6964.28 2216.27   1
   2  11  -1 4552.71 3629.35   1
   1   7   8 3113.78 1745.06   1
   1   7   8 1644.85 747.620   1
   1  12  -3 12108.4 4747.89   1
   1  12  -3 3304.03 1737.90   1
   4 -10  -7 -253.07 1056.72   1
  -4  10   7 4934.50 3087.18   1
  -4  10   7 1422.13 1386.56   1
   8  -3   4 2881.62 958.740   1
   8  -3   4 2027.75 1716.00   1
   9  -7  -2 39.0400 1116.84   1
   9  -7  -2 2838.47 1275.86   1
  -4  13   0 -1055.0 1435.11   1
   4 -13   0 3400.36 1919.24   1
  -2 -11   7 21645.5 5647.28   1
   2  11  -7 6401.97 2221.70   1
   6   0   7 -324.32 1727.54   1
   1 -12   8 3023.60 2061.66   1
  -1  12  -8 1174.32 1009.90   1
  -2   2  13 2824.43 1658.99   1
  -2   2  13 1565.77 918.260   1
   1   6   9 2055.79 1283.50   1
   1   6   9 2562.04 1647.00   1
   5  -9   9 2770.72 1901.46   1
  -5   9  -9 -63.890 1769.58   1
   5  -9   9 1035.00 1583.23   1
  -4  12  -7 3003.95 1417.25   1
   4 -12   7 8103.43 3094.90   1
   4 -12   7 3472.80 2665.02   1
   2   2  11 1502.85 1371.32   1
   2   2  11 1479.75 1141.97   1
   5   6   3 1283.35 882.440   1
   5   6   3 951.550 1123.74   1
   7 -11   3 328.090 1251.02   1
   7 -11   3 574.260 1421.23   1
   2   6   8 3907.48 1397.17   1
  -1  12   2 -967.98 1653.92   1
   1 -12  -2 1629.89 993.220   1
  -2   8   9 7487.09 2669.28   1
  -2   8   9 1539.68 1277.66   1
   2  -8  -9 2882.78 1222.65   1
   7   4   0 1022.45 1944.02   1
   7   4   0 2344.77 1385.20   1
   2 -11  -5 5929.91 2114.86   1
  -2  11   5 1305.13 1363.09   1
  -2  11   5 924.520 1553.08   1
  -1 -12   5 562.000 732.290   1
   1  12  -5 1911.02 2365.93   1
   8 -10  -1 7271.55 3284.81   1
   8 -10  -1 -2292.1 2096.38   1
   8 -10   0 5880.17 2458.73   1
   8 -10   0 14959.1 5158.42   1
   7   5  -4 1366.09 1408.10   1
   7   5  -4 -587.79 1551.69   1
   9  -7  -1 1165.53 1513.99   1
   9  -7  -1 3922.71 2077.69   1
   8   0   2 1968.59 2040.28   1
   6  -2   8 2384.76 1542.47   1
   6  -2   8 733.840 2425.69   1
   8  -7  -7 11678.2 4554.69   1
   8  -7  -7 1674.23 1250.54   1
   5  -5  10 2239.85 2775.52   1
   5  -5  10 772.180 394.110   1
  -5   5 -10 1136.33 1601.37   1
   5  -5  10 1439.77 1634.28   1
  -6  -1  12 3991.23 1748.82   1
   6   1 -12 1226.43 1756.56   1
  -6  -1  12 382.720 857.080   1
   7   5  -5 3696.46 2274.88   1
   8   2  -1 1895.24 1992.88   1
   8   2  -1 1745.99 2364.78   1
  -1  10   6 6026.30 3710.99   1
  -1  10   6 3469.61 1786.64   1
   1 -10  -6 5935.39 1931.78   1
   5   8  -7 1894.09 1924.07   1
   5  -7 -10 7995.32 2728.23   1
  -5   7  10 7457.13 2588.76   1
  -5   7  10 2237.03 3764.35   1
  -7  10   5 2214.18 997.000   1
   7 -10  -5 2757.11 1075.23   1
   9  -2  -1 -405.39 1731.72   1
   2   9 -11 16717.1 5134.06   1
  -2  -9  11 19104.2 5676.92   1
  -3   5 -12 -130.44 1455.20   1
   3  -5  12 -258.74 1239.00   1
   3  -5  12 137.990 1129.73   1
   3  -5  12 -94.460 1693.92   1
   1  -6  13 3943.90 1934.71   1
   1  -6  13 1132.24 1745.97   1
  -1   6 -13 1896.90 796.770   1
   1  -6  13 2416.90 1247.85   1
   9  -3   0 2050.65 796.640   1
   9  -3   0 462.470 2037.62   1
   4   0  10 2418.30 2255.57   1
   4   0  10 2352.38 1360.52   1
   4   0  10 2390.80 837.140   1
   3  -4  12 2255.60 2506.12   1
   3  -4  12 489.460 687.970   1
  -3   4 -12 4500.17 1799.46   1
   3  -4  12 626.100 1114.31   1
   2 -12  -3 567.390 719.380   1
  -2  12   3 -479.17 1657.41   1
  -3   6  11 1616.01 1147.66   1
  -3   6  11 2326.86 1691.72   1
  -4  -4  13 2599.64 2283.14   1
  -4  -4  13 6451.99 2532.64   1
   4   4 -13 3507.94 2175.68   1
  -3  10   7 2940.84 2376.72   1
  -3  10   7 -186.34 1335.11   1
   3 -10  -7 1145.02 968.760   1
   1 -13   3 3032.69 1845.11   1
  -1  13  -3 1842.99 975.630   1
  -1  13  -3 1230.59 1993.47   1
   9  -7  -3 2406.98 1634.25   1
   9  -7  -3 1467.37 1026.03   1
   4  -6 -11 538.580 874.810   1
  -4   6  11 -1839.3 1851.52   1
  -4   6  11 433.160 1237.29   1
   8  -8  -6 3392.82 1413.52   1
   8  -8  -6 2290.93 1329.26   1
   7   0   5 2647.56 1549.48   1
   8   2  -7 1770.20 1827.03   1
   4   6 -12 1451.77 2691.82   1
  -4  -6  12 3464.87 2108.34   1
  -2   7  10 -148.67 1103.67   1
  -2   7  10 1393.61 572.670   1
   5  -6  10 600.860 416.170   1
   5  -6  10 225.260 1217.84   1
   5  -6  10 971.310 1722.41   1
  -5   6 -10 786.510 1722.86   1
   4   8   2 1264.89 1086.04   1
   3   9 -10 7572.34 2843.97   1
  -3  -9  10 10227.8 3208.35   1
   2   8 -12 1972.01 1840.14   1
  -2  -8  12 -627.85 1271.88   1
   1 -13   4 19150.7 4314.68   1
  -1  13  -4 8585.57 2962.06   1
   6   5   2 -115.61 572.370   1
   6   5   2 -614.63 1595.00   1
  -6  12   2 3423.86 2087.58   1
   6 -12  -2 1860.39 1236.57   1
   2   7   7 1997.65 1213.43   1
   8  -1   3 -1235.8 1860.83   1
   7  -1 -11 587.090 1531.73   1
  -7   1  11 2105.64 1035.55   1
  -7   1  11 739.280 669.100   1
  -9   3   6 20.8500 1495.77   1
   9  -3  -6 1556.33 649.500   1
   9  -3  -6 3630.82 2267.92   1
   9  -3  -6 2794.14 1049.41   1
   2   5   9 3840.01 1721.17   1
   8  -9   3 5036.40 2332.42   1
   8  -9   3 358.480 1729.60   1
  -6  10  -7 6860.77 2595.71   1
   6 -10   7 2548.56 2151.15   1
   6 -10   7 1894.25 1846.04   1
  -9   1   4 2513.58 1509.54   1
   9  -1  -4 3889.28 2577.63   1
   9  -1  -4 1170.64 912.170   1
   9  -1  -3 836.910 1129.03   1
   5  -4  10 189.160 1025.92   1
   5  -4  10 126.610 2017.36   1
   5  -4  10 748.150 578.310   1
   4  -3  11 1406.00 873.160   1
   4  -3  11 4741.51 1496.60   1
  -4   3 -11 443.030 1304.76   1
   4  -3  11 283.850 1821.00   1
   4   8 -10 3087.30 1617.96   1
  -4  -8  10 5017.92 2035.09   1
  -4   2  13 2473.60 1571.57   1
   4  -2 -13 4351.79 1621.06   1
  -4   2  13 5709.05 2053.18   1
   7   5  -3 143.960 721.040   1
   7   5  -3 -841.05 1469.12   1
   7   5  -3 -209.35 841.460   1
   6   6   0 386.490 1048.82   1
   6   6   0 3957.92 1743.99   1
   6   6   0 448.890 1205.44   1
   3  10  -8 1669.92 1401.74   1
   4   9  -8 -1185.2 1719.61   1
   9  -4  -6 2114.75 1584.73   1
   9  -4  -6 2088.35 2350.86   1
   9  -4  -6 1175.82 736.660   1
   2  -9  -8 1057.14 736.610   1
  -2   9   8 2091.08 1352.39   1
  -2   9   8 2798.47 1517.19   1
   7  -5 -10 1712.13 1392.97   1
  -7   5  10 1967.12 2687.13   1
  -7   5  10 -673.97 630.340   1
   7  -5 -10 1250.85 987.820   1
   8 -10  -2 5123.15 2032.94   1
   8 -10  -2 5946.82 2727.99   1
   2  -8  12 12189.3 3819.47   1
  -2   8 -12 7344.68 2587.60   1
   2  -8  12 32837.6 3712.53   1
   8 -10   1 7861.22 3612.42   1
   8 -10   1 11185.0 3763.51   1
  -6   2  12 1165.39 611.230   1
   6  -2 -12 2491.71 2208.33   1
  -6   2  12 6488.98 3030.48   1
   8   1   1 -1673.9 1650.96   1
   1  10   4 -294.73 1568.81   1
   7 -10   5 1642.04 1215.21   1
   7 -10   5 5748.98 2740.64   1
   5 -12   6 2193.41 2240.31   1
  -5  12  -6 2811.36 1526.11   1
   5 -12   6 -161.78 1989.53   1
   1  12  -2 1740.33 1227.68   1
   1  12  -2 3208.39 2163.30   1
  -1 -11   9 4594.93 1738.57   1
   1  11  -9 4671.83 2283.60   1
  -1  10 -11 1207.58 876.400   1
   1 -10  11 -640.11 1426.38   1
   2   0  12 1202.97 1604.11   1
  -2   0 -12 -443.07 1083.43   1
   2   0  12 1859.13 834.570   1
   2   0  12 1444.60 1148.84   1
   7   3   2 108.340 1538.02   1
   7 -11  -3 6998.06 3129.48   1
   7 -11  -3 1562.84 1374.87   1
  -7  11   3 3224.61 1453.50   1
   1   8   7 1031.77 1083.67   1
   6   5 -10 2684.49 2054.39   1
   0  -7  13 473.810 1320.82   1
   0   7 -13 3954.43 2146.82   1
   7  -5   7 721.910 1095.49   1
   7  -5   7 1100.21 1583.25   1
  -6  12  -4 5675.34 2266.24   1
   6 -12   4 6339.00 2685.50   1
  -6  12  -4 570.800 1730.87   1
   6 -12   4 2064.18 1060.77   1
   8  -8   4 6386.44 2969.94   1
   8  -8   4 1336.49 1662.07   1
  -1  13  -2 4218.62 2753.78   1
   1 -13   2 1051.62 1184.66   1
   7   5  -6 2019.98 2006.44   1
  -1  -7  13 1834.66 1892.17   1
   1   7 -13 1140.45 1900.15   1
   3 -12   8 -963.11 1524.15   1
   3 -12   8 611.190 1556.95   1
  -3  12  -8 3147.94 1800.41   1
   7  -2 -11 1739.16 1078.90   1
   7  -2 -11 3554.09 1757.10   1
  -7   2  11 1039.63 674.390   1
   7  -6   7 7139.04 2571.84   1
   7  -6   7 7772.18 3633.56   1
   5 -13   2 14037.6 5059.89   1
  -5  13  -2 11823.1 3392.92   1
  -5  13  -2 13514.5 3912.83   1
   5 -13   2 22838.5 2435.47   1
   8  -4  -9 582.190 1463.04   1
  -8   4   9 253.740 671.910   1
   8  -4  -9 2004.39 749.420   1
  -8   4   9 -2312.2 2170.20   1
   0   7   9 7299.70 2774.03   1
   0   7   9 -367.90 1383.96   1
   9  -7   0 141.870 1701.18   1
   9  -7   0 1010.20 1048.74   1
   7   0 -11 1825.12 2319.72   1
  -7   0  11 4676.15 2202.24   1
  -7   0  11 3379.71 2184.69   1
   9  -5   1 2405.33 1203.93   1
   9  -5   1 1291.17 1663.10   1
  -8   6   8 9239.76 3896.11   1
   8  -6  -8 9116.91 3575.12   1
   8  -6  -8 11478.1 3489.14   1
   3  -6  12 1284.37 1586.94   1
   3  -6  12 1433.85 989.450   1
  -3   6 -12 2297.33 964.400   1
   3  -6  12 1503.88 1657.96   1
  -2  13   0 843.600 2538.73   1
   2 -13   0 2474.37 1468.43   1
   5 -13   1 6656.90 2997.08   1
  -5  13  -1 3271.31 1898.18   1
  -5  -1  13 12521.5 4505.65   1
   5   1 -13 3559.20 2079.89   1
   5 -10  -7 319.040 1365.29   1
  -5  10   7 812.610 1030.25   1
  -5  10   7 2010.26 2538.31   1
   6 -11   6 3527.55 2153.56   1
  -6  11  -6 -347.03 1842.78   1
   6 -11   6 -62.060 1987.48   1
  -5   0  13 4459.08 1899.73   1
  -5   0  13 5443.93 2368.03   1
   5   0 -13 2256.24 1301.76   1
   9  -6  -5 -61.980 1109.72   1
   9  -6  -5 4476.25 1930.94   1
   0  10 -11 11392.5 3399.97   1
   0 -10  11 11116.9 3533.30   1
   8   0  -9 9278.28 3689.58   1
  -8   0   9 -0.5800 1436.45   1
   3  -3  12 8934.04 2859.76   1
   3  -3  12 3327.24 2502.11   1
  -3   3 -12 3865.09 1507.48   1
   3  -3  12 5387.66 2112.61   1
   3  -9  11 1592.36 1790.45   1
   3  -9  11 1383.22 1533.53   1
  -3   9 -11 2982.42 1944.73   1
   4   2   9 2091.39 967.760   1
   4   2   9 1834.49 904.530   1
   1   5  10 -360.63 1050.11   1
   1   5  10 2546.16 2046.83   1
  -1   1 -13 1359.61 1088.67   1
   1  -1  13 -369.70 1057.64   1
   1  -1  13 2625.60 1776.93   1
   1  -1  13 1869.06 2135.13   1
   7  -9   6 3488.70 2574.58   1
   7  -9   6 1695.27 2110.21   1
   1  12  -6 695.160 1670.74   1
  -1 -12   6 4286.80 2212.46   1
   4  -7  11 3849.86 2721.43   1
  -4   7 -11 3834.04 1623.74   1
   4  -7  11 3398.39 2012.13   1
   9  -2  -6 2101.78 1351.31   1
  -9   2   6 2901.89 2189.43   1
   9  -2  -6 -1669.3 903.600   1
   9  -2  -6 432.120 1649.20   1
  -5   4  12 6336.55 2420.80   1
  -5   4  12 1097.39 920.680   1
   5  -4 -12 600.410 718.660   1
   0   3  12 777.640 2200.69   1
   0   3  12 9422.66 2998.38   1
   9  -1  -5 2009.85 1019.25   1
   9  -1  -5 405.670 1513.22   1
  -9   1   5 -176.23 1216.53   1
   9  -1  -5 1434.26 839.000   1
   9  -1  -2 825.910 1640.25   1
   1 -11  10 1932.12 1925.48   1
  -1  11 -10 2887.01 1425.52   1
   0   8   8 7716.14 2952.79   1
   0   8   8 5273.69 2190.74   1
   1 -13   5 67.6400 1071.82   1
  -1  13  -5 784.790 1002.88   1
   9  -6   1 -72.660 933.190   1
   9  -6   1 1678.78 1635.57   1
  -6  -4  11 483.520 1463.83   1
   6   4 -11 844.120 2957.64   1
   1  11   2 -2096.9 1557.07   1
   3  10   0 -314.98 1548.85   1
   9  -4   1 1339.60 1032.25   1
   9  -4   1 6138.79 3771.94   1
   6  -5 -11 6926.16 2812.20   1
  -6   5  11 2406.37 737.240   1
  -6   5  11 6237.11 3285.10   1
   2   2 -14 7861.79 3072.25   1
  -2  -2  14 3870.33 1486.42   1
  -2  -2  14 4216.86 2564.66   1
   6   7  -5 3594.09 2693.48   1
   4 -13   5 812.960 1719.54   1
  -4  13  -5 154.310 941.350   1
   4 -13   5 2753.28 1473.40   1
   6   7  -4 1227.49 2214.95   1
   6   7  -4 2446.40 1863.98   1
   0  12   1 372.170 1688.33   1
  -2  13  -6 5834.83 1877.59   1
   2 -13   6 12057.9 3806.66   1
  -2  -3  14 4348.57 1772.83   1
   2   3 -14 1620.19 1405.71   1
  -6  -2  12 6887.88 2505.24   1
   6   2 -12 4259.92 2193.41   1
   9  -7  -4 3666.65 1994.02   1
   9  -7  -4 -914.04 1725.43   1
   4   7   4 1753.65 1285.26   1
   5 -13   3 5356.02 2519.59   1
   5 -13   3 539.490 1278.80   1
  -5  13  -3 89.6400 1157.33   1
  -5  13  -3 420.600 904.600   1
   5  -7  10 -246.54 1288.66   1
  -5   7 -10 762.050 988.750   1
   5  -7  10 1999.59 2170.48   1
   4 -13  -1 1419.00 1612.72   1
  -4  13   1 4732.22 2284.79   1
   7  -4   7 5426.21 2550.07   1
   7  -4   7 2477.59 1802.76   1
   9  -5  -6 1974.82 1401.36   1
   9  -5  -6 1254.08 1593.99   1
   9  -5  -6 2478.11 1147.92   1
   3 -13  -1 1756.97 1474.83   1
  -3  13   1 3672.79 2513.30   1
   5   6 -11 2978.09 2216.93   1
  -5  -6  11 2405.13 1253.42   1
   0   6  10 2640.34 1650.07   1
   0   6  10 2981.36 1583.76   1
   8  -9  -5 6058.25 2682.86   1
   8  -9  -5 3187.98 1335.06   1
   0  -9  12 26080.3 2688.43   1
   0   9 -12 10753.3 3095.59   1
   3   5   8 5220.18 2103.89   1
   7  -7   7 1504.69 2797.94   1
   7  -7   7 1585.11 1265.74   1
  -5  13   0 6507.79 2146.94   1
   5 -13   0 5867.60 2781.04   1
  -5  -2  13 11725.3 4580.95   1
   5   2 -13 13901.7 4029.58   1
  -5  -2  13 25380.9 4944.97   1
   5   8  -1 4767.93 2278.47   1
   5   8  -1 1492.17 1553.02   1
   8   3  -4 979.860 2085.40   1
   3   6   7 2986.66 1491.51   1
  -7   8   8 1927.29 3017.31   1
  -7   8   8 2867.25 1317.08   1
   7  -8  -8 2981.57 1519.33   1
   1   3 -14 2265.41 845.850   1
  -1  -3  14 5093.59 2610.21   1
  -1  -3  14 3743.44 1594.40   1
  -3  13  -6 7677.79 2419.71   1
   3 -13   6 10680.4 3953.39   1
   3 -13   6 7497.64 3600.74   1
   0  12  -8 8014.16 3386.23   1
   0 -12   8 8465.20 2758.62   1
   2  10 -10 4272.94 2448.49   1
  -2 -10  10 9185.54 2856.68   1
   5  -1 -13 4753.32 1916.19   1
  -5   1  13 247.890 736.480   1
  -5   1  13 5533.00 2192.17   1
   4 -12  -4 4722.96 1842.02   1
  -4  12   4 1207.47 1462.90   1
  -2   6  11 588.900 1110.67   1
  -2   6  11 4498.35 2769.48   1
   5  -3  10 3028.78 1888.10   1
   5  -3  10 7377.73 2511.91   1
   5  -3  10 9591.12 2785.08   1
   7   5  -2 2925.84 2144.31   1
   7   5  -2 3046.45 1526.25   1
   7   5  -2 2713.43 1452.15   1
  -6  11   5 1479.50 917.390   1
   6 -11  -5 5365.99 1796.24   1
   2 -11  10 -654.08 1491.44   1
  -2  11 -10 1784.95 805.610   1
   2 -11  10 1181.83 2524.09   1
   8   3  -5 3099.60 2009.59   1
   6  -9   8 438.880 1274.75   1
  -6   9  -8 3696.31 1538.33   1
   6  -9   8 -306.16 1698.29   1
   1   2  12 946.990 888.950   1
   8  -2   4 -131.99 1827.06   1
   3   6 -13 4064.40 1926.41   1
  -3  -6  13 7429.27 2775.86   1
  -1   4  12 3023.23 1913.87   1
  -1   4  12 -608.14 1528.08   1
   5  -6 -11 14203.5 6426.54   1
  -5   6  11 7356.60 2503.03   1
  -5   6  11 7434.47 3250.03   1
  -1   2  13 626.520 1716.48   1
  -1   2  13 677.720 1021.29   1
   9  -2   0 -739.07 1723.10   1
   8 -10  -3 664.170 1679.80   1
   8 -10  -3 3473.04 2170.07   1
   0   1  13 1666.23 1573.13   1
   0   1  13 2954.85 1241.97   1
  -7   3  11 1571.09 581.880   1
   7  -3 -11 2748.40 1839.21   1
   7  -3 -11 2218.23 1740.49   1
  -7   3  11 1701.48 1504.41   1
   6   7  -6 783.950 1844.21   1
   8 -10   2 8093.09 2719.63   1
   8 -10   2 8807.45 3457.73   1
   4   9   0 1898.35 1315.87   1
   4   9   0 3280.98 1389.16   1
  -2  -1  14 -392.23 1457.33   1
   2   1 -14 2507.57 1835.23   1
  -2  -1  14 3443.28 1336.39   1
   2   8   6 3685.21 1966.85   1
  -1  -2  14 -587.65 1106.18   1
   1   2 -14 1544.85 531.140   1
  -1  -2  14 1551.76 782.000   1
  -1  13  -1 -1065.5 1755.26   1
   1 -13   1 1164.34 689.730   1
  -7  -1  11 2190.98 1380.73   1
   7   1 -11 1723.79 2625.99   1
   6   7  -3 480.230 1130.15   1
   6   7  -3 668.490 1342.57   1
   6   7  -3 12.7100 731.030   1
  -1   9 -12 6890.66 2496.40   1
   1  -9  12 3434.50 1885.73   1
   2 -10  11 1276.42 1122.57   1
  -2  10 -11 12035.0 3167.75   1
   2 -10  11 -161.81 1346.64   1
   2   4  10 435.970 948.120   1
   6   6  -9 1530.15 1856.83   1
   2  11   0 1022.01 2327.54   1
   7 -11   4 2634.38 1467.86   1
   7 -11   4 9163.42 3690.31   1
   0 -11  10 7006.28 2643.19   1
   0  11 -10 1168.13 2054.65   1
  -2 -11   8 3016.89 1453.37   1
   2  11  -8 769.050 1608.94   1
   1   4 -14 535.570 1163.71   1
  -1  -4  14 2735.06 1960.24   1
  -1  -4  14 1292.60 1115.34   1
   5   8  -8 1635.49 2990.37   1
   8  -5   5 3827.33 3607.06   1
   8  -5   5 1472.84 1074.96   1
   8   3  -3 1440.37 2047.08   1
   8   3  -3 363.450 1008.36   1
   8  -6   5 -429.89 1174.21   1
   8  -6   5 -1233.9 2671.04   1
   7  -9  -7 4625.66 3358.03   1
  -7   9   7 1046.94 896.110   1
  -3  12   4 7191.54 3557.10   1
   3 -12  -4 8668.38 2981.87   1
   7   5  -7 4520.50 1897.15   1
   3   2 -14 3755.51 2236.10   1
  -3  -2  14 3479.14 1550.61   1
  -3  -2  14 3221.20 2408.09   1
   6   3   5 6169.19 1875.60   1
   6   3   5 3126.01 2495.98   1
   1  12  -1 3646.70 2740.53   1
  -7   7   9 -839.02 2004.33   1
  -7   7   9 951.890 542.770   1
   7  -7  -9 2863.23 1533.05   1
   7   3 -10 2501.87 2094.60   1
  -7  -3  10 859.810 669.460   1
   7  -1   6 2448.28 1665.17   1
   9  -8  -1 1759.23 1275.25   1
   9  -8  -1 718.240 1351.05   1
   2   4 -14 2584.11 2239.33   1
  -2  -4  14 636.440 1525.86   1
  -2  -4  14 3180.33 2158.38   1
   9  -8  -2 -1107.4 1295.93   1
   9  -8  -2 1095.88 2067.66   1
   5   7 -10 1964.30 3044.66   1
  -5  -7  10 1351.09 821.910   1
  -6   8   9 232.430 804.240   1
  -6   8   9 -797.63 1987.85   1
   6  -8  -9 1565.09 789.370   1
  -4  11   6 2692.03 1485.16   1
   4 -11  -6 5666.16 1888.77   1
   1  -7  13 803.760 1038.79   1
  -1   7 -13 -299.35 1222.83   1
   1  -7  13 881.300 980.780   1
   2 -10  -7 2227.01 957.140   1
  -2  10   7 2377.44 1955.34   1
   5   4   6 734.950 685.960   1
   4  -2  11 5725.86 2140.18   1
   4  -2  11 3730.20 1272.80   1
   4  -2  11 3499.89 2975.22   1
   8   2   0 1462.15 2148.06   1
   8   2   0 2166.33 1438.88   1
   9  -7   1 1878.45 1424.44   1
   9  -7   1 4265.56 1855.17   1
  -7  -4   9 4104.00 2053.10   1
   7   4  -9 4322.71 2308.24   1
  -6   3  12 776.210 1531.62   1
   6  -3 -12 2418.08 1149.84   1
  -6   3  12 6633.65 2355.44   1
   6  -3 -12 8910.00 3097.35   1
   3  -7  12 8917.69 4415.80   1
  -3   7 -12 6980.21 2275.00   1
   3  -7  12 11228.9 3266.22   1
   3  -7  12 12225.2 3688.08   1
  -6   9   8 443.120 1683.45   1
  -6   9   8 89.3000 820.200   1
   6  -9  -8 2196.09 1482.62   1
   9  -3   1 5363.22 1719.03   1
   9  -3   1 3246.23 2246.91   1
   2   7 -13 16895.6 4980.54   1
  -2  -7  13 15059.5 4329.48   1
   5   0   9 476.230 1682.03   1
   5   0   9 2843.08 1050.44   1
   5   0   9 955.160 784.750   1
  -3  -1  14 2018.10 1074.36   1
   3   1 -14 611.110 1515.46   1
  -3  -1  14 2007.65 1684.77   1
   9  -1  -6 2744.69 1018.32   1
   9  -1  -6 3437.17 2054.28   1
  -9   1   6 6768.79 3192.79   1
   9  -1  -1 -1139.8 1695.89   1
   6  -5   9 1079.84 1657.10   1
   6  -5   9 676.630 1293.90   1
   2  -4  13 699.120 1634.60   1
  -2   4 -13 837.870 638.570   1
   2  -4  13 848.220 1690.46   1
   2  -4  13 68.4200 1202.33   1
   3  -2  12 594.060 1311.49   1
   3  -2  12 216.390 888.880   1
  -3   2 -12 -414.31 759.730   1
   3  -2  12 1886.46 2610.21   1
  -3   3  13 3769.67 1709.04   1
  -3   3  13 1988.75 995.710   1
   6   2   6 3393.11 2188.70   1
   6   2   6 2461.79 947.260   1
   5   5 -12 1839.51 2099.69   1
   0   9   7 5910.30 2297.96   1
   0   9   7 422.930 1580.79   1
   3   4   9 4069.74 1738.88   1
   6  -6   9 -14.380 1039.03   1
   6  -6   9 -826.08 1755.92   1
   4 -11   9 1317.68 883.770   1
  -4  11  -9 1510.85 789.170   1
   4 -11   9 311.200 1333.84   1
   1 -13   6 7242.82 2415.79   1
  -1  13  -6 5170.99 1821.10   1
  -8  -2   8 3694.08 1950.54   1
   8   2  -8 1549.68 1894.27   1
   5 -13   4 759.680 1174.20   1
  -5  13  -4 -777.39 1314.41   1
  -5  13  -4 2180.15 794.620   1
   5 -13   4 2584.73 2052.53   1
   8   3  -6 -327.66 1556.35   1
   6 -12  -3 11474.5 3387.86   1
  -6  12   3 4389.01 1999.79   1
   5   3   7 485.530 832.270   1
  -3  -3  14 1847.66 1127.75   1
   3   3 -14 290.910 1404.45   1
  -3  -3  14 -1837.1 1663.32   1
   8  -5  -9 9781.87 3171.08   1
  -8   5   9 2715.20 2171.78   1
  -8   5   9 3001.97 1045.64   1
   8  -5  -9 1756.58 1216.89   1
   1   9   6 2288.25 1863.76   1
   1   9 -12 -226.75 1949.11   1
  -1  -9  12 -1021.6 1231.53   1
   2  -5  13 1566.24 688.160   1
   2  -5  13 186.630 1686.54   1
  -2   5 -13 2056.65 1267.87   1
   2  -5  13 3467.41 1819.58   1
   3   7   6 3203.47 1565.91   1
   1  10 -11 4730.24 3042.88   1
  -1 -10  11 12031.2 3880.83   1
  -1 -12   7 4584.61 1638.43   1
   1  12  -7 171.830 1647.75   1
   9  -3  -7 1959.03 726.490   1
   9  -3  -7 1532.52 1726.71   1
  -9   3   7 2453.27 2334.90   1
   9  -3  -7 766.680 531.950   1
  -3   5  12 2736.00 1291.23   1
  -3   5  12 5029.58 3046.95   1
   6  -1   8 68.2700 1629.14   1
   6  -1   8 3088.23 1456.41   1
  -5  12   4 2803.13 2055.88   1
   5 -12  -4 14080.1 3900.27   1
   5 -11   8 382.750 1389.05   1
   5 -11   8 1749.25 980.600   1
  -5  11  -8 1587.05 875.320   1
   8  -4   5 1393.09 1364.59   1
   8  -4   5 1795.51 1793.81   1
  -3  11   6 1648.54 1760.29   1
  -3  11   6 727.380 1436.13   1
   3 -11  -6 1535.21 1011.20   1
   4   5 -13 -424.25 1590.01   1
  -4  -5  13 -960.55 1437.89   1
   9  -8   0 -38.830 1764.27   1
   9  -8   0 3308.67 1785.74   1
   9  -8  -3 3311.40 2577.78   1
   9  -8  -3 588.990 1160.29   1
   8  -7   5 1655.99 1137.58   1
   8  -7   5 389.970 1964.59   1
  -8  -1   9 4678.58 2375.14   1
   8   1  -9 3174.66 2077.48   1
   6   4   4 2291.41 1757.37   1
   6   4   4 5876.55 1830.10   1
   7   4   1 1291.36 1050.59   1
   7   4   1 -864.96 1327.11   1
   7  -3   7 5319.74 3609.96   1
   7  -3   7 2348.91 1482.31   1
   5   5   5 1152.56 1050.66   1
  -4   5  12 1246.23 1698.54   1
  -4   5  12 7381.23 3016.60   1
  -5  13   1 2896.09 1986.19   1
   5 -13  -1 -263.69 1266.11   1
   9   0  -4 1128.75 1509.39   1
   9   0  -4 1074.18 802.020   1
  -1  -1  14 504.140 1514.00   1
  -1  -1  14 3155.91 1756.98   1
  -1  -1  14 15304.8 5039.39   1
   1   1 -14 6624.53 2289.25   1
   4  -8  11 1395.05 1616.03   1
   4  -8  11 1012.34 2190.77   1
  -4   8 -11 1092.34 888.670   1
  -2  13   1 6218.51 2792.28   1
   2 -13  -1 9328.36 3124.32   1
  -9   4   7 2771.50 3301.60   1
   9  -4  -7 -1007.6 1230.69   1
   9  -4  -7 285.900 825.780   1
   9  -4  -7 -471.55 1530.31   1
   2  -3  13 7700.16 2542.93   1
  -2   3 -13 5055.90 2176.97   1
   2  -3  13 163.460 1586.06   1
   2  -3  13 5944.84 2710.04   1
   6 -12   5 -231.83 2056.65   1
  -6  12  -5 1845.19 1756.33   1
   6 -12   5 -390.07 1558.79   1
   5   7   2 2138.49 1530.86   1
   5   7   2 1200.22 869.230   1
  -5  -3  13 -293.34 1769.35   1
  -5  -3  13 2814.37 1470.02   1
   5   3 -13 1317.12 1543.95   1
   7 -11  -4 7194.16 2285.89   1
  -7  11   4 6051.50 2078.38   1
   6  -7 -10 699.580 646.940   1
  -6   7  10 976.980 1241.15   1
   9  -7  -5 5824.73 2365.60   1
   9  -7  -5 25346.3 4537.36   1
   9  -6  -6 4252.48 2056.09   1
   9  -6  -6 6809.14 2540.98   1
   9  -6  -6 22137.4 4306.47   1
   7  -8   7 6831.97 2769.20   1
   7  -8   7 2279.07 1894.90   1
   1   4  11 496.670 1052.04   1
   1   4  11 1947.45 1530.86   1
   6  -4   9 1319.84 996.320   1
   6  -4   9 2726.16 1966.32   1
   9   0  -3 1415.70 1265.46   1
   9   0  -3 202.550 1688.67   1
   5  -8  10 -727.30 1187.63   1
  -5   8 -10 1843.90 1521.53   1
   5  -8  10 -1292.6 2179.92   1
   9  -2  -7 961.900 669.150   1
  -9   2   7 456.670 1677.93   1
   9  -2  -7 3194.69 2604.81   1
   6   7  -7 3169.54 2030.62   1
   0   5  11 5593.55 1897.76   1
   0   5  11 3777.77 1784.38   1
  -5  11   6 148.090 1092.33   1
   5 -11  -6 2214.40 1282.91   1
  -5   2  13 3074.79 2120.83   1
  -5   2  13 3133.08 1283.53   1
   5  -2 -13 947.430 897.580   1
   3   1  11 -515.05 1043.04   1
   3   1  11 1074.42 756.650   1
   3   9   3 1060.07 1645.44   1
   8  -9   4 456.130 787.050   1
   8  -9   4 6258.72 3108.16   1
  -4   3  13 4243.98 1713.55   1
  -4   3  13 2976.62 1500.92   1
  -1   8   9 6104.22 2441.50   1
  -1   8   9 6375.51 3084.84   1
   7 -12   0 -2758.2 2170.86   1
   7 -12   0 2236.24 1460.03   1
   7 -12   1 6006.85 2964.90   1
   7 -12   1 2333.17 2054.04   1
   1   5 -14 3548.54 2311.32   1
  -1  -5  14 6200.75 2431.12   1
  -1  -5  14 5633.62 2516.10   1
   6   7  -2 -253.11 1093.91   1
   6   7  -2 5758.74 2352.68   1
   6   7  -2 2230.64 1278.05   1
   4 -10  10 1991.91 851.560   1
   4 -10  10 4541.28 2204.67   1
  -4  10 -10 138.620 1464.72   1
   4   9  -9 428.130 1879.27   1
   9  -5   2 1179.72 1309.40   1
   9  -5   2 350.000 2139.09   1
   2 -12   9 387.060 1395.35   1
  -2  12  -9 2492.64 1276.72   1
   2 -12   9 2852.27 1730.31   1
   2   0 -14 3766.03 1475.46   1
  -2   0  14 1215.51 1538.39   1
  -2   0  14 9210.33 2849.84   1
  -1  12  -9 334.180 1160.77   1
   1 -12   9 577.030 1133.81   1
  -2   3  13 3376.36 1364.83   1
   1 -11  -5 5542.15 1719.94   1
  -1  11   5 1101.82 1248.22   1
  -1  11   5 5560.20 2295.96   1
   5 -10   9 3843.25 2425.22   1
   5 -10   9 1972.76 1408.57   1
  -5  10  -9 3606.87 1847.23   1
   6  -7   9 1921.72 2324.45   1
  -6   7  -9 3540.36 1709.75   1
   6  -7   9 4044.81 1755.41   1
   3  10  -9 575.360 1788.25   1
  -3 -10   9 4246.30 1888.44   1
   0  11   4 926.020 1480.29   1
   2  10   3 6.83000 1471.96   1
   3   0 -14 2442.04 1246.49   1
  -3   0  14 8134.28 2709.32   1
  -3   0  14 -2073.8 1854.93   1
  -6  -3  12 5642.89 3152.04   1
   6   3 -12 -524.66 2060.82   1
   1   0  13 1571.39 1722.46   1
  -1   0 -13 2504.29 897.600   1
   1   0  13 223.390 652.600   1
   0   3 -14 -80.380 1143.64   1
   0  -3  14 1045.66 1298.16   1
   0  -3  14 -75.770 1174.39   1
   0  -3  14 1844.64 918.560   1
   9  -6   2 -1509.3 1710.26   1
   9  -6   2 261.590 1380.69   1
  -1  12   3 540.540 1664.20   1
  -1   7  10 3063.67 1823.89   1
  -1   7  10 3486.59 1892.27   1
   0  -4  14 9029.44 3242.78   1
   0   4 -14 2928.46 915.580   1
   0  -4  14 6566.99 2828.74   1
   4 -13   6 11223.0 4098.83   1
   4 -13   6 5536.38 3309.36   1
  -4  13  -6 8251.74 3481.69   1
   6 -10  -7 1708.43 892.390   1
  -6  10   7 1492.93 833.350   1
   4 -12   8 2252.16 1174.03   1
  -4  12  -8 1476.68 736.930   1
   4 -12   8 2702.84 1604.99   1
   7 -10  -6 -275.69 1643.06   1
  -7  10   6 1619.04 1150.72   1
   6   6   1 320.730 938.860   1
   6   6   1 3122.38 1616.26   1
   7   5  -1 1468.94 1259.47   1
   2  -6  13 808.070 1082.01   1
   2  -6  13 3110.62 1994.68   1
   2  -6  13 415.820 581.040   1
  -2   6 -13 4121.26 2225.75   1
  -2  13  -7 794.890 1030.91   1
   2 -13   7 -59.400 1339.62   1
   5  -2  10 597.820 1060.80   1
   5  -2  10 988.340 648.580   1
   5  -2  10 829.580 1643.82   1
  -8   2  10 4725.87 2187.38   1
   8  -2 -10 2369.56 2270.66   1
  -8   2  10 3005.19 970.470   1
   8  -2 -10 1746.49 754.700   1
   0  13  -4 1839.54 2262.34   1
   0  13  -4 1180.06 1008.71   1
   0 -13   4 6668.62 2456.24   1
  -4  13   2 -314.57 1417.31   1
   4 -13  -2 3140.46 1537.58   1
  -1  13   0 13763.7 3224.63   1
   1 -13   0 4982.36 1665.26   1
  -7   4  11 4783.43 1744.33   1
   7  -4 -11 983.130 1141.50   1
  -7   4  11 2844.48 1744.85   1
   7  -4 -11 6706.72 3140.31   1
   7  -6 -10 3525.44 1931.79   1
  -7   6  10 4730.37 2730.22   1
  -7   6  10 -150.84 679.440   1
   8  -8  -7 -293.93 942.870   1
   8  -8  -7 3108.99 1576.95   1
   8   0   3 3426.76 2229.73   1
  -2  -5  14 3653.98 2645.62   1
   2   5 -14 1495.42 1752.76   1
  -2  -5  14 3092.43 1397.10   1
   8 -10  -4 2416.72 1972.28   1
   8 -10  -4 2094.83 2074.27   1
   8 -10   3 402.640 930.400   1
   8 -10   3 325.240 1332.16   1
   7   2 -11 1581.05 1887.71   1
  -7  -2  11 2637.05 1527.59   1
   0  13  -3 752.390 792.390   1
   0  13  -3 7416.29 3488.16   1
   6   1   7 -1146.5 1719.90   1
  -3  -4  14 770.330 1033.37   1
   3   4 -14 1560.61 1728.35   1
   7 -12  -1 8551.48 3577.56   1
   7 -12  -1 5086.98 3064.45   1
   9  -4   2 9107.87 2932.93   1
   9  -4   2 6268.36 4393.44   1
   7 -12   2 -1369.9 2238.89   1
   7 -12   2 495.790 1426.38   1
   8  -1 -10 6827.24 2562.57   1
   8  -1 -10 3613.92 2797.39   1
   8   1   2 1515.36 1694.17   1
   0  -8  13 1289.90 1857.83   1
   0   8 -13 136.990 1400.83   1
   5 -12   7 4527.69 2341.38   1
  -5  12  -7 6593.78 2581.80   1
   5 -12   7 4742.91 2619.70   1
   3 -11  10 1019.86 1687.25   1
   3 -11  10 2545.45 2077.95   1
  -3  11 -10 2518.48 1784.65   1
   9   0  -2 2077.78 2107.31   1
   9   0  -2 3130.77 2394.08   1
   2  -9  12 1334.93 1100.81   1
  -2   9 -12 2165.24 1226.83   1
   2  -9  12 3617.61 1732.86   1
   4   1  10 831.180 1135.94   1
   4   1  10 516.720 1591.83   1
   4   1  10 2110.97 768.540   1
   8  -7  -8 129.090 1364.48   1
   8  -7  -8 1059.12 758.020   1
  -8   7   8 -128.11 1839.52   1
   5   2   8 1439.86 1564.79   1
   5   2   8 308.750 621.920   1
   1  -9  -8 6001.85 2177.14   1
  -1   9   8 3903.54 2073.38   1
  -1   9   8 4066.92 2024.89   1
   3 -13  -2 5884.02 2238.75   1
  -3  13   2 4154.76 2860.72   1
   4  10  -5 421.550 1732.61   1
   7   2   4 525.410 1931.15   1
   8   3  -7 2641.04 1806.82   1
   2   1  12 1634.83 1040.23   1
   2   1  12 482.030 1229.75   1
   4  10  -4 2049.87 1643.48   1
   4  10  -4 5488.20 3642.95   1
   3  11  -4 -204.39 2136.36   1
   3  11  -4 2973.97 1460.59   1
   5   8   0 410.650 1041.81   1
   5   8   0 -841.11 898.780   1
   2 -12  -4 3109.46 976.440   1
  -2  12   4 -607.03 1554.26   1
  -2   5  12 2307.04 1394.09   1
  -2   5  12 -7.7300 1685.33   1
   9  -8   1 2129.24 1546.30   1
   9  -8   1 4454.10 2276.95   1
   9  -8  -4 14162.8 3611.24   1
   9  -8  -4 7310.21 4333.37   1
  -9   5   7 2589.82 1756.90   1
   9  -5  -7 11222.1 3697.50   1
   9  -5  -7 3644.29 1704.70   1
   9  -5  -7 5872.00 2609.59   1
   3  11  -5 342.780 1346.65   1
   7   5  -8 438.160 1856.80   1
   0  -2  14 3591.92 2111.93   1
   0   2 -14 2525.41 964.380   1
   0  -2  14 8000.64 3325.58   1
   0  -2  14 6310.59 2553.41   1
   3  10   1 85.2100 1557.22   1
   3   8 -12 4603.67 2078.72   1
  -3  -8  12 1057.56 1262.79   1
   8  -3 -10 853.710 990.750   1
   8  -3 -10 1279.41 1510.21   1
  -8   3  10 2637.25 1185.32   1
  -8   3  10 -700.51 2495.23   1
   0  13  -5 7820.33 3046.55   1
   0 -13   5 14068.9 1919.79   1
   7 -10   6 130.450 903.190   1
   7 -10   6 2501.57 1570.50   1
  -3  13  -7 10203.7 3716.96   1
   3 -13   7 16043.2 4479.30   1
   3 -13   7 13369.4 2795.74   1
   9  -2   1 1483.45 1921.90   1
   0  -5  14 4204.53 1942.54   1
   0   5 -14 -226.01 1082.75   1
   0  -5  14 1393.94 1258.86   1
   8  -3   5 2062.07 2871.71   1
   8  -3   5 2855.39 1344.17   1
   4   5   7 204.500 775.290   1
   1  12   0 1930.30 2512.54   1
   9  -1  -7 756.490 406.410   1
  -9   1   7 4007.54 2908.40   1
   9  -1  -7 1448.08 2018.12   1
   9  -1   0 7932.52 3331.23   1
   8  -8   5 1168.86 1331.85   1
   8  -8   5 1322.94 1646.95   1
   7   1   5 255.530 1707.28   1
   2  -2  13 800.330 1153.94   1
   2  -2  13 -126.31 1789.20   1
  -2   2 -13 329.430 1670.86   1
   2  -2  13 321.290 1141.65   1
   9  -7   2 378.320 1046.32   1
   9  -7   2 -110.72 1552.35   1
   1   8 -13 5896.58 3476.22   1
  -1  -8  13 3085.63 1768.29   1
   4  -9  -9 2384.06 1232.53   1
  -4   9   9 841.360 1228.99   1
  -5  13  -5 -84.770 1381.44   1
   5 -13   5 -1421.9 1428.43   1
   5 -13   5 2410.44 1961.55   1
  -4  -1  14 -22.900 2020.77   1
   4   1 -14 2730.87 1544.71   1
  -4  -1  14 7731.52 3133.33   1
   2   9   5 388.350 1291.52   1
  -4   8  10 2267.56 2008.75   1
   4  -8 -10 3160.43 1517.40   1
  -4   8  10 698.380 966.530   1
   0  12   2 -483.29 1607.48   1
   6 -13   1 2838.09 1539.27   1
  -6  13  -1 1558.61 1572.59   1
   6 -13   1 4183.90 2125.70   1
  -1 -11  10 681.620 997.960   1
   1  11 -10 1692.68 2091.74   1
   4   8   3 733.110 943.460   1
   9   0  -6 -957.36 2144.73   1
   3   3  10 2982.13 1375.57   1
   3   3  10 2120.09 866.010   1
   3  -8  12 2364.77 2050.86   1
   3  -8  12 1877.14 2059.10   1
  -3   8 -12 1292.42 804.300   1
   4   7 -12 1438.97 1631.92   1
  -4  -7  12 1471.31 1097.77   1
   6   5   3 5876.99 3075.53   1
   6   5   3 207.770 1313.40   1
   6   5   3 632.280 513.620   1
   8  -9  -6 3376.33 1580.27   1
   6  -3   9 2248.95 1609.05   1
   6  -3   9 4425.08 2928.51   1
  -4  -2  14 5855.13 2418.78   1
  -4  -2  14 1635.13 1695.04   1
   4   2 -14 1663.04 1282.09   1
   2   3  11 414.340 1057.48   1
   2   3  11 2109.83 1402.21   1
   5   6   4 989.430 818.560   1
   1 -13   7 222.280 1136.83   1
  -1  13  -7 1423.62 1331.26   1
  -3  -9  11 -193.42 952.820   1
   3   9 -11 -1707.6 1785.06   1
   0  13  -2 -615.26 1822.13   1
   8  -1   4 6696.75 3568.96   1
   8 -11   0 3226.10 1994.62   1
   8 -11   0 2290.30 1610.68   1
   4  10  -6 1647.88 1617.29   1
   3  11  -3 1205.33 1356.67   1
   3  11  -3 297.620 1879.47   1
  -5   5  12 5175.74 2877.86   1
  -5   5  12 8800.48 3750.01   1
   5  -5 -12 16484.3 2990.09   1
   6 -11   7 1806.29 1901.49   1
   6 -11   7 15019.7 3333.76   1
  -6  11  -7 2771.98 1614.66   1
  -6  13  -2 -6.7400 1178.38   1
   6 -13   2 1858.04 1792.72   1
   6 -13   2 2882.13 1326.23   1
   4   4   8 1684.35 1123.56   1
   5   8  -9 -835.27 1996.19   1
  -4  -8  11 222.230 1017.21   1
   4   8 -11 2176.27 1388.83   1
  -1   6  11 2575.16 1567.72   1
  -1   6  11 1866.28 1591.89   1
   4  10  -3 1758.81 2425.04   1
   4  10  -3 2403.38 1464.22   1
   7   3   3 -200.59 1665.59   1
  -6   4  12 4946.50 2031.16   1
   6  -4 -12 2452.56 1298.09   1
   4  -1  11 834.590 1853.81   1
   4  -1  11 -675.88 1034.03   1
   4  -1  11 1518.50 587.270   1
   3  -1  12 3637.41 2518.04   1
   3  -1  12 2690.69 971.790   1
   3  -1  12 2072.62 1188.03   1
  -1   0  14 1651.26 1827.03   1
   1   0 -14 -376.47 855.530   1
  -1   0  14 2325.19 1159.20   1
   3   8   5 2630.56 1558.50   1
   7 -11   5 2968.47 1631.61   1
   7 -11   5 1825.35 1370.46   1
   3  11  -6 1553.84 1302.10   1
   8 -11  -1 1139.18 2209.18   1
   8 -11  -1 482.340 1468.30   1
   3 -12   9 1415.80 1966.40   1
   3 -12   9 404.330 1535.97   1
  -3  12  -9 2859.69 2092.59   1
  -3  10 -11 770.250 1253.42   1
   3 -10  11 259.740 1409.70   1
   3 -10  11 -895.90 1518.71   1
   8   0 -10 3032.67 2856.63   1
  -8   0  10 -1257.8 1590.40   1
   0  10   6 1353.37 1520.03   1
   2  11   1 1139.07 1469.21   1
   0 -12   9 7046.34 2763.39   1
   0  12  -9 5686.08 3241.37   1
   6   5 -11 4182.38 2518.37   1
   6 -13   0 432.510 1365.40   1
  -6  13   0 -133.43 1074.29   1
   6 -13   0 1689.46 1415.96   1
   6  -8   9 2040.00 3325.06   1
  -6   8  -9 1245.98 1775.08   1
   6  -8   9 -815.47 1282.43   1
   8   3  -1 -357.16 1259.18   1
   8   3  -1 -1438.7 1544.07   1
  -3   8  10 2185.21 1538.49   1
  -3   8  10 2298.23 2040.59   1
   3  -8 -10 3106.06 1189.65   1
  -2  11   6 3622.65 2293.46   1
  -2  11   6 699.740 1484.72   1
   2 -11  -6 1303.15 645.150   1
   2  11  -9 2807.62 2810.82   1
  -2 -11   9 78.4800 859.230   1
   5 -13  -2 564.300 1179.23   1
  -5  13   2 208.020 1285.80   1
   4   6   6 2558.72 1265.66   1
   4   9   1 -803.32 1156.79   1
  -3   9   9 5046.53 2226.55   1
   3  -9  -9 2544.06 1045.24   1
  -3   9   9 4286.26 2623.91   1
   6  -6 -11 1760.74 868.030   1
  -6   6  11 1916.01 1123.78   1
  -6   6  11 4796.29 3325.35   1
   4   0 -14 -345.25 1088.30   1
  -4   0  14 91.2100 1736.66   1
  -4   0  14 -770.16 1229.70   1
   1  12  -8 4328.19 2210.77   1
  -1 -12   8 8420.07 3390.90   1
   1  -8  13 736.220 1314.86   1
  -1   8 -13 2772.00 1418.09   1
   6   7  -8 716.730 1950.59   1
  -6  10  -8 -660.67 1881.28   1
   6 -10   8 2363.18 1974.07   1
   6 -10   8 -662.90 1776.21   1
   1  11   3 1304.54 1424.56   1
   8 -11   1 7462.53 3238.64   1
   8 -11   1 1982.33 1538.45   1
   7  -2   7 5376.29 3840.70   1
   8   2   1 2198.82 1514.50   1
   7 -12  -2 1067.23 1347.82   1
  -7  12   2 1820.16 1031.24   1
   7 -12  -2 3897.99 2281.48   1
  -3   1  14 -162.19 906.700   1
  -3   1  14 181.850 1009.14   1
   3  -1 -14 -564.05 1101.74   1
   9  -9  -1 3493.65 2591.55   1
   9  -9  -1 2221.20 1967.03   1
   7 -12   3 2577.99 2049.10   1
   7 -12   3 1772.03 1652.85   1
  -1  -6  14 1339.35 1069.30   1
   1   6 -14 -281.21 1642.01   1
  -1  -6  14 24.3300 1322.68   1
   6   7  -1 3379.84 2086.36   1
   6   7  -1 2732.90 1329.74   1
   6   7  -1 -242.54 907.330   1
   9  -3   2 688.660 2442.05   1
   8  -6  -9 -239.91 1183.24   1
   8  -6  -9 1145.34 905.020   1
  -8   6   9 465.120 347.490   1
  -8   6   9 -1533.5 1885.88   1
   2  -7  13 1052.32 1667.71   1
   2  -7  13 1940.46 1033.01   1
  -2   7 -13 -16.910 1001.90   1
   2  -7  13 0.74000 1711.12   1
   5   4 -13 4404.69 2783.61   1
  -5  -4  13 3513.17 2576.19   1
  -2  -9  12 -545.10 1208.57   1
   2   9 -12 2784.25 3018.33   1
   9  -9  -2 -6.3500 2200.08   1
   9  -9  -2 2867.59 1498.88   1
   0 -13   6 284.340 1124.09   1
   0  13  -6 418.190 1382.91   1
  -5   9   9 2593.56 1425.48   1
   5  -9  -9 2278.78 1174.58   1
  -5   9   9 -930.37 2061.80   1
   4 -10  -8 5239.08 1936.75   1
  -4  10   8 3818.19 1867.09   1
  -4  10   8 2338.32 1884.48   1
   6   6 -10 4290.80 2483.78   1
   0   2  13 4838.29 1789.63   1
   0   2  13 -131.36 1341.01   1
   7  -9   7 2189.72 2121.86   1
   7  -9   7 966.990 1561.83   1
  -6  12   4 82.0100 873.350   1
   6 -12  -4 3812.06 2204.57   1
   9   0  -1 3863.16 3076.85   1
   5   9  -5 1161.86 1642.04   1
  -4  -3  14 -1118.6 1825.09   1
   4   3 -14 1962.57 2189.85   1
  -4  -3  14 4268.76 2370.14   1
  -5   3  13 467.250 733.010   1
  -5   3  13 -2471.9 1964.10   1
  -2   1  14 3090.79 1150.85   1
  -2   1  14 320.490 1433.79   1
   8  -4 -10 3987.13 2023.21   1
  -8   4  10 1718.47 602.830   1
   8  -4 -10 -706.78 1122.56   1
  -8   4  10 -3016.9 2887.02   1
   9  -7  -6 3233.72 1451.38   1
   9  -7  -6 2901.08 2518.85   1
   9  -7  -6 4352.33 2022.27   1
   8   2  -9 2075.30 2128.83   1
  -8  -2   9 93.9600 725.590   1
  -6  13  -3 1401.41 1198.31   1
   6 -13   3 3047.69 2274.14   1
   6 -13   3 5022.12 2539.35   1
  -3  -7  13 445.440 1369.45   1
   3   7 -13 1801.45 1763.95   1
  -5   8  10 847.350 2256.61   1
  -5   8  10 1225.90 887.540   1
   5  -8 -10 1269.57 1200.36   1
  -4   7  11 2902.15 1886.18   1
   4  -7 -11 5733.00 2537.64   1
  -4   7  11 4560.80 2089.57   1
   5   9  -4 -429.90 1484.18   1
   5   9  -4 1399.03 1569.14   1
   2  12  -4 6109.79 3261.17   1
   2  12  -4 39.3300 1091.66   1
   0   1 -14 -199.53 674.740   1
   0  -1  14 3157.11 2348.93   1
   0  -1  14 744.060 531.190   1
   0  -1  14 -1166.6 1305.92   1
   9  -9   0 8303.06 3643.29   1
   9  -9   0 3869.71 2725.83   1
   1  10   5 -775.33 1201.65   1
   8 -11  -2 -91.020 1427.78   1
   8 -11  -2 -3111.2 2273.59   1
   9  -3  -8 -36.210 2004.96   1
  -9   3   8 77.4000 1768.22   1
   9  -3  -8 3734.15 1599.42   1
   5  -9  10 471.040 1602.02   1
  -5   9 -10 4062.43 2245.39   1
   5  -9  10 4363.52 2283.98   1
   4 -12  -5 4409.57 1860.08   1
  -4  12   5 1696.08 1421.20   1
   6 -11  -6 2176.86 827.030   1
  -6  11   6 1169.14 821.710   1
   7   0   6 1166.63 1564.09   1
   2  12  -5 320.620 1396.98   1
  -1   3  13 979.920 1690.37   1
  -1   3  13 151.080 860.300   1
   7   4 -10 -16.670 1940.07   1
  -7  -4  10 298.890 1097.07   1
   4  -9  11 924.980 1291.15   1
  -4   9 -11 3312.40 1733.44   1
   4  -9  11 -570.87 1381.94   1
  -1  10   7 -473.84 1432.59   1
  -1  10   7 2723.04 940.940   1
   1 -10  -7 1232.83 528.670   1
   0  -6  14 2346.24 1299.92   1
   0  -6  14 974.150 1932.16   1
   0   6 -14 5628.18 2213.05   1
   2 -13  -2 1936.58 882.670   1
  -2  13   2 4769.22 2522.76   1
   3   5 -14 2731.71 1705.18   1
  -3  -5  14 731.180 873.630   1
  -3  -5  14 -139.04 1618.84   1
   3  11  -2 -340.91 827.630   1
   3  11  -2 305.210 1964.35   1
   6   0 -13 989.040 2234.85   1
  -6   0  13 3777.83 1919.22   1
  -6   0  13 -353.07 1561.41   1
  -3   7  11 1009.59 1265.08   1
   3  -7 -11 3323.76 1473.18   1
  -3   7  11 965.810 973.400   1
   4  10  -7 1320.32 1624.56   1
   9  -2  -8 4210.16 3016.68   1
  -9   2   8 965.840 1699.12   1
   9  -2  -8 2558.32 899.370   1
   0   4  12 1756.26 2402.50   1
   0   4  12 1380.08 969.480   1
   9  -6  -7 1407.28 763.390   1
   9  -6  -7 1252.77 1457.67   1
   9  -6  -7 4532.28 2082.67   1
   5   9  -6 3260.18 2727.82   1
  -6  12  -6 8949.97 3761.72   1
   6 -12   6 4879.29 2511.19   1
   6 -12   6 19367.9 3716.89   1
   6 -13  -1 3931.85 2185.35   1
  -6  13   1 1546.39 1514.78   1
   2  10 -11 1852.08 2826.51   1
  -2 -10  11 1474.76 1466.64   1
   7   6  -5 1933.36 2775.74   1
   9  -8   2 -96.900 1104.30   1
   9  -8   2 2997.95 1458.91   1
   9  -8  -5 1359.11 1210.89   1
   9  -8  -5 -670.97 1949.70   1
   4  10  -2 626.570 1598.43   1
   4  10  -2 685.400 1574.62   1
   0  13  -1 8744.29 4117.76   1
   2  12  -3 1720.76 1370.32   1
   2  12  -3 -240.76 1921.79   1
  -3  14  -3 4538.06 2621.12   1
  -3  14  -3 2861.82 1686.36   1
   3 -14   3 3515.61 2080.47   1
   7   5   0 -29.510 1393.21   1
   7   5   0 1910.59 2078.58   1
   3 -10  -8 5381.93 2112.11   1
  -3  10   8 4796.64 2617.73   1
  -7  11   5 1685.57 1100.04   1
   7 -11  -5 3961.09 2114.35   1
  -7   1  12 -481.34 2257.94   1
  -7   1  12 2156.10 1023.29   1
   7  -1 -12 430.450 1380.61   1
   4   3   9 1876.29 911.840   1
   1 -11  11 3887.13 1705.09   1
  -1  11 -11 4604.14 1848.96   1
  -2  -6  14 6927.23 3016.84   1
   2   6 -14 3509.77 2122.01   1
  -2  -6  14 6366.85 2778.79   1
   4   6 -13 272.430 1632.80   1
  -4  -6  13 2505.85 1471.60   1
   7   6  -4 545.870 965.130   1
   7   6  -4 -153.65 1692.37   1
   8   3  -8 6222.99 4147.42   1
   3  11  -7 2591.74 1732.45   1
   9  -9  -3 7066.01 4275.95   1
   9  -9  -3 5874.76 2683.87   1
  -1  13   1 784.720 1696.36   1
   9  -4  -8 -325.62 997.790   1
  -9   4   8 3594.15 2944.78   1
   9  -4  -8 7058.85 2378.55   1
   9  -4  -8 2386.40 1964.45   1
   5 -10  -8 1632.36 750.360   1
  -5  10   8 768.240 1731.55   1
  -5  10   8 562.360 887.520   1
   8 -11   2 -219.21 2028.13   1
   8 -11   2 3204.13 2116.16   1
  -6  -4  12 2301.93 1565.55   1
   6   4 -12 2763.48 2092.61   1
   3 -14   2 453.040 1172.83   1
  -3  14  -2 2333.81 2082.19   1
  -9   0   7 4703.34 1929.89   1
   6   0   8 1674.92 1933.31   1
   6   1 -13 1529.16 1550.82   1
  -6  -1  13 4169.26 1745.63   1
  -6  -1  13 4327.29 2776.55   1
  -6   1  13 2931.19 1726.81   1
   6  -1 -13 1058.42 1295.66   1
  -6   1  13 2382.91 850.600   1
   1   3  12 1836.47 1640.33   1
  -7   0  12 3170.69 1869.73   1
   7   0 -12 625.200 1389.71   1
  -7   0  12 5112.99 1875.42   1
  -5  -7  11 1344.58 1284.51   1
   5   7 -11 2939.58 2232.24   1
  -3   4  13 707.320 942.550   1
  -3   4  13 5029.96 2159.33   1
   5   9  -3 3220.40 2135.88   1
   5   9  -3 5666.50 2911.13   1
  -7   5  11 1337.05 2397.48   1
   7  -5 -11 181.970 764.950   1
  -7   5  11 2170.89 1031.40   1
   7  -5 -11 257.750 904.220   1
   4 -13   7 1960.66 1601.14   1
   4 -13   7 5311.43 2614.17   1
  -4  13  -7 4325.15 2109.34   1
   8 -10  -5 550.090 1163.63   1
   5  -1  10 1641.08 1200.11   1
   5  -1  10 686.350 391.150   1
   5  -1  10 1325.84 1576.75   1
  -4   1  14 1803.73 1853.45   1
  -4   1  14 -795.58 1705.70   1
   4  -1 -14 861.420 1030.46   1
  -2  -8  13 5164.01 2983.82   1
   2   8 -13 2369.87 2413.43   1
   7  -6   8 296.620 1914.42   1
   7  -6   8 545.980 1125.87   1
   8 -10   4 1931.48 2041.36   1
   8 -10   4 983.680 1211.42   1
   9  -6   3 1230.97 923.990   1
   9  -6   3 1220.80 2540.36   1
   3 -12  -5 8904.54 3131.06   1
  -3  12   5 292.760 1353.14   1
   5   6 -12 1530.02 2567.56   1
  -5  -6  12 -255.36 1145.08   1
   5   1   9 2216.20 790.930   1
   5   1   9 4413.13 2989.18   1
   9  -5   3 1417.80 2559.82   1
   9  -5   3 2348.34 1169.82   1
   2  -1  13 -220.76 709.980   1
  -2   1 -13 1032.64 834.520   1
   2  -1  13 58.8000 1153.75   1
   2  -1  13 -1212.2 1508.31   1
   1  -4  14 1372.69 1174.38   1
   1  -4  14 2108.22 1467.85   1
   1  -4  14 339.350 1592.69   1
  -1   4 -14 2542.53 963.480   1
   9   1  -5 5373.97 2685.28   1
   0 -10  12 2033.14 1651.42   1
   0  10 -12 -561.95 1636.86   1
   7   4   2 1521.39 1494.45   1
   7   4   2 -58.550 1034.43   1
   7   3 -11 790.140 1827.47   1
  -7  -3  11 1991.67 1206.99   1
  -1  10 -12 4603.86 1919.91   1
   1 -10  12 13626.5 3082.41   1
   2  12  -6 2354.85 2760.36   1
  -5  12   5 -231.21 1169.16   1
   5 -12  -5 1709.45 966.230   1
   7  -5   8 3649.62 2215.17   1
   7  -5   8 1397.11 1605.13   1
   9   1  -3 -1010.5 1453.55   1
   9   1  -3 2888.76 1993.44   1
   3 -14   4 1938.39 1638.35   1
  -3  14  -4 2037.78 2008.58   1
  -3  14  -4 710.350 986.160   1
   7   6  -6 1215.61 2021.58   1
   1   1  13 1314.16 1263.68   1
   1   1  13 4102.69 1666.40   1
   8   1 -10 503.400 1901.74   1
  -8  -1  10 5028.11 3014.14   1
   8  -9   5 1934.34 1709.05   1
   8  -9   5 132.430 1684.20   1
   4 -14   2 11068.0 3987.30   1
  -4  14  -2 5705.95 2070.85   1
  -4  14  -2 6548.86 3067.09   1
   4   7   5 2097.81 1320.66   1
   2 -13   8 3120.98 2398.10   1
  -2  13  -8 3311.70 1682.00   1
   2 -13   8 4117.95 2698.48   1
   4 -13  -3 1686.60 827.770   1
  -4  13   3 3940.13 2970.15   1
  -4   4  13 4973.15 2040.00   1
  -4   4  13 2885.66 1786.62   1
  -7   2  12 2832.00 1510.10   1
  -7   2  12 3232.92 1440.05   1
   7  -2 -12 491.520 1190.68   1
   4   9 -10 2143.81 2379.35   1
   7  -8  -9 1749.37 751.630   1
  -7   8   9 2881.78 2960.90   1
  -7   8   9 2172.91 577.720   1
   8   4  -5 1362.55 1586.82   1
  -7   9   8 1013.68 689.850   1
  -7   9   8 -57.220 2084.27   1
   7  -9  -8 3626.96 1762.00   1
   8  -6   6 1281.44 1302.52   1
   8  -6   6 3344.05 3501.62   1
   8   4  -4 -21.470 1541.09   1
   9  -9   1 2902.44 2055.79   1
   9  -9   1 3257.18 2591.28   1
  -4  14  -3 2077.29 1830.51   1
  -4  14  -3 2256.08 860.380   1
   4 -14   3 936.500 1555.15   1
   6  -2   9 1249.86 1722.49   1
   6  -2   9 -746.56 764.200   1
   0  11 -11 1109.32 2648.55   1
   0 -11  11 1132.31 1282.95   1
  -5   7  11 2514.09 1527.15   1
  -5   7  11 -394.20 984.150   1
   5  -7 -11 3656.27 1657.76   1
   7   5  -9 -266.89 1958.52   1
   1   7   9 1039.22 1612.99   1
   1  -3  14 3096.37 1908.78   1
   1  -3  14 1848.26 800.850   1
  -1   3 -14 1545.33 717.810   1
   1  -3  14 874.240 1662.27   1
   4  -5  12 1360.67 1075.67   1
   4  -5  12 1141.19 757.650   1
  -4   5 -12 1372.67 1065.21   1
  -3 -10  10 2282.25 1444.37   1
   3  10 -10 1068.86 1668.18   1
   8  -5   6 1494.42 1073.25   1
   8  -5   6 1651.66 2177.22   1
   1  -5  14 6994.71 3221.58   1
   1  -5  14 1120.57 1138.94   1
   1  -5  14 371.870 729.480   1
  -1   5 -14 1674.57 692.610   1
   7   6  -3 1369.22 1559.80   1
   7   6  -3 2347.44 1940.36   1
   9  -1  -8 1586.50 1918.05   1
  -9   1   8 7006.29 3387.57   1
   9  -1  -8 70.9100 764.760   1
   5 -13   6 6294.15 3131.84   1
  -5  13  -6 3510.25 1351.73   1
   5 -13   6 8142.65 2899.38   1
   9  -1   1 -957.50 1460.31   1
  -2   8  10 -1107.3 1259.07   1
  -2   8  10 104.540 1339.85   1
  -2  14  -3 4521.50 2547.55   1
   2 -14   3 4671.72 2007.93   1
   6 -13   4 4006.27 1667.57   1
  -6  13  -4 4981.99 3175.23   1
  -6  13  -4 6537.64 3045.33   1
   6 -13   4 7488.77 2834.53   1
   7  -7   8 5554.56 3456.95   1
   7  -7   8 5703.44 2596.00   1
   2   6   9 570.390 996.060   1
  -1   5  12 3127.50 1281.13   1
   3 -14   1 6127.08 2429.76   1
  -3  14  -1 2077.37 2089.01   1
  -2  11 -11 -71.500 1492.34   1
   2 -11  11 1912.83 1453.52   1
   2   7   8 2147.47 917.030   1
  -7  12   3 3835.49 1685.34   1
   7 -12  -3 11668.0 4048.51   1
  -4  -4  14 180.280 1939.11   1
   4   4 -14 2909.48 2493.42   1
  -4  -4  14 4806.05 1961.41   1
   8 -11  -3 15216.8 5172.78   1
   8 -11  -3 5049.59 2006.49   1
   7 -12   4 -1821.0 2039.73   1
   7 -12   4 1672.82 2027.32   1
   1  12   1 1092.22 1664.66   1
   0  13  -7 6054.39 3081.09   1
   0 -13   7 909.150 1019.32   1
   9  -7   3 2182.99 1875.76   1
   9  -7   3 2421.99 1800.54   1
   4  -6  12 -314.71 1246.57   1
  -4   6 -12 -1007.0 1621.08   1
   4  -6  12 719.610 682.330   1
   4  -6  12 561.440 1403.07   1
   5   9  -7 110.180 1952.03   1
   4 -14   1 2392.66 1884.28   1
  -4  14  -1 -983.44 1329.23   1
  -2   9   9 2387.10 1802.57   1
  -2   9   9 -89.620 1162.73   1
   2  -9  -9 895.240 1009.03   1
   2 -14   4 532.750 936.470   1
  -2  14  -4 1526.78 1222.00   1
  -2  14  -4 -481.62 1619.80   1
   9  -4   3 7939.75 4279.96   1
   9  -4   3 1126.20 952.460   1
   3 -13  -3 5068.99 2251.69   1
  -3  13   3 2575.25 2159.25   1
   2  12  -2 -1276.6 1765.24   1
   5  -5  11 1207.95 1550.68   1
  -5   5 -11 2094.78 2629.27   1
   5  -5  11 -694.04 1774.87   1
   5  -5  11 671.090 446.050   1
   8  -7   6 5670.64 2922.12   1
   8  -7   6 3590.32 2108.88   1
   4  -4  12 2595.64 2031.26   1
   4  -4  12 1396.83 1113.48   1
   4  -4  12 1964.26 1295.48   1
  -4   4 -12 4129.68 2019.46   1
   5   8   1 558.210 1048.76   1
   6  -9   9 4454.95 3164.76   1
   6  -9   9 11031.0 3572.95   1
  -6   9  -9 8357.19 3195.29   1
   7   1 -12 1498.62 1746.05   1
  -7  -1  12 -936.81 974.560   1
  -7  -1  12 3677.17 1836.00   1
   1   8   8 2312.68 1376.60   1
   6   6   2 709.260 563.880   1
   9  -2   2 2844.91 2617.61   1
   8   4  -6 -1555.8 1594.17   1
   5   7   3 6411.16 2108.33   1
  -1  13  -8 2089.20 1432.65   1
   1 -13   8 1903.83 1815.20   1
   5  -6  11 2393.78 1139.41   1
   5  -6  11 890.900 1117.81   1
   5  -6  11 1951.95 1511.59   1
  -5   6 -11 398.520 906.220   1
   8   3   0 4733.99 2369.37   1
   8   3   0 2673.74 2160.67   1
  -1   1  14 683.190 831.060   1
  -1   1  14 1105.52 1389.35   1
   4 -11  -7 1360.34 1079.55   1
  -4  11   7 2110.63 1954.93   1
  -4  11   7 284.200 1466.78   1
   1   6  10 -181.52 1046.69   1
   1   6  10 1399.38 1092.10   1
  -6  -2  13 1090.32 970.420   1
  -6  -2  13 2457.35 1584.66   1
   6   2 -13 -666.42 1783.01   1
  -6   2  13 2695.16 1952.69   1
  -6   2  13 3438.27 1509.51   1
   6  -2 -13 3913.19 2283.68   1
   2 -14   2 1084.81 1368.96   1
  -2  14  -2 2234.16 2233.34   1
   9  -5  -8 4565.65 1883.46   1
   9  -5  -8 1693.09 1971.36   1
  -9   5   8 29.3300 1752.20   1
   7  -4   8 1941.07 1360.59   1
   7  -4   8 2096.51 2513.08   1
   3 -13   8 2642.06 2021.01   1
   3 -13   8 -298.40 1496.70   1
  -3  13  -8 151.800 865.560   1
  -4  14  -4 3366.73 1448.78   1
   4 -14   4 3500.45 1645.57   1
  -4  14  -4 463.900 1495.36   1
   8  -5 -10 -1018.7 1259.61   1
  -8   5  10 -87.820 472.520   1
   8  -5 -10 2006.17 1907.77   1
   3  -9  12 13827.1 4908.97   1
   3  -9  12 5675.27 2945.28   1
  -3   9 -12 5627.30 2677.51   1
   1 -12  10 4854.92 2217.59   1
  -1  12 -10 1027.38 1346.91   1
   3   2  11 -138.94 780.850   1
   3   2  11 785.560 1193.76   1
   9   0   0 1978.41 1507.25   1
  -2   4  13 5829.43 2770.38   1
  -2   4  13 -251.37 1188.34   1
   9   1  -2 1638.52 2801.76   1
   9   1  -2 1992.58 1257.62   1
  -5  11  -9 7196.90 3183.41   1
   5 -11   9 12785.3 4683.44   1
   5 -11   9 10049.2 3845.59   1
  -5  13   3 3938.96 2663.52   1
   5 -13  -3 2913.95 1568.51   1
   6   7  -9 7113.58 3498.91   1
   9  -9  -4 5842.64 2271.35   1
   9  -9  -4 -211.09 2160.75   1
  -1  12   4 2231.91 2097.76   1
  -3   2  14 2650.80 1566.00   1
  -3   2  14 2331.47 910.080   1
  -4   6  12 3904.35 2133.65   1
  -4   6  12 4288.40 2058.02   1
  -7   7  10 4289.74 1588.36   1
   7  -7 -10 7249.56 2854.57   1
  -7   7  10 1837.95 2383.76   1
  -3  14  -5 2873.25 1510.48   1
   3 -14   5 2137.49 1816.85   1
  -7  10   7 1696.32 1050.28   1
   7 -10  -7 8915.64 3893.74   1
   2  -8  13 2603.51 1385.69   1
   2  -8  13 2231.55 1952.46   1
  -2   8 -13 1415.67 875.250   1
   4 -11  10 12335.5 4265.14   1
  -4  11 -10 8969.05 3726.67   1
   4 -11  10 17046.8 2972.26   1
   5   9  -2 6873.12 3359.66   1
   5   9  -2 807.260 1509.84   1
   6 -13  -2 2852.41 1925.97   1
  -6  13   2 765.120 1363.48   1
  -2  12 -10 3140.08 1706.88   1
   2 -12  10 1504.91 1810.83   1
   7   6  -7 2762.62 2573.97   1
   3  11  -1 538.460 1718.21   1
   8  -4   6 2431.68 1895.41   1
   8  -4   6 10447.9 3458.97   1
  -2   7  11 2725.71 1358.42   1
  -2   7  11 1498.56 1653.36   1
   0   0  14 6312.86 2285.61   1
   3   0  12 1021.01 2270.02   1
   3   0  12 1760.76 675.970   1
   3   0  12 2317.46 1586.27   1
   4  10  -8 1768.77 1613.93   1
   6   7   0 558.850 1040.32   1
   6   7   0 19.0700 888.590   1
   3  10   2 811.030 1801.74   1
  -6   9   9 11286.5 4719.29   1
  -6   9   9 20225.6 2366.77   1
   6  -9  -9 18510.3 3064.93   1
   5  -4  11 -970.53 1846.17   1
   5  -4  11 -19.250 997.570   1
   5  -4  11 16.9900 1477.15   1
   6   3   6 3152.35 3039.03   1
   8  -8  -8 3421.77 1483.41   1
  -8   8   8 680.620 2021.05   1
  -3   6  12 1947.72 1481.82   1
  -3   6  12 3272.09 1837.47   1
  -1  -7  14 12311.6 4198.29   1
   1   7 -14 7839.18 3376.30   1
   8   1   3 1673.21 1458.85   1
   1  -2  14 704.630 1268.91   1
   1  -2  14 2034.76 1048.92   1
  -1   2 -14 -813.95 1123.12   1
   1  -2  14 624.450 1520.22   1
   3   9   4 2275.63 1565.35   1
   4 -12   9 7271.85 3121.35   1
   4 -12   9 1192.58 1183.76   1
  -4  12  -9 936.910 1101.36   1
   2  12  -7 590.710 2156.22   1
   0   9 -13 -36.750 1457.02   1
   0  -9  13 1195.37 1887.48   1
   5 -12   8 1710.32 1616.16   1
   5 -12   8 3727.42 1481.53   1
  -5  12  -8 3093.12 1827.56   1
  -7   3  12 866.060 372.730   1
   7  -3 -12 4732.03 1982.60   1
   7  -3 -12 907.860 1763.71   1
  -7   3  12 6848.25 3115.52   1
  -6   5  12 1906.64 1119.75   1
  -6   5  12 -2056.7 2002.00   1
   6  -5 -12 3249.50 1466.81   1
   8 -11   3 4332.82 2251.89   1
   8 -11   3 1204.11 1131.90   1
  -1 -10  12 9814.51 4088.35   1
   1  10 -12 7171.18 4131.07   1
   5   8 -10 4081.85 2238.93   1
  -1   6 -14 4709.09 2562.39   1
   1  -6  14 5142.24 2011.21   1
   1  -6  14 2339.59 1851.22   1
   4   0  11 -97.400 1584.97   1
   4   0  11 2346.45 1555.37   1
   4   0  11 1444.85 611.880   1
  -5  -1  14 4129.33 2207.32   1
   5   1 -14 1448.94 1231.32   1
  -5  -1  14 4888.26 2307.55   1
   2   5  10 1331.65 1425.50   1
   4  10  -1 4321.00 2635.29   1
   2  10   4 442.810 1282.02   1
  -1 -12   9 3685.70 1567.26   1
   1  12  -9 1375.18 1866.07   1
  -5  11   7 -145.20 1620.16   1
   5 -11  -7 806.890 775.540   1
  -5  11   7 566.510 1349.55   1
  -2  14  -5 2894.82 1405.15   1
   2 -14   5 2979.13 1600.73   1
   3  -5  13 738.580 1108.03   1
  -3   5 -13 1783.19 1737.97   1
   3  -5  13 2230.27 2787.71   1
   3  -5  13 -879.84 1086.55   1
   7  -1   7 492.010 1726.67   1
   0   8   9 1903.55 1048.29   1
   0   8   9 778.010 1179.48   1
   2 -10  12 1729.89 1394.30   1
  -2  10 -12 1839.47 2446.06   1
   6   4   5 3952.99 1396.98   1
   6   4   5 1759.67 1798.01   1
   2   8   7 2764.32 1774.45   1
   0  -7  14 2180.92 1835.32   1
   0   7 -14 4222.77 1786.82   1
   0  13   0 -866.96 1790.61   1
   3  11  -8 4671.11 1899.13   1
  -6   8  10 9368.23 4389.09   1
   6  -8 -10 23538.1 3732.40   1
  -6   8  10 10539.5 3911.33   1
   5  -7  11 2062.54 1848.09   1
  -5   7 -11 -416.17 1548.41   1
   5  -7  11 758.930 1062.00   1
   8   0   4 4682.68 3002.99   1
   2   2  12 2035.97 1277.01   1
   2   2  12 3988.54 1829.18   1
   0   7  10 6461.22 2476.74   1
   0   7  10 1245.91 1666.15   1
   7 -11   6 3371.96 2456.24   1
   7 -11   6 1468.28 1240.21   1
   4  -7  12 3206.94 2247.08   1
   4  -7  12 340.680 1765.80   1
  -4   7 -12 3098.10 1398.37   1
  -3  11   7 -896.21 1720.47   1
   3 -11  -7 3548.42 1588.75   1
  -3  11   7 2413.81 1989.22   1
   5   0 -14 1949.97 1417.60   1
  -5   0  14 1875.21 927.630   1
   8  -9  -7 1145.97 991.070   1
   5   5 -13 1046.55 1785.61   1
   3  -4  13 914.040 1865.60   1
   3  -4  13 8979.44 3056.22   1
  -3   4 -13 5254.64 2686.31   1
   3  -4  13 13522.3 5154.02   1
   0  12   3 2987.69 2421.66   1
   7   6  -2 715.350 1193.57   1
   7   6  -2 1213.73 1342.08   1
   7   6  -2 243.740 764.010   1
   0  11   5 4767.59 2368.76   1
   4 -14   0 2028.45 1696.86   1
  -4  14   0 819.950 1328.23   1
   3   6   8 164.230 838.700   1
   7  -8   8 854.840 1233.64   1
   7  -8   8 690.940 2067.45   1
   6   8  -5 2666.58 2219.93   1
  -2  10   8 1764.78 1070.10   1
   2 -10  -8 3362.17 1351.88   1
  -2  10   8 229.990 1378.18   1
  -2   2  14 -222.43 1837.90   1
  -2   2  14 3953.83 1681.88   1
   4  -3  12 3320.23 1699.37   1
   4  -3  12 2571.86 1028.11   1
  -4   3 -12 3281.54 2138.18   1
   4  -3  12 2026.14 2201.80   1
   2  11   2 -84.590 1412.11   1
   7 -10   7 512.610 1586.72   1
   7 -10   7 3006.38 1802.77   1
   9  -9   2 5357.26 2349.19   1
   9  -9   2 2928.18 1954.04   1
  -2  14  -1 1818.86 1463.23   1
   2 -14   1 1628.21 1269.75   1
   3 -14   0 2984.30 1801.61   1
  -3  14   0 -40.600 1399.28   1
  -5   4  13 13369.7 4267.08   1
  -5   4  13 2546.54 1801.25   1
  -2 -11  10 1749.89 1583.67   1
   2  11 -10 2374.51 2851.76   1
  -4   2  14 1785.67 1273.34   1
  -4   2  14 1275.92 784.730   1
   9  -7  -7 1376.87 1297.70   1
   9  -7  -7 234.190 1227.32   1
   9  -7  -7 5170.32 2224.20   1
   5   4   7 -324.96 578.500   1
   4   2  10 3070.18 2221.60   1
   4   2  10 2825.88 1314.40   1
  -5  14  -2 1706.56 1402.91   1
  -5  14  -2 -404.23 1179.28   1
   5 -14   2 4663.58 2168.78   1
   5   2 -14 2802.73 1989.25   1
  -5  -2  14 757.810 1950.58   1
  -5  -2  14 4282.67 2033.19   1
   6 -10  -8 -584.88 1135.92   1
  -6  10   8 4023.33 1958.66   1
  -6  10   8 3579.91 2049.16   1
   8  -7  -9 2914.23 1566.82   1
   8  -7  -9 1184.70 1545.17   1
  -8   7   9 80.0200 1887.18   1
   6   8  -4 5330.47 3039.08   1
   6   8  -4 -774.36 1131.74   1
   8  -8   6 2194.57 2969.59   1
   8  -8   6 2356.84 2087.27   1
   8   4  -7 5674.52 3699.82   1
   1  13  -4 7111.01 4479.47   1
   1  13  -4 3731.81 2125.84   1
   3  -6  13 797.620 1609.47   1
   3  -6  13 4421.73 2743.93   1
  -3   6 -13 2676.88 1687.57   1
   3  -6  13 3422.27 1658.58   1
  -3  -6  14 10209.7 3939.76   1
   3   6 -14 -650.63 1686.75   1
   9  -8   3 1331.71 1614.64   1
   9  -8   3 1623.54 1100.93   1
   8   2   2 4642.10 2380.11   1
   8   4  -2 1684.41 2541.29   1
   8   4  -2 -16.120 955.140   1
   9  -8  -6 2340.85 1849.61   1
   9  -8  -6 2373.82 1273.57   1
   8  -2 -11 1913.59 989.690   1
  -8   2  11 421.500 442.240   1
   8  -2 -11 1239.92 1515.31   1
  -1  11   6 3648.19 2644.05   1
   1  -9  13 158.200 1229.14   1
  -1   9 -13 3249.61 1656.89   1
   9   0  -8 1638.56 1617.04   1
  -8   1  11 1447.10 1170.39   1
   8  -1 -11 1733.45 1490.69   1
  -8   1  11 440.500 1292.12   1
   6   2   7 -2324.5 1758.59   1
  -2  12   5 1061.77 1348.72   1
   2 -12  -5 3868.35 1605.45   1
  -2  12   5 890.410 1200.72   1
   4   9   2 726.670 1034.30   1
   9  -3   3 2661.54 2779.99   1
   5   5   6 445.790 386.040   1
   3   5   9 1568.23 1135.02   1
   1   9   7 3344.56 1951.41   1
   1   9 -13 9212.69 4481.67   1
  -1  -9  13 3542.87 1920.90   1
   6   8  -6 1540.81 2395.31   1
   1  13  -5 665.650 1263.11   1
   5 -14   1 6785.53 2767.14   1
  -5  14  -1 2386.76 1930.11   1
   0 -12  10 1063.07 1666.44   1
   0  12 -10 301.470 1724.88   1
   9 -10  -1 2306.44 2303.64   1
   9 -10  -1 3541.35 1864.78   1
   4 -14   5 5160.57 2481.66   1
  -4  14  -5 4231.05 1885.85   1
   4 -14   5 6585.78 3188.69   1
   8   3  -9 4200.13 3625.88   1
   6 -12  -5 2387.73 1012.16   1
  -6  12   5 3412.99 1542.58   1
   9   1  -7 1738.55 1706.88   1
   5 -14   3 12344.7 4170.42   1
   5 -14   3 11730.7 5145.93   1
  -5  14  -3 12250.8 4438.23   1
  -5  14  -3 8918.44 3019.38   1
   1   5  11 1008.23 1226.99   1
   1   5  11 3598.26 1525.24   1
   1  11 -11 3054.15 2228.40   1
  -1 -11  11 950.480 1123.94   1
   5   9  -8 3971.74 2348.62   1
   3   7   7 3054.30 1504.84   1
   5 -10  10 -215.70 1245.14   1
  -5  10 -10 3835.51 2308.56   1
   5 -10  10 3476.40 2789.89   1
   7   2 -12 3671.54 2632.54   1
   0   9   8 3568.98 1587.60   1
   1  13  -3 2266.38 2934.46   1
  -5   6  12 6242.47 2340.18   1
   5  -6 -12 5613.39 2086.22   1
   2  12  -1 -2304.0 1792.64   1
   8   2 -10 6695.49 3240.26   1
  -8  -2  10 768.370 920.900   1
   7  -3   8 2518.91 2156.13   1
   7  -3   8 2511.86 1477.51   1
  -6  11  -8 -921.03 1889.81   1
   6 -11   8 -294.99 1585.80   1
   6 -11   8 2411.16 2289.42   1
  -6  13  -5 1073.30 921.370   1
  -6  13  -5 1368.03 1094.57   1
   6 -13   5 10262.1 4296.13   1
   6 -13   5 1827.65 2173.66   1
   9 -10   0 2764.68 1907.13   1
   9 -10   0 3697.98 2726.10   1
   6  -6  10 592.810 1764.65   1
   6  -6  10 3397.25 1720.41   1
  -5   1  14 -134.54 1578.58   1
   5  -1 -14 1331.21 1167.02   1
  -5   1  14 1986.93 1198.72   1
   7   2   5 707.800 1837.02   1
  -2  -7  14 -241.88 1482.06   1
   2   7 -14 3075.03 2843.55   1
   9   1  -1 4132.69 3324.39   1
   9   1  -1 815.920 1584.59   1
   8 -11  -4 5090.88 2156.90   1
   8 -11  -4 689.890 1286.17   1
   7   5   1 1429.57 1213.53   1
   7   5   1 177.770 1332.42   1
   9 -10  -2 3884.97 2656.72   1
   9 -10  -2 3759.30 2460.10   1
  10  -5  -3 -265.19 738.780   1
  10  -5  -3 920.160 1663.46   1
   9  -3  -9 5920.18 2741.30   1
   9  -3  -9 4047.66 1679.80   1
  -9   3   9 5423.89 3777.92   1
   3  -3  13 2961.95 2416.77   1
   3  -3  13 3690.74 1646.09   1
   3  -3  13 1069.06 840.000   1
  -3   3 -13 1567.37 1081.84   1
   2   0  13 6579.51 2445.66   1
   2   0  13 3007.71 2147.27   1
   2   0  13 2414.01 2168.05   1
  -1  13   2 1965.47 1582.49   1
   5  -3  11 3754.46 2292.63   1
   5  -3  11 1233.84 606.530   1
   5  -3  11 3078.32 2004.39   1
  -6  -3  13 6237.00 3586.33   1
   6   3 -13 6366.08 2823.63   1
   4 -10  11 4003.91 2400.05   1
  -4  10 -11 4525.37 2708.54   1
   4 -10  11 3471.54 2035.26   1
  -6   3  13 1430.66 982.300   1
   6  -3 -13 1524.30 1148.24   1
  -6   3  13 2190.47 2630.94   1
   6  -5  10 4897.70 2486.22   1
   6  -5  10 -551.90 1732.83   1
  -9   2   9 6493.86 3559.77   1
   9  -2  -9 3533.68 2516.06   1
   9  -2  -9 -57.320 524.130   1
  10  -4  -3 2193.29 1210.12   1
  10  -4  -3 5561.23 2576.63   1
   4   8   4 2424.85 1542.27   1
  -2  13   3 2143.11 2109.75   1
   2 -13  -3 3973.66 1568.74   1
   0   6  11 687.550 1042.65   1
   0   6  11 2142.37 1348.58   1
   8  -3 -11 1593.74 1447.29   1
  -8   3  11 -128.45 2534.47   1
  -8   3  11 1770.74 989.110   1
   8  -3 -11 -1366.8 1243.27   1
   5   3   8 -48.140 1645.24   1
   5   3   8 927.630 433.840   1
   6   5   4 1947.66 1577.46   1
   6   5   4 539.130 510.310   1
  -1  14  -4 1154.43 797.740   1
  -1  14  -4 -1085.6 1750.59   1
   1 -14   4 371.020 815.630   1
   6   6 -11 3361.14 3180.62   1
  -6  -6  11 3546.36 1792.96   1
  -1  14  -3 3382.94 2334.75   1
   1 -14   3 3956.23 1619.84   1
   6   8  -3 2593.52 1504.14   1
   6   8  -3 -293.17 995.080   1
  10  -5  -2 543.500 671.530   1
  10  -5  -2 1421.74 848.530   1
  -9   6   8 -1710.8 1850.22   1
   9  -6  -8 2340.21 2748.69   1
   9  -6  -8 6517.23 2521.35   1
   8  -3   6 5288.19 2818.83   1
   7   3   4 3129.85 2296.38   1
  -3  14  -6 12127.9 4295.30   1
   3 -14   6 36044.2 4460.31   1
  -8   0  11 9210.93 4483.64   1
   8   0 -11 6400.31 3250.69   1
   4   5 -14 3548.53 2077.46   1
  -4  -5  14 1618.43 1428.59   1
   3 -11  11 3638.66 1808.63   1
  -3  11 -11 1190.72 1318.84   1
   3 -11  11 2556.86 1397.37   1
   6  -7 -11 18459.3 3630.61   1
  -6   7  11 15586.8 5442.56   1
  -6   7  11 3573.10 2293.52   1
   8  -1   5 -717.48 1877.22   1
  -2  14  -6 1762.00 1072.50   1
   2 -14   6 8843.19 3765.18   1
  -3  -9  12 303.160 1018.43   1
   3   9 -12 -1639.0 1693.75   1
   3 -12  10 7103.11 3226.53   1
   3 -12  10 5656.10 2555.07   1
  -3  12 -10 8118.60 3656.16   1
  -4  -8  12 5951.71 2601.11   1
   4   8 -12 2386.97 2289.69   1
   0  13  -8 762.840 1470.78   1
   0 -13   8 2436.12 1567.68   1
   2   3 -15 -647.04 1301.15   1
  -2  -3  15 3785.19 2315.53   1
   7   6  -8 3177.08 2745.73   1
  10  -4  -4 4172.70 1979.73   1
   8 -10  -6 2500.20 1511.32   1
   6 -12   7 5996.90 2570.33   1
  -6  12  -7 791.260 1551.69   1
   6 -12   7 8358.62 3741.54   1
   8 -10   5 2938.53 2376.21   1
   8 -10   5 -494.71 1574.84   1
   1  11   4 2486.07 2013.50   1
   7 -13   1 -91.140 2104.80   1
   7 -13   1 1497.27 1324.20   1
  -7  12   4 5802.48 2392.94   1
   7 -12  -4 9192.31 3425.10   1
  -2   6  12 2809.88 1844.20   1
  -2   6  12 570.190 996.900   1
  -2  -2  15 389.280 1512.64   1
   2   2 -15 1226.96 972.500   1
   6  -1   9 1056.66 1571.10   1
  10  -4  -2 931.060 1213.05   1
  10  -4  -2 -375.25 606.510   1
   0   3  13 1009.25 1009.32   1
   0   3  13 1112.81 1149.10   1
   1  13  -6 1572.24 1998.48   1
   7 -12   5 1572.76 1635.74   1
   7 -12   5 4756.68 2551.87   1
  10  -5  -4 2469.32 1221.19   1
  10  -5  -4 887.090 891.990   1
  -7   6  11 4115.23 1734.99   1
   7  -6 -11 7406.89 2444.65   1
  -7   6  11 6026.11 4714.39   1
   5 -14   0 1571.72 1205.56   1
  -5  14   0 924.660 1268.49   1
   9  -9  -5 7271.62 2752.51   1
   9  -9  -5 365.950 983.530   1
   1  -1  14 1633.00 966.740   1
   1  -1  14 1554.88 1697.71   1
  -1   1 -14 4295.23 1901.52   1
   1  -1  14 2998.83 2533.06   1
  -7  11   6 4862.98 1931.75   1
   7 -11  -6 8112.00 3313.93   1
   6   5 -12 447.790 1883.53   1
   5  -8  11 4678.61 2783.33   1
  -5   8 -11 1133.54 1193.17   1
   5  -8  11 659.010 1290.90   1
   5   9  -1 199.580 1240.65   1
   5   9  -1 253.050 815.920   1
   6  -7  10 1479.42 2307.56   1
  -6   7 -10 3680.82 2837.91   1
   6  -7  10 -724.86 958.840   1
   7 -13   0 8023.89 3456.27   1
   7 -13   0 4394.33 2178.99   1
  -5  -3  14 4643.14 2922.79   1
   5   3 -14 9152.44 3300.53   1
  -5  -3  14 16925.1 4416.19   1
   5   0  10 1993.70 2737.15   1
   5   0  10 159.780 325.720   1
  -7  -4  11 723.810 1324.66   1
   7   4 -11 2591.64 2057.66   1
  -4  13  -8 1514.35 1106.54   1
   4 -13   8 2751.09 1509.03   1
   4 -13   8 1916.41 2171.36   1
   3  -7  13 587.440 699.880   1
  -3   7 -13 1513.28 993.100   1
   3  -7  13 -423.68 1346.91   1
   3  -7  13 916.870 1248.18   1
   6   8  -7 692.710 1715.00   1
  -1   7 -14 1122.72 505.230   1
   1  -7  14 1612.81 1184.90   1
   1  -7  14 -469.96 1267.89   1
  10  -6  -2 3217.23 1516.00   1
  10  -6  -2 1672.54 1083.38   1
  10  -6  -3 2544.74 1145.83   1
  10  -6  -3 2860.93 1480.61   1
   9  -4  -9 544.890 485.500   1
   9  -4  -9 163.030 1483.17   1
  -9   4   9 2369.33 2132.33   1
  -3  -8  13 -619.04 1293.84   1
   3   8 -13 2107.04 1902.84   1
   1 -14   5 2119.49 911.610   1
  -1  14  -5 1871.85 1215.88   1
   5   6   5 1158.37 1177.17   1
  -5  14  -4 647.850 1155.24   1
   5 -14   4 959.980 1696.15   1
  -5  14  -4 2014.34 985.440   1
   5 -14   4 958.810 2372.27   1
   7   1   6 4103.51 2660.16   1
   7  -4 -12 7707.89 3476.12   1
  -7   4  12 4120.73 1950.45   1
   7  -4 -12 1538.64 1088.05   1
  -7   4  12 3592.63 1353.90   1
   9  -6   4 1143.76 2136.96   1
   9  -6   4 1147.94 856.770   1
   2  12  -8 4753.26 2814.70   1
  -4   8 -12 1606.10 1220.86   1
   4  -8  12 -633.02 1224.92   1
   4  -8  12 -399.84 2088.71   1
   2   4  11 4761.43 1984.82   1
   2   4  11 5746.25 2529.62   1
   1  13  -2 2278.29 1901.81   1
  -5  13  -7 -1326.4 1514.77   1
   5 -13   7 2605.99 1702.09   1
   5 -13   7 -328.95 1956.75   1
   9 -10   1 2394.30 1463.77   1
   9 -10   1 13161.6 4675.25   1
   8 -12   0 1402.81 1473.83   1
   8 -12   0 1240.00 2636.33   1
   7   5 -10 1030.19 1894.10   1
   7 -13   2 1328.04 1213.57   1
   7 -13   2 798.370 1331.16   1
   9  -1  -9 9248.41 3020.93   1
   9  -1  -9 4219.76 2774.94   1
  -9   1   9 3726.18 1271.48   1
  -1  -3  15 1056.74 1277.20   1
  -1  -3  15 8911.15 3052.50   1
   1   3 -15 -477.00 914.090   1
  10  -3  -3 2428.45 1261.69   1
  -1  14  -2 1691.52 2156.05   1
  -6  13   3 2363.42 1731.47   1
   6 -13  -3 2108.58 1750.13   1
   9  -1   2 1347.74 1398.92   1
   6  -4  10 6034.55 2446.42   1
   6  -4  10 2195.10 1846.24   1
   4 -14  -1 271.920 1087.15   1
  -4  14   1 448.080 1249.70   1
   9   2  -4 2277.20 3729.61   1
   3   4  10 804.160 742.890   1
   4 -13  -4 3906.07 2125.52   1
  -4  13   4 3327.65 2041.23   1
   9  -5   4 2349.42 1439.58   1
   9  -5   4 2431.16 2664.22   1
   2 -14   0 7130.47 2544.93   1
  -2  14   0 -211.50 1519.00   1
   2   9   6 3760.50 2146.74   1
   4   7 -13 1073.28 1588.15   1
  -4  -7  13 1824.46 1284.81   1
  10  -3  -4 3883.29 3341.26   1
  10  -3  -4 -1062.9 1047.70   1
  -2  13  -9 -912.03 1324.43   1
   2 -13   9 499.320 1194.08   1
  -2  -4  15 2934.69 2191.70   1
   2   4 -15 1848.15 2280.52   1
  -2  -4  15 2690.82 1677.36   1
  10  -5  -1 1555.56 885.680   1
  10  -5  -1 1313.17 1900.84   1
   9   2  -5 5784.85 3779.69   1
   9 -10  -3 4871.69 2764.34   1
   9 -10  -3 2373.90 2319.64   1
  -8   6  10 -1045.3 2107.33   1
   8  -6 -10 2330.13 1150.39   1
  -8   6  10 948.090 641.550   1
   8  -6 -10 655.430 1032.59   1
  -3  -2  15 2093.03 1104.57   1
  -3  -2  15 -318.33 1430.44   1
   3  11   0 -54.580 1394.90   1
  -6  11   7 1253.24 958.070   1
   6 -11  -7 -796.97 1148.63   1
   9   0   1 930.190 1338.57   1
   6 -10   9 384.270 1456.00   1
   6 -10   9 1231.66 1961.57   1
  -6  10  -9 1376.32 1097.10   1
   7   6  -1 2457.52 1875.19   1
   7   6  -1 2944.93 1757.29   1
   4  10  -9 47.0700 1614.41   1
   8 -11   4 4615.87 2281.76   1
   8 -11   4 153.320 1481.05   1
   8 -12   1 32.8100 1347.92   1
   8 -12   1 2725.94 2059.81   1
  -1   4  13 -576.85 1486.11   1
  -1   4  13 1772.76 718.330   1
   4 -12  -6 1344.34 732.870   1
  -4  12   6 -713.10 1233.33   1
   4  -2  12 3878.05 1636.12   1
   4  -2  12 -350.11 1693.66   1
   4  -2  12 2029.95 1760.80   1
   8   3   1 -649.03 1244.69   1
   8   3   1 384.520 1526.93   1
   1   4 -15 2424.70 1015.61   1
  -1  -4  15 10479.6 3681.84   1
  -1  -4  15 8163.61 3285.01   1
   8 -12  -1 1280.29 1369.19   1
   8 -12  -1 1500.57 1241.50   1
   7  -9   8 2779.05 2017.24   1
   7  -9   8 600.060 1606.38   1
   6   1   8 1082.72 2627.29   1
   1   2  13 4989.17 2036.19   1
   8   4  -8 4447.02 2924.34   1
  -2  -1  15 6852.27 3523.19   1
   2   1 -15 3232.14 1569.84   1
  -2  -1  15 3769.68 1716.30   1
  10  -4  -5 1256.49 604.580   1
  10  -4  -5 527.720 1394.97   1
  10  -4  -5 2572.28 2696.06   1
   9  -7   4 6814.61 3654.84   1
   9  -7   4 8488.90 3054.88   1
  -1   8  10 182.100 991.380   1
  -1   8  10 475.280 1490.26   1
   8   4  -1 2823.07 2113.68   1
   8   4  -1 2992.47 1802.25   1
  10  -6  -1 4843.82 2150.92   1
  10  -6  -1 3490.53 2102.79   1
   3 -14  -1 6889.30 2571.76   1
  -3  14   1 834.710 1390.89   1
   1  12   2 2979.81 2416.34   1
  10  -6  -4 2882.36 1631.85   1
  10  -6  -4 463.750 616.390   1
  -3  -3  15 4833.05 2384.71   1
   3   3 -15 1210.32 1470.13   1
  -1  -2  15 15022.4 5795.89   1
   1   2 -15 4995.22 1920.32   1
  -1  -2  15 16005.5 5307.24   1
   3   8   6 347.760 916.020   1
  -2  11   7 7029.27 3920.42   1
  -2  11   7 2758.94 2005.98   1
   2 -11  -7 958.700 494.220   1
   4  10   0 1071.00 1243.33   1
   7 -13  -1 -808.98 1238.10   1
   7 -13  -1 3768.44 1981.72   1
  -1   2  14 2943.91 1661.07   1
  -1   2  14 -990.74 1357.96   1
   8  -9   6 1741.49 2069.17   1
   8  -9   6 -960.28 1511.83   1
  -1  13  -9 3819.28 1631.70   1
   1 -13   9 1858.07 1239.85   1
  -4  -9  11 1346.73 722.560   1
   4   9 -11 1256.15 2310.20   1
  10  -3  -2 1075.08 1730.28   1
  10  -4  -1 5348.20 2913.37   1
   7   4   3 3129.92 2124.37   1
   7   4   3 499.610 1400.06   1
  -3  -1  15 3456.46 1463.07   1
   3   1 -15 1003.55 1089.41   1
  -3  -1  15 1044.59 1931.52   1
   0   1  14 2262.07 1443.75   1
   3  11  -9 659.460 1496.16   1
   8  -4 -11 4785.56 2037.44   1
  -8   4  11 1110.22 699.230   1
  -8   4  11 4850.18 3187.36   1
   8  -4 -11 1764.41 1493.18   1
  -4   5  13 6669.15 3179.48   1
  -4   5  13 2351.52 1263.87   1
   6   7 -10 183.140 1909.50   1
  10  -5  -5 120.960 766.120   1
  10  -5  -5 263.900 482.380   1
   9  -9   3 1703.88 1112.54   1
   9  -9   3 3927.10 2328.67   1
   0  13   1 4903.89 2673.48   1
  -1   9   9 -705.15 1685.35   1
  -1   9   9 1276.37 732.070   1
  -5   2  14 5077.43 2471.26   1
  -5   2  14 -142.19 1119.47   1
  -2   9 -13 -1336.3 1390.35   1
   2  -9  13 6765.27 3043.47   1
  -5  13   4 4055.27 2484.65   1
   5 -13  -4 1302.69 1185.60   1
  -3   5  13 986.120 915.030   1
  -3   5  13 2979.18 1672.76   1
   6   8  -2 2608.29 1591.18   1
   6   8  -2 565.020 1074.60   1
   0  10   7 765.990 1322.05   1
  -3 -10  11 9463.82 3633.87   1
   3  10 -11 1145.75 1796.94   1
  -3   3  14 -188.20 1727.91   1
  -3   3  14 3539.77 1538.42   1
  -5  12   6 222.470 1064.41   1
   5 -12  -6 3714.24 1625.65   1
  -4  14  -6 856.200 737.900   1
   4 -14   6 1733.01 2380.85   1
   4 -14   6 984.300 1540.64   1
  10  -3  -5 1468.91 987.620   1
 -10   3   5 2532.13 2256.93   1
  10  -3  -5 -32.910 1528.84   1
  10  -3  -5 751.520 460.570   1
   2  -5  14 4721.99 2188.17   1
   2  -5  14 151.630 1260.09   1
  -2   5 -14 752.740 853.290   1
   3  -2  13 4414.88 1735.84   1
   3  -2  13 3401.37 1923.82   1
   3  -2  13 3063.51 2731.78   1
  -3   2 -13 2631.19 1540.93   1
   2  -4  14 1022.19 1953.10   1
   2  -4  14 6229.60 2345.33   1
   2  -4  14 5203.94 2211.99   1
  -2   4 -14 421.950 864.760   1
   9  -2   3 41.8300 1493.18   1
   9   2  -6 3250.71 2333.92   1
  -8  -1  11 4684.21 1913.33   1
   8   1 -11 2008.26 2023.83   1
   3 -13  -4 9523.74 3495.52   1
  -3  13   4 5251.72 3053.13   1
   6   7   1 483.040 671.110   1
   6   7   1 752.960 853.650   1
  -2 -10  12 1914.52 1094.69   1
   2  10 -12 3211.48 2525.33   1
   5   8   2 -160.08 914.060   1
  -5  -7  12 3292.62 1658.94   1
   5   7 -12 1045.79 1642.54   1
  -4   9  10 4704.75 2908.56   1
  -4   9  10 2079.57 1335.68   1
   4  -9 -10 4209.67 1924.23   1
   9   1  -8 1262.86 2261.74   1
   4   5   8 574.570 731.350   1
   9  -4   4 2269.57 2559.86   1
   0  -8  14 1657.60 1885.77   1
   0   8 -14 2528.07 1629.18   1
  -2  -9  13 2231.44 1791.90   1
   2   9 -13 2112.54 2108.81   1
  -1  14  -6 606.680 710.100   1
   1 -14   6 3907.64 2344.91   1
  10  -7  -2 231.270 946.230   1
  10  -7  -2 2304.37 1246.93   1
   5   2   9 4003.39 1460.28   1
   5   2   9 1879.35 2269.60   1
   6  -8  10 2453.65 1613.56   1
   6  -8  10 3014.74 2608.66   1
  -6   8 -10 2237.38 2482.38   1
   1  13  -7 -320.95 1544.27   1
   7 -13   3 5494.90 2499.26   1
   7 -13   3 867.710 1063.01   1
   3 -10  12 4092.65 2046.46   1
  -3  10 -12 2088.24 1672.88   1
   3 -10  12 1109.54 820.580   1
  -1   7  11 4090.64 1590.67   1
  -1   7  11 -413.52 994.210   1
  -5  14   1 1041.94 1792.99   1
   5 -14  -1 1995.74 1710.78   1
   8 -12   2 5326.83 2099.18   1
   8 -12   2 6322.92 3441.18   1
   1  10   6 5444.63 2744.94   1
   4   6   7 1530.99 728.590   1
  -1  -8  14 97.7400 1416.76   1
   1   8 -14 -151.90 1806.83   1
  -3  12   6 266.810 1293.48   1
   3 -12  -6 1985.80 1257.52   1
  -3  12   6 1333.36 1408.21   1
  -4   3  14 820.720 842.600   1
  -4   3  14 4102.02 1752.50   1
   3 -13   9 2563.78 2208.09   1
   3 -13   9 3062.03 1998.90   1
  -3  13  -9 2727.64 1640.21   1
  10  -7  -3 3069.21 1574.37   1
  10  -7  -3 535.910 774.410   1
   9  -5  -9 1077.62 1780.16   1
  -9   5   9 522.630 1980.66   1
   9  -5  -9 1562.98 758.850   1
   1   5 -15 550.210 773.450   1
  -1  -5  15 -58.830 1362.89   1
  -1  -5  15 1306.84 1383.89   1
   5   9  -9 3363.39 2248.40   1
   5  -2  11 3502.03 1934.86   1
   5  -2  11 87.0600 614.390   1
   5  -2  11 1578.51 1646.74   1
   7   3 -12 4655.03 3051.53   1
  -7  -3  12 17205.3 2947.16   1
   2  12   0 693.810 1720.43   1
   8 -12  -2 13525.5 2935.58   1
   8 -12  -2 8754.16 4231.30   1
  -1  14  -1 9847.40 4008.18   1
   7  -2   8 3133.26 2685.41   1
   0   5  12 15.0600 1163.03   1
   0   5  12 4.18000 722.010   1
   9   1   0 366.040 1165.46   1
   1   4  12 3884.28 1767.20   1
   1   4  12 -268.70 1345.97   1
   3   1  12 596.370 841.350   1
   3   1  12 912.440 1576.40   1
   3   1  12 2412.05 1649.13   1
  -4  10   9 6957.75 3028.75   1
   4 -10  -9 11926.4 2873.14   1
  10  -2  -4 -1174.7 1718.28   1
  10  -2  -4 -341.39 941.050   1
  -4   8  11 7519.31 2888.60   1
  -4   8  11 2067.20 1492.67   1
   4  -8 -11 10243.7 4007.03   1
   6   8  -8 781.990 1949.39   1
   9 -10   2 2018.54 1968.40   1
   9 -10   2 3168.67 2238.89   1
   5 -14   5 1629.97 1394.71   1
  -5  14  -5 3406.48 2272.50   1
  -5  14  -5 1904.41 1549.17   1
   5 -14   5 2517.38 2048.52   1
  10  -7  -1 3133.24 1879.18   1
  10  -7  -1 -53.800 890.180   1
  -2  -5  15 -36.380 1481.02   1
   2   5 -15 1048.10 1450.78   1
  -2  -5  15 2585.03 1401.10   1
  -3  -4  15 3136.34 2386.88   1
   3   4 -15 457.530 1738.90   1
  -3  -4  15 1649.32 2195.73   1
  -1 -12  10 2035.98 1435.59   1
   1  12 -10 -407.20 1905.04   1
   9   0  -9 9399.46 4409.36   1
  -9   0   9 4484.60 2516.35   1
  10  -2  -3 -35.250 997.400   1
   2 -14   7 7724.78 3220.85   1
  -2  14  -7 8360.66 3195.16   1
  10  -5   0 1350.62 1534.20   1
  10  -5   0 2590.51 1533.61   1
  -2   6 -14 850.230 540.480   1
   2  -6  14 -261.10 917.750   1
   2  -6  14 -961.91 1151.03   1
   2  -6  14 1485.85 1451.54   1
   2  -3  14 1670.01 1396.23   1
   2  -3  14 637.400 1102.23   1
  -2   3 -14 837.030 836.750   1
   2  -3  14 1769.76 823.030   1
   6  -3  10 2206.05 2791.11   1
   6  -3  10 631.250 948.600   1
   1  13  -1 2481.31 2694.60   1
  -5   9  10 3544.77 3112.39   1
  -5   9  10 11756.1 1779.39   1
   5  -9 -10 12004.3 2384.23   1
  -1  11 -12 2842.65 1544.78   1
   1 -11  12 530.400 1381.48   1
   7   0   7 503.150 1554.05   1
   9  -8   4 204.980 1635.69   1
   9  -8   4 83.1200 989.890   1
   9  -8  -7 2077.82 1717.00   1
   9  -8  -7 4563.94 2573.43   1
  -1  -1  15 2727.73 1878.99   1
   1   1 -15 1561.51 986.970   1
  10  -6   0 1130.93 1099.59   1
  10  -6   0 1715.55 2035.29   1
  10  -3  -1 4793.39 2663.52   1
   8  -2   6 5321.00 2519.43   1
  -3  14  -7 4356.26 2272.18   1
   3 -14   7 4780.94 2394.47   1
   3 -14   7 6547.16 2783.45   1
  10  -6  -5 7824.44 2938.98   1
  10  -6  -5 1383.09 694.180   1
   5   4 -14 208.270 1500.29   1
  -5  -4  14 377.370 1737.90   1
   6 -13   6 -409.38 1929.65   1
   6 -13   6 2829.97 2464.21   1
  -6  13  -6 1719.91 1178.10   1
   6  -6 -12 10480.2 4208.72   1
  -6   6  12 5564.59 2710.12   1
  -6   6  12 6535.62 3019.81   1
   6   4 -13 3824.50 2374.14   1
  -6  -4  13 1783.04 2146.31   1
  -7   9   9 -1221.3 1865.25   1
  -7   9   9 1361.46 888.980   1
   7  -9  -9 4740.84 2472.83   1
  -6   4  13 6013.89 2643.46   1
  -6   4  13 1089.76 646.750   1
   5   8 -11 5718.71 3341.39   1
  -3   0  15 2808.73 1542.66   1
  -3   0  15 -903.96 1628.39   1
   3   0 -15 326.950 965.450   1
   9 -10  -4 5173.88 2983.68   1
   9 -10  -4 3268.47 1703.91   1
   9   2  -2 3130.59 2353.01   1
   9   2  -2 -85.630 1013.98   1
   8  -6   7 942.340 1025.76   1
   8  -6   7 -1.7600 2067.50   1
  -3   8 -13 938.580 849.080   1
   3  -8  13 5725.19 2811.83   1
   3  -8  13 934.470 1459.28   1
  -3   9  10 2471.30 2581.47   1
  -3   9  10 3162.32 1948.86   1
   8 -11  -5 3080.02 1845.65   1
   4   4   9 890.640 613.290   1
  -5  -6  13 2344.94 2221.32   1
   5   6 -13 1881.63 1553.16   1
   4   1  11 311.310 354.950   1
   4   1  11 385.690 1585.17   1
   6 -14   1 -218.99 1322.94   1
  -6  14  -1 568.900 913.410   1
   6 -14   2 2506.12 1620.00   1
   6 -14   2 1074.13 1872.67   1
  -6  14  -2 1008.90 940.670   1
  -2   3  14 4565.13 2404.94   1
  -2   3  14 4323.09 2020.54   1
   7   6  -9 470.330 1763.32   1
   3  10   3 1643.45 1125.35   1
   0  -4  15 303.270 1209.61   1
   0  -4  15 -1437.4 1910.47   1
   0   4 -15 2303.04 1510.55   1
 -10   4   6 -218.05 1227.01   1
  10  -4  -6 2949.36 1354.30   1
  10  -4  -6 2752.20 2342.86   1
  10  -4  -6 715.500 543.610   1
   3   7 -14 3897.03 2197.86   1
  -3  -7  14 1036.43 1343.05   1
  -2   0  15 357.760 485.960   1
  -2   0  15 -288.93 1469.55   1
   7 -13  -2 10759.9 4158.42   1
   0  11 -12 9813.35 3996.00   1
   0 -11  12 12093.7 1910.93   1
   5  -9  11 -304.57 1283.31   1
  -5   9 -11 1403.72 1882.29   1
   5  -9  11 2755.36 2639.65   1
   5 -10  -9 11414.4 2881.85   1
  -5  10   9 3282.36 1609.83   1
  -5  10   9 -33.550 1711.47   1
  10  -2  -5 1673.48 1481.21   1
   9  -7  -8 2158.99 1878.57   1
   9  -7  -8 998.810 829.050   1
  -9   7   8 3104.44 3024.06   1
  -1  10   8 1930.10 1427.24   1
  -1  10   8 -710.75 1182.28   1
   1 -10  -8 2586.74 1134.62   1
  10  -7  -4 10428.9 4130.87   1
  10  -7  -4 5251.60 2516.60   1
   5   7   4 161.720 742.770   1
   0   3 -15 5689.41 2737.37   1
   0  -3  15 9980.30 3745.15   1
   0  -3  15 12312.0 2644.19   1
   7 -11   7 7486.37 3376.04   1
   7 -11   7 -491.06 1776.58   1
  -5   5  13 7538.12 3220.72   1
  -5   5  13 2084.40 1234.66   1
   8  -5   7 2797.68 2615.80   1
   8  -5   7 1061.49 1404.37   1
   8   3 -10 1739.67 2548.40   1
   8  -7   7 4007.52 3513.27   1
   8  -7   7 1877.26 1195.19   1
   8   5  -5 737.950 1541.30   1
  -1  12 -11 1673.54 819.800   1
   1 -12  11 -130.16 1019.26   1
  10  -4   0 -311.54 1489.58   1
  10  -3  -6 2649.76 2266.13   1
  10  -3  -6 812.230 453.560   1
 -10   3   6 1250.12 1119.84   1
  -7   8  10 2847.77 1306.64   1
  -7   8  10 5856.14 3585.26   1
   7  -8 -10 2933.95 1722.90   1
   3  -8 -11 3007.48 1480.13   1
  -3   8  11 4045.83 2023.70   1
  -3   8  11 3499.29 1806.23   1
   9   2  -7 -243.28 1597.64   1
   1   0  14 1119.34 1109.11   1
   1   0  14 5228.55 3254.09   1
   1   0  14 4007.10 1815.44   1
  10  -2  -2 448.230 1059.02   1
   5  -8 -11 11750.7 2266.16   1
  -5   8  11 10438.1 3706.68   1
  -5   8  11 4262.41 2226.24   1
  -7   1  13 -3.4700 2067.73   1
   7  -1 -13 638.710 1807.59   1
  -7   1  13 5566.08 2141.73   1
  -4  -2  15 198.810 1178.52   1
   4   2 -15 1170.68 1664.88   1
  -4  -2  15 -145.37 1658.58   1
  -7   0  13 2133.76 1345.93   1
   7   0 -13 972.910 1522.95   1
  -7   0  13 2282.70 1116.92   1
   5   9   0 1139.33 1074.04   1
  -7  10   8 2489.05 1468.51   1
  -7  10   8 1521.73 1957.84   1
   7 -10  -8 5043.08 2026.68   1
  -4  -1  15 2668.30 1834.70   1
   4   1 -15 1677.24 1842.82   1
  -4  -1  15 5376.85 2677.37   1
  -1  12   5 424.720 1390.81   1
   8   1   4 633.240 1419.25   1
   8   5  -4 191.160 1445.42   1
   9  -9  -6 2680.35 1918.33   1
   9  -9  -6 -125.16 1452.31   1
   4   7   6 773.880 859.060   1
  -2   5  13 -266.93 973.990   1
  -2   5  13 1988.47 1203.95   1
   1  -8  14 1025.68 1167.25   1
  -1   8 -14 3344.82 1116.70   1
   8  -9  -8 13188.1 3516.17   1
  -8   9   8 2763.79 2881.79   1
   5 -12   9 8141.25 3759.38   1
   5 -12   9 -1589.3 1517.19   1
  -5  12  -9 1570.28 1615.95   1
   2 -14  -1 1904.13 496.340   1
  -2  14   1 5057.84 2957.32   1
  10  -5  -6 9033.11 3514.10   1
  10  -5  -6 4008.55 2006.16   1
  10  -5  -6 3560.12 1556.48   1
   4  11  -5 1576.73 1406.57   1
  -3  10   9 3841.15 1824.88   1
  -3  10   9 4443.35 2379.68   1
   3 -10  -9 2572.02 1270.20   1
   4  -9  12 -627.32 1254.32   1
  -4   9 -12 1652.25 957.170   1
   4  -9  12 2340.08 2331.94   1
   4 -14  -2 5585.61 2380.99   1
  -4  14   2 354.210 1251.15   1
   2  11   3 -123.02 1246.66   1
   0 -13   9 1631.28 1331.37   1
   0  13  -9 3409.28 2408.65   1
  -4  -6  14 948.040 1404.34   1
   4   6 -14 -385.07 1481.88   1
   3   3  11 560.600 565.290   1
  -6  14   0 2717.52 2077.00   1
   6 -14   0 -43.180 1324.29   1
   7  -6   9 2328.34 1611.22   1
   7  -6   9 1826.92 2577.68   1
  -8   8   9 2985.45 2162.08   1
   8  -8  -9 14093.7 2836.45   1
   0  10 -13 8617.93 3734.89   1
   0 -10  13 11675.9 2506.26   1
  -2 -11  11 1857.95 1158.25   1
   2  11 -11 1669.14 2215.68   1
   0  -5  15 11.1000 1239.80   1
   0  -5  15 6771.52 3192.64   1
   0   5 -15 3283.29 1198.49   1
   6 -14   3 1834.03 1447.32   1
  -6  14  -3 2770.28 1641.42   1
   6 -14   3 6432.45 2977.79   1
   2  12  -9 816.860 1878.98   1
  10  -7   0 -602.19 1518.66   1
  10  -7   0 2775.49 1944.12   1
   0  12   4 768.200 1404.40   1
   8   2   3 2024.65 1608.79   1
   8   5  -6 3506.05 2925.35   1
  -7   5  12 1261.00 1823.76   1
   7  -5 -12 2055.75 1465.05   1
  -7   5  12 1426.59 840.000   1
   7   7  -5 542.910 1191.12   1
   7   7  -5 4327.85 2587.51   1
   4  11  -4 831.710 1681.25   1
   4  11  -4 2381.51 2690.57   1
   2   1  13 3868.97 2032.18   1
   2   1  13 1166.92 666.910   1
   8 -12   3 4024.44 1885.30   1
   8 -12   3 6547.17 3028.02   1
  -2  12 -11 -540.59 1498.92   1
   2 -12  11 2715.87 2158.05   1
   9  -3   4 1472.91 1708.17   1
  -7  12   5 1410.54 1134.67   1
   7 -12  -5 3487.46 2021.23   1
   4 -12  10 912.870 676.490   1
  -4  12 -10 938.340 1018.78   1
   4 -12  10 1081.32 1378.68   1
   7 -12   6 9618.25 3768.23   1
   7 -12   6 2713.48 1693.39   1
  -2  11 -12 489.570 539.260   1
   2 -11  12 2688.14 1896.20   1
  -6   0  14 2770.49 1554.18   1
   6   0 -14 204.710 1236.53   1
  -6   0  14 2816.53 1506.38   1
   7 -13   4 2236.10 1873.25   1
   7 -13   4 3502.74 2446.49   1
   1 -10  13 1015.43 1992.56   1
  -1  10 -13 388.580 716.150   1
  -1   6  12 3944.18 1808.80   1
  -1   6  12 2522.39 1553.55   1
   7  -5   9 545.660 1260.63   1
   7  -5   9 918.400 1503.64   1
  -1  13   3 422.600 1363.66   1
   8  -5 -11 1666.35 1141.84   1
  -8   5  11 783.060 291.000   1
   8  -5 -11 1601.69 1194.40   1
  -8   5  11 1614.18 1483.89   1
   7   6   0 1913.94 1382.35   1
   7   6   0 1364.39 1055.21   1
   5 -11  10 136.220 1297.74   1
  -5  11 -10 1801.22 994.560   1
   5 -11  10 1113.05 1469.74   1
   7   5   2 2235.54 1613.30   1
   7   5   2 -454.46 956.430   1
   4  11  -6 3430.85 2418.80   1
   4   9   3 2515.15 2031.28   1
   3  12  -5 1812.61 1652.00   1
  -6  12   6 825.350 825.790   1
   6 -12  -6 6994.36 2726.57   1
   6   8  -1 630.130 875.710   1
   6   8  -1 663.600 980.070   1
   4  -1  12 2643.87 1181.10   1
   4  -1  12 1775.37 1268.31   1
   4  -1  12 2491.65 2526.73   1
   1 -14   7 -1384.0 1119.35   1
  -1  14  -7 -303.12 1024.25   1
   8   4  -9 2413.34 3239.82   1
  -2  -8  14 3562.98 2404.04   1
   2   8 -14 996.210 1905.15   1
   2   3  12 4437.44 2022.86   1
   2   3  12 3521.77 1687.47   1
   7   7  -4 -88.640 1051.27   1
   7   7  -4 4887.69 2980.37   1
   7  -7   9 362.450 1111.71   1
   7  -7   9 2649.17 2858.28   1
   0  14  -4 3270.92 2791.38   1
   0   2 -15 1763.81 996.610   1
   0  -2  15 302.670 655.720   1
   0  -2  15 2322.11 1353.98   1
   0  -2  15 -136.00 1140.31   1
   8 -12  -3 2742.69 1594.33   1
   8 -12  -3 -603.78 2200.11   1
  -4  11   8 2745.96 2706.14   1
   4 -11  -8 8294.09 3072.31   1
  -4  11   8 4799.58 2671.73   1
   7   7  -6 2356.86 1777.32   1
   6   1 -14 266.960 1408.02   1
  -6  -1  14 4044.68 2047.36   1
  -6  -1  14 -70.270 1212.06   1
   8   4   0 84.4500 1458.40   1
   8   4   0 1555.68 1022.69   1
  -1  -6  15 5955.53 2911.85   1
   1   6 -15 -1007.2 1177.94   1
  -1  -6  15 1611.56 975.180   1
  -4  -3  15 2728.10 1801.02   1
   4   3 -15 -672.31 1353.65   1
  -4  -3  15 -1286.6 1681.40   1
   6 -13  -4 -260.72 1167.22   1
  -6  13   4 -680.91 889.160   1
   3  12  -4 2172.26 2906.10   1
   3  12  -4 2070.87 1655.20   1
   4  -7 -12 6984.59 2497.62   1
  -4   7  12 5557.94 2494.18   1
  -4   7  12 1110.93 1362.50   1
  -7   2  13 4407.14 3604.30   1
  -7   2  13 628.030 926.590   1
   7  -2 -13 -417.83 1213.76   1
  10  -8  -2 2422.52 2019.09   1
  10  -8  -2 -364.49 1019.95   1
  -2   7 -14 2310.27 1056.86   1
   2  -7  14 813.140 823.040   1
   2  -7  14 6305.13 2771.78   1
  -7  -1  13 1601.29 1229.11   1
   7   1 -13 -678.56 1721.53   1
  -7  -1  13 2335.50 1033.49   1
  -2   2 -14 -500.60 1060.80   1
   2  -2  14 2035.05 2287.15   1
   2  -2  14 1554.33 725.140   1
   2  -2  14 269.710 1182.58   1
   8   0   5 1982.28 1792.37   1
   4   0 -15 2871.27 1742.81   1
  -4   0  15 -69.360 1294.37   1
  -4   0  15 702.300 1837.60   1
   3   9   5 1829.86 1388.42   1
  -8  -2  11 4690.79 1973.88   1
   8   2 -11 6959.13 3452.28   1
   3 -14  -2 4018.15 1485.36   1
  -3  14   2 2847.25 2162.98   1
   2  10   5 1639.67 1163.94   1
  -6   9 -10 208.070 1300.69   1
   6  -9  10 -855.56 1076.11   1
   6  -9  10 3266.84 2252.43   1
   7 -10   8 634.080 1672.18   1
   7 -10   8 2197.56 1663.97   1
   9 -11  -1 2740.88 1659.56   1
   9 -11  -1 6458.32 3293.84   1
   8   5  -3 2886.70 2732.13   1
   9  -2 -10 -599.27 1619.00   1
  -9   2  10 4242.39 2491.27   1
   9  -2 -10 2717.80 1401.30   1
 -10   2   6 4743.31 2480.22   1
   6   0   9 -477.12 1568.53   1
  -5   3  14 831.320 657.080   1
  -5   3  14 -274.84 1828.98   1
   1  13  -8 1432.64 1693.29   1
   0  12 -11 1896.08 1611.23   1
   0 -12  11 13621.8 3516.98   1
   8  -4   7 725.830 1544.99   1
   8  -4   7 -1.6100 883.730   1
   8 -11   5 2218.11 1499.60   1
   8 -11   5 1649.62 2387.26   1
   0  14  -5 1964.53 1234.20   1
   0  14  -3 1130.75 1785.61   1
   2 -13  -4 4841.96 1987.78   1
  -2  13   4 11940.6 3320.96   1
   9 -11   0 3235.99 2693.19   1
   9 -11   0 608.310 1688.43   1
   3  -1  13 2756.09 1984.48   1
   3  -1  13 177.630 1698.94   1
   3  -1  13 3249.68 995.850   1
   3  11   1 3052.65 2075.93   1
   8 -10  -7 15618.2 3623.20   1
  -5  14   2 2496.49 1976.73   1
   5 -14  -2 3473.15 1949.44   1
  -1  14   0 2216.80 1594.27   1
   8  -8   7 2068.82 1894.24   1
   8  -8   7 1463.99 2499.91   1
  -3  -5  15 3565.61 2885.60   1
   3   5 -15 746.440 1812.92   1
  -3  -5  15 -195.20 1469.08   1
  10  -8  -1 1551.76 1034.65   1
  10  -8  -1 4197.19 2145.03   1
   9  -3 -10 1566.79 1560.76   1
  -9   3  10 2146.61 1521.03   1
   9  -3 -10 1042.81 1007.57   1
   8 -10   6 115.710 1372.58   1
   8 -10   6 2323.46 1422.20   1
   6  -1 -14 2820.60 1644.25   1
  -6   1  14 3216.41 1634.53   1
  -6   1  14 -357.14 1699.96   1
   4 -11  11 -673.67 1287.32   1
   4 -11  11 1681.54 2248.79   1
  -4  11 -11 -1450.0 1570.28   1
   4  10 -10 3946.95 2579.38   1
  -5  11   8 -1120.0 1709.74   1
  -5  11   8 4185.64 2366.30   1
   5 -11  -8 1307.85 777.820   1
   3  12  -6 1440.90 1854.66   1
  10  -8  -3 3356.33 2079.70   1
  10  -8  -3 1871.26 2778.72   1
  -9   6   9 2159.39 2188.25   1
   9  -6  -9 -103.42 1144.54   1
   9  -6  -9 3110.33 1595.74   1
   4 -14   7 4380.46 2247.79   1
  -4  14  -7 4297.17 2366.29   1
   4 -14   7 9631.97 4369.90   1
   5  10  -5 283.320 1641.20   1
   5  10  -5 2379.74 2238.39   1
   4  11  -3 2364.14 1653.68   1
   4  11  -3 2540.65 2580.65   1
  10  -7  -5 2495.65 1593.67   1
  10  -7  -5 3743.79 2035.62   1
  10  -3   0 -1798.8 1616.27   1
   9   0   2 3720.29 2710.79   1
  10  -1  -4 1769.21 2063.86   1
   9   2  -1 507.680 1056.61   1
   9   2  -1 3060.29 2329.95   1
  10  -6   1 -789.45 1565.64   1
  10  -6   1 1618.45 877.730   1
  -3   7  12 1602.49 1544.02   1
  -3   7  12 3987.98 2248.06   1
  10  -2  -1 355.430 1462.50   1
   8  -7 -10 8857.71 3512.46   1
  -8   7  10 5541.40 4070.88   1
  -2  -6  15 990.960 1367.94   1
   2   6 -15 -325.07 1666.86   1
  -2  -6  15 4124.96 1958.72   1
  10  -6  -6 357.060 720.900   1
  10  -6  -6 352.950 665.110   1
  10  -6  -6 2124.25 1841.30   1
  -7   7  11 1401.40 2762.46   1
   7  -7 -11 -1134.7 1243.88   1
  -7   7  11 1782.64 638.100   1
  10  -5   1 1277.18 984.490   1
  10  -5   1 2310.86 2090.93   1
   9 -10   3 3052.25 2422.70   1
   9 -10   3 3686.51 2123.15   1
  -1   0  15 1709.00 768.140   1
  -1   0  15 2413.24 1785.36   1
   5 -13   8 614.570 2089.59   1
   5 -13   8 -537.24 1663.44   1
  -5  13  -8 391.320 991.640   1
  -6  12  -8 8122.32 3166.81   1
   6 -12   8 3757.56 2711.89   1
   6 -12   8 5176.24 4277.53   1
   4   3  10 2075.42 940.110   1
  -3   1  15 3482.74 1465.26   1
  -3   1  15 1754.95 1856.11   1
   8   5  -7 6131.15 4236.33   1
   4  10   1 350.640 1241.32   1
   0  11   6 1750.87 1383.65   1
   9  -9   4 1606.34 1343.04   1
   9  -9   4 -971.07 1110.20   1
  -2  12   6 976.590 1409.45   1
  -2  12   6 1913.23 1351.62   1
   2 -12  -6 -256.20 812.200   1
   9 -11  -2 3950.07 2143.12   1
   9 -11  -2 3385.04 2165.07   1
  -1 -10  13 3102.18 2380.92   1
   1  10 -13 836.560 2148.90   1
   3  12  -3 1215.50 2424.58   1
   6 -14  -1 998.470 1207.99   1
  -6  14   1 1601.46 967.780   1
   5 -14   6 1351.63 1628.17   1
  -5  14  -6 2665.59 1428.66   1
   5 -14   6 3491.84 2238.01   1
   5  10  -4 260.340 1522.65   1
   5  10  -4 847.580 1513.15   1
   9  -1 -10 -796.44 1802.93   1
   9  -1 -10 2619.77 1280.54   1
  -9   1  10 2819.90 1550.67   1
   9   1  -9 -1034.3 1791.73   1
   6   8  -9 -642.20 2019.77   1
  -6  14  -4 165.870 1331.34   1
   6 -14   4 126.380 1274.18   1
  -6  14  -4 921.180 1561.91   1
   6 -14   4 -444.34 1245.15   1
   5  10  -6 -137.15 1734.48   1
  -6   9  10 -1305.0 2146.57   1
  -6   9  10 1548.36 854.470   1
   6  -9 -10 2164.54 1241.73   1
  10  -1  -3 1418.19 1827.29   1
  10  -1  -3 1990.58 976.570   1
   9  -1   3 1043.52 1487.42   1
   6   4   6 880.270 1629.04   1
   7   7  -3 -899.60 1349.08   1
   7   7  -3 1145.11 1002.55   1
   7   5 -11 3915.96 2934.44   1
  -4  13  -9 2101.38 1058.26   1
   4 -13   9 1330.81 1554.11   1
   4 -13   9 4514.59 2696.65   1
   0  -6  15 3940.89 1792.66   1
   0  -6  15 362.220 1291.46   1
   0   6 -15 1542.60 868.560   1
   1  11 -12 4048.47 3204.80   1
  -1 -11  12 2265.44 1786.80   1
   3  11 -10 519.370 1576.49   1
   8   3   2 1382.50 1418.43   1
   8   3   2 86.8600 1265.18   1
   7  -4   9 -215.97 898.240   1
   7  -4   9 1923.76 2545.01   1
   5   1  10 1228.82 1515.39   1
   5   1  10 2189.92 969.330   1
  -7  11   7 2760.41 1401.44   1
   7 -11  -7 3217.99 1751.85   1
   6   6 -12 5997.31 3341.49   1
  -6  -6  12 4497.79 2115.52   1
  -8   1  12 2125.13 663.020   1
   8  -1 -12 2412.02 2147.11   1
  -8   1  12 1919.72 1458.35   1
   6   2 -14 4347.57 2563.60   1
  -6  -2  14 2918.47 2030.60   1
  -6  -2  14 6362.14 2593.94   1
   4  11  -7 905.680 1433.61   1
  -5   7  12 7161.28 2693.00   1
   5  -7 -12 5907.94 2746.38   1
  -5   7  12 6241.37 2582.61   1
  10  -1  -5 -387.44 1407.61   1
   1  13   0 3236.88 2345.72   1
   6  -2  10 3399.54 2643.41   1
   6  -2  10 86.3900 805.960   1
   7   7  -7 -127.39 1665.15   1
  -6  11  -9 2064.95 1750.38   1
   6 -11   9 -864.57 1542.02   1
   6 -11   9 2721.86 1718.41   1
   9 -11   1 1152.40 1462.64   1
   9 -11   1 4803.86 2612.44   1
  -7  13   3 8463.89 3011.64   1
   7 -13  -3 16807.2 5886.82   1
   9 -10  -5 1300.88 1427.38   1
   9 -10  -5 1720.56 1362.03   1
   9  -6   5 679.930 2671.08   1
   9  -6   5 1356.75 938.530   1
   0  13   2 -540.64 1459.99   1
  -8   2  12 -1029.4 1643.13   1
   8  -2 -12 1097.97 1250.65   1
  -8   2  12 -147.84 536.760   1
   6   3   7 238.780 1681.58   1
  -6  10   9 490.270 1809.83   1
  -6  10   9 -340.92 862.430   1
   6 -10  -9 3814.76 1815.39   1
   3 -11  -8 2649.83 1211.96   1
  -3  11   8 3549.14 2200.88   1
  -3  11   8 1060.60 1933.79   1
   7  -8   9 329.460 1222.50   1
   7  -8   9 1442.46 2289.22   1
  10  -4  -7 1708.67 662.800   1
 -10   4   7 2014.96 1970.51   1
   5  -1  11 -196.22 884.750   1
   5  -1  11 3940.19 2605.27   1
   5  -1  11 2065.54 619.820   1
  -9   4  10 1011.70 2569.59   1
   9  -4 -10 2541.95 2023.46   1
   9  -4 -10 543.240 566.250   1
   2   7   9 238.190 992.110   1
  10  -3  -7 2202.26 2444.81   1
  10  -3  -7 632.610 1209.26   1
 -10   3   7 685.490 1325.07   1
   0  14  -6 1352.82 1621.37   1
  10  -8   0 4104.51 2624.92   1
  10  -8   0 759.030 1428.95   1
   9   2  -8 -355.97 1586.56   1
  -2   9  10 -343.91 1692.99   1
  -2   9  10 -398.65 1189.32   1
   0  14  -2 1233.98 1771.98   1
   4 -13  -5 100.570 736.160   1
  -4  13   5 -323.52 1184.63   1
  -2   1  15 1600.10 806.250   1
  -2   1  15 526.300 1221.96   1
   0   2  14 -441.04 935.510   1
   0   2  14 1307.67 1316.02   1
   9   1   1 438.570 1267.30   1
   1   7  10 3506.64 2035.63   1
   2 -14   8 973.830 1965.13   1
  -2  14  -8 3290.19 1669.90   1
  10  -7   1 -178.15 1493.09   1
  10  -7   1 737.770 959.770   1
   1   8   9 1138.45 1036.80   1
   2 -13  10 2715.85 1417.75   1
  -2  13 -10 4364.48 2224.39   1
   5   9 -10 251.720 1772.61   1
   2  12   1 1033.29 1367.96   1
  -1  11   7 1488.77 1795.72   1
  10  -8  -4 3189.49 1319.14   1
  10  -8  -4 -1111.2 1722.03   1
   9  -7   5 1171.65 1954.24   1
   9  -7   5 921.920 957.930   1
   9  -5   5 2758.43 2422.89   1
   9  -5   5 1728.76 957.070   1
  -4  -4  15 1305.91 937.620   1
   4   4 -15 -292.55 1379.46   1
   7  -1   8 938.200 1728.00   1
  10  -4   1 1812.10 1888.36   1
  -7   3  13 13599.5 5069.65   1
   7  -3 -13 8939.33 3468.99   1
  -7   3  13 8629.76 4597.67   1
   7   4 -12 3775.54 2374.29   1
  -7  -4  12 -1081.7 1264.95   1
  -1  13 -10 293.010 715.520   1
   1 -13  10 210.230 1156.15   1
  -2   8  11 3386.92 2349.52   1
  -2   8  11 1572.46 1618.35   1
   6   7 -11 6115.28 3546.36   1
   1  12   3 2311.89 2198.36   1
  -5  -5  14 5891.73 2941.34   1
   5   5 -14 7402.68 3425.07   1
   8   0 -12 -90.040 1567.14   1
  -8   0  12 4913.31 2688.86   1
   0   4  13 2012.51 1359.21   1
   0   4  13 2270.00 1555.97   1
  -1   3  14 5688.51 3902.13   1
  -1   3  14 593.500 595.630   1
   3  12  -7 1398.98 1408.82   1
   3  -9  13 968.250 1357.53   1
   3  -9  13 1234.76 1401.17   1
  -3   9 -13 2309.54 1814.33   1
   0  -1  15 2143.68 1635.41   1
   0  -1  15 4030.23 2348.26   1
   0  -1  15 1345.30 829.470   1
  -7  -2  13 1954.46 841.460   1
   7   2 -13 2465.03 1908.48   1
   4   8   5 1284.54 1290.25   1
   6  -8 -11 -387.81 1209.54   1
  -6   8  11 811.320 580.690   1
  -6   8  11 4633.08 3145.81   1
   2   6  10 2835.39 1699.11   1
   7   3   5 1923.07 1826.16   1
   6   5   5 -599.70 1745.18   1
   9   3  -5 3952.65 2617.20   1
  -4   1  15 2970.39 1400.19   1
  -4   1  15 1019.15 1776.61   1
   8   5  -2 2876.50 2176.62   1
   2 -10  13 644.740 1446.21   1
  -2  10 -13 3731.32 1788.24   1
  -6   2  14 -476.26 926.410   1
   6  -2 -14 1003.08 1061.99   1
  -6   2  14 2219.28 1710.83   1
  -5  13   5 670.430 1066.73   1
   5 -13  -5 2758.08 1803.60   1
   1  11   5 1286.36 1752.77   1
   5  10  -3 1117.29 1912.91   1
   5  10  -3 -217.52 1408.60   1
   3 -12  11 494.400 1336.00   1
  -3  12 -11 107.480 1064.12   1
  10  -1  -2 829.630 1227.70   1
   6   7   2 1728.27 1115.16   1
  -3   4  14 16383.4 5942.36   1
  -3   4  14 5413.82 2447.08   1
  -3  14  -8 3483.59 1594.25   1
   3 -14   8 9318.01 3470.86   1
   3 -14   8 4809.20 2981.63   1
   2   8   8 -272.76 1004.99   1
   0   9 -14 -832.45 1456.12   1
   0  -9  14 93.3800 1272.28   1
  10  -5  -7 691.190 881.170   1
 -10   5   7 408.930 1596.59   1
  10  -5  -7 2307.16 1909.67   1
  10  -5  -7 345.900 1471.05   1
   2  13  -5 2916.61 2276.07   1
   2  13  -5 702.920 2286.18   1
  -4   4  14 6448.53 2841.08   1
  -4   4  14 2608.75 1089.85   1
   5  -6  12 3210.06 2105.78   1
   5  -6  12 617.460 1500.71   1
  -5   6 -12 -227.99 1451.80   1
   5  -6  12 1151.90 648.120   1
   5  10  -7 2692.79 2131.96   1
   7   2   6 766.270 1608.57   1
   2  13  -4 -296.80 2185.82   1
   4  -5  13 3999.13 1627.99   1
   4  -5  13 3591.77 2275.86   1
  -4   5 -13 3028.74 1493.18   1
   8  -1   6 2586.93 2378.56   1
   4   8 -13 1860.64 1575.49   1
  -4  -8  13 1939.38 1123.34   1
   8 -12   4 1827.67 1377.93   1
   8 -12   4 486.020 2138.79   1
   5  -5  12 2150.87 1470.97   1
  -5   5 -12 62.8700 1445.54   1
   5  -5  12 1485.10 2354.40   1
   5  -5  12 542.480 452.830   1
   9 -11  -3 2282.31 1486.76   1
   9 -11  -3 6756.81 2769.72   1
  10  -1  -6 -1310.4 1817.54   1
  -3  -9  13 1623.47 1526.84   1
   3   9 -13 2391.23 2629.86   1
   8  -3 -12 3554.37 1677.44   1
   8  -3 -12 6040.88 2696.51   1
  -8   3  12 5588.55 2377.30   1
   2 -10  -9 787.450 475.020   1
  -2  10   9 1891.99 862.310   1
   7   6 -10 -392.55 1939.87   1
   4  -6  13 2106.36 1409.94   1
  -4   6 -13 1697.83 1041.99   1
   4  -6  13 706.990 1118.69   1
   4  -6  13 556.620 1197.33   1
   4  11  -2 7117.46 3833.41   1
   1   3  13 2077.69 1248.53   1
   5   5   7 305.370 871.980   1
  10  -2  -7 3778.73 3194.65   1
  -3  15  -3 1003.62 1195.43   1
   3 -15   3 4134.41 1926.60   1
   8  -3   7 -547.54 1748.60   1
   5 -10  11 911.160 1420.40   1
  -5  10 -11 1366.71 1074.66   1
   5 -10  11 1025.08 1306.13   1
   6   5 -13 5034.00 3065.78   1
  -6   5  13 7401.67 2862.05   1
  -6   5  13 6725.55 3433.49   1
   6  -5 -13 10401.7 3963.85   1
   6 -13   7 -1328.1 1904.20   1
   6 -13   7 1602.64 1711.13   1
  -6  13  -7 1320.15 1080.80   1
   9  -2   4 4222.60 2774.28   1
   1  -4  15 6328.97 2499.12   1
  -1   4 -15 -624.77 1101.39   1
   1  -4  15 -90.150 1095.06   1
   4   9 -12 2175.96 1761.06   1
  -4  -9  12 2196.28 1128.81   1
   9   3  -6 2070.56 2390.38   1
   9   0 -10 5275.52 3256.21   1
  -9   0  10 3947.78 1946.49   1
   3  12  -2 3283.68 1976.46   1
   8  -9   7 2155.93 2286.67   1
   8  -9   7 -1149.4 1296.36   1
   7 -13   5 3097.69 2203.50   1
   7 -13   5 2557.42 2243.13   1
   8 -11  -6 11514.4 4304.17   1
   8 -12  -4 7111.39 3049.77   1
   5   4   8 244.980 692.590   1
   4 -15   3 8636.64 3794.63   1
  -4  15  -3 4376.62 2649.66   1
   2  -8  14 1675.05 1260.70   1
  -2   8 -14 1337.22 1754.30   1
   2  -1  14 739.740 1487.97   1
   2  -1  14 2528.64 1353.85   1
   2  -1  14 511.070 1088.60   1
   5   8   3 1250.27 864.690   1
   1   6  11 1273.58 1268.06   1
   6   2   8 230.690 1780.02   1
   3 -15   4 -205.91 1084.91   1
  -3  15  -4 4308.46 2649.17   1
  -3  13   5 1523.57 1297.15   1
  -3  13   5 13291.9 5050.52   1
   3 -13  -5 7312.43 3224.70   1
  -6  11   8 837.850 871.700   1
   6 -11  -8 -266.20 1043.64   1
  -6  11   8 3726.84 2481.30   1
   1   9   8 3992.03 2252.33   1
   1  -5  15 4470.16 2543.80   1
   1  -5  15 3099.93 1907.42   1
  -1   5 -15 1563.74 1510.89   1
  -4  15  -2 -50.990 1256.05   1
   4 -15   2 1729.62 1317.55   1
   1   9 -14 -877.69 1899.12   1
  -1  -9  14 2130.90 1124.67   1
   9 -11   2 2715.17 3057.90   1
   9 -11   2 13275.8 4914.59   1
   3 -15   2 2458.33 1661.25   1
  -3  15  -2 4042.59 2029.51   1
  -2  14   2 1267.24 1418.80   1
   1 -14   8 -413.38 1086.18   1
  -1  14  -8 844.540 717.870   1
   2  13  -6 2425.34 1815.24   1
   7   7  -2 2750.11 2010.32   1
   8   5  -8 3025.06 2695.85   1
   7   4   4 5996.01 2336.35   1
   7   4   4 -64.420 1629.35   1
   9   3  -3 -1708.0 1873.96   1
  -4   4 -13 2677.52 1581.66   1
   4  -4  13 397.640 638.090   1
   4  -4  13 1171.29 1376.79   1
   4  -4  13 1591.21 1742.66   1
   5  -7  12 1210.14 1097.05   1
   5  -7  12 -1530.7 1890.90   1
  -5   7 -12 616.540 1042.52   1
  -1  -7  15 254.440 1353.67   1
   1   7 -15 427.680 1470.28   1
  -3 -10  12 1154.58 1350.20   1
   3  10 -12 2631.66 2729.71   1
   0   8  10 -617.94 1125.31   1
  -4  12   7 4631.64 3364.52   1
  -4  12   7 4222.13 2624.97   1
   4 -12  -7 4603.13 2067.05   1
   9  -8   5 1979.13 1794.28   1
   9  -8   5 -60.970 1006.07   1
  -3  11 -12 1267.18 950.140   1
   3 -11  12 814.650 1384.98   1
   2  13  -3 1213.48 1849.57   1
  -9   8   8 9.87000 2041.19   1
   9  -8  -8 1128.41 1096.34   1
   9  -8  -8 2536.21 1435.64   1
   4 -14  -3 5056.37 1962.63   1
  -4  14   3 1258.70 1720.06   1
   1   1  14 1933.62 1016.72   1
   1   1  14 4267.32 2130.93   1
  -1   5  13 -1291.1 1146.54   1
  -1   5  13 152.780 1087.94   1
  -4   6  13 1802.87 1031.37   1
  -4   6  13 4210.85 2291.35   1
   3   6   9 2374.53 1323.29   1
   9  -4   5 1228.81 1819.65   1
   7   7  -8 168.740 1624.60   1
   6   3 -14 1612.77 1509.58   1
  -6  -3  14 -421.27 1632.21   1
  -5  -1  15 2109.35 1167.08   1
   5   1 -15 -205.36 1018.65   1
  -5  -1  15 2778.96 2290.99   1
  10  -7  -6 4144.35 2207.44   1
  10  -7  -6 3683.43 1614.38   1
  10  -7  -6 4560.16 2872.72   1
   4  11  -8 3761.84 2374.99   1
   5   9   1 2400.51 1584.19   1
  10  -2   0 1523.53 1919.07   1
   6   8   0 -31.800 764.080   1
   1  -3  15 -142.03 1065.85   1
   1  -3  15 270.970 1272.26   1
  -1   3 -15 597.790 874.980   1
   1  -3  15 1704.76 1598.75   1
  -6  14   2 254.910 932.270   1
   6 -14  -2 2205.92 1612.80   1
   5  -4  12 1405.81 1061.88   1
   5  -4  12 978.590 1653.77   1
   7  -3   9 3250.44 3043.18   1
  -3  13 -10 -645.05 1421.10   1
   3 -13  10 446.500 1305.21   1
   3   7   8 1613.91 1397.25   1
  -4  10 -12 1747.21 1212.26   1
   4 -10  12 197.010 1417.22   1
   4 -10  12 657.600 1199.44   1
   9  -9  -7 2386.14 1859.30   1
   6 -14   5 3644.11 2258.22   1
  -6  14  -5 1409.65 1021.36   1
  -6  14  -5 3741.29 2330.09   1
   6 -14   5 929.810 1351.07   1
  10  -8   1 -868.66 1568.80   1
  10  -8   1 1243.94 1026.68   1
  -1   9 -14 1606.66 813.330   1
   1  -9  14 1178.97 1952.11   1
  10  -9  -2 5241.53 2207.08   1
  10  -9  -2 4919.23 2625.25   1
  -1 -12  11 369.680 947.380   1
   1  12 -11 6991.66 3757.01   1
  -2   7  12 -920.28 1635.35   1
  -2   7  12 1746.03 1155.89   1
   5   6   6 575.030 684.890   1
  -5  12   7 623.470 1558.70   1
  -5  12   7 776.490 1497.91   1
   5 -12  -7 3288.93 1359.89   1
   0  14  -7 -716.81 1238.15   1
  -8   6  11 -176.90 549.890   1
  -8   6  11 2128.97 3276.77   1
   8  -6 -11 381.780 876.620   1
   9  -5 -10 1594.30 1119.56   1
   9  -5 -10 -196.63 1185.89   1
   0  14  -1 4224.75 3284.72   1
   3   6 -15 -880.26 1828.72   1
  -3  -6  15 4737.83 2632.93   1
  10  -9  -1 1909.52 1560.04   1
  10  -9  -1 -1281.3 1744.43   1
  -4  15  -4 -604.88 1352.71   1
  -4  15  -4 2250.50 1188.21   1
   4 -15   4 1539.55 1179.68   1
   4  -7  13 1880.26 1691.34   1
  -4   7 -13 2570.47 1577.42   1
   4  -7  13 -125.82 979.780   1
   4  -7  13 2477.19 1134.65   1
  -8  -1  12 2845.07 1636.27   1
   8   1 -12 1509.06 1679.31   1
   2  12 -10 4029.72 3134.22   1
  -1  14   1 2422.68 2100.32   1
   0   9   9 2085.16 1269.76   1
   3   2  12 1544.12 1246.65   1
   3   2  12 216.700 385.410   1
   0  -7  15 -749.60 1396.98   1
   0   7 -15 608.340 1355.70   1
   0  -7  15 -1196.9 1234.52   1
  -5  -2  15 195.910 1819.36   1
   5   2 -15 -90.600 1333.08   1
  -5  -2  15 3543.31 1702.35   1
   1  13  -9 9524.35 4192.80   1
  10  -3   1 2596.42 2276.43   1
   7  -9   9 -1296.5 1600.66   1
   7  -9   9 1239.67 1684.02   1
  -5   0  15 -2578.8 1667.49   1
   5   0 -15 338.220 898.880   1
  -5   0  15 1894.30 781.270   1
   6   9  -5 1198.48 1677.28   1
   6   9  -5 307.980 1458.59   1
  -3   6  13 116.800 1142.93   1
  -3   6  13 4185.91 2042.56   1
   6 -10  10 276.630 1193.51   1
   6 -10  10 1522.73 2127.94   1
  -6  10 -10 5789.13 2838.24   1
   2   5  11 2140.45 1256.64   1
  10  -8  -5 2771.62 1744.06   1
  10  -8  -5 11552.2 4565.48   1
   7   1   7 2606.18 2374.64   1
   0   7  11 1944.69 1491.08   1
   0   7  11 1247.53 1072.89   1
   9   2   0 -769.24 1662.32   1
   9   2   0 535.530 1243.06   1
   4 -15   1 161.610 1146.45   1
  -4  15  -1 -403.50 1161.94   1
   8 -13   0 2952.55 2621.89   1
   8 -13   0 1618.31 1543.76   1
   8   4 -10 549.240 2723.08   1
  -5  14   3 1397.43 1273.02   1
   5 -14  -3 1164.64 929.870   1
   7  -6 -12 4387.05 3016.64   1
  -7   6  12 3569.62 1448.87   1
  -7   6  12 -481.03 2777.74   1
   8   3 -11 2246.28 2747.22   1
   7   6   1 -465.73 1255.54   1
   7   6   1 -151.45 884.330   1
  -3  -8  14 2694.52 2129.04   1
   3   8 -14 2.58000 2000.07   1
  10  -6   2 2819.59 1557.32   1
  10  -6   2 -147.52 1465.14   1
   0  13 -10 1288.26 2159.04   1
   0 -13  10 3872.49 2266.42   1
   8 -13   1 1488.99 1604.60   1
   8 -13   1 4703.81 2810.40   1
   8   4   1 -29.290 1210.52   1
   8   4   1 3410.41 2473.70   1
  10  -6  -7 6843.43 2583.31   1
 -10   6   7 2419.52 2371.51   1
  10  -6  -7 5029.85 3256.34   1
  10  -6  -7 -202.18 1485.47   1
   6  -6  11 919.630 1464.35   1
  -2   4  14 1763.75 875.090   1
  -2   4  14 2050.81 1149.40   1
  -3  15  -5 2085.31 1948.91   1
   3 -15   5 3996.53 2484.83   1
  -3  15  -5 839.020 1153.44   1
   5   7 -13 2275.83 2279.52   1
  -5  -7  13 809.740 1446.53   1
   6   9  -6 2532.38 1768.11   1
  10  -1  -1 3372.45 2178.55   1
   5   8 -12 1900.84 1801.00   1
   4   0  12 1447.13 573.180   1
   4   0  12 3620.82 2065.79   1
   4   0  12 2276.08 2109.81   1
  -1   6 -15 1576.79 827.690   1
   1  -6  15 2655.57 1463.04   1
   1  -6  15 2509.24 1995.52   1
   5  10  -2 -1352.6 1243.24   1
   2 -15   3 1835.63 1357.29   1
  -2  15  -3 2109.96 2242.70   1
  10  -9  -3 1356.52 1007.95   1
  10  -9  -3 1744.93 958.430   1
   3  12  -8 -1816.9 1307.17   1
  -9   7   9 1816.14 1992.59   1
   9  -7  -9 2827.23 1373.62   1
   9  -7  -9 -473.26 973.140   1
   4   7 -14 -243.10 1725.24   1
  -4  -7  14 5704.24 2931.27   1
   2 -15   4 1504.04 1309.19   1
  -2  15  -4 3698.53 2582.39   1
   3 -15   1 1177.83 1399.77   1
  -3  15  -1 303.830 1187.84   1
   9   3  -7 5636.97 3143.70   1
  -3   2  15 1851.69 2141.71   1
  -3   2  15 4875.50 2484.56   1
  -5   4  14 4402.40 1986.85   1
  -5   4  14 4458.44 2387.75   1
  10  -5   2 1198.48 1715.89   1
  -6   7  12 2823.13 1841.47   1
   6  -7 -12 5079.47 2091.37   1
  -6   7  12 1511.93 1224.14   1
  -1   1  15 1079.23 730.640   1
   2   9   7 4120.79 2212.76   1
   3   5  10 1810.15 1255.87   1
  10   0  -4 571.560 1670.17   1
   5  10  -8 935.660 2118.39   1
   6   6   4 987.670 717.780   1
   6   9  -4 1882.33 1553.47   1
   6   9  -4 3747.30 2121.53   1
   3  -5  14 6339.49 2477.51   1
   3  -5  14 8175.73 3192.16   1
  -3   5 -14 1485.60 912.370   1
   3   0  13 1289.69 1065.91   1
   3   0  13 -246.73 888.940   1
   9 -10   4 791.020 1267.25   1
   9 -10   4 4213.19 2477.96   1
  -3  14   3 4807.59 2428.12   1
   3 -14  -3 8311.79 3459.66   1
  -2 -10  13 -519.26 1144.99   1
   2  10 -13 -2462.5 2082.18   1
   7 -12  -6 3824.10 1986.72   1
  -7  12   6 734.210 522.130   1
   2   7 -15 3300.17 2767.87   1
  -2  -7  15 1629.75 1400.73   1
   5   3   9 277.960 476.240   1
   5   3   9 3113.15 2926.82   1
   6  -5  11 126.980 1027.95   1
   4   2  11 1538.28 714.300   1
  10  -9   0 -1285.6 1646.95   1
  10  -1  -7 1956.96 1967.46   1
  -8   4  12 -634.01 552.090   1
   8  -4 -12 604.200 926.440   1
  -8   4  12 10208.1 4609.74   1
  10   0  -5 4514.81 3211.18   1
   7 -12   7 -232.09 1830.19   1
   7 -12   7 4248.79 2371.37   1
  -5   6  13 1391.44 705.060   1
  -5   6  13 5966.55 2586.27   1
   2  13  -7 2410.47 2489.58   1
   4   5 -15 1947.42 1445.49   1
  -4  -5  15 1510.63 1400.91   1
  -6  13   5 913.120 902.490   1
  10  -7   2 2638.57 1719.27   1
  -7   4  13 302.170 412.490   1
  -7   4  13 564.110 979.460   1
  -6   3  14 496.510 559.130   1
  -6   3  14 7095.33 3121.36   1
   6  -7  11 1004.28 945.790   1
  -5  14  -7 2175.99 1308.68   1
   2 -11  -8 1623.03 968.520   1
  -2  11   8 3435.71 2321.36   1
  -2  11   8 1505.65 1612.41   1
  -3  12   7 1148.11 1321.89   1
  -3  12   7 632.900 1575.90   1
  -4  14  -8 4346.84 1814.01   1
   8   5  -1 -44.090 1434.33   1
   8   5  -1 1124.55 1194.05   1
  -7  13   4 1466.36 992.400   1
   3  10   4 641.780 1024.32   1
   3  -6  14 -283.62 1026.97   1
  -3   6 -14 2417.03 1458.71   1
   3  -6  14 1306.25 1269.87   1
   6   8 -10 -1364.5 1904.90   1
   4  -3  13 2683.75 1722.81   1
   4  -3  13 1103.70 377.280   1
   9   3  -2 471.240 1682.25   1
  -7  -3  13 442.980 1616.36   1
   7   3 -13 -718.33 1985.48   1
   2  13  -2 105.930 1591.40   1
 -10   3   8 1418.56 1630.04   1
  10  -3  -8 4714.48 2435.13   1
   9   2  -9 1180.29 2086.69   1
   3  -4  14 2204.93 1235.48   1
   3  -4  14 273.400 1046.44   1
  10   0  -3 419.570 1664.97   1
   5  -8  12 5012.52 2523.54   1
  -5  15  -2 2141.34 1683.55   1
   3   8   7 -183.60 922.660   1
   1  13   1 5181.93 3221.54   1
  -2  15  -2 3614.56 2887.22   1
  -4   2  15 1760.53 800.650   1
   0   0  15 221.860 477.030   1
   1  -2  15 807.360 771.290   1
  -1   2 -15 3687.32 1679.46   1
  10  -4  -8 7331.84 4178.13   1
 -10   4   8 -533.69 1556.22   1
  -2  15  -5 3850.88 2616.93   1
  -2  15  -5 890.630 928.100   1
  -4  15  -5 335.380 1489.89   1
  -4  15  -5 2539.52 1336.17   1
   3  11   2 2836.40 2022.69   1
  -5  15  -3 4299.02 2425.53   1
   5   3 -15 -724.32 1258.61   1
  -5  -3  15 1645.63 1594.74   1
   4  11  -1 4662.40 2403.57   1
  -5   1  15 1169.08 1330.99   1
   4  10 -11 -474.22 1558.32   1
   6   9  -7 1280.65 1798.93   1
   3  12  -1 2144.65 1554.56   1
   7   5   3 3423.84 2270.26   1
   9   1 -10 4599.18 3022.87   1
  -8   9   9 967.960 2119.02   1
  -5  15  -1 2371.92 2165.49   1
   2  11 -12 -255.25 2002.41   1
  -4  15   0 3518.61 2514.40   1
  10   0  -6 1627.01 2174.26   1
   6   9  -3 4166.95 2740.33   1
   6   9  -3 -390.81 1063.42   1
  10  -2  -8 1331.46 1988.68   1
 -10   2   8 388.460 1653.86   1
  -7   9  10 1703.60 2160.02   1
   7   7  -1 69.6900 1084.57   1
  -7  10   9 4270.25 2948.60   1
  -8  10   8 3082.42 2384.54   1
   8   5  -9 2929.07 2127.01   1
  10  -5  -8 3445.90 2208.94   1
 -10   5   8 -898.95 1685.04   1
   9  -2 -11 1371.58 1596.10   1
   7   7  -9 1993.77 1828.53   1
  -8   8  10 2075.55 2403.10   1
   8   2 -12 320.190 1759.31   1
  10   0  -2 1630.51 1724.26   1
  -6  -4  14 11304.8 4747.60   1
  -9   3  11 -2673.2 1643.45   1
   9  -3 -11 1202.29 1496.98   1
  -9   6  10 -1230.8 2205.39   1
   9   3  -8 63.0000 2071.55   1
   9  -1 -11 880.980 1531.02   1
  -9   1  11 5990.27 3254.82   1
   7   5 -12 4303.41 2651.36   1
   8   6  -5 1818.50 1606.61   1
   6   9  -8 1399.48 1780.05   1
   8   6  -6 1726.88 1701.64   1
;
_shelx_hkl_checksum              46670
#END Tags that were not found in dictionaries
loop_
_space_group_symop_operation_xyz
'x, y, z'
'-x, -y, -z'
loop_
_atom_site_label
_atom_site_type_symbol
_atom_site_fract_x
_atom_site_fract_y
_atom_site_fract_z
_atom_site_U_iso_or_equiv
_atom_site_adp_type
_atom_site_occupancy
_atom_site_site_symmetry_order
_atom_site_calc_flag
_atom_site_refinement_flags_posn
_atom_site_refinement_flags_adp
C1 C 0.236(4) 0.158(2) 0.937(2) 0.035(5) Uani 1 1 d . U
C2 C 0.211(4) 0.165(3) 1.054(2) 0.047(6) Uani 1 1 d . U
C3 C 0.213(4) 0.074(3) 1.108(2) 0.046(6) Uani 1 1 d . U
H3 H 0.1935 0.0805 1.1827 0.055 Uiso 1 1 calc R U
C4 C 0.242(4) -0.026(3) 1.053(2) 0.043(6) Uani 1 1 d . U
H4 H 0.2442 -0.0888 1.0926 0.051 Uiso 1 1 calc R U
C5 C 0.292(4) -0.150(3) 0.884(3) 0.048(7) Uani 1 1 d . U
H5 H 0.2890 -0.2142 0.9217 0.058 Uiso 1 1 calc R U
C6 C 0.317(4) -0.169(3) 0.775(3) 0.041(6) Uani 1 1 d . U
H6 H 0.3276 -0.2435 0.7376 0.050 Uiso 1 1 calc R U
C7 C 0.327(4) -0.069(3) 0.723(2) 0.042(6) Uani 1 1 d . U
C8 C 0.300(4) 0.036(3) 0.770(2) 0.043(6) Uani 1 1 d . U
C9 C 0.264(4) 0.050(3) 0.881(2) 0.041(6) Uani 1 1 d . U
C10 C 0.269(3) -0.044(3) 0.945(2) 0.037(5) Uani 1 1 d . U
C11 C 0.645(4) 0.369(3) 0.878(2) 0.051(6) Uani 1 1 d . U
C12 C 0.425(4) 0.507(3) 0.823(3) 0.049(6) Uani 1 1 d . U
C13 C 0.509(5) 0.399(3) 0.657(2) 0.049(6) Uani 1 1 d . U
C14 C -0.109(5) 0.109(4) 0.658(3) 0.060(7) Uani 1 1 d . U
C15 C 0.016(5) 0.356(4) 0.703(3) 0.062(7) Uani 1 1 d . U
C16 C 0.080(5) 0.246(3) 0.535(3) 0.056(7) Uani 1 1 d . U
C17 C 0.172(5) 0.282(3) 1.220(3) 0.056(8) Uani 1 1 d . U
H17A H 0.0797 0.2080 1.2269 0.084 Uiso 1 1 calc R U
H17B H 0.1429 0.3561 1.2449 0.084 Uiso 1 1 calc R U
H17C H 0.2894 0.2932 1.2679 0.084 Uiso 1 1 calc R U
C18 C 0.378(5) -0.197(3) 0.558(3) 0.059(9) Uani 1 1 d . U
H18A H 0.3821 -0.1957 0.4787 0.089 Uiso 1 1 calc R U
H18B H 0.2790 -0.2724 0.5567 0.089 Uiso 1 1 calc R U
H18C H 0.4921 -0.1982 0.6013 0.089 Uiso 1 1 calc R U
Fe1 Fe 0.4283(6) 0.3560(4) 0.7774(4) 0.0416(12) Uani 1 1 d . U
Fe2 Fe 0.0945(6) 0.2383(4) 0.6822(4) 0.0452(12) Uani 1 1 d . U
O1 O 0.771(3) 0.377(2) 0.936(2) 0.066(6) Uani 1 1 d . U
O2 O 0.418(3) 0.6046(19) 0.8508(19) 0.052(5) Uani 1 1 d . U
O3 O 0.547(3) 0.413(2) 0.5775(19) 0.062(6) Uani 1 1 d . U
O4 O -0.227(4) 0.023(3) 0.645(2) 0.082(8) Uani 1 1 d . U
O5 O -0.048(4) 0.436(3) 0.718(2) 0.082(8) Uani 1 1 d . U
O6 O 0.087(3) 0.254(3) 0.446(2) 0.077(8) Uani 1 1 d . U
O7 O 0.176(3) 0.2661(18) 1.0996(17) 0.046(5) Uani 1 1 d . U
O8 O 0.350(3) -0.0851(19) 0.6150(18) 0.050(5) Uani 1 1 d . U
Se1 Se 0.2196(4) 0.2961(3) 0.8853(2) 0.0426(10) Uani 1 1 d . U
Se2 Se 0.3087(4) 0.1442(3) 0.6726(2) 0.0455(10) Uani 1 1 d . U
loop_
_atom_site_aniso_label
_atom_site_aniso_U_11
_atom_site_aniso_U_22
_atom_site_aniso_U_33
_atom_site_aniso_U_23
_atom_site_aniso_U_13
_atom_site_aniso_U_12
C1 0.039(14) 0.032(11) 0.033(9) 0.005(8) 0.011(9) 0.013(11)
C2 0.063(19) 0.049(15) 0.039(11) 0.016(10) 0.023(13) 0.027(15)
C3 0.058(18) 0.054(16) 0.040(12) 0.021(11) 0.019(13) 0.032(16)
C4 0.041(15) 0.038(13) 0.044(11) 0.007(10) 0.008(12) 0.013(13)
C5 0.056(18) 0.057(15) 0.053(13) 0.024(12) 0.023(14) 0.040(16)
C6 0.042(15) 0.043(13) 0.053(12) 0.019(11) 0.023(13) 0.024(14)
C7 0.048(16) 0.049(14) 0.046(11) 0.016(10) 0.017(13) 0.034(14)
C8 0.052(16) 0.044(10) 0.049(12) 0.016(9) 0.026(13) 0.030(12)
C9 0.050(16) 0.034(12) 0.043(11) 0.008(9) 0.015(12) 0.020(13)
C10 0.030(13) 0.040(12) 0.043(11) 0.014(9) 0.010(11) 0.016(12)
C11 0.061(8) 0.075(18) 0.027(11) 0.010(10) 0.015(7) 0.038(11)
C12 0.060(15) 0.044(7) 0.061(17) 0.014(8) 0.039(12) 0.029(8)
C13 0.071(13) 0.047(11) 0.036(11) 0.013(12) 0.020(10) 0.028(12)
C14 0.052(8) 0.086(16) 0.039(13) 0.031(12) 0.000(10) 0.018(8)
C15 0.072(14) 0.082(16) 0.063(14) 0.033(17) 0.026(15) 0.058(15)
C16 0.060(16) 0.08(2) 0.044(7) 0.027(11) 0.018(8) 0.034(13)
C17 0.07(2) 0.07(2) 0.055(13) 0.026(15) 0.045(17) 0.045(19)
C18 0.08(2) 0.052(18) 0.056(18) 0.007(15) 0.029(17) 0.030(18)
Fe1 0.052(2) 0.039(2) 0.042(2) 0.0133(18) 0.0175(18) 0.024(2)
Fe2 0.061(3) 0.047(3) 0.039(2) 0.0131(19) 0.0175(19) 0.031(2)
O1 0.071(13) 0.074(16) 0.075(16) 0.042(13) 0.012(10) 0.046(13)
O2 0.060(13) 0.043(10) 0.068(14) 0.017(10) 0.028(11) 0.032(11)
O3 0.083(17) 0.072(15) 0.046(11) 0.028(11) 0.028(11) 0.034(14)
O4 0.077(16) 0.099(19) 0.062(15) 0.056(15) 0.009(13) 0.010(10)
O5 0.080(18) 0.084(17) 0.10(2) 0.028(15) 0.001(15) 0.063(15)
O6 0.071(16) 0.13(2) 0.047(10) 0.044(15) 0.019(12) 0.043(17)
O7 0.062(13) 0.052(11) 0.051(10) 0.029(9) 0.043(10) 0.032(11)
O8 0.070(14) 0.044(11) 0.052(10) 0.018(9) 0.030(10) 0.030(11)
Se1 0.0570(19) 0.0431(18) 0.0395(16) 0.0131(13) 0.0206(13) 0.0286(15)
Se2 0.064(2) 0.0432(18) 0.0410(17) 0.0102(14) 0.0203(14) 0.0326(16)
loop_
_atom_type_symbol
_atom_type_description
_atom_type_scat_dispersion_real
_atom_type_scat_dispersion_imag
_atom_type_scat_source
C C 0.0033 0.0016 'International Tables Vol C Tables 4.2.6.8 and 6.1.1.4'
H H 0.0000 0.0000 'International Tables Vol C Tables 4.2.6.8 and 6.1.1.4'
O O 0.0106 0.0060 'International Tables Vol C Tables 4.2.6.8 and 6.1.1.4'
Fe Fe 0.3463 0.8444 'International Tables Vol C Tables 4.2.6.8 and 6.1.1.4'
Se Se -0.0929 2.2259 'International Tables Vol C Tables 4.2.6.8 and 6.1.1.4'
loop_
_geom_angle_atom_site_label_1
_geom_angle_atom_site_label_2
_geom_angle_atom_site_label_3
_geom_angle
C9 C1 C2 117(3)
C9 C1 Se1 130(2)
C2 C1 Se1 112.3(19)
C3 C2 O7 124(3)
C3 C2 C1 123(3)
O7 C2 C1 114(3)
C2 C3 C4 119(3)
C2 C3 H3 120.5
C4 C3 H3 120.5
C3 C4 C10 125(3)
C3 C4 H4 117.7
C10 C4 H4 117.7
C6 C5 C10 126(3)
C6 C5 H5 117.0
C10 C5 H5 117.0
C5 C6 C7 116(3)
C5 C6 H6 122.1
C7 C6 H6 122.1
O8 C7 C8 118(3)
O8 C7 C6 118(2)
C8 C7 C6 124(3)
C7 C8 C9 119(3)
C7 C8 Se2 113(2)
C9 C8 Se2 128(2)
C8 C9 C1 122(3)
C8 C9 C10 120(2)
C1 C9 C10 118(2)
C4 C10 C5 126(3)
C4 C10 C9 119(3)
C5 C10 C9 115(3)
O1 C11 Fe1 179(4)
O2 C12 Fe1 178(3)
O3 C13 Fe1 172(3)
O4 C14 Fe2 175(3)
O5 C15 Fe2 177(3)
O6 C16 Fe2 174(3)
O7 C17 H17A 109.5
O7 C17 H17B 109.5
H17A C17 H17B 109.5
O7 C17 H17C 109.5
H17A C17 H17C 109.5
H17B C17 H17C 109.5
O8 C18 H18A 109.5
O8 C18 H18B 109.5
H18A C18 H18B 109.5
O8 C18 H18C 109.5
H18A C18 H18C 109.5
H18B C18 H18C 109.5
C12 Fe1 C13 89.3(14)
C12 Fe1 C11 102.2(16)
C13 Fe1 C11 100.2(15)
C12 Fe1 Se2 155.4(11)
C13 Fe1 Se2 90.0(10)
C11 Fe1 Se2 102.2(11)
C12 Fe1 Se1 85.5(10)
C13 Fe1 Se1 157.6(11)
C11 Fe1 Se1 102.2(10)
Se2 Fe1 Se1 85.8(2)
C12 Fe1 Fe2 98.7(11)
C13 Fe1 Fe2 101.8(11)
C11 Fe1 Fe2 149.7(12)
Se2 Fe1 Fe2 57.5(2)
Se1 Fe1 Fe2 57.7(2)
C15 Fe2 C14 99.4(19)
C15 Fe2 C16 89.3(16)
C14 Fe2 C16 98.7(15)
C15 Fe2 Se2 157.3(14)
C14 Fe2 Se2 103.1(13)
C16 Fe2 Se2 89.2(11)
C15 Fe2 Se1 87.1(12)
C14 Fe2 Se1 104.0(10)
C16 Fe2 Se1 157.3(12)
Se2 Fe2 Se1 85.6(2)
C15 Fe2 Fe1 100.9(13)
C14 Fe2 Fe1 151.3(11)
C16 Fe2 Fe1 101.5(12)
Se2 Fe2 Fe1 57.3(2)
Se1 Fe2 Fe1 57.4(2)
C2 O7 C17 115(2)
C7 O8 C18 121(2)
C1 Se1 Fe1 110.3(8)
C1 Se1 Fe2 111.0(8)
Fe1 Se1 Fe2 64.9(2)
C8 Se2 Fe1 112.3(9)
C8 Se2 Fe2 111.5(8)
Fe1 Se2 Fe2 65.2(2)
loop_
_geom_bond_atom_site_label_1
_geom_bond_atom_site_label_2
_geom_bond_distance
C1 C9 1.44(4)
C1 C2 1.47(4)
C1 Se1 1.87(3)
C2 C3 1.34(4)
C2 O7 1.35(3)
C3 C4 1.36(4)
C3 H3 0.9500
C4 C10 1.37(4)
C4 H4 0.9500
C5 C6 1.37(4)
C5 C10 1.40(4)
C5 H5 0.9500
C6 C7 1.41(4)
C6 H6 0.9500
C7 O8 1.35(3)
C7 C8 1.37(4)
C8 C9 1.43(4)
C8 Se2 1.89(3)
C9 C10 1.47(4)
C11 O1 1.10(4)
C11 Fe1 1.89(3)
C12 O2 1.15(3)
C12 Fe1 1.76(3)
C13 O3 1.10(3)
C13 Fe1 1.81(3)
C14 O4 1.11(4)
C14 Fe2 1.78(4)
C15 O5 1.22(4)
C15 Fe2 1.69(3)
C16 O6 1.12(4)
C16 Fe2 1.79(3)
C17 O7 1.45(3)
C17 H17A 0.9800
C17 H17B 0.9800
C17 H17C 0.9800
C18 O8 1.47(3)
C18 H18A 0.9800
C18 H18B 0.9800
C18 H18C 0.9800
Fe1 Se2 2.352(8)
Fe1 Se1 2.359(6)
Fe1 Fe2 2.537(9)
Fe2 Se2 2.356(6)
Fe2 Se1 2.367(7)
loop_
_geom_torsion_atom_site_label_1
_geom_torsion_atom_site_label_2
_geom_torsion_atom_site_label_3
_geom_torsion_atom_site_label_4
_geom_torsion
C9 C1 C2 C3 0(4)
Se1 C1 C2 C3 178(3)
C9 C1 C2 O7 -177(3)
Se1 C1 C2 O7 2(3)
O7 C2 C3 C4 177(3)
C1 C2 C3 C4 1(5)
C2 C3 C4 C10 -1(5)
C10 C5 C6 C7 2(5)
C5 C6 C7 O8 -179(3)
C5 C6 C7 C8 -5(5)
O8 C7 C8 C9 176(3)
C6 C7 C8 C9 2(5)
O8 C7 C8 Se2 -2(4)
C6 C7 C8 Se2 -176(2)
C7 C8 C9 C1 179(3)
Se2 C8 C9 C1 -3(5)
C7 C8 C9 C10 4(4)
Se2 C8 C9 C10 -178(2)
C2 C1 C9 C8 -176(3)
Se1 C1 C9 C8 6(5)
C2 C1 C9 C10 -1(4)
Se1 C1 C9 C10 -180(2)
C3 C4 C10 C5 -177(3)
C3 C4 C10 C9 -1(4)
C6 C5 C10 C4 179(3)
C6 C5 C10 C9 3(4)
C8 C9 C10 C4 177(3)
C1 C9 C10 C4 2(4)
C8 C9 C10 C5 -7(4)
C1 C9 C10 C5 178(3)
C3 C2 O7 C17 10(4)
C1 C2 O7 C17 -173(2)
C8 C7 O8 C18 -179(3)
C6 C7 O8 C18 -5(4)
C9 C1 Se1 Fe1 -39(3)
C2 C1 Se1 Fe1 142.8(18)
C9 C1 Se1 Fe2 31(3)
C2 C1 Se1 Fe2 -147.2(18)
C7 C8 Se2 Fe1 -147(2)
C9 C8 Se2 Fe1 36(3)
C7 C8 Se2 Fe2 142(2)
C9 C8 Se2 Fe2 -35(3)
