#------------------------------------------------------------------------------
#$Date: 2016-03-21 15:00:18 +0200 (Mon, 21 Mar 2016) $
#$Revision: 178733 $
#$URL: svn://www.crystallography.net/cod/cif/4/08/44/4084409.cif $
#------------------------------------------------------------------------------
#
# This file is available in the Crystallography Open Database (COD),
# http://www.crystallography.net/
#
# All data on this site have been placed in the public domain by the
# contributors.
#
data_4084409
loop_
_publ_author_name
'Wang, Lili'
'Ganguly, Rakesh'
'Mathey, Fran\,cois'
_publ_section_title
;
 Revisiting the Chemistry of Phosphinidene Sulfides
;
_journal_issue                   19
_journal_name_full               Organometallics
_journal_page_first              5614
_journal_paper_doi               10.1021/om500828n
_journal_volume                  33
_journal_year                    2014
_chemical_formula_sum            'C17 H16 P2 S2'
_chemical_formula_weight         346.36
_space_group_crystal_system      triclinic
_space_group_IT_number           2
_space_group_name_Hall           '-P 1'
_space_group_name_H-M_alt        'P -1'
_symmetry_space_group_name_Hall  '-P 1'
_symmetry_space_group_name_H-M   'P -1'
_atom_sites_solution_hydrogens   geom
_cell_angle_alpha                96.082(6)
_cell_angle_beta                 92.159(7)
_cell_angle_gamma                98.496(7)
_cell_formula_units_Z            2
_cell_length_a                   8.2807(11)
_cell_length_b                   9.2592(12)
_cell_length_c                   10.5079(12)
_cell_measurement_reflns_used    47
_cell_measurement_temperature    103.(2)
_cell_measurement_theta_max      24.3868
_cell_measurement_theta_min      4.2504
_cell_volume                     791.18(17)
_computing_cell_refinement       'APEX2 v2013.10-0 (Bruker AXS)'
_computing_data_collection       'APEX2 (Bruker AXS Inc., 2013)'
_computing_data_reduction        'SAINT V8.34A (Bruker AXS Inc., 2013)'
_computing_molecular_graphics    'XP (Bruker AXS Inc., 2013)'
_computing_publication_material  'APEX2 (Bruker AXS Inc., 2013)'
_computing_structure_refinement  'SHELXL-2013 (Sheldrick, 2013)'
_diffrn_ambient_temperature      103.(2)
_diffrn_detector_area_resol_mean 8.3333
_diffrn_measured_fraction_theta_full 0.991
_diffrn_measured_fraction_theta_max 0.991
_diffrn_measurement_device_type  'CCD area detector'
_diffrn_measurement_method       'phi and omega scans'
_diffrn_radiation_monochromator  graphite
_diffrn_radiation_type           MoK\a
_diffrn_radiation_wavelength     0.71073
_diffrn_reflns_av_R_equivalents  0.1491
_diffrn_reflns_av_unetI/netI     0.1408
_diffrn_reflns_limit_h_max       11
_diffrn_reflns_limit_h_min       -11
_diffrn_reflns_limit_k_max       12
_diffrn_reflns_limit_k_min       -12
_diffrn_reflns_limit_l_max       14
_diffrn_reflns_limit_l_min       -14
_diffrn_reflns_number            19272
_diffrn_reflns_theta_full        28.62
_diffrn_reflns_theta_max         28.62
_diffrn_reflns_theta_min         1.95
_diffrn_source                   'fine-focus sealed tube'
_exptl_absorpt_coefficient_mu    0.528
_exptl_absorpt_correction_T_max  0.97
_exptl_absorpt_correction_T_min  0.77
_exptl_absorpt_correction_type   multi-scan
_exptl_absorpt_process_details   'SADABS V2012/1 (Bruker AXS Inc.)'
_exptl_crystal_colour            colourless
_exptl_crystal_density_diffrn    1.454
_exptl_crystal_density_method    'not measured'
_exptl_crystal_description       block
_exptl_crystal_F_000             360
_exptl_crystal_size_max          0.120
_exptl_crystal_size_mid          0.080
_exptl_crystal_size_min          0.060
_refine_diff_density_max         0.511
_refine_diff_density_min         -0.568
_refine_ls_extinction_method     none
_refine_ls_goodness_of_fit_ref   0.991
_refine_ls_hydrogen_treatment    constr
_refine_ls_matrix_type           full
_refine_ls_number_parameters     190
_refine_ls_number_reflns         4016
_refine_ls_number_restraints     0
_refine_ls_restrained_S_all      0.991
_refine_ls_R_factor_all          0.1330
_refine_ls_R_factor_gt           0.0599
_refine_ls_shift/su_max          0.000
_refine_ls_shift/su_mean         0.000
_refine_ls_structure_factor_coef Fsqd
_refine_ls_weighting_details
'w=1/[\s^2^(Fo^2^)+(0.0615P)^2^+0.5059P] where P=(Fo^2^+2Fc^2^)/3'
_refine_ls_weighting_scheme      calc
_refine_ls_wR_factor_gt          0.1233
_refine_ls_wR_factor_ref         0.1612
_reflns_number_gt                2273
_reflns_number_total             4016
_reflns_threshold_expression     'I > 2\s(I)'
_cod_data_source_file            om500828n_si_001.cif
_cod_data_source_block           I_mat190
_cod_depositor_comments
'Adding full bibliography for 4084407--4084409.cif.'
_cod_database_code               4084409
#BEGIN Tags that were not found in dictionaries:
_shelx_res_file
;
TITL mat190 in P-1
CELL 0.71073   8.28070   9.25920  10.50790  96.0818  92.1594  98.4961
ZERR    2.00   0.00110   0.00120   0.00120   0.0061   0.0068   0.0069
LATT 1
SFAC C  H  P  S
UNIT 34  32  4  4
L.S. 4
BOND $H
acta
FMAP 2
PLAN 20
SIZE 0.06 0.08 0.12
TEMP -170
WGHT    0.061500    0.505900
FVAR       0.26983
C1    1    0.299652    0.810689    0.904190    11.00000    0.02285    0.01831 =
         0.01404   -0.00011   -0.00433    0.00662
AFIX  13
H1    2    0.265115    0.877200    0.975981    11.00000   -1.20000
AFIX   0
C2    1    0.440888    0.898982    0.840796    11.00000    0.02470    0.01670 =
         0.01779    0.00012   -0.00197    0.00647
AFIX  13
H2    2    0.451005    1.004871    0.875697    11.00000   -1.20000
AFIX   0
C3    1    0.588381    0.839395    0.885099    11.00000    0.02014    0.02314 =
         0.02239   -0.00050   -0.00410    0.00556
AFIX  43
H3    2    0.697064    0.877931    0.867611    11.00000   -1.20000
AFIX   0
C4    1    0.550305    0.726335    0.951768    11.00000    0.03064    0.02447 =
         0.02317   -0.00344   -0.00898    0.01138
AFIX  43
H4    2    0.629653    0.676370    0.988410    11.00000   -1.20000
AFIX   0
C5    1    0.370159    0.685112    0.963667    11.00000    0.02922    0.02109 =
         0.02460    0.00697   -0.00536    0.00836
AFIX  23
H5A   2    0.343085    0.682701    1.054460    11.00000   -1.20000
H5B   2    0.328682    0.588282    0.915217    11.00000   -1.20000
AFIX   0
C6    1    0.029803    0.907312    0.765350    11.00000    0.02032    0.01538 =
         0.02015    0.00469    0.00134    0.00510
C7    1   -0.076869    0.897808    0.658250    11.00000    0.02662    0.01932 =
         0.02071    0.00324   -0.00019    0.00714
AFIX  43
H7    2   -0.099354    0.809003    0.602108    11.00000   -1.20000
AFIX   0
C8    1   -0.150742    1.018310    0.633226    11.00000    0.02664    0.02404 =
         0.02100    0.00733   -0.00004    0.00976
AFIX  43
H8    2   -0.220888    1.012751    0.558647    11.00000   -1.20000
AFIX   0
C9    1   -0.121929    1.145681    0.716838    11.00000    0.02521    0.02010 =
         0.02911    0.01074    0.00516    0.01116
AFIX  43
H9    2   -0.174192    1.226901    0.700049    11.00000   -1.20000
AFIX   0
C10   1   -0.018153    1.156887    0.824675    11.00000    0.03312    0.01730 =
         0.02646    0.00370    0.00380    0.00970
AFIX  43
H10   2    0.000705    1.244979    0.881888    11.00000   -1.20000
AFIX   0
C11   1    0.058717    1.037305    0.848655    11.00000    0.02709    0.01742 =
         0.02066    0.00558    0.00114    0.00679
AFIX  43
H11   2    0.131140    1.044474    0.922121    11.00000   -1.20000
AFIX   0
C12   1    0.333611    0.540286    0.641789    11.00000    0.02538    0.01106 =
         0.01238   -0.00023   -0.00267    0.00041
C13   1    0.233215    0.404202    0.633812    11.00000    0.02323    0.01781 =
         0.02251    0.00192    0.00394    0.00597
AFIX  43
H13   2    0.118331    0.398341    0.619636    11.00000   -1.20000
AFIX   0
C14   1    0.300555    0.277216    0.646514    11.00000    0.02850    0.01119 =
         0.02463    0.00182    0.00312    0.00121
AFIX  43
H14   2    0.232055    0.184738    0.641576    11.00000   -1.20000
AFIX   0
C15   1    0.468968    0.286556    0.666507    11.00000    0.03781    0.01114 =
         0.02473    0.00370    0.00113    0.01332
AFIX  43
H15   2    0.515502    0.200068    0.675306    11.00000   -1.20000
AFIX   0
C16   1    0.568484    0.420174    0.673611    11.00000    0.02874    0.01730 =
         0.02117    0.00291   -0.00197    0.00865
AFIX  43
H16   2    0.683319    0.425703    0.687840    11.00000   -1.20000
AFIX   0
C17   1    0.501976    0.546621    0.660111    11.00000    0.02256    0.01343 =
         0.01852    0.00204   -0.00160    0.00409
AFIX  43
H17   2    0.571636    0.638323    0.663366    11.00000   -1.20000
AFIX   0
P1    3    0.119864    0.744902    0.794108    11.00000    0.02255    0.01375 =
         0.01611    0.00382   -0.00137    0.00590
P2    3    0.237385    0.700279    0.611264    11.00000    0.02441    0.01403 =
         0.01694    0.00325   -0.00058    0.00678
S1    4    0.416254    0.883346    0.660280    11.00000    0.02674    0.01340 =
         0.02110    0.00517    0.00010    0.00415
S2    4   -0.033841    0.586071    0.847648    11.00000    0.02933    0.01728 =
         0.02692    0.00685    0.00180    0.00318
HKLF 4

REM  mat190 in P-1
REM R1 =  0.0599 for    2273 Fo > 4sig(Fo)  and  0.1330 for all    4016 data
REM    190 parameters refined using      0 restraints

END

WGHT      0.0598      0.5401

REM Highest difference peak  0.511,  deepest hole -0.568,  1-sigma level  0.122
Q1    1  -0.1359  0.5451  0.8062  11.00000  0.05    0.51
Q2    1   0.0716  0.6444  0.8927  11.00000  0.05    0.49
Q3    1   0.5514  0.6185  1.0472  11.00000  0.05    0.48
Q4    1   0.3655  0.3426  0.8164  11.00000  0.05    0.45
Q5    1   0.3365  0.8405  0.5987  11.00000  0.05    0.44
Q6    1  -0.3155  1.2795  0.7581  11.00000  0.05    0.43
Q7    1   0.1600  0.7033  0.7091  11.00000  0.05    0.43
Q8    1   0.5308  0.3121  0.7982  11.00000  0.05    0.43
Q9    1   0.7174  0.5573  0.9435  11.00000  0.05    0.42
Q10   1   0.3965  0.2591  0.6070  11.00000  0.05    0.41
Q11   1   0.2238  0.7799  0.8513  11.00000  0.05    0.41
Q12   1   0.2684  0.5156  1.0829  11.00000  0.05    0.41
Q13   1   0.1556  1.3536  0.9432  11.00000  0.05    0.40
Q14   1  -0.0534  1.3601  0.7481  11.00000  0.05    0.40
Q15   1   0.6866  0.4448  0.7559  11.00000  0.05    0.39
Q16   1   0.0749  1.3301  0.8874  11.00000  0.05    0.39
Q17   1   0.6757  0.2470  0.6223  11.00000  0.05    0.38
Q18   1   0.7531  0.6625  0.8909  11.00000  0.05    0.38
Q19   1   0.0222  0.6890  0.7440  11.00000  0.05    0.38
Q20   1   0.4523  0.3664  0.7617  11.00000  0.05    0.37
;
_shelx_res_checksum              2584
_shelx_hkl_file
;
  -1   0   0   -0.77    0.61
  -1   0   0   -0.09    0.50
  -1   0   0   -0.46    0.55
  -1   0   0   -0.80    0.57
   1   0   0   -0.19    0.50
   1   0   0   -1.11    0.45
   1   0   0   -0.49    0.51
   1   0   0    0.48    0.59
  -2   0   0  181.98   12.57
  -2   0   0  190.62   12.55
  -2   0   0  183.74   12.21
  -2   0   0  164.99   12.67
  -2   0   0  177.92   14.29
   2   0   0  186.30   14.41
   2   0   0  176.95   12.18
   2   0   0  185.64   12.60
   2   0   0  185.43   12.56
  -3   0   0    3.30    2.31
  -3   0   0    5.47    2.50
  -3   0   0    4.11    2.49
  -3   0   0    3.86    1.94
  -3   0   0    2.77    1.08
   3   0   0    0.87    2.17
   3   0   0   -0.56    2.00
   3   0   0    7.25    2.54
   3   0   0    2.31    2.60
  -4   0   0    3.45    1.13
  -4   0   0    1.91    2.73
  -4   0   0    3.27    2.89
  -4   0   0    3.38    2.42
  -4   0   0    3.09    2.52
   4   0   0    5.85    3.44
   4   0   0    4.84    2.73
   4   0   0    3.37    2.10
   4   0   0    2.82    2.63
  -5   0   0    4.32    3.53
  -5   0   0    2.36    3.24
  -5   0   0   -0.13    2.20
  -5   0   0    2.35    1.10
   5   0   0   -0.85    2.68
   5   0   0   -1.00    2.59
   5   0   0   -2.88    3.39
  -6   0   0   35.26    6.10
  -6   0   0   33.45    6.40
   6   0   0   47.21    7.01
   6   0   0   33.03    7.10
  -7   0   0   16.40    4.97
  -7   0   0   25.08    5.91
   7   0   0   13.11    6.00
   7   0   0   20.26    5.81
  -8   0   0    8.78    4.48
  -8   0   0    5.02    4.83
   8   0   0    2.96    4.43
  -9   0   0    9.10    5.26
  -9   0   0    7.36    5.31
   9   0   0    7.92    5.68
 -10   0   0    3.27    5.72
 -10   0   0    1.42    4.62
  10   0   0    4.70    6.57
 -11   1   0    5.09    5.50
  10  -1   0    0.30    5.87
 -10   1   0    8.48    5.14
 -10   1   0   -2.32    5.66
   9  -1   0    0.91    5.51
   9  -1   0   -1.61    5.79
  -9   1   0    6.01    5.33
  -9   1   0    8.76    4.81
   8  -1   0   -4.74    5.43
   8  -1   0    3.68    4.80
  -8   1   0    6.89    4.18
  -8   1   0   -4.08    4.16
   7  -1   0  117.41   11.94
   7  -1   0  123.85   13.99
  -7   1   0  104.83   10.95
  -7   1   0  139.47   12.20
   6  -1   0    7.93    5.31
   6  -1   0    4.27    3.49
  -6   1   0    4.19    3.93
  -6   1   0    1.74    1.06
  -6   1   0    1.31    3.14
   5  -1   0   19.32    5.45
   5  -1   0   15.88    4.14
   5  -1   0   23.37    4.61
  -5   1   0   16.22    4.14
  -5   1   0   19.28    4.92
  -5   1   0   19.02    2.33
  -5   1   0   10.87    3.95
   4  -1   0   22.86    4.30
   4  -1   0   23.99    5.08
   4  -1   0   20.40    4.08
   4  -1   0   19.06    4.07
  -4   1   0   30.01    4.40
  -4   1   0   21.79    4.75
  -4   1   0   17.96    3.73
  -4   1   0   27.09    4.42
   3  -1   0   22.41    4.49
   3  -1   0   24.51    3.88
   3  -1   0   23.13    3.84
   3  -1   0   19.82    3.60
  -3   1   0   20.34    4.12
  -3   1   0   19.90    3.60
  -3   1   0   13.51    3.14
  -3   1   0   16.55    3.30
   2  -1   0    3.54    2.09
   2  -1   0    3.82    2.01
   2  -1   0    2.47    2.37
   2  -1   0    2.28    1.87
  -2   1   0    8.82    2.35
  -2   1   0    2.45    2.29
  -2   1   0    3.77    2.02
  -2   1   0    4.27    1.65
   1  -1   0   91.86    7.94
   1  -1   0  111.49    6.90
   1  -1   0   91.20    7.14
  -1   1   0   99.35    7.17
  -1   1   0  100.56    8.00
  -1   1   0   89.69    6.78
  -1   1   0  101.07    6.89
   0  -1   0    0.34    0.39
   0  -1   0    0.62    0.49
   0  -1   0   -0.17    0.35
   0  -1   0    0.36    0.51
   0  -1   0   -0.20    0.37
   0   1   0   -0.29    0.28
   0   1   0    0.25    0.39
   0   1   0    0.30    0.47
   0   1   0   -0.16    0.32
  -1  -1   0  318.62   21.05
  -1  -1   0  324.19   20.46
  -1  -1   0  342.97   21.06
   1   1   0  330.18   21.03
   1   1   0  300.67   22.61
   1   1   0  319.01   20.46
   1   1   0  313.90   21.04
  -2  -1   0   45.36    4.09
  -2  -1   0   45.27    4.64
  -2  -1   0   41.96    4.16
  -2  -1   0   39.12    3.87
  -2  -1   0   36.45    3.65
   2   1   0   42.43    4.22
   2   1   0   40.10    3.95
   2   1   0   37.71    3.67
   2   1   0   43.67    4.15
  -3  -1   0    5.62    2.48
  -3  -1   0    4.80    2.32
  -3  -1   0    5.59    2.54
  -3  -1   0    4.92    2.30
   3   1   0    4.40    2.39
   3   1   0    3.03    2.34
   3   1   0    5.14    2.54
   3   1   0    4.09    1.45
   3   1   0    3.23    2.23
  -4  -1   0   85.37    7.92
  -4  -1   0   91.87    7.96
  -4  -1   0   96.89    8.31
  -4  -1   0   96.28    8.58
   4   1   0   86.57    7.12
   4   1   0   86.24    8.06
   4   1   0   91.87    8.15
   4   1   0   95.24    8.92
   4   1   0   96.65    8.15
  -5  -1   0    0.65    2.77
  -5  -1   0    1.15    3.02
  -5  -1   0    0.66    2.58
   5   1   0    2.62    3.69
   5   1   0   -1.29    2.67
   5   1   0    2.05    3.07
  -6  -1   0   45.58    6.86
  -6  -1   0   35.65    6.54
  -6  -1   0   36.60    6.32
   6   1   0   31.48    5.98
  -7  -1   0    7.84    4.53
  -7  -1   0    5.52    4.04
   7   1   0    9.92    4.71
  -8  -1   0    5.52    4.32
  -8  -1   0    2.40    4.40
   8   1   0   -0.76    4.28
  -9  -1   0    0.38    4.84
  -9  -1   0   -0.62    4.21
   9   1   0    5.64    5.92
 -10  -1   0   21.02    7.27
 -10  -1   0   14.59    6.26
  10   1   0   38.93    9.36
  11  -2   0   -0.81    7.53
 -11   2   0    4.05    4.80
  10  -2   0   23.73    8.50
 -10   2   0   26.70    7.93
 -10   2   0    7.57    5.21
   9  -2   0   18.21    6.64
   9  -2   0   26.53    9.62
  -9   2   0   25.11    7.11
  -9   2   0   22.03    5.98
   8  -2   0  113.44   15.55
   8  -2   0   94.17   12.39
  -8   2   0  123.45   12.05
  -8   2   0   93.75   11.93
   7  -2   0   32.49    8.06
   7  -2   0   24.92    5.79
  -7   2   0   31.17    6.27
  -7   2   0   28.90    6.07
  -7   2   0   35.13    3.27
   6  -2   0   13.77    5.75
   6  -2   0    7.66    4.32
  -6   2   0   13.11    4.33
  -6   2   0   16.98    4.95
   5  -2   0    2.77    4.15
   5  -2   0    1.10    2.31
   5  -2   0    2.93    3.05
  -5   2   0    3.21    3.01
  -5   2   0    4.63    3.26
   4  -2   0   11.44    3.44
   4  -2   0    4.58    2.55
   4  -2   0   11.02    3.42
   4  -2   0    7.00    3.88
  -4   2   0   11.26    3.34
  -4   2   0    8.39    3.08
  -4   2   0    9.39    3.23
  -4   2   0    4.23    2.43
  -4   2   0    8.79    3.78
   3  -2   0   18.56    3.50
   3  -2   0   13.66    4.04
   3  -2   0   20.80    3.68
   3  -2   0   25.34    4.01
  -3   2   0   16.94    3.84
  -3   2   0   17.51    3.14
  -3   2   0    5.40    2.77
  -3   2   0   16.72    3.59
   2  -2   0   74.13    6.03
   2  -2   0   73.94    7.38
   2  -2   0   71.25    6.45
   2  -2   0   64.39    6.17
  -2   2   0   78.58    7.40
  -2   2   0   72.35    6.28
  -2   2   0   75.47    5.44
  -2   2   0   71.82    6.50
  -2   2   0   76.18    6.27
   1  -2   0    1.45    1.67
   1  -2   0    1.10    1.92
   1  -2   0    3.48    1.62
   1  -2   0   -0.43    1.04
   1  -2   0   -0.69    1.47
  -1   2   0   -0.29    1.20
  -1   2   0    0.67    1.53
  -1   2   0   -0.75    1.74
  -1   2   0   -1.57    1.59
   0  -2   0   68.35    5.87
   0  -2   0   73.24    5.53
   0  -2   0   65.97    5.17
   0  -2   0   68.51    5.57
   0  -2   0   76.55    5.58
   0   2   0   70.07    5.48
   0   2   0   66.67    5.82
   0   2   0   73.45    5.60
   0   2   0   65.15    5.46
  -1  -2   0   46.40    4.17
  -1  -2   0   40.56    4.09
  -1  -2   0   48.76    4.17
  -1  -2   0   41.18    3.58
   1   2   0   42.95    3.95
   1   2   0   49.54    4.25
   1   2   0   38.16    4.22
   1   2   0   39.34    3.88
  -2  -2   0   62.65    5.30
  -2  -2   0   54.60    5.67
  -2  -2   0   69.65    5.74
  -2  -2   0   54.87    5.54
   2   2   0   60.84    5.76
   2   2   0   69.12    5.75
   2   2   0   67.39    5.64
   2   2   0   67.26    5.80
  -3  -2   0  116.14    9.76
  -3  -2   0  117.52    9.40
  -3  -2   0  125.97    9.58
  -3  -2   0  119.72    9.57
   3   2   0  116.35    9.47
   3   2   0  123.22    9.51
   3   2   0  117.09    9.43
   3   2   0  122.70    9.59
  -4  -2   0    1.24    1.95
  -4  -2   0   -0.66    2.59
  -4  -2   0    0.80    2.60
   4   2   0    3.48    2.69
   4   2   0    2.86    2.67
   4   2   0   -3.00    1.43
  -5  -2   0   54.86    6.32
  -5  -2   0   67.01    7.84
  -5  -2   0   58.44    7.41
   5   2   0   54.92    5.41
   5   2   0   62.51    7.75
   5   2   0   48.28    6.93
  -6  -2   0   16.35    4.61
  -6  -2   0    3.29    3.31
  -6  -2   0   10.33    4.43
   6   2   0   12.32    4.26
  -7  -2   0    4.11    3.38
  -7  -2   0    6.39    4.42
   7   2   0    3.29    3.97
  -8  -2   0    2.04    4.32
  -8  -2   0    0.91    4.70
   8   2   0    8.97    5.02
  -9  -2   0    5.64    5.34
  -9  -2   0   10.40    5.68
   9   2   0    6.60    5.83
 -10  -2   0    6.76    5.45
  10   2   0   -6.99    5.69
 -11   3   0    6.44    5.86
  10  -3   0    2.70    7.46
  10  -3   0   -7.84    5.87
 -10   3   0   12.99    6.78
 -10   3   0    9.97    5.48
   9  -3   0   21.46    8.50
   9  -3   0   18.55    6.65
  -9   3   0   17.46    6.59
  -9   3   0   22.66    6.14
   8  -3   0   -1.83    5.26
   8  -3   0   -3.99    3.28
  -8   3   0   -1.98    3.54
  -8   3   0   -1.43    4.33
   7  -3   0   42.83    9.26
   7  -3   0   36.69    7.12
  -7   3   0   31.22    6.50
  -7   3   0   47.76    8.08
   6  -3   0    7.59    4.19
   6  -3   0   16.48    6.36
  -6   3   0    6.37    4.33
  -6   3   0   12.02    4.36
   5  -3   0   -1.36    4.01
   5  -3   0   -1.67    3.01
  -5   3   0   -4.21    2.27
  -5   3   0    0.02    2.67
  -5   3   0   -0.20    2.67
   4  -3   0  148.90   14.05
   4  -3   0  147.24   11.80
   4  -3   0  131.58   12.37
   4  -3   0  155.36   12.07
  -4   3   0  149.77   14.24
  -4   3   0  174.68   12.32
  -4   3   0  148.92   12.57
  -4   3   0  143.77   11.71
   3  -3   0   59.14    8.04
   3  -3   0   59.71    6.23
   3  -3   0   67.35    6.36
   3  -3   0   58.16    6.39
  -3   3   0   65.08    6.57
  -3   3   0   61.76    5.16
  -3   3   0   66.30    6.04
  -3   3   0   67.34    7.52
  -3   3   0   63.81    6.22
   2  -3   0  133.68   10.69
   2  -3   0  142.80   11.06
   2  -3   0  133.72    9.60
   2  -3   0  135.93   12.31
   2  -3   0  126.81   10.37
  -2   3   0  156.36   10.80
  -2   3   0  143.45   11.11
  -2   3   0  148.68   12.41
  -2   3   0  143.67   10.72
   1  -3   0   61.90    5.78
   1  -3   0   62.28    5.74
   1  -3   0   55.46    4.93
   1  -3   0   55.29    5.56
   1  -3   0   63.06    6.43
  -1   3   0   61.45    5.74
  -1   3   0   69.83    5.77
  -1   3   0   65.90    5.77
  -1   3   0   56.93    6.07
   0  -3   0    1.05    1.74
   0  -3   0   -0.06    1.62
   0  -3   0    5.65    2.27
   0  -3   0    4.62    2.03
   0  -3   0    0.44    1.50
   0   3   0    2.01    1.64
   0   3   0    4.10    1.89
   0   3   0    3.36    2.17
   0   3   0    1.73    1.79
  -1  -3   0   -1.81    1.82
  -1  -3   0    0.48    1.61
  -1  -3   0   -0.79    1.17
  -1  -3   0    3.83    2.06
   1   3   0    1.76    1.98
   1   3   0   -3.62    1.86
   1   3   0    2.02    1.97
   1   3   0   -0.31    1.67
   1   3   0    1.15    2.19
  -2  -3   0  549.78   35.87
  -2  -3   0  532.07   36.34
  -2  -3   0  558.51   35.60
  -2  -3   0  524.04   40.61
  -2  -3   0  582.47   36.53
   2   3   0  524.01   36.46
   2   3   0  539.20   36.46
   2   3   0  555.88   39.32
   2   3   0  580.28   35.69
  -3  -3   0   -3.29    1.33
  -3  -3   0    2.58    2.57
  -3  -3   0    0.22    2.21
  -3  -3   0   -0.28    1.16
   3   3   0    2.28    2.33
   3   3   0    0.04    2.32
   3   3   0    0.56    2.22
   3   3   0    0.62    2.40
  -4  -3   0   22.69    4.76
  -4  -3   0   29.25    3.69
  -4  -3   0   24.41    5.06
  -4  -3   0   30.06    4.46
   4   3   0   34.03    4.77
   4   3   0   19.40    4.48
   4   3   0   24.56    4.77
  -5  -3   0    0.20    3.22
  -5  -3   0    2.75    3.49
  -5  -3   0    1.32    2.06
  -5  -3   0   -0.03    2.06
   5   3   0    3.67    3.34
   5   3   0    1.57    3.06
   5   3   0   -1.64    2.02
  -6  -3   0   17.73    3.91
  -6  -3   0   18.88    5.53
  -6  -3   0   19.05    5.39
   6   3   0   15.87    4.74
   6   3   0   17.69    3.59
  -7  -3   0    0.17    4.06
  -7  -3   0   -0.90    3.84
   7   3   0   -1.27    3.58
  -8  -3   0    4.87    5.07
  -8  -3   0    9.72    5.28
   8   3   0   16.38    6.08
  -9  -3   0    5.31    5.37
  -9  -3   0   20.55    6.62
   9   3   0   10.15    6.39
 -10  -3   0    6.03    6.42
 -10  -3   0    6.24    6.15
  10   3   0    7.26    6.90
  10  -4   0    3.97    8.14
  10  -4   0   12.93    7.04
 -10   4   0    7.31    4.95
 -10   4   0    7.74    6.69
   9  -4   0   -1.36    4.50
   9  -4   0    2.37    6.69
  -9   4   0    8.23    4.38
  -9   4   0    6.81    5.96
   8  -4   0   -3.77    5.47
   8  -4   0    1.88    4.65
  -8   4   0    1.72    3.83
  -8   4   0   -0.37    4.59
   7  -4   0   -4.14    3.75
   7  -4   0    0.86    5.32
  -7   4   0    0.24    3.88
  -7   4   0   -2.49    3.22
   6  -4   0   10.45    6.12
   6  -4   0    3.13    4.15
  -6   4   0    8.25    4.18
  -6   4   0    6.62    4.02
  -6   4   0    3.55    4.30
   5  -4   0  184.21   17.51
   5  -4   0  196.98   14.81
  -5   4   0  154.18   15.09
  -5   4   0  195.48   14.74
   4  -4   0   -0.04    2.80
   4  -4   0    3.44    3.95
  -4   4   0    3.40    2.60
  -4   4   0   -3.50    2.83
   3  -4   0   28.55    4.96
   3  -4   0   38.43    6.53
   3  -4   0   31.72    3.69
   3  -4   0   35.89    5.12
   3  -4   0   39.84    5.65
  -3   4   0   33.23    3.66
  -3   4   0   33.40    4.98
  -3   4   0   32.84    5.42
  -3   4   0   26.11    4.49
  -3   4   0   36.84    6.31
   2  -4   0  134.36    9.63
   2  -4   0  141.34   11.05
   2  -4   0  126.42   10.56
   2  -4   0  118.78   12.05
   2  -4   0  144.34   10.79
  -2   4   0  142.41   11.09
  -2   4   0  130.49   10.67
  -2   4   0  133.22    9.12
  -2   4   0  130.57   10.69
  -2   4   0  139.57   12.34
   1  -4   0    6.63    2.08
   1  -4   0    7.57    2.40
   1  -4   0    7.50    2.32
   1  -4   0    3.91    2.61
   1  -4   0    3.67    2.33
  -1   4   0    5.40    2.24
  -1   4   0    7.18    1.52
  -1   4   0    3.73    2.07
  -1   4   0    4.80    2.68
  -1   4   0    5.82    2.59
   0  -4   0   22.31    3.61
   0  -4   0   16.81    3.48
   0  -4   0   21.40    3.70
   0  -4   0   17.99    3.47
   0  -4   0   18.31    3.26
   0   4   0   17.09    3.60
   0   4   0   17.75    3.20
   0   4   0   13.73    3.10
   0   4   0   16.52    3.57
  -1  -4   0   26.61    3.40
  -1  -4   0   35.88    4.85
  -1  -4   0   31.42    4.71
  -1  -4   0   27.95    4.32
   1   4   0   31.76    4.50
   1   4   0   26.92    4.36
   1   4   0   39.49    5.46
   1   4   0   31.55    4.53
   1   4   0   42.93    5.32
  -2  -4   0   31.40    4.45
  -2  -4   0   19.07    3.79
  -2  -4   0   19.96    2.29
  -2  -4   0   32.93    4.76
  -2  -4   0   25.23    4.40
   2   4   0   17.39    3.82
   2   4   0   32.96    4.65
   2   4   0   26.73    4.36
   2   4   0   20.87    4.51
  -3  -4   0   44.12    6.49
  -3  -4   0   68.41    7.73
   3   4   0   61.79    7.29
   3   4   0   50.92    6.70
   3   4   0   70.31    7.86
  -4  -4   0   19.40    4.96
  -4  -4   0   23.03    5.03
  -4  -4   0   12.63    4.10
   4   4   0   23.50    4.80
   4   4   0   18.65    4.49
   4   4   0   21.74    4.88
  -5  -4   0    9.42    4.12
  -5  -4   0   10.82    4.65
  -5  -4   0   10.20    3.53
  -5  -4   0   12.85    2.32
   5   4   0   16.22    4.56
   5   4   0   11.42    3.64
  -6  -4   0   82.19    9.91
  -6  -4   0   84.50    6.96
  -6  -4   0   50.34    8.86
   6   4   0   60.99    9.01
  -7  -4   0    8.99    4.98
  -7  -4   0   13.90    5.48
  -7  -4   0   16.65    6.03
   7   4   0   15.41    5.82
  -8  -4   0   18.46    6.23
  -8  -4   0   33.21    7.67
  -8  -4   0    8.16    5.12
   8   4   0   18.81    6.90
  -9  -4   0   23.06    7.42
  -9  -4   0   18.99    7.04
   9   4   0   21.31    7.88
  10  -5   0    0.62    6.10
  10  -5   0   -0.53    7.41
 -10   5   0   -3.23    4.40
 -10   5   0    5.39    6.48
   9  -5   0    5.98    5.79
   9  -5   0    4.28    6.34
  -9   5   0   -3.86    5.02
  -9   5   0    5.70    5.18
   8  -5   0   -2.07    6.05
   8  -5   0   -0.72    4.51
  -8   5   0    0.29    3.44
  -8   5   0    2.41    4.94
   7  -5   0   13.05    7.44
   7  -5   0   11.09    5.30
  -7   5   0   10.14    4.50
  -7   5   0   23.05    6.49
   6  -5   0   80.95   10.54
   6  -5   0   94.24   13.55
  -6   5   0   82.08   10.98
  -6   5   0   98.60    9.67
   5  -5   0   25.65    7.13
   5  -5   0   25.57    6.05
  -5   5   0   31.65    6.23
  -5   5   0   20.17    4.92
   4  -5   0    4.69    3.52
   4  -5   0    8.68    4.49
  -4   5   0    4.59    3.69
  -4   5   0    2.23    3.35
   3  -5   0   14.46    3.97
   3  -5   0   18.05    5.23
   3  -5   0    9.49    2.37
  -3   5   0   20.92    4.42
  -3   5   0   11.02    2.18
  -3   5   0   14.60    4.17
   2  -5   0    5.50    2.19
   2  -5   0    4.07    2.74
   2  -5   0    3.77    2.66
   2  -5   0    5.94    3.00
   2  -5   0    4.87    3.68
  -2   5   0    6.79    3.19
  -2   5   0    5.87    2.88
  -2   5   0   -0.88    2.37
  -2   5   0    5.80    3.35
  -2   5   0    3.16    1.27
   1  -5   0   69.09    6.91
   1  -5   0   64.27    7.40
   1  -5   0   60.80    5.90
   1  -5   0   73.87    6.90
   1  -5   0   64.38    7.50
  -1   5   0   74.22    7.08
  -1   5   0   68.19    6.78
  -1   5   0   63.68    5.16
  -1   5   0   66.92    7.16
  -1   5   0   65.43    6.85
   0  -5   0   61.25    7.43
   0  -5   0   53.81    6.52
   0  -5   0   54.99    6.12
   0  -5   0   68.24    7.37
   0  -5   0   60.27    6.33
   0   5   0   58.16    6.25
   0   5   0   61.19    7.05
   0   5   0   67.38    7.48
   0   5   0   56.74    6.06
  -1  -5   0   90.36    8.02
  -1  -5   0   90.39    7.87
  -1  -5   0   94.70    8.45
   1   5   0   85.36    8.17
   1   5   0   85.37    8.19
   1   5   0   81.47    8.10
  -2  -5   0   16.30    4.37
  -2  -5   0   20.56    4.32
  -2  -5   0   17.39    2.49
   2   5   0   14.42    3.89
   2   5   0   16.40    4.18
   2   5   0   18.51    4.26
  -3  -5   0   -1.93    2.65
  -3  -5   0    2.44    3.10
  -3  -5   0    3.15    3.61
   3   5   0    6.40    3.46
   3   5   0   -0.51    2.77
  -4  -5   0   -6.01    3.37
  -4  -5   0   -3.28    2.84
   4   5   0    0.81    3.10
  -5  -5   0   29.90    6.33
  -5  -5   0   40.74    6.36
  -5  -5   0   26.78    6.07
  -5  -5   0   28.85    6.21
   5   5   0   31.72    6.71
  -6  -5   0   11.05    5.10
  -6  -5   0    3.40    3.98
  -6  -5   0   11.01    4.75
   6   5   0    1.57    4.07
  -7  -5   0    3.76    4.64
  -7  -5   0    3.73    4.99
  -7  -5   0    5.68    4.92
   7   5   0   -2.18    4.12
  -8  -5   0    0.19    4.22
  -8  -5   0    4.87    5.13
  -8  -5   0   14.31    5.99
   8   5   0    0.13    5.12
  -9  -5   0    7.90    6.50
  -9  -5   0    9.94    5.86
   9   5   0    2.13    6.80
  10  -6   0    4.56    8.90
  10  -6   0   10.01    7.52
 -10   6   0   19.74    6.77
 -10   6   0   -1.15    6.52
   9  -6   0   -1.49    4.29
   9  -6   0    9.64    8.36
  -9   6   0   -0.27    5.49
  -9   6   0   -1.29    4.17
   8  -6   0    1.76    5.06
   8  -6   0   -2.27    6.30
  -8   6   0   -1.13    5.01
  -8   6   0    0.27    4.17
   7  -6   0   38.16    7.92
   7  -6   0   37.37   10.36
  -7   6   0   44.85    8.32
  -7   6   0   43.74    8.14
   6  -6   0   31.73    8.66
   6  -6   0   25.53    5.80
  -6   6   0   27.10    6.52
  -6   6   0   27.42    6.51
   5  -6   0   14.66    5.39
   5  -6   0   32.34    8.17
  -5   6   0   16.30    5.52
  -5   6   0   24.15    5.52
   4  -6   0   13.69    5.84
   4  -6   0    4.96    4.10
   4  -6   0    6.57    2.38
  -4   6   0   12.61    4.54
  -4   6   0    1.34    3.90
   3  -6   0    9.72    5.06
   3  -6   0    7.11    2.60
   3  -6   0    1.02    3.37
  -3   6   0    9.20    2.06
  -3   6   0    9.50    4.08
  -3   6   0   12.36    3.66
   2  -6   0   75.76    8.77
   2  -6   0   63.01    6.58
   2  -6   0   69.24    9.72
  -2   6   0   73.13    8.49
  -2   6   0   78.27    8.01
  -2   6   0   74.91    5.56
   1  -6   0    8.63    3.32
   1  -6   0    7.50    2.88
   1  -6   0   12.98    4.22
  -1   6   0    7.75    3.51
  -1   6   0    8.19    2.14
  -1   6   0    3.87    3.27
  -1   6   0    7.49    3.49
   0  -6   0   83.50    8.24
   0  -6   0   75.46    8.93
   0  -6   0   73.70    7.48
   0   6   0   74.56    8.86
   0   6   0   75.48    8.00
   0   6   0   85.52    8.00
  -1  -6   0  111.94   10.10
  -1  -6   0  109.87   10.41
  -1  -6   0  117.47   10.08
   1   6   0  125.15   10.55
   1   6   0  107.50   10.28
  -2  -6   0   28.08    5.60
  -2  -6   0   28.91    5.76
  -2  -6   0   32.25    3.87
   2   6   0   35.81    6.03
   2   6   0   30.31    5.82
  -3  -6   0    3.88    4.07
  -3  -6   0   -2.25    2.94
   3   6   0    8.02    3.70
   3   6   0    3.88    3.51
  -4  -6   0    0.49    3.83
  -4  -6   0    0.80    3.76
   4   6   0    9.02    4.30
  -5  -6   0    3.76    4.38
  -5  -6   0    4.08    3.98
   5   6   0    4.49    4.19
  -6  -6   0    5.35    4.60
  -6  -6   0    4.81    4.10
  -6  -6   0    1.44    3.62
   6   6   0    2.76    4.66
  -7  -6   0   -2.51    3.70
  -7  -6   0   -0.24    4.58
   7   6   0   -4.55    4.51
  -8  -6   0   -3.62    5.33
  -8  -6   0   -2.31    4.32
   8   6   0    9.93    6.79
   9  -7   0    0.90    5.78
   9  -7   0  -11.28    6.40
  -9   7   0   -1.15    4.34
  -9   7   0   -5.36    5.42
   8  -7   0    0.78    7.68
   8  -7   0   16.49    6.39
  -8   7   0   20.47    7.09
  -8   7   0   23.28    6.69
   7  -7   0    0.26    4.36
   7  -7   0   -6.30    5.28
  -7   7   0    5.55    5.42
  -7   7   0    1.61    4.46
   6  -7   0   21.71    6.26
   6  -7   0   23.85    8.87
  -6   7   0   35.01    7.04
  -6   7   0   50.97    8.59
   5  -7   0    4.59    4.10
   5  -7   0   -2.17    5.07
  -5   7   0    0.36    4.00
  -5   7   0    0.21    4.04
   4  -7   0   11.38    2.97
   4  -7   0    2.99    5.33
   4  -7   0    2.06    3.99
  -4   7   0    7.72    4.37
  -4   7   0   11.45    4.64
   3  -7   0   56.27    8.26
   3  -7   0   62.91    7.17
   3  -7   0   69.91   10.60
  -3   7   0   61.85    4.99
  -3   7   0   58.14    8.55
  -3   7   0   66.26    8.48
   2  -7   0    3.50    3.54
   2  -7   0    2.71    4.21
   2  -7   0    2.31    2.64
  -2   7   0    1.17    1.52
  -2   7   0    5.44    3.86
  -2   7   0    7.20    3.72
   1  -7   0    7.24    3.34
   1  -7   0    3.08    4.02
   1  -7   0    3.91    3.66
  -1   7   0    5.31    2.00
  -1   7   0    0.52    2.99
  -1   7   0    2.70    3.34
  -1   7   0    7.69    3.85
   0  -7   0  196.69   15.83
   0  -7   0  212.56   16.87
   0  -7   0  197.88   17.57
   0   7   0  219.54   17.68
   0   7   0  200.85   16.95
   0   7   0  213.87   16.76
  -1  -7   0    1.26    3.33
  -1  -7   0    5.66    3.76
  -1  -7   0    1.31    2.88
   1   7   0    2.53    3.59
   1   7   0   -2.11    3.30
  -2  -7   0   -0.17    2.13
  -2  -7   0    4.09    4.20
  -2  -7   0    2.54    3.75
   2   7   0    5.48    3.96
   2   7   0    3.23    3.53
  -3  -7   0   56.99    8.49
  -3  -7   0   59.74    8.52
   3   7   0   61.03    8.50
   3   7   0   47.26    7.72
  -4  -7   0   39.17    7.50
  -4  -7   0   43.54    7.45
   4   7   0   27.48    6.05
   4   7   0   45.23    7.75
  -5  -7   0   18.52    6.11
  -5  -7   0    6.43    4.56
   5   7   0   -0.70    4.47
  -6  -7   0    0.00    4.46
  -6  -7   0    4.99    5.30
   6   7   0    4.65    5.27
  -7  -7   0    7.18    5.98
  -7  -7   0    9.60    5.78
  -7  -7   0   15.46    7.34
   7   7   0   14.23    6.94
  -8  -7   0   -4.25    4.58
  -8  -7   0   -2.78    4.51
   9  -8   0  -12.23    7.10
   9  -8   0   -3.76    5.90
  -9   8   0   -4.21    4.42
  -9   8   0   -2.71    5.86
   8  -8   0   -3.41    7.83
   8  -8   0    2.76    6.08
  -8   8   0    8.00    5.23
  -8   8   0    0.16    5.76
   7  -8   0   94.06   13.08
   7  -8   0  100.46   16.75
  -7   8   0  108.80   14.29
  -7   8   0   73.14   11.70
   6  -8   0   -4.86    3.84
   6  -8   0   -5.85    5.62
  -6   8   0   -1.85    4.95
  -6   8   0   -5.70    3.26
   5  -8   0   14.20    7.23
   5  -8   0   15.12    5.38
   5  -8   0    9.58    3.05
  -5   8   0   15.17    5.55
  -5   8   0   20.09    6.14
   4  -8   0   46.11    8.03
   4  -8   0   47.40    6.00
   4  -8   0   54.78   11.05
  -4   8   0   34.33    7.70
  -4   8   0   50.46    8.45
   3  -8   0   -2.15    4.68
   3  -8   0    1.93    3.51
   3  -8   0   -2.43    2.16
  -3   8   0   -0.63    3.25
  -3   8   0   -2.61    3.50
   2  -8   0   -0.65    3.01
   2  -8   0    3.53    5.05
   2  -8   0    1.21    3.70
  -2   8   0    3.65    3.78
  -2   8   0   -1.04    3.49
   1  -8   0    4.11    3.87
   1  -8   0   -0.65    2.83
   1  -8   0   -2.12    3.76
  -1   8   0    1.47    1.85
  -1   8   0    0.86    3.66
  -1   8   0    5.86    4.20
   0  -8   0   -1.25    3.42
   0  -8   0   -1.87    3.53
   0  -8   0   -5.11    2.91
   0   8   0   -1.11    2.54
   0   8   0   -5.60    3.25
   0   8   0    3.23    2.56
   0   8   0    7.47    2.76
  -1  -8   0   -4.10    2.77
  -1  -8   0    8.20    4.15
  -1  -8   0    8.89    4.68
   1   8   0   -2.63    3.38
   1   8   0    0.31    3.67
  -2  -8   0   30.82    6.50
  -2  -8   0   50.43    7.94
   2   8   0   28.79    6.55
   2   8   0   41.78    7.16
  -3  -8   0   51.02    8.27
  -3  -8   0   52.16    8.28
   3   8   0   51.07    8.46
   3   8   0   42.03    7.42
  -4  -8   0   41.53    7.68
  -4  -8   0   52.59    8.86
   4   8   0   39.45    8.46
  -5  -8   0   19.54    6.74
  -5  -8   0   10.46    5.47
   5   8   0   10.34    5.84
   5   8   0   12.50    4.48
  -6  -8   0    0.03    5.36
  -6  -8   0   10.43    5.97
   6   8   0   12.68    6.86
   6   8   0   14.16    5.06
  -7  -8   0   -1.32    5.56
   7   8   0   -4.86    5.92
   8  -9   0    7.61    9.13
   8  -9   0    5.32    6.73
  -8   9   0    3.77    5.62
  -8   9   0    0.64    4.99
   7  -9   0    4.63    5.95
   7  -9   0  -11.87    6.57
  -7   9   0    0.36    4.73
  -7   9   0    0.55    4.53
   6  -9   0    2.48    5.10
   6  -9   0    1.64    7.22
  -6   9   0    2.21    5.32
  -6   9   0    1.35    4.41
   5  -9   0   22.86    9.09
   5  -9   0   22.67    6.84
   5  -9   0   28.50    5.09
  -5   9   0   34.60    7.68
  -5   9   0   38.94    8.43
   4  -9   0   29.50    9.70
   4  -9   0   34.45    7.74
   4  -9   0   32.73    5.64
  -4   9   0   30.56    7.30
  -4   9   0   28.56    6.77
   3  -9   0   44.42    6.90
   3  -9   0   33.73    8.97
   3  -9   0   51.74    8.48
  -3   9   0   36.26    7.70
  -3   9   0   42.93    8.06
   2  -9   0   17.36    4.74
   2  -9   0    5.24    4.29
   2  -9   0   -1.23    4.80
  -2   9   0    4.02    3.57
  -2   9   0   11.98    4.87
   1  -9   0   15.95    5.12
   1  -9   0   24.30    5.78
   1  -9   0   11.36    5.50
  -1   9   0   12.61    5.20
  -1   9   0   16.25    5.58
   0  -9   0   -1.30    3.23
   0  -9   0   -2.69    3.98
   0  -9   0    1.28    3.98
   0   9   0   -2.79    3.59
   0   9   0   -1.88    2.57
   0   9   0   -5.04    3.19
  -1  -9   0    6.01    3.98
  -1  -9   0    6.21    4.69
  -1  -9   0    8.20    4.49
   1   9   0    7.59    4.83
   1   9   0    7.02    4.73
  -2  -9   0   53.74    8.60
  -2  -9   0   56.01    8.71
   2   9   0   45.58    8.62
   2   9   0   25.57    6.28
  -3  -9   0   21.06    6.58
  -3  -9   0   23.92    6.18
   3   9   0   21.19    6.59
   3   9   0   25.06    6.32
  -4  -9   0   -5.00    4.00
  -4  -9   0    1.27    4.83
   4   9   0    0.06    3.34
   4   9   0    0.05    5.33
  -5  -9   0    0.73    5.06
  -5  -9   0    3.76    5.23
   5   9   0    1.65    6.05
   5   9   0    9.85    4.89
  -6  -9   0    0.60    5.72
   6   9   0    5.07    4.44
   6   9   0    0.08    6.70
   7 -10   0    0.16    5.78
   7 -10   0   -4.98    8.28
  -7  10   0  -11.74    5.57
  -7  10   0   -2.89    4.97
   6 -10   0   -9.29    4.59
   6 -10   0   -6.14    7.16
  -6  10   0   -1.00    4.34
  -6  10   0    4.14    6.38
   5 -10   0   43.61    9.16
   5 -10   0    8.67    8.58
  -5  10   0   27.76    7.53
  -5  10   0   29.14    8.12
   4 -10   0  132.38   19.09
   4 -10   0  145.80   15.41
   4 -10   0  158.05   13.06
  -4  10   0  173.67   15.95
  -4  10   0  155.38   16.19
   3 -10   0   -0.54    3.33
   3 -10   0    3.53    4.92
   3 -10   0   -2.88    6.29
  -3  10   0   -4.60    3.94
  -3  10   0   -3.28    3.95
   2 -10   0   11.49    6.80
   2 -10   0   21.96    6.06
   2 -10   0   19.88    6.38
  -2  10   0   15.90    5.92
  -2  10   0   10.78    5.81
   1 -10   0   10.32    4.87
   1 -10   0    2.60    5.08
   1 -10   0    5.51    5.19
  -1  10   0    3.47    4.89
  -1  10   0    6.73    5.34
   0 -10   0    8.87    4.97
   0 -10   0    5.51    4.48
   0 -10   0    7.98    5.04
   0  10   0   11.51    5.77
   0  10   0    4.69    4.81
  -1 -10   0    2.27    4.52
  -1 -10   0    5.84    5.27
   1  10   0   -5.00    4.72
   1  10   0   -1.73    4.31
  -2 -10   0   35.65    7.77
  -2 -10   0   20.90    7.03
   2  10   0   28.56    7.77
   2  10   0   28.27    7.15
  -3 -10   0   10.55    5.42
  -3 -10   0    6.86    5.19
   3  10   0    0.81    5.55
   3  10   0   10.66    5.32
  -4 -10   0   13.12    6.10
  -4 -10   0    5.71    5.64
   4  10   0    3.05    4.25
   4  10   0   -0.80    5.91
  -5 -10   0    8.56    6.22
  -5 -10   0    9.06    5.97
   6 -11   0    4.12    6.71
   6 -11   0   -8.06    7.62
  -6  11   0   -0.74    6.40
  -6  11   0    1.59    5.35
   5 -11   0   52.34   10.65
   5 -11   0   28.07   11.81
  -5  11   0   40.25    8.53
  -5  11   0   58.16   11.13
   4 -11   0    6.90    5.96
   4 -11   0   -8.25    5.80
   4 -11   0    4.78    4.39
  -4  11   0   -0.86    5.01
  -4  11   0    4.67    5.99
   3 -11   0   -4.58    6.02
   3 -11   0    3.30    4.60
   3 -11   0   -3.43    4.74
  -3  11   0    3.31    5.02
  -3  11   0   -7.20    4.43
   2 -11   0   16.37    5.90
   2 -11   0   17.16    7.83
   2 -11   0   12.11    6.53
  -2  11   0   14.19    6.64
  -2  11   0   17.72    6.98
   1 -11   0   37.36    7.79
   1 -11   0   19.86    7.71
   1 -11   0   21.51    7.19
  -1  11   0   20.91    7.30
  -1  11   0    7.56    5.86
   0 -11   0    4.68    5.78
   0 -11   0   -5.94    3.74
   0  11   0   -4.89    4.68
   0  11   0    6.87    5.64
  -1 -11   0   -5.37    4.74
  -1 -11   0    4.91    5.61
   1  11   0   -2.02    5.60
   1  11   0    2.82    5.06
  -2 -11   0   16.81    7.20
  -2 -11   0   21.54    7.14
   2  11   0   12.55    7.13
   2  11   0    8.68    6.30
  -3 -11   0    1.26    5.26
   3  11   0    8.97    7.45
   3  11   0    4.46    5.08
   4 -12   0  -12.10    7.04
   3 -12   0   -2.34    4.81
   3 -12   0   -3.27    5.92
   3 -12   0   -0.57    7.25
  -3  12   0    0.20    6.19
  -3  12   0   -8.39    5.21
   2 -12   0   10.69    6.68
   2 -12   0   13.23    6.52
  -2  12   0    1.63    4.85
  -2  12   0    5.33    6.66
   1 -12   0   30.21    8.15
   1 -12   0   25.38    7.68
  -1  12   0   23.95    8.91
  -1  12   0   18.05    7.63
   0 -12   0    2.74    5.79
   0 -12   0    4.26    6.35
   0  12   0  -11.15    4.63
   0  12   0   -2.82    5.93
  -1 -12   1    6.98    5.86
   0  12  -1   32.28    8.71
   0  12  -1   31.84    9.17
   0 -12   1   31.08    8.80
   0 -12   1   26.47    7.68
  -1  12  -1   -0.51    6.24
  -1  12  -1    3.18    6.27
   1 -12   1    1.32    6.17
   1 -12   1    4.82    4.98
  -2  12  -1   27.10    8.97
  -2  12  -1   13.73    7.33
   2 -12   1   21.49    7.97
   2 -12   1   16.53    6.62
  -3  12  -1   -0.21    5.62
  -3  12  -1   -2.64    4.00
   3 -12   1   -1.16    5.63
   3 -12   1   -8.85    6.53
  -4  12  -1   -5.20    5.06
  -4  12  -1   -1.57    6.27
   4 -12   1    9.40    7.04
   4 -12   1   -2.48    7.82
   3  11  -1   -1.26    4.49
   3  11  -1    8.46    6.97
  -3 -11   1    1.63    5.41
  -3 -11   1    1.65    5.33
   2  11  -1    1.63    6.22
   2  11  -1    6.26    5.78
  -2 -11   1    9.96    6.02
  -2 -11   1    0.51    5.42
   1  11  -1   24.42    7.95
   1  11  -1   34.27    8.25
  -1 -11   1   39.85    8.31
  -1 -11   1   46.53    9.35
   0  11  -1   -5.03    3.17
   0  11  -1   -0.28    4.89
   0 -11   1   -0.29    4.95
   0 -11   1    4.98    5.43
  -1  11  -1    0.48    4.79
  -1  11  -1    7.54    5.45
   1 -11   1    5.80    5.65
   1 -11   1   -8.75    4.81
   1 -11   1    5.40    5.20
  -2  11  -1   -8.44    4.38
  -2  11  -1   -0.57    4.83
   2 -11   1    1.11    4.78
   2 -11   1   -8.86    5.11
   2 -11   1    3.04    4.42
  -3  11  -1    1.59    5.03
  -3  11  -1   -1.13    5.17
   3 -11   1    0.50    3.64
   3 -11   1    9.89    5.86
   3 -11   1   -5.09    6.10
  -4  11  -1   -3.20    4.71
  -4  11  -1    0.19    5.35
   4 -11   1  -14.35    6.66
   4 -11   1   -0.58    5.66
  -5  11  -1   40.70    9.18
  -5  11  -1   15.97    7.14
   5 -11   1   12.12    7.18
   5 -11   1   15.34   10.42
  -6  11  -1   30.28    8.78
  -6  11  -1   52.88   11.14
   6 -11   1   17.06   11.07
   6 -11   1   13.44    7.02
   5  10  -1   11.64    5.21
   5  10  -1   -3.35    6.08
  -5 -10   1    1.39    6.04
  -5 -10   1   13.16    6.63
   4  10  -1    4.67    4.90
   4  10  -1   13.11    7.11
  -4 -10   1    3.58    5.82
  -4 -10   1   17.85    6.79
   3  10  -1   21.28    7.64
   3  10  -1   24.38    6.77
  -3 -10   1   18.07    6.30
  -3 -10   1   20.64    6.63
   2  10  -1   43.87    8.51
   2  10  -1   60.08   10.18
  -2 -10   1   48.58    8.91
  -2 -10   1   40.38    8.63
   1  10  -1   12.31    6.12
   1  10  -1   12.01    4.57
   1  10  -1   15.04    5.22
  -1 -10   1   23.97    6.80
  -1 -10   1   15.19    6.06
   0  10  -1    2.06    4.55
   0  10  -1    7.02    4.95
   0 -10   1    3.18    4.34
   0 -10   1    1.80    4.46
   0 -10   1   -8.06    3.62
  -1  10  -1   -6.16    3.31
  -1  10  -1   -1.58    3.93
   1 -10   1   -6.04    4.52
   1 -10   1    0.11    3.71
   1 -10   1   -0.67    4.49
  -2  10  -1    4.34    4.88
  -2  10  -1   -6.69    3.65
   2 -10   1    5.05    5.01
   2 -10   1   -4.87    4.50
   2 -10   1    2.03    3.66
  -3  10  -1   12.96    5.90
  -3  10  -1   11.29    5.35
   3 -10   1   11.76    6.81
   3 -10   1   12.24    5.88
   3 -10   1   13.14    4.55
  -4  10  -1   12.68    6.12
  -4  10  -1    0.09    4.63
   4 -10   1   -7.57    6.01
   4 -10   1    2.59    5.02
  -5  10  -1   21.25    7.80
  -5  10  -1   36.81    8.28
   5 -10   1   31.27   10.55
   5 -10   1   34.28    8.42
  -6  10  -1   14.34    7.49
  -6  10  -1   18.18    6.88
   6 -10   1   27.09    7.67
   6 -10   1    3.26    8.50
  -7  10  -1    5.90    5.49
  -7  10  -1   -2.28    6.31
   7 -10   1    1.99    5.83
   7 -10   1   -3.57    8.65
   6   9  -1    6.02    4.10
   6   9  -1   -8.39    6.17
  -6  -9   1   -1.66    6.79
  -6  -9   1    9.01    6.66
   5   9  -1    4.50    4.07
   5   9  -1   -3.60    5.48
  -5  -9   1   -1.55    5.51
  -5  -9   1    0.61    5.01
   4   9  -1   -0.69    5.08
   4   9  -1    7.53    4.25
  -4  -9   1   -3.35    4.75
  -4  -9   1    0.32    4.85
   3   9  -1   63.36   10.02
   3   9  -1   40.17    7.70
  -3  -9   1   55.60    9.20
  -3  -9   1   62.26    9.29
   2   9  -1    5.06    4.64
   2   9  -1    3.77    4.03
  -2  -9   1    4.45    4.17
  -2  -9   1   13.00    5.19
   1   9  -1    5.06    4.45
   1   9  -1   -1.39    3.64
   1   9  -1    0.33    3.33
  -1  -9   1    3.46    4.81
  -1  -9   1   -2.59    3.43
  -1  -9   1   13.75    5.31
   0   9  -1   15.59    4.02
   0   9  -1   17.39    5.92
   0   9  -1   15.62    5.40
   0  -9   1   11.60    5.49
   0  -9   1   31.39    6.08
   0  -9   1    9.70    5.19
  -1   9  -1   21.01    3.99
  -1   9  -1   27.40    6.39
  -1   9  -1   23.17    6.17
   1  -9   1   27.02    6.91
   1  -9   1   34.12    7.52
   1  -9   1   28.01    5.85
  -2   9  -1   88.66   11.94
  -2   9  -1  109.77   13.09
   2  -9   1  106.72   12.85
   2  -9   1  127.13   13.98
   2  -9   1  120.16   10.42
  -3   9  -1   -3.12    3.68
  -3   9  -1    3.33    4.40
   3  -9   1    6.84    4.12
   3  -9   1    1.16    5.84
   3  -9   1   -2.48    2.55
  -4   9  -1   56.52    9.36
  -4   9  -1   40.08    8.01
   4  -9   1   38.24   10.10
   4  -9   1   37.52    7.74
   4  -9   1   29.39    5.12
  -5   9  -1   23.77    6.95
  -5   9  -1   18.62    6.88
   5  -9   1   22.60    6.81
   5  -9   1   30.54   10.13
  -6   9  -1   -1.19    4.85
  -6   9  -1   -6.73    3.88
   6  -9   1   -5.27    3.89
   6  -9   1  -10.22    5.90
  -7   9  -1   -0.26    4.34
  -7   9  -1   -5.95    5.60
   7  -9   1   -1.02    8.19
   7  -9   1   -0.47    5.02
  -8   9  -1   14.91    7.38
  -8   9  -1   22.38    7.20
   8  -9   1   24.80   11.26
   8  -9   1   11.07    7.41
   7   8  -1    2.13    6.73
  -7  -8   1   -1.53    5.63
  -7  -8   1   -1.35    6.58
   6   8  -1   -5.68    4.67
   6   8  -1    9.44    4.29
  -6  -8   1    7.78    5.52
  -6  -8   1   -4.02    4.84
   5   8  -1    8.65    4.24
   5   8  -1    2.86    5.00
  -5  -8   1    3.41    5.35
  -5  -8   1    7.79    4.73
   4   8  -1   24.94    6.92
   4   8  -1   19.75    5.20
  -4  -8   1   17.45    6.06
  -4  -8   1   10.19    5.46
   3   8  -1   80.28   10.58
   3   8  -1   69.90    9.21
  -3  -8   1   60.31    9.21
  -3  -8   1   57.38    9.28
   2   8  -1   15.60    5.32
   2   8  -1   14.99    4.71
  -2  -8   1   23.54    6.24
  -2  -8   1   24.67    5.84
  -2  -8   1   26.08    4.63
   1   8  -1    1.98    3.70
   1   8  -1    3.09    3.70
  -1  -8   1    0.61    3.30
  -1  -8   1    6.64    3.60
  -1  -8   1   -2.45    2.87
   0   8  -1   18.64    5.33
   0   8  -1   20.08    5.18
   0   8  -1   22.08    4.32
   0  -8   1   22.51    5.62
   0  -8   1   22.36    5.19
   0  -8   1    6.79    4.30
  -1   8  -1   38.70    7.00
  -1   8  -1   40.51    6.86
  -1   8  -1   31.33    4.60
   1  -8   1   39.87    7.60
   1  -8   1   23.07    6.48
   1  -8   1   41.50    6.38
  -2   8  -1    9.07    2.49
  -2   8  -1    1.98    3.57
  -2   8  -1    7.94    4.61
   2  -8   1    3.40    3.25
   2  -8   1    9.08    5.20
   2  -8   1    6.84    4.21
  -3   8  -1   45.71    5.03
  -3   8  -1   49.01    8.31
  -3   8  -1   49.42    7.71
   3  -8   1   50.54    6.26
   3  -8   1   40.71    8.99
   3  -8   1   40.81    7.69
  -4   8  -1    5.29    4.73
  -4   8  -1   -1.40    3.49
   4  -8   1    3.89    4.26
   4  -8   1   -2.02    5.21
   4  -8   1    1.61    1.98
  -5   8  -1    3.20    4.80
  -5   8  -1    8.25    4.79
   5  -8   1   10.45    6.64
   5  -8   1    3.41    3.81
  -6   8  -1    1.38    5.01
  -6   8  -1    5.58    4.73
   6  -8   1    6.76    5.10
   6  -8   1   -6.92    5.79
  -7   8  -1    4.24    6.02
  -7   8  -1   11.26    5.43
   7  -8   1    5.03    7.43
   7  -8   1    4.73    5.33
  -8   8  -1   45.65    9.70
   8  -8   1   25.69    7.89
   8  -8   1   33.71   11.70
  -9   8  -1   20.02    8.48
  -9   8  -1    0.84    4.69
   9  -8   1    1.67    9.00
   9  -8   1    2.33    6.82
   8   7  -1   11.80    7.58
  -8  -7   1    6.59    5.60
  -8  -7   1   11.78    7.06
   7   7  -1    3.77    5.80
  -7  -7   1    0.57    4.95
  -7  -7   1   -3.58    2.99
   6   7  -1   26.52    7.36
  -6  -7   1   36.82    7.88
  -6  -7   1   23.53    6.69
  -6  -7   1   23.71    6.69
   5   7  -1    0.24    4.46
  -5  -7   1   11.73    5.38
  -5  -7   1    0.52    4.87
   4   7  -1   19.35    5.17
   4   7  -1   24.22    5.89
  -4  -7   1   10.45    4.99
  -4  -7   1   21.08    5.90
   3   7  -1   43.76    7.26
   3   7  -1   53.70    8.18
  -3  -7   1   57.14    8.48
  -3  -7   1   62.05    8.60
  -3  -7   1   56.10    5.22
   2   7  -1   13.03    4.31
   2   7  -1    9.26    4.53
  -2  -7   1   14.56    4.66
  -2  -7   1   19.03    3.72
  -2  -7   1   21.15    5.63
   1   7  -1   41.43    6.92
   1   7  -1   40.88    6.45
  -1  -7   1   42.46    6.30
  -1  -7   1   38.72    6.60
  -1  -7   1   55.26    7.23
   0   7  -1   76.32   10.11
   0   7  -1   91.44    8.26
   0   7  -1  121.12   10.09
   0   7  -1   97.03    9.50
   0  -7   1   97.65   11.03
   0  -7   1   91.72    9.89
   0  -7   1   88.42    8.79
  -1   7  -1    2.88    2.15
  -1   7  -1    3.71    3.58
  -1   7  -1   -1.92    2.74
   1  -7   1    2.48    4.11
   1  -7   1    0.78    3.51
   1  -7   1    5.38    2.78
  -2   7  -1    1.24    1.85
  -2   7  -1   -0.85    3.03
  -2   7  -1    1.28    3.36
   2  -7   1    3.83    4.73
   2  -7   1    3.80    3.61
   2  -7   1    0.89    2.35
  -3   7  -1   16.69    2.94
  -3   7  -1   12.60    4.69
  -3   7  -1   14.08    4.89
   3  -7   1   11.07    5.66
   3  -7   1    9.71    3.68
   3  -7   1   14.14    3.22
  -4   7  -1    2.37    4.06
  -4   7  -1    1.55    2.13
  -4   7  -1    2.41    3.96
   4  -7   1    1.71    1.90
   4  -7   1    5.00    3.41
   4  -7   1   -1.79    4.90
  -5   7  -1    2.66    4.30
  -5   7  -1   -1.35    2.35
  -5   7  -1    3.27    4.02
   5  -7   1    2.39    5.47
   5  -7   1    2.34    3.14
  -6   7  -1    0.84    3.84
  -6   7  -1    0.07    4.89
   6  -7   1   -0.46    4.26
   6  -7   1    2.67    6.09
  -7   7  -1   80.81   11.47
  -7   7  -1   72.82   10.85
   7  -7   1   75.02   11.22
   7  -7   1   72.05   13.70
  -8   7  -1   32.09    7.55
  -8   7  -1   41.14    8.59
   8  -7   1   27.50   10.20
   8  -7   1   51.11    9.83
  -9   7  -1    2.18    4.64
  -9   7  -1   -1.66    6.33
   9  -7   1   -2.24    6.27
   9  -7   1    9.88    8.82
   8   6  -1   -1.12    5.74
  -8  -6   1   -1.60    4.37
  -8  -6   1    1.50    5.56
  -8  -6   1   -9.82    4.77
   7   6  -1   27.33    7.95
  -7  -6   1   18.81    6.61
  -7  -6   1   20.01    6.56
  -7  -6   1   14.66    6.61
   6   6  -1    0.98    4.36
  -6  -6   1   -8.28    3.51
  -6  -6   1   -2.31    2.52
   5   6  -1   10.61    4.79
  -5  -6   1   11.42    5.08
  -5  -6   1    9.58    4.60
   4   6  -1   34.65    6.53
  -4  -6   1   42.53    6.98
  -4  -6   1   37.73    6.94
  -4  -6   1   32.76    6.56
   3   6  -1    7.92    3.97
   3   6  -1    0.86    2.78
  -3  -6   1   13.99    4.68
  -3  -6   1    5.94    3.44
  -3  -6   1   10.45    2.25
   2   6  -1    3.12    3.02
   2   6  -1    1.04    3.25
  -2  -6   1    3.71    3.39
  -2  -6   1    3.03    3.60
  -2  -6   1    6.18    2.49
   1   6  -1   22.09    4.91
   1   6  -1   18.44    4.21
  -1  -6   1   22.95    4.41
  -1  -6   1   25.78    4.91
  -1  -6   1   25.51    4.79
   0   6  -1   92.33    9.10
   0   6  -1   90.08    7.99
   0   6  -1   98.57    9.35
   0   6  -1  107.68    9.62
   0  -6   1  100.27    8.55
   0  -6   1   94.99    9.72
   0  -6   1   98.62    9.33
  -1   6  -1   80.10    8.39
  -1   6  -1   91.71    7.20
  -1   6  -1   77.42    8.52
  -1   6  -1   98.93    9.46
   1  -6   1   92.97    8.51
   1  -6   1   85.86    7.67
   1  -6   1  100.48    9.70
   1  -6   1   90.93    8.54
  -2   6  -1    4.62    1.97
  -2   6  -1    7.27    3.52
  -2   6  -1    7.76    3.11
   2  -6   1    3.81    2.14
   2  -6   1    6.54    3.41
   2  -6   1    2.02    4.03
  -3   6  -1    6.38    3.69
  -3   6  -1    7.36    2.18
  -3   6  -1   10.28    4.18
   3  -6   1    4.99    2.15
   3  -6   1   -0.20    3.18
   3  -6   1    0.71    4.03
  -4   6  -1   22.98    5.34
  -4   6  -1   17.40    3.35
  -4   6  -1   22.93    5.09
   4  -6   1   30.72    5.73
   4  -6   1   21.27    6.60
   4  -6   1   16.40    2.94
  -5   6  -1    0.55    2.38
  -5   6  -1    3.81    4.30
  -5   6  -1    2.10    3.71
   5  -6   1    3.67    3.68
   5  -6   1    4.61    5.83
  -6   6  -1   65.95    9.57
  -6   6  -1   59.75    9.11
   6  -6   1   57.82   11.41
   6  -6   1   67.93    9.29
  -7   6  -1   29.73    7.44
   7  -6   1   43.72    8.18
   7  -6   1   35.82    9.38
  -8   6  -1    2.30    5.06
  -8   6  -1    1.74    4.17
   8  -6   1    0.08    4.77
   8  -6   1   -7.70    5.24
  -9   6  -1    4.66    5.87
  -9   6  -1    0.70    4.50
   9  -6   1    8.28    6.28
   9  -6   1    2.72    7.71
 -10   6  -1    7.44    5.73
 -10   6  -1    3.76    7.33
  10  -6   1    8.97    7.22
  10  -6   1    5.11    9.39
   9   5  -1    4.86    7.48
  -9  -5   1    4.91    4.62
  -9  -5   1   -9.20    4.56
  -9  -5   1    3.22    6.00
   8   5  -1   68.22   11.07
  -8  -5   1   26.46    7.46
  -8  -5   1   47.78    9.53
  -8  -5   1   48.76    9.16
   7   5  -1    4.37    4.75
  -7  -5   1    6.00    5.35
  -7  -5   1   -4.74    3.09
   6   5  -1    6.76    4.23
  -6  -5   1    0.93    3.14
  -6  -5   1    1.96    4.08
   5   5  -1   -1.58    3.02
  -5  -5   1   -0.76    1.89
  -5  -5   1   -4.50    2.07
  -5  -5   1    0.14    4.06
   4   5  -1    2.70    3.61
  -4  -5   1    5.25    3.73
  -4  -5   1    4.99    2.27
  -4  -5   1    5.51    1.67
  -4  -5   1    4.05    4.25
   3   5  -1   43.30    6.54
  -3  -5   1   36.62    4.00
  -3  -5   1   38.33    6.13
  -3  -5   1   29.88    5.78
   2   5  -1    4.22    2.58
   2   5  -1    1.47    2.34
   2   5  -1   -1.55    2.02
  -2  -5   1    3.39    2.86
  -2  -5   1    1.17    1.84
  -2  -5   1   -2.64    2.68
   1   5  -1  182.48   16.01
   1   5  -1  226.24   16.46
   1   5  -1  198.67   16.16
  -1  -5   1  235.58   15.88
  -1  -5   1  229.28   17.60
  -1  -5   1  223.99   16.47
   0   5  -1  129.02    9.67
   0   5  -1  110.97    9.74
   0   5  -1   93.65    8.88
   0   5  -1  103.99    9.97
   0   5  -1   97.14    9.12
   0  -5   1  104.01    8.45
   0  -5   1  105.34    9.81
   0  -5   1   97.33    9.13
   0  -5   1  115.14    9.29
   0  -5   1   99.10    8.94
  -1   5  -1   17.44    4.01
  -1   5  -1   20.15    4.30
  -1   5  -1   19.91    4.33
  -1   5  -1   12.62    3.29
  -1   5  -1   23.31    4.77
  -1   5  -1   22.65    3.11
   1  -5   1   19.73    3.29
   1  -5   1   15.77    4.41
   1  -5   1   22.47    4.24
   1  -5   1   20.38    4.34
   1  -5   1   24.09    3.89
  -2   5  -1   31.69    5.82
  -2   5  -1   27.69    5.17
  -2   5  -1   34.21    3.91
  -2   5  -1   31.26    5.30
  -2   5  -1   34.35    5.79
  -2   5  -1   28.59    4.86
   2  -5   1   32.88    6.11
   2  -5   1   39.47    4.18
   2  -5   1   28.44    5.16
   2  -5   1   41.62    5.55
   2  -5   1   39.08    5.60
  -3   5  -1   21.05    4.83
  -3   5  -1   17.22    4.35
  -3   5  -1   20.03    4.72
  -3   5  -1   17.14    2.97
   3  -5   1   22.03    2.87
   3  -5   1   21.67    5.49
   3  -5   1   20.69    4.56
  -4   5  -1   76.42    7.73
  -4   5  -1   71.57    6.58
  -4   5  -1   78.23    9.22
  -4   5  -1   72.78    7.92
   4  -5   1   81.81   11.03
   4  -5   1   75.66    8.98
  -5   5  -1   53.84    8.43
  -5   5  -1   77.38    9.27
  -5   5  -1   69.49    8.46
   5  -5   1   59.24    8.59
   5  -5   1   70.67   11.05
  -6   5  -1    0.92    3.65
  -6   5  -1   -1.28    4.03
  -6   5  -1   -5.42    2.73
   6  -5   1    3.17    3.41
   6  -5   1   -0.72    3.93
  -7   5  -1   -1.96    3.98
  -7   5  -1    0.73    3.81
   7  -5   1   -1.32    4.20
   7  -5   1   -1.50    4.29
  -8   5  -1   -2.89    4.26
  -8   5  -1   -0.46    3.76
   8  -5   1   -2.10    4.51
   8  -5   1   -1.54    6.37
  -9   5  -1    0.44    4.23
  -9   5  -1   -3.45    5.43
   9  -5   1   -0.66    6.53
   9  -5   1    7.00    6.36
 -10   5  -1   22.04    8.06
 -10   5  -1   -0.17    5.03
  10  -5   1    4.56    8.04
  10  -5   1   18.23    8.00
   9   4  -1   -1.93    5.70
  -9  -4   1   -0.53    4.55
  -9  -4   1    1.07    5.45
   8   4  -1   18.77    6.52
  -8  -4   1    5.22    4.56
  -8  -4   1    9.14    5.47
   7   4  -1   22.53    6.39
  -7  -4   1   23.59    6.67
  -7  -4   1   13.25    5.30
   6   4  -1   15.53    5.38
   6   4  -1   29.24    5.21
  -6  -4   1   22.25    5.82
  -6  -4   1   14.10    3.85
  -6  -4   1   26.06    6.42
   5   4  -1    8.13    4.27
   5   4  -1    8.89    3.48
  -5  -4   1    1.87    4.05
  -5  -4   1    6.02    4.07
  -5  -4   1    1.00    2.68
   4   4  -1   59.67    7.70
   4   4  -1   70.91    7.36
  -4  -4   1   75.02    8.67
  -4  -4   1   63.76    6.50
  -4  -4   1   56.50    7.91
   3   4  -1   -3.38    2.62
   3   4  -1    2.91    3.01
   3   4  -1    0.09    2.49
  -3  -4   1    5.62    3.06
  -3  -4   1    2.25    3.19
   2   4  -1  146.63   11.87
   2   4  -1  160.51   12.68
   2   4  -1  146.31   11.76
   2   4  -1  157.70   11.57
  -2  -4   1  149.87   11.70
  -2  -4   1  146.45   11.95
  -2  -4   1  134.14   11.22
   1   4  -1   68.96    6.22
   1   4  -1   64.50    6.01
   1   4  -1   63.32    6.15
   1   4  -1   68.03    6.95
   1   4  -1   70.21    6.21
  -1  -4   1   63.37    6.20
  -1  -4   1   69.93    6.17
  -1  -4   1   65.76    6.57
  -1  -4   1   61.03    6.04
   0   4  -1    1.11    2.23
   0   4  -1    0.72    2.11
   0   4  -1    2.47    2.16
   0   4  -1    2.46    1.82
   0   4  -1    2.03    1.73
   0  -4   1    1.17    1.78
   0  -4   1   -1.53    1.95
   0  -4   1   -2.40    1.39
   0  -4   1    3.33    2.25
   0  -4   1   -0.62    1.92
  -1   4  -1   48.58    5.73
  -1   4  -1   54.80    6.19
  -1   4  -1   52.11    6.48
  -1   4  -1   54.75    6.62
  -1   4  -1   47.77    5.44
  -1   4  -1   43.20    4.08
   1  -4   1   51.54    6.54
   1  -4   1   42.63    4.21
   1  -4   1   43.24    5.57
   1  -4   1   45.60    5.71
   1  -4   1   44.23    4.74
  -2   4  -1  126.99   10.40
  -2   4  -1  119.97   10.91
  -2   4  -1  135.25    9.30
  -2   4  -1  124.82   10.52
  -2   4  -1  120.17   11.73
  -2   4  -1  131.03   10.47
   2  -4   1  133.76    9.10
   2  -4   1  137.48   10.56
   2  -4   1  131.89   12.09
   2  -4   1  136.93   10.51
   2  -4   1  131.53   10.62
  -3   4  -1  109.45   11.05
  -3   4  -1  117.51    9.42
  -3   4  -1  111.53    8.46
  -3   4  -1  103.20    9.47
  -3   4  -1  115.53    9.92
   3  -4   1  105.00   11.10
   3  -4   1  106.48    7.85
   3  -4   1  129.13    9.75
   3  -4   1  110.58    9.61
   3  -4   1  128.45   10.05
  -4   4  -1    2.15    2.99
  -4   4  -1    0.84    2.26
  -4   4  -1    1.99    2.75
   4  -4   1    0.19    2.68
   4  -4   1    4.07    3.11
   4  -4   1    2.78    3.75
  -5   4  -1   16.33    4.74
  -5   4  -1   19.82    4.88
  -5   4  -1   13.66    3.79
   5  -4   1   11.93    4.92
   5  -4   1   15.80    4.65
  -6   4  -1  118.15   11.19
  -6   4  -1  105.55   10.31
   6  -4   1  119.69   13.25
   6  -4   1  112.16   11.21
  -7   4  -1    3.19    4.01
  -7   4  -1   -0.46    3.46
  -7   4  -1    3.49    2.59
   7  -4   1    2.55    5.53
   7  -4   1   -4.82    3.57
  -8   4  -1    2.94    3.68
  -8   4  -1   13.86    5.73
   8  -4   1   -2.10    5.80
   8  -4   1    1.14    4.25
  -9   4  -1   38.15    8.70
  -9   4  -1   42.63    8.15
   9  -4   1   24.77    7.55
   9  -4   1   45.13   11.45
 -10   4  -1   -3.11    3.78
 -10   4  -1    1.16    5.87
  10  -4   1   -0.85    6.11
  10  -4   1   -4.19    7.24
  10   3  -1   -1.26    6.62
 -10  -3   1    0.71    6.22
 -10  -3   1    5.01    5.72
   9   3  -1   33.63    8.36
  -9  -3   1   23.45    7.26
  -9  -3   1   13.92    6.42
   8   3  -1   21.58    6.99
  -8  -3   1   42.16    8.13
  -8  -3   1   52.17    9.09
   7   3  -1    1.21    3.73
  -7  -3   1    4.33    4.18
  -7  -3   1   -3.26    3.81
   6   3  -1    2.17    3.91
   6   3  -1    7.29    2.88
  -6  -3   1    3.06    4.19
  -6  -3   1   -1.04    3.11
  -6  -3   1    2.29    3.55
   5   3  -1   10.53    4.05
   5   3  -1   12.83    3.16
  -5  -3   1   13.26    4.36
  -5  -3   1    4.73    3.28
  -5  -3   1    8.34    4.10
   4   3  -1   17.68    4.41
   4   3  -1   18.50    3.79
   4   3  -1   10.37    3.62
  -4  -3   1   12.56    3.90
  -4  -3   1   24.32    3.98
  -4  -3   1   15.96    4.26
   3   3  -1   22.03    4.15
   3   3  -1   19.62    3.59
   3   3  -1   11.91    3.03
   3   3  -1   11.92    3.24
  -3  -3   1    7.88    3.32
  -3  -3   1   12.74    3.21
  -3  -3   1   11.27    3.36
  -3  -3   1   11.66    3.09
   2   3  -1  154.42   13.06
   2   3  -1  176.99   13.28
   2   3  -1  185.72   12.99
   2   3  -1  189.32   14.22
  -2  -3   1  174.70   14.10
  -2  -3   1  184.03   13.19
  -2  -3   1  172.94   12.83
  -2  -3   1  200.43   13.55
   1   3  -1  150.47   12.05
   1   3  -1  145.79   11.08
   1   3  -1  151.78   10.80
   1   3  -1  162.76   11.36
   1   3  -1  167.00   11.34
  -1  -3   1  133.34   10.98
  -1  -3   1  139.96   11.97
  -1  -3   1  152.46   11.16
   0   3  -1   27.31    4.27
   0   3  -1   29.64    4.08
   0   3  -1   23.82    3.63
   0   3  -1   23.75    3.78
   0   3  -1   23.43    3.20
   0  -3   1   20.56    3.60
   0  -3   1   19.01    3.00
   0  -3   1   27.00    4.10
   0  -3   1   24.43    3.16
   0  -3   1   20.49    3.48
  -1   3  -1   10.07    3.06
  -1   3  -1   13.25    2.66
  -1   3  -1    9.55    2.78
  -1   3  -1   10.99    2.10
  -1   3  -1    6.73    2.57
  -1   3  -1   10.24    3.05
   1  -3   1    9.47    2.73
   1  -3   1   10.32    2.74
   1  -3   1   11.27    1.91
   1  -3   1    9.36    3.13
   1  -3   1   10.90    2.59
  -2   3  -1  530.66   33.87
  -2   3  -1  529.82   35.02
  -2   3  -1  505.44   35.01
  -2   3  -1  520.82   36.39
  -2   3  -1  561.46   37.77
  -2   3  -1  532.64   40.68
   2  -3   1  530.61   34.97
   2  -3   1  501.97   34.98
   2  -3   1  512.44   40.66
   2  -3   1  529.08   33.26
   2  -3   1  538.13   36.43
  -3   3  -1  245.36   18.96
  -3   3  -1  257.65   17.42
  -3   3  -1  268.27   18.16
  -3   3  -1  261.35   18.12
  -3   3  -1  256.91   21.28
   3  -3   1  244.36   18.06
   3  -3   1  262.55   19.09
   3  -3   1  259.82   18.14
   3  -3   1  252.05   21.25
  -4   3  -1   27.07    4.78
  -4   3  -1   27.36    4.77
  -4   3  -1   29.62    4.22
   4  -3   1   34.67    5.03
   4  -3   1   25.66    4.64
   4  -3   1   28.81    5.19
   4  -3   1   26.79    5.96
  -5   3  -1   13.67    4.06
  -5   3  -1   28.18    5.31
  -5   3  -1   22.50    3.63
   5  -3   1   17.47    4.52
   5  -3   1   34.19    5.20
   5  -3   1   22.97    6.15
  -6   3  -1    2.27    3.61
  -6   3  -1   13.52    2.75
  -6   3  -1   14.90    4.60
   6  -3   1   13.93    4.80
   6  -3   1   25.17    6.73
  -7   3  -1    2.64    1.64
  -7   3  -1   -1.53    3.27
  -7   3  -1    0.54    3.86
   7  -3   1   -0.16    3.76
   7  -3   1    6.36    5.59
  -8   3  -1    6.70    4.48
  -8   3  -1   16.02    5.53
   8  -3   1    7.58    4.96
   8  -3   1   15.12    7.40
  -9   3  -1    7.26    4.91
  -9   3  -1    9.08    5.78
   9  -3   1   -1.28    4.86
   9  -3   1   -3.42    5.69
 -10   3  -1   -3.32    5.22
 -10   3  -1   -2.98    3.82
  10  -3   1    2.47    7.16
  10  -3   1    0.55    6.47
  10   2  -1    6.15    6.66
 -10  -2   1    4.94    6.32
 -10  -2   1   -3.01    4.54
   9   2  -1   10.33    5.87
  -9  -2   1    8.28    5.68
  -9  -2   1   11.09    5.56
   8   2  -1    3.67    4.93
  -8  -2   1   31.59    7.31
  -8  -2   1   13.45    5.35
   7   2  -1    4.84    4.47
  -7  -2   1    5.88    4.16
  -7  -2   1   11.86    5.25
   6   2  -1   82.14    9.72
  -6  -2   1   62.25    8.81
  -6  -2   1   88.49    9.99
  -6  -2   1   72.26    8.53
   5   2  -1   50.64    5.07
   5   2  -1   33.49    6.04
  -5  -2   1   42.22    5.44
  -5  -2   1   48.22    6.93
  -5  -2   1   44.12    6.65
  -5  -2   1   42.71    6.40
   4   2  -1   42.45    4.99
   4   2  -1   40.19    5.57
   4   2  -1   31.64    5.10
  -4  -2   1   38.94    5.55
  -4  -2   1   38.05    5.73
  -4  -2   1   35.21    5.50
  -4  -2   1   44.61    5.17
   3   2  -1   21.44    3.32
   3   2  -1   18.62    3.58
   3   2  -1   16.46    3.70
   3   2  -1   20.18    3.61
  -3  -2   1   16.02    3.45
  -3  -2   1   16.00    3.21
  -3  -2   1   13.74    3.27
  -3  -2   1   14.64    3.35
  -3  -2   1   14.03    3.63
   2   2  -1   88.81    7.21
   2   2  -1   82.49    7.32
   2   2  -1   94.81    7.43
   2   2  -1   93.62    7.16
  -2  -2   1   84.02    7.48
  -2  -2   1   88.83    7.05
  -2  -2   1   78.09    7.01
  -2  -2   1   84.57    7.19
   1   2  -1    2.28    2.01
   1   2  -1    0.70    1.82
   1   2  -1    0.45    1.60
   1   2  -1   -1.81    1.51
  -1  -2   1   -1.15    1.67
  -1  -2   1   -2.84    1.95
  -1  -2   1    0.75    1.66
  -1  -2   1    2.05    2.06
   0   2  -1    2.90    1.68
   0   2  -1   -0.92    1.54
   0   2  -1    0.33    1.52
   0   2  -1   -0.45    1.01
   0   2  -1    1.08    1.84
   0  -2   1   -0.67    1.68
   0  -2   1   -0.54    0.93
   0  -2   1    0.32    1.36
   0  -2   1    0.59    1.54
   0  -2   1    1.51    1.65
  -1   2  -1  374.12   26.16
  -1   2  -1  373.31   23.51
  -1   2  -1  367.13   28.12
  -1   2  -1  379.31   24.25
  -1   2  -1  363.60   25.05
  -1   2  -1  318.45   24.08
   1  -2   1  342.18   24.17
   1  -2   1  369.60   24.23
   1  -2   1  381.73   25.09
   1  -2   1  362.36   28.15
   1  -2   1  383.06   23.08
  -2   2  -1  156.96   11.83
  -2   2  -1  162.63   10.90
  -2   2  -1  159.98   11.33
  -2   2  -1  152.83   11.29
  -2   2  -1  154.52   13.25
  -2   2  -1  147.39   11.79
   2  -2   1  151.80   13.32
   2  -2   1  164.68   11.41
   2  -2   1  159.85   11.34
   2  -2   1  163.93   11.97
  -3   2  -1   10.53    2.16
  -3   2  -1    8.49    2.36
  -3   2  -1   10.63    2.95
  -3   2  -1   11.49    2.88
  -3   2  -1   12.58    2.97
  -3   2  -1    9.09    3.39
   3  -2   1   11.50    2.82
   3  -2   1   12.87    3.18
   3  -2   1    6.56    2.60
   3  -2   1   16.21    3.90
  -4   2  -1    3.46    2.47
  -4   2  -1    6.78    2.87
  -4   2  -1    9.47    2.02
  -4   2  -1    3.44    2.68
  -4   2  -1   10.33    3.52
   4  -2   1    2.64    2.62
   4  -2   1    8.47    3.11
   4  -2   1   11.17    3.90
   4  -2   1   10.48    3.29
  -5   2  -1   -1.42    2.71
  -5   2  -1    0.71    1.28
  -5   2  -1    0.99    2.75
   5  -2   1   -1.63    3.65
   5  -2   1    0.21    2.76
   5  -2   1    2.52    3.03
  -6   2  -1    6.05    3.93
  -6   2  -1   29.19    5.83
   6  -2   1   30.59    6.87
   6  -2   1   19.67    4.93
  -7   2  -1   -0.20    3.19
  -7   2  -1   -1.18    3.66
   7  -2   1   -4.29    5.07
   7  -2   1    5.90    4.21
  -8   2  -1   10.75    4.37
  -8   2  -1    4.02    4.79
   8  -2   1    2.79    4.50
   8  -2   1   11.07    6.64
  -9   2  -1   21.41    6.66
  -9   2  -1   21.36    6.33
   9  -2   1   16.99    8.23
   9  -2   1   15.88    6.64
 -10   2  -1   -1.76    3.77
 -10   2  -1    6.76    6.30
  10  -2   1    4.88    6.31
  10  -2   1   15.77    8.16
 -11   2  -1    4.53    5.45
  10   1  -1   17.51    8.18
 -10  -1   1   14.78    6.27
 -10  -1   1    3.54    6.14
   9   1  -1    7.64    6.41
  -9  -1   1   14.64    6.32
  -9  -1   1   15.12    5.89
   8   1  -1   -2.30    4.08
  -8  -1   1    5.38    4.55
  -8  -1   1    5.09    5.07
   7   1  -1   -0.60    3.90
  -7  -1   1    1.60    3.51
  -7  -1   1   -2.65    3.98
   6   1  -1  108.80   10.43
  -6  -1   1  107.02   10.49
  -6  -1   1   92.50   10.92
  -6  -1   1  103.12    8.59
   5   1  -1  131.52   11.92
   5   1  -1  126.79   11.99
  -5  -1   1  151.34   11.27
  -5  -1   1  155.21   13.37
  -5  -1   1  131.07   11.56
  -5  -1   1  155.51   12.41
   4   1  -1   45.28    5.84
   4   1  -1   40.64    5.52
   4   1  -1   35.04    5.29
  -4  -1   1   44.46    5.80
  -4  -1   1   40.19    4.19
  -4  -1   1   33.63    5.44
  -4  -1   1   37.64    5.34
  -4  -1   1   30.87    5.03
   3   1  -1  116.45    9.04
   3   1  -1  119.51    9.28
   3   1  -1  118.72    9.07
   3   1  -1  125.62    9.39
  -3  -1   1  103.55    9.22
  -3  -1   1  109.44    9.03
  -3  -1   1  113.36    8.97
  -3  -1   1  125.79    9.16
  -3  -1   1  111.08   10.09
   2   1  -1   33.47    4.02
   2   1  -1   37.28    4.28
   2   1  -1   29.84    3.80
   2   1  -1   31.04    3.78
  -2  -1   1   35.44    3.96
  -2  -1   1   30.98    4.09
  -2  -1   1   34.40    3.98
  -2  -1   1   36.64    4.22
   1   1  -1    2.97    1.29
   1   1  -1    3.31    1.31
   1   1  -1    2.92    1.31
   1   1  -1    1.83    1.35
  -1  -1   1    2.63    1.42
  -1  -1   1    3.12    1.41
  -1  -1   1    3.93    1.52
  -1  -1   1    3.14    1.28
   0  -1   1  138.54    9.34
  -1   1  -1   40.72    3.65
  -1   1  -1   41.39    3.49
  -1   1  -1   42.45    3.48
  -1   1  -1   42.85    4.28
   1  -1   1   44.29    3.67
   1  -1   1   43.40    3.62
   1  -1   1   46.48    3.59
   1  -1   1   46.75    3.56
   1  -1   1   44.56    4.32
  -2   1  -1   74.84    5.78
  -2   1  -1   71.96    6.61
  -2   1  -1   66.55    5.47
  -2   1  -1   73.14    5.48
  -2   1  -1   61.35    5.23
  -2   1  -1   69.73    5.53
   2  -1   1   66.73    5.55
   2  -1   1   71.58    6.02
   2  -1   1   63.27    6.53
   2  -1   1   74.47    5.66
  -3   1  -1   88.35    6.80
  -3   1  -1   77.71    6.62
  -3   1  -1   74.26    7.79
  -3   1  -1   87.90    6.78
  -3   1  -1   86.55    6.92
  -3   1  -1   72.28    5.96
   3  -1   1   89.49    7.02
   3  -1   1   80.68    7.92
   3  -1   1   87.94    6.98
   3  -1   1   84.72    7.37
  -4   1  -1   45.36    6.26
  -4   1  -1   42.93    5.32
  -4   1  -1   39.37    5.23
  -4   1  -1   39.51    5.03
   4  -1   1   42.31    5.35
   4  -1   1   32.78    4.95
   4  -1   1   31.21    5.00
   4  -1   1   37.12    6.03
  -5   1  -1  119.92   11.08
  -5   1  -1  102.85    9.39
  -5   1  -1  132.01   10.06
   5  -1   1  114.63   11.14
   5  -1   1  106.33    9.65
   5  -1   1   86.85    9.39
  -6   1  -1    0.27    3.32
  -6   1  -1   -1.31    2.80
   6  -1   1    6.25    3.68
   6  -1   1    2.00    4.67
   6  -1   1   -0.31    3.13
  -7   1  -1    7.30    4.54
  -7   1  -1    5.59    3.86
   7  -1   1    4.00    4.27
   7  -1   1    4.66    5.31
  -8   1  -1   39.41    7.16
  -8   1  -1   58.17    8.95
   8  -1   1   54.91    8.83
   8  -1   1   49.30   10.30
  -9   1  -1    3.84    4.92
  -9   1  -1    0.48    3.28
   9  -1   1   13.66    6.47
   9  -1   1    6.92    6.95
 -10   1  -1    6.03    5.26
 -10   1  -1   10.80    6.14
  10  -1   1    9.75    7.24
  10  -1   1   20.64    7.78
  10   0  -1    6.42    7.20
 -10   0   1    6.88    5.97
 -10   0   1   -3.72    3.74
   9   0  -1   -0.98    4.95
  -9   0   1   -1.06    4.93
  -9   0   1   -2.85    3.48
   8   0  -1    8.27    5.23
  -8   0   1   -3.17    4.04
  -8   0   1    3.97    3.91
   7   0  -1   45.14    7.54
  -7   0   1   32.77    6.73
  -7   0   1   49.08    4.53
  -7   0   1   49.41    8.36
   6   0  -1   46.71    7.65
  -6   0   1   50.57    7.69
  -6   0   1   54.56    5.07
  -6   0   1   45.37    6.94
   5   0  -1    2.04    3.20
   5   0  -1    1.43    3.84
   5   0  -1   -3.57    1.81
  -5   0   1   -0.63    3.44
  -5   0   1    2.74    1.79
  -5   0   1   -0.32    2.49
  -5   0   1    2.41    2.27
   4   0  -1   -1.07    2.16
   4   0  -1    1.02    2.54
   4   0  -1    1.75    2.24
   4   0  -1   -1.60    2.89
   4   0  -1   -1.69    2.31
  -4   0   1   -0.03    2.09
  -4   0   1    0.78    1.50
  -4   0   1   -0.35    2.30
  -4   0   1    1.30    2.80
  -4   0   1    0.44    2.63
   3   0  -1  109.94    9.17
   3   0  -1  127.62    9.45
   3   0  -1  109.50   10.45
   3   0  -1   92.55    8.97
   3   0  -1  119.28    8.89
  -3   0   1  116.04    8.94
  -3   0   1  116.49    8.89
  -3   0   1  114.99    9.25
  -3   0   1  122.45   10.43
  -3   0   1  118.22    8.81
   2   0  -1  318.40   20.28
   2   0  -1  309.58   19.57
   2   0  -1  308.94   20.29
   2   0  -1  297.94   20.93
  -2   0   1  301.68   20.18
  -2   0   1  275.91   19.47
  -2   0   1  286.25   20.15
  -2   0   1  303.20   23.38
   1   0  -1   77.87    5.36
   1   0  -1   87.98    5.71
   1   0  -1   80.22    5.58
   1   0  -1   72.76    5.66
  -1   0   1   80.08    5.60
  -1   0   1   65.97    5.30
   0   0  -1   -0.68    0.20
   0   0  -1   -0.41    0.28
   0   0   1   -0.47    0.18
   0   0   1   -0.53    0.16
  -1   0  -1  374.35   23.07
  -1   0  -1  352.00   23.20
  -1   0  -1  376.93   27.65
  -1   0  -1  399.92   23.68
   1   0   1  364.63   23.68
   1   0   1  363.60   23.05
   1   0   1  341.84   27.58
  -2   0  -1   22.91    3.18
  -2   0  -1   20.52    2.91
  -2   0  -1   24.43    2.99
  -2   0  -1   18.75    2.64
  -2   0  -1   20.28    3.05
   2   0   1   16.17    2.53
   2   0   1   20.85    3.10
   2   0   1   14.60    2.60
   2   0   1   17.39    2.80
  -3   0  -1   34.65    4.40
  -3   0  -1   30.52    4.10
  -3   0  -1   41.19    5.08
  -3   0  -1   37.36    4.56
   3   0   1   35.01    4.47
   3   0   1   36.77    4.44
   3   0   1   43.16    4.74
   3   0   1   37.84    4.94
  -4   0  -1   28.30    4.39
  -4   0  -1   27.11    4.46
  -4   0  -1   28.00    4.26
  -4   0  -1   34.40    5.01
   4   0   1   30.84    4.98
   4   0   1   25.77    4.22
   4   0   1   28.46    4.56
   4   0   1   22.39    4.16
  -5   0  -1    2.44    3.20
  -5   0  -1    1.04    3.30
  -5   0  -1    2.11    2.81
   5   0   1    8.08    4.11
   5   0   1    0.56    2.69
   5   0   1    2.86    3.05
  -6   0  -1    2.58    3.64
  -6   0  -1   -0.73    2.81
   6   0   1    1.20    3.24
   6   0   1    2.73    3.27
   6   0   1    1.70    4.03
  -7   0  -1   12.94    4.91
  -7   0  -1   13.78    4.71
   7   0   1   17.49    6.41
   7   0   1   10.88    4.66
  -8   0  -1    6.56    4.62
  -8   0  -1    7.64    4.38
   8   0   1   10.29    5.09
   8   0   1   25.08    7.38
  -9   0  -1    6.48    5.21
  -9   0  -1    2.22    3.87
   9   0   1    6.87    5.77
 -10   0  -1   -2.93    3.90
  10   0   1    5.17    7.49
 -11   1   1    1.82    7.53
 -11   1   1   -0.23    4.90
  10  -1  -1    0.19    5.78
 -10   1   1   -0.19    5.48
 -10   1   1    3.52    4.67
   9  -1  -1   -1.72    4.59
  -9   1   1    2.74    5.01
  -9   1   1   -1.81    3.70
   8  -1  -1   19.76    5.81
  -8   1   1   12.90    6.00
  -8   1   1   22.92    2.80
  -8   1   1   21.52    5.68
   7  -1  -1   53.26    9.95
   7  -1  -1   42.45    7.78
  -7   1   1   51.91    4.86
  -7   1   1   57.22    8.66
  -7   1   1   34.91    6.57
   6  -1  -1   22.11    6.77
   6  -1  -1   20.34    5.34
  -6   1   1   28.35    3.77
  -6   1   1   17.41    4.42
  -6   1   1   26.11    5.78
   5  -1  -1   15.79    4.42
   5  -1  -1   25.29    4.87
   5  -1  -1   25.50    5.94
  -5   1   1   24.55    4.58
  -5   1   1   18.18    4.73
   4  -1  -1    2.31    2.75
   4  -1  -1   11.11    3.33
   4  -1  -1    5.84    2.54
   4  -1  -1    5.20    3.76
  -4   1   1    5.95    3.55
  -4   1   1    3.37    2.30
  -4   1   1    2.00    2.43
  -4   1   1    7.90    2.95
   3  -1  -1   97.42    7.58
   3  -1  -1   81.38    7.40
   3  -1  -1   85.70    8.70
   3  -1  -1   72.56    7.42
  -3   1   1   87.50    7.18
  -3   1   1   65.79    7.14
  -3   1   1   93.64    8.58
  -3   1   1   86.06    7.05
  -3   1   1   96.08    7.20
   2  -1  -1    1.30    1.70
   2  -1  -1    2.32    2.84
   2  -1  -1    4.90    2.01
   2  -1  -1    2.85    2.11
  -2   1   1    1.13    1.89
  -2   1   1   -0.08    2.12
  -2   1   1    2.37    2.10
  -2   1   1    3.23    2.05
   1  -1  -1   18.64    2.21
   1  -1  -1   19.31    2.40
   1  -1  -1   19.32    2.37
   1  -1  -1   17.69    2.40
   1  -1  -1   20.19    2.93
  -1   1   1   19.22    2.32
  -1   1   1   18.19    2.32
  -1   1   1   14.84    2.20
  -1   1   1   18.01    2.98
   0  -1  -1  177.48   12.25
   0  -1  -1  193.17   12.25
   0  -1  -1  205.90   13.13
   0   1   1  171.99   12.25
   0   1   1  191.19   13.07
  -1  -1  -1   91.57    6.65
  -1  -1  -1   95.48    6.76
  -1  -1  -1   97.86    6.66
  -1  -1  -1   96.42    6.80
   1   1   1   92.11    6.64
   1   1   1   90.43    7.32
   1   1   1   98.36    6.71
   1   1   1  101.47    6.74
  -2  -1  -1   84.81    7.17
  -2  -1  -1   90.05    6.80
  -2  -1  -1   84.09    6.73
  -2  -1  -1   79.31    6.59
  -2  -1  -1   92.12    6.69
   2   1   1   84.39    7.11
   2   1   1   88.09    6.66
   2   1   1   90.86    6.71
   2   1   1   91.00    6.85
  -3  -1  -1   49.56    5.49
  -3  -1  -1   47.67    4.66
  -3  -1  -1   43.05    4.87
  -3  -1  -1   39.94    4.46
   3   1   1   37.75    4.78
   3   1   1   52.05    4.72
   3   1   1   45.21    4.77
   3   1   1   51.24    5.47
   3   1   1   42.96    3.81
  -4  -1  -1   85.81    8.45
  -4  -1  -1  110.54    8.94
  -4  -1  -1  113.21    8.90
  -4  -1  -1  100.21    9.28
   4   1   1  108.26    9.03
   4   1   1  106.74    8.84
   4   1   1  100.36    7.72
   4   1   1  116.30    9.68
   4   1   1  114.74    8.94
  -5  -1  -1    5.52    3.09
  -5  -1  -1    5.53    3.58
  -5  -1  -1    2.63    3.05
   5   1   1    5.86    3.63
   5   1   1    5.05    3.08
   5   1   1    4.44    3.09
  -6  -1  -1   15.59    4.63
  -6  -1  -1   12.93    4.42
  -6  -1  -1   21.93    4.99
   6   1   1   22.29    5.02
   6   1   1   17.05    5.40
   6   1   1   24.37    5.03
  -7  -1  -1    0.90    3.35
  -7  -1  -1    0.68    3.51
   7   1   1   -0.59    3.87
   7   1   1    2.60    4.71
  -8  -1  -1    1.87    3.95
  -8  -1  -1   -3.67    3.52
   8   1   1   -2.26    3.92
  -9  -1  -1    1.40    4.62
  -9  -1  -1    0.33    3.88
   9   1   1   -7.70    4.68
 -10  -1  -1    1.62    4.93
 -10  -1  -1   -8.59    5.34
  10   1   1   -5.11    6.41
  11  -2  -1    3.95    7.28
 -11   2   1    2.59    6.43
 -11   2   1    5.77    5.56
  10  -2  -1   16.94    7.65
 -10   2   1   -0.70    4.38
 -10   2   1   12.54    7.06
   9  -2  -1   -1.21    4.33
  -9   2   1   -0.68    4.90
  -9   2   1   -6.05    3.15
   8  -2  -1   13.68    7.34
   8  -2  -1   22.04    6.27
  -8   2   1   25.53    6.67
  -8   2   1   23.64    3.18
  -8   2   1   19.32    5.65
   7  -2  -1  111.16   14.35
   7  -2  -1   89.33   11.00
  -7   2   1   61.68    9.48
  -7   2   1  109.80    8.24
  -7   2   1   79.33   10.63
   6  -2  -1    2.98    4.96
   6  -2  -1    6.01    3.88
  -6   2   1   -3.25    3.65
  -6   2   1    3.45    3.34
   5  -2  -1   26.21    6.53
   5  -2  -1   29.83    5.06
  -5   2   1   28.77    5.12
  -5   2   1   20.16    4.83
   4  -2  -1   26.15    4.88
   4  -2  -1   27.11    6.16
   4  -2  -1   32.72    5.27
   4  -2  -1   37.41    5.33
  -4   2   1   36.21    5.09
  -4   2   1   32.88    4.93
  -4   2   1   22.53    4.60
  -4   2   1   41.18    5.69
  -4   2   1   31.50    6.05
   3  -2  -1   24.59    3.94
   3  -2  -1   30.01    4.49
   3  -2  -1   25.51    4.24
   3  -2  -1   29.55    5.48
  -3   2   1   27.67    5.22
  -3   2   1   26.99    4.27
  -3   2   1   27.77    4.20
  -3   2   1   25.36    4.18
   2  -2  -1    2.36    2.21
   2  -2  -1    2.95    1.56
   2  -2  -1    1.66    3.22
   2  -2  -1    4.56    2.21
   2  -2  -1    2.03    2.36
  -2   2   1    3.05    2.23
  -2   2   1   -0.45    2.01
  -2   2   1    3.58    2.31
  -2   2   1    4.41    3.04
   1  -2  -1  873.83   54.09
   1  -2  -1  842.31   52.85
   1  -2  -1  852.88   56.55
   1  -2  -1  780.92   54.02
   1  -2  -1  850.34   62.80
  -1   2   1  806.08   56.56
  -1   2   1  789.19   54.00
  -1   2   1  864.85   62.79
  -1   2   1  874.08   54.12
   0  -2  -1   47.97    4.48
   0  -2  -1   59.75    4.82
   0  -2  -1   58.35    5.15
   0  -2  -1   56.93    4.68
   0  -2  -1   57.92    5.20
   0   2   1   53.72    5.08
   0   2   1   63.48    5.25
   0   2   1   57.28    4.71
   0   2   1   53.87    4.66
  -1  -2  -1  127.35    8.34
  -1  -2  -1  112.73    8.29
  -1  -2  -1  103.64    8.11
  -1  -2  -1  122.58    8.16
   1   2   1  100.61    8.41
   1   2   1  123.76    8.25
   1   2   1  115.36    8.18
   1   2   1  105.33    8.15
  -2  -2  -1   27.06    3.92
  -2  -2  -1   23.74    3.85
  -2  -2  -1   22.82    3.67
  -2  -2  -1   25.39    3.46
  -2  -2  -1   24.52    3.31
   2   2   1   21.18    3.31
   2   2   1   21.47    3.24
   2   2   1   25.79    3.80
  -3  -2  -1   -0.30    1.97
  -3  -2  -1    0.37    1.18
  -3  -2  -1    3.86    2.44
  -3  -2  -1    0.59    2.07
  -3  -2  -1    2.98    2.14
  -3  -2  -1   -0.25    2.30
   3   2   1   -0.54    1.88
   3   2   1   -0.15    1.92
   3   2   1    1.05    2.13
   3   2   1    1.78    1.78
  -4  -2  -1  150.43   12.24
  -4  -2  -1  151.12   11.79
  -4  -2  -1  145.02   11.76
  -4  -2  -1  157.24   12.44
   4   2   1  142.80   11.64
   4   2   1  148.99   11.51
   4   2   1  150.36   11.76
  -5  -2  -1   12.98    3.97
  -5  -2  -1    6.82    3.54
  -5  -2  -1   11.45    3.03
  -5  -2  -1    3.89    1.96
   5   2   1    5.81    3.28
   5   2   1    4.02    1.84
   5   2   1    7.09    3.24
  -6  -2  -1   59.24    7.68
  -6  -2  -1   53.76    6.30
  -6  -2  -1   57.16    7.88
   6   2   1   37.92    6.89
   6   2   1   47.75    7.15
  -7  -2  -1   -3.50    3.08
  -7  -2  -1   -0.06    3.80
  -7  -2  -1    5.53    2.57
   7   2   1    4.19    4.18
  -8  -2  -1    6.06    4.46
  -8  -2  -1    6.06    5.13
   8   2   1   12.38    5.67
  -9  -2  -1   -1.66    3.69
  -9  -2  -1   -0.59    5.07
  -9  -2  -1    6.34    5.28
   9   2   1   -4.62    4.43
 -10  -2  -1   11.73    6.56
 -10  -2  -1   -2.37    4.71
  10   2   1    4.72    6.91
 -11   3   1    0.92    5.01
  10  -3  -1   -5.98    4.74
 -10   3   1    3.94    6.37
 -10   3   1    2.22    4.87
   9  -3  -1    2.42    4.83
   9  -3  -1    2.31    7.04
  -9   3   1    1.61    5.36
  -9   3   1    2.73    3.88
   8  -3  -1   79.20   10.65
   8  -3  -1   57.56   11.79
  -8   3   1   86.50   11.16
  -8   3   1   61.98    9.53
   7  -3  -1    3.98    4.26
   7  -3  -1    0.04    5.44
  -7   3   1    2.25    3.15
  -7   3   1    5.82    4.73
   6  -3  -1    7.74    4.25
   6  -3  -1    9.29    5.80
  -6   3   1    4.35    3.98
  -6   3   1    3.84    3.10
  -6   3   1    4.30    3.91
   5  -3  -1   81.81   11.62
   5  -3  -1   80.61    9.29
  -5   3   1   84.03    9.04
  -5   3   1   89.25    8.74
   4  -3  -1   74.22    8.87
   4  -3  -1   71.44    7.53
   4  -3  -1   82.26    7.67
  -4   3   1   73.55    7.53
  -4   3   1   78.95    7.62
  -4   3   1   81.60    8.04
   3  -3  -1    0.07    2.32
   3  -3  -1    2.01    2.30
   3  -3  -1   -0.28    2.29
   3  -3  -1   -1.31    2.96
  -3   3   1   -1.06    2.90
  -3   3   1   -2.35    2.17
  -3   3   1    2.77    2.42
  -3   3   1    0.37    1.81
   2  -3  -1  146.07   10.36
   2  -3  -1  143.79   11.07
   2  -3  -1  147.34   11.58
   2  -3  -1  146.88   12.97
   2  -3  -1  143.76   11.03
  -2   3   1  167.16   13.10
  -2   3   1  135.78   10.97
  -2   3   1  140.16   10.98
  -2   3   1  144.15   11.63
   1  -3  -1    3.10    1.92
   1  -3  -1    4.15    1.84
   1  -3  -1    4.64    2.26
   1  -3  -1    3.78    2.23
   1  -3  -1    3.28    2.67
  -1   3   1    2.49    2.24
  -1   3   1    4.34    2.28
  -1   3   1    3.30    2.55
  -1   3   1    4.07    2.31
   0  -3  -1   47.36    4.93
   0  -3  -1   54.92    4.98
   0  -3  -1   46.89    4.88
   0  -3  -1   54.58    5.37
   0  -3  -1   49.99    5.34
   0   3   1   58.61    5.13
   0   3   1   53.02    5.06
   0   3   1   61.19    5.50
   0   3   1   54.95    5.18
  -1  -3  -1    8.23    2.46
  -1  -3  -1   14.20    2.92
  -1  -3  -1    9.71    2.40
   1   3   1   10.17    2.72
   1   3   1   12.40    2.77
   1   3   1    9.65    2.42
   1   3   1    9.78    1.58
  -2  -3  -1    7.19    2.61
  -2  -3  -1    3.38    1.99
  -2  -3  -1    4.48    2.59
   2   3   1   -0.41    1.97
   2   3   1    3.05    1.92
   2   3   1   -2.55    1.75
  -3  -3  -1  132.93   12.10
  -3  -3  -1  175.17   14.16
  -3  -3  -1  163.00   12.39
  -3  -3  -1  166.18   12.46
  -3  -3  -1  178.27   12.59
   3   3   1  162.49   12.43
   3   3   1  164.52   12.46
   3   3   1  163.70   12.53
   3   3   1  170.47   13.08
  -4  -3  -1   81.63    8.69
  -4  -3  -1  106.81    8.92
  -4  -3  -1   95.22    9.32
  -4  -3  -1  100.12    7.86
  -4  -3  -1   95.71    9.05
   4   3   1   96.96    8.80
   4   3   1  100.62    8.68
   4   3   1   95.46    8.75
  -5  -3  -1    1.76    1.75
  -5  -3  -1    3.82    3.43
  -5  -3  -1    3.78    3.40
  -5  -3  -1    1.19    2.79
  -5  -3  -1   -0.33    2.20
   5   3   1    0.85    3.10
   5   3   1   -0.82    2.14
   5   3   1   -5.35    2.11
  -6  -3  -1   -1.85    3.81
  -6  -3  -1    3.73    2.15
  -6  -3  -1   -0.49    3.52
  -6  -3  -1   -1.07    1.81
  -6  -3  -1   -4.56    3.11
   6   3   1   -3.84    2.93
   6   3   1    2.93    2.20
  -7  -3  -1   16.09    5.33
  -7  -3  -1   16.43    5.49
  -7  -3  -1   19.11    5.76
   7   3   1   17.27    5.46
  -8  -3  -1   -3.50    3.80
  -8  -3  -1    3.60    4.63
  -8  -3  -1    3.13    4.64
   8   3   1    3.87    4.56
  -9  -3  -1   18.14    6.83
  -9  -3  -1   18.16    6.72
   9   3   1    5.61    5.98
 -10  -3  -1   -2.32    5.64
 -10  -3  -1   -3.46    4.77
  10   3   1   -6.11    5.89
  10  -4  -1    4.58    5.92
  10  -4  -1   -7.21    6.62
 -10   4   1   -1.54    5.92
 -10   4   1    2.58    4.79
   9  -4  -1   35.37   10.82
   9  -4  -1   21.31    7.48
  -9   4   1   14.53    5.74
  -9   4   1   24.94    7.78
   8  -4  -1   11.34    5.53
   8  -4  -1    2.77    6.23
  -8   4   1    1.67    3.78
  -8   4   1    5.60    5.46
   7  -4  -1    5.86    4.59
   7  -4  -1    2.72    4.61
  -7   4   1    0.10    3.94
  -7   4   1   -0.97    2.56
   6  -4  -1   11.74    5.00
   6  -4  -1   16.61    6.70
  -6   4   1   11.66    4.64
  -6   4   1   14.44    5.21
   5  -4  -1    1.32    3.60
   5  -4  -1    0.82    4.78
  -5   4   1    1.72    3.48
  -5   4   1    1.07    3.50
   4  -4  -1  163.35   13.34
   4  -4  -1  149.83   15.49
  -4   4   1  180.31   13.59
  -4   4   1  165.03   14.01
   3  -4  -1   83.18    7.58
   3  -4  -1   66.87    6.90
   3  -4  -1   76.31    6.30
   3  -4  -1   73.72    7.73
   3  -4  -1   71.85    8.69
  -3   4   1   75.12    7.84
  -3   4   1   83.35    7.60
  -3   4   1   76.62    7.37
  -3   4   1   75.05    8.67
   2  -4  -1    1.52    2.25
   2  -4  -1    2.37    1.76
   2  -4  -1    2.54    3.11
   2  -4  -1   -2.01    1.97
   2  -4  -1    2.97    2.49
  -2   4   1    0.43    2.22
  -2   4   1    1.77    2.84
  -2   4   1   -3.39    2.04
  -2   4   1    0.47    2.20
   1  -4  -1    7.03    2.39
   1  -4  -1   13.07    3.14
   1  -4  -1    9.77    2.79
   1  -4  -1   16.28    3.37
   1  -4  -1   16.00    3.99
  -1   4   1    7.28    2.90
  -1   4   1    8.64    2.35
  -1   4   1   14.28    3.35
  -1   4   1    6.41    2.85
   0  -4  -1    0.86    2.07
   0  -4  -1    0.94    2.07
   0  -4  -1    1.06    2.23
   0  -4  -1    2.70    2.24
   0  -4  -1    2.60    2.13
   0   4   1    0.80    2.09
   0   4   1    3.55    2.26
   0   4   1    3.50    2.07
   0   4   1    1.97    2.19
  -1  -4  -1    0.03    1.85
  -1  -4  -1    0.31    2.04
  -1  -4  -1   -1.51    2.02
  -1  -4  -1    1.53    1.54
   1   4   1    0.18    1.17
   1   4   1    3.91    2.27
   1   4   1   -0.88    2.12
   1   4   1    2.78    2.15
  -2  -4  -1   94.15    8.70
  -2  -4  -1   96.68    8.60
  -2  -4  -1  120.96    9.22
   2   4   1   99.31    8.55
   2   4   1   94.99    8.50
  -3  -4  -1   63.04    7.96
  -3  -4  -1   66.47    8.18
   3   4   1   78.53    7.35
   3   4   1   77.91    7.72
   3   4   1   81.70    7.49
  -4  -4  -1   30.11    5.53
  -4  -4  -1   30.15    5.77
  -4  -4  -1   25.78    5.21
  -4  -4  -1   22.23    4.85
   4   4   1   25.43    5.02
   4   4   1   23.72    4.88
   4   4   1   20.00    4.59
  -5  -4  -1   35.42    6.34
  -5  -4  -1   26.82    5.20
  -5  -4  -1   30.85    6.02
  -5  -4  -1   31.84    5.80
   5   4   1   30.57    5.87
   5   4   1   25.09    4.98
   5   4   1   14.49    4.45
  -6  -4  -1    4.47    2.70
  -6  -4  -1    8.24    4.22
  -6  -4  -1    2.82    3.66
  -6  -4  -1    0.16    3.31
   6   4   1    0.96    3.59
  -7  -4  -1   -2.16    4.05
  -7  -4  -1   18.21    5.75
  -7  -4  -1    4.08    4.17
   7   4   1    4.87    4.91
  -8  -4  -1    9.47    5.32
  -8  -4  -1    0.93    4.58
  -8  -4  -1   -3.60    4.65
   8   4   1    6.71    5.39
  -9  -4  -1    4.61    5.29
  -9  -4  -1    3.31    5.91
   9   4   1    3.50    6.11
  10  -5  -1   13.82    8.75
  10  -5  -1   25.89    8.43
 -10   5   1    8.95    5.70
 -10   5   1    6.89    6.98
   9  -5  -1    8.15    5.64
   9  -5  -1   -5.49    6.04
  -9   5   1    2.54    4.87
  -9   5   1   -4.22    5.54
   8  -5  -1   -2.77    3.86
   8  -5  -1   -0.65    6.01
  -8   5   1    8.88    4.91
  -8   5   1    1.05    4.82
   7  -5  -1    7.44    6.67
   7  -5  -1   10.99    5.33
  -7   5   1   13.02    5.56
  -7   5   1   25.01    6.19
  -7   5   1    5.47    4.27
   6  -5  -1    5.54    6.44
   6  -5  -1   17.43    5.65
  -6   5   1    5.59    4.39
  -6   5   1    8.36    4.67
   5  -5  -1  127.28   11.64
   5  -5  -1  122.08   13.90
  -5   5   1  141.02   12.82
  -5   5   1  129.63   12.11
   4  -5  -1   13.29    2.90
   4  -5  -1   18.49    4.61
   4  -5  -1   17.74    6.12
  -4   5   1   12.08    4.54
  -4   5   1    8.86    4.30
   3  -5  -1   84.42   10.32
   3  -5  -1  102.70    9.21
   3  -5  -1   96.11    7.88
  -3   5   1   87.10    8.87
  -3   5   1  104.47    9.59
   2  -5  -1   27.54    4.83
   2  -5  -1   27.91    5.81
   2  -5  -1   26.82    4.16
  -2   5   1   32.00    5.27
  -2   5   1   28.74    5.08
  -2   5   1   24.75    5.43
  -2   5   1   25.80    4.80
   1  -5  -1    0.55    2.57
   1  -5  -1   -0.66    1.99
   1  -5  -1    4.26    3.34
   1  -5  -1   -0.33    2.04
  -1   5   1   -0.39    1.83
  -1   5   1    2.20    2.64
  -1   5   1    2.20    2.43
  -1   5   1    0.98    2.55
   0  -5  -1    8.24    3.12
   0  -5  -1    7.44    3.18
   0  -5  -1    6.22    2.78
   0   5   1   10.49    3.24
   0   5   1    6.88    2.62
   0   5   1    8.25    3.14
   0   5   1    5.09    2.45
  -1  -5  -1  139.20   10.79
  -1  -5  -1  121.86   10.62
  -1  -5  -1  112.57   10.18
   1   5   1  130.13   11.16
   1   5   1  133.50   10.53
   1   5   1  136.32   10.72
  -2  -5  -1    0.50    2.29
  -2  -5  -1    0.90    2.85
   2   5   1    0.38    2.55
   2   5   1    0.76    2.69
   2   5   1    1.65    2.59
  -3  -5  -1    1.24    2.63
  -3  -5  -1    1.62    3.32
   3   5   1    6.23    3.20
   3   5   1   -0.09    2.79
  -4  -5  -1   19.44    5.38
  -4  -5  -1   21.46    5.27
  -4  -5  -1   21.81    5.66
  -4  -5  -1   30.45    5.64
   4   5   1   20.68    5.06
   4   5   1   23.28    5.19
  -5  -5  -1    4.12    3.33
  -5  -5  -1    0.38    3.51
  -5  -5  -1   -4.54    2.61
   5   5   1   -0.73    3.57
  -6  -5  -1   46.51    7.48
  -6  -5  -1   53.70    8.78
  -6  -5  -1   62.67    8.86
  -6  -5  -1   70.56    9.66
   6   5   1   62.27    9.47
  -7  -5  -1   13.19    5.68
  -7  -5  -1    2.73    4.01
  -7  -5  -1    5.19    5.30
   7   5   1    0.12    4.59
  -8  -5  -1   33.73    7.96
  -8  -5  -1   46.35    9.32
   8   5   1   53.04   10.07
  -9  -5  -1   13.86    6.56
  -9  -5  -1   26.35    8.27
   9   5   1    4.32    7.66
  10  -6  -1   -6.11    7.12
  10  -6  -1    5.41    6.83
 -10   6   1   -1.95    6.37
 -10   6   1   -7.44    3.89
   9  -6  -1    3.28    5.86
   9  -6  -1   -4.82    5.83
  -9   6   1   -1.25    4.37
  -9   6   1   -6.32    4.98
   8  -6  -1   -3.66    4.66
   8  -6  -1  -11.46    5.12
  -8   6   1   -6.09    4.37
  -8   6   1    0.74    3.80
  -8   6   1    5.06    4.97
   7  -6  -1   11.89    5.81
   7  -6  -1    4.33    6.21
  -7   6   1    5.49    5.16
  -7   6   1    9.12    5.21
   6  -6  -1  102.83   12.65
   6  -6  -1   94.43   15.31
  -6   6   1  129.35   12.78
  -6   6   1  121.08   12.15
   5  -6  -1    7.86    3.87
   5  -6  -1    9.24    5.37
  -5   6   1   -1.06    4.06
  -5   6   1   12.81    5.18
   4  -6  -1    1.73    2.27
   4  -6  -1    4.05    5.10
   4  -6  -1    1.34    3.51
  -4   6   1   -1.45    3.30
  -4   6   1   -0.75    3.70
   3  -6  -1   24.27    6.53
   3  -6  -1   27.33    4.32
   3  -6  -1   33.44    6.04
  -3   6   1   25.47    5.57
  -3   6   1   29.02    5.77
   2  -6  -1   14.18    3.82
   2  -6  -1   22.22    5.51
   2  -6  -1   17.39    4.52
  -2   6   1   20.73    4.86
  -2   6   1   21.25    4.77
   1  -6  -1   56.77    7.92
   1  -6  -1   55.59    7.23
   1  -6  -1   51.19    6.54
  -1   6   1   48.57    4.26
  -1   6   1   55.91    7.53
  -1   6   1   63.73    7.65
  -1   6   1   65.24    8.03
  -1   6   1   51.24    7.32
   0  -6  -1   60.68    7.73
   0  -6  -1   54.20    7.41
   0  -6  -1   51.28    7.07
   0   6   1   70.45    8.15
   0   6   1   64.41    7.71
   0   6   1   62.43    7.92
   0   6   1   59.88    6.43
  -1  -6  -1   44.79    6.30
  -1  -6  -1   34.80    5.97
  -1  -6  -1   30.35    4.82
   1   6   1   50.47    6.88
   1   6   1   32.39    6.04
   1   6   1   39.29    6.06
   1   6   1   39.44    4.39
  -2  -6  -1   24.37    5.33
  -2  -6  -1   18.18    5.06
   2   6   1   28.34    5.50
   2   6   1   27.09    5.15
   2   6   1   22.58    5.09
  -3  -6  -1   16.70    5.24
  -3  -6  -1   26.44    5.64
   3   6   1   21.55    5.17
   3   6   1   28.34    5.57
  -4  -6  -1   -2.16    3.00
  -4  -6  -1    0.41    4.09
   4   6   1    7.46    4.08
  -5  -6  -1   51.48    8.33
  -5  -6  -1   57.95    9.06
  -5  -6  -1   73.68    9.97
  -5  -6  -1   70.75    8.91
   5   6   1   51.27    8.54
  -6  -6  -1   -3.39    3.67
  -6  -6  -1    0.55    3.73
  -6  -6  -1    0.13    4.48
  -6  -6  -1   -3.76    3.00
   6   6   1   -0.98    4.45
  -7  -6  -1    3.34    5.01
  -7  -6  -1    3.47    5.02
   7   6   1   -6.50    4.21
  -8  -6  -1   -2.49    4.27
  -8  -6  -1   -0.30    5.25
   8   6   1    0.88    6.21
   9  -7  -1    0.36    7.94
   9  -7  -1   -5.06    5.36
  -9   7   1    0.66    6.27
  -9   7   1    6.37    5.37
   8  -7  -1   -3.40    4.76
   8  -7  -1    9.16    8.30
  -8   7   1    8.50    5.29
  -8   7   1    6.54    5.17
   7  -7  -1   37.57    8.50
   7  -7  -1   16.29    8.51
  -7   7   1   29.25    7.82
  -7   7   1   48.61    8.85
   6  -7  -1   -5.72    5.21
   6  -7  -1    5.22    5.03
  -6   7   1    8.07    5.31
  -6   7   1    2.40    4.09
   5  -7  -1   -9.01    4.66
   5  -7  -1   -3.53    3.69
  -5   7   1    6.38    4.52
  -5   7   1   -2.11    3.77
   4  -7  -1    8.17    3.88
   4  -7  -1    7.85    3.05
   4  -7  -1    8.28    6.22
  -4   7   1   18.62    5.47
  -4   7   1   14.66    5.12
   3  -7  -1    9.30    3.76
   3  -7  -1   14.71    4.87
   3  -7  -1   10.43    5.56
  -3   7   1    4.48    3.87
  -3   7   1   10.88    4.50
   2  -7  -1  291.50   25.38
   2  -7  -1  274.18   20.97
   2  -7  -1  322.60   22.58
  -2   7   1  313.62   23.43
  -2   7   1  287.59   22.27
   1  -7  -1   78.37    9.06
   1  -7  -1   65.72    7.78
   1  -7  -1   63.62    9.02
  -1   7   1   56.27    8.29
  -1   7   1   70.90    8.80
  -1   7   1   57.47    7.74
  -1   7   1   52.32    4.79
   0  -7  -1   23.82    5.31
   0  -7  -1   18.54    4.90
   0  -7  -1   26.02    5.77
   0   7   1   20.84    4.78
   0   7   1   21.61    5.31
   0   7   1   31.13    5.04
  -1  -7  -1   41.42    7.16
  -1  -7  -1   56.19    7.81
  -1  -7  -1   45.79    6.12
   1   7   1   34.88    6.81
   1   7   1   54.21    5.38
   1   7   1   46.63    7.45
  -2  -7  -1   39.51    6.86
  -2  -7  -1   35.93    6.18
   2   7   1   18.04    5.12
   2   7   1   32.10    6.10
  -3  -7  -1    1.17    3.64
  -3  -7  -1   -1.31    3.74
   3   7   1    0.58    3.26
   3   7   1    2.88    3.92
  -4  -7  -1   38.33    7.78
  -4  -7  -1   47.48    7.33
   4   7   1   57.16    8.41
   4   7   1   35.77    6.97
  -5  -7  -1    0.65    3.91
  -5  -7  -1    1.70    4.43
  -5  -7  -1   -4.62    3.79
   5   7   1    5.56    4.81
  -6  -7  -1   -5.84    3.42
  -6  -7  -1    5.14    4.26
  -6  -7  -1    0.90    4.38
   6   7   1    0.24    4.75
  -7  -7  -1    1.67    5.30
   7   7   1    2.25    5.44
   9  -8  -1    9.33    9.24
   9  -8  -1   27.31    8.61
  -9   8   1   12.54    7.82
  -9   8   1    6.99    5.96
   8  -8  -1    5.62    8.55
   8  -8  -1    3.65    6.23
  -8   8   1    0.40    4.90
  -8   8   1    3.20    6.58
   7  -8  -1   -0.76    6.58
   7  -8  -1    6.98    5.60
  -7   8   1    5.32    5.17
  -7   8   1    1.98    5.49
   6  -8  -1    9.71    5.35
   6  -8  -1    3.83    6.61
  -6   8   1    3.14    5.52
  -6   8   1   16.11    6.33
   5  -8  -1    3.37    3.01
   5  -8  -1   -1.71    5.19
   5  -8  -1   -1.11    4.36
  -5   8   1    5.20    4.05
  -5   8   1   -2.32    4.06
   4  -8  -1   10.59    3.68
   4  -8  -1    7.36    4.87
   4  -8  -1    2.34    5.65
  -4   8   1   17.81    5.44
  -4   8   1    4.45    4.54
   3  -8  -1   82.82    8.10
   3  -8  -1   72.23   11.96
   3  -8  -1   76.74   10.14
  -3   8   1   69.48    9.90
  -3   8   1   80.38   10.56
   2  -8  -1    7.30    4.20
   2  -8  -1    0.13    2.81
   2  -8  -1   -0.24    4.57
  -2   8   1    2.56    4.08
  -2   8   1    1.74    3.92
   1  -8  -1    4.29    4.12
   1  -8  -1   -2.25    2.90
   1  -8  -1    4.37    4.82
  -1   8   1    7.51    4.41
  -1   8   1    2.22    3.59
   0  -8  -1   11.62    4.66
   0  -8  -1    9.27    4.43
   0  -8  -1   12.06    4.72
   0   8   1   14.52    5.09
   0   8   1   14.09    4.99
   0   8   1   19.94    3.96
  -1  -8  -1    6.90    4.54
  -1  -8  -1   -0.02    3.64
   1   8   1    6.05    3.96
   1   8   1    2.69    4.15
  -2  -8  -1    2.71    4.34
  -2  -8  -1   13.50    4.70
   2   8   1    1.43    3.97
   2   8   1    1.68    3.45
  -3  -8  -1   -0.75    3.85
  -3  -8  -1    5.05    4.57
   3   8   1   10.04    5.24
   3   8   1    1.19    3.78
  -4  -8  -1   -2.40    3.73
  -4  -8  -1   -1.91    4.07
   4   8   1   -2.37    2.91
   4   8   1    0.24    4.49
  -5  -8  -1   20.47    6.45
  -5  -8  -1   20.26    6.80
  -5  -8  -1   13.73    5.56
   5   8   1   23.33    5.98
   5   8   1   20.16    6.75
  -6  -8  -1   12.57    5.27
  -6  -8  -1    3.23    5.49
   6   8   1    9.08    4.96
   6   8   1    5.05    6.05
  -7  -8  -1    8.77    6.67
   7   8   1   10.82    4.80
   8  -9  -1    2.72    8.37
   8  -9  -1    8.51    6.92
  -8   9   1    4.88    5.43
  -8   9   1   14.16    7.80
   7  -9  -1    9.38    8.35
   7  -9  -1    5.42    6.59
  -7   9   1   -1.17    5.82
  -7   9   1    3.74    5.51
   6  -9  -1   -2.65    6.62
   6  -9  -1   10.20    6.05
  -6   9   1    0.67    5.76
  -6   9   1    2.52    5.00
   5  -9  -1   -0.77    6.40
   5  -9  -1   -1.17    3.49
   5  -9  -1    2.65    3.34
  -5   9   1   -3.21    4.21
  -5   9   1   -1.72    4.13
   4  -9  -1  102.32   12.31
   4  -9  -1   85.90    9.49
   4  -9  -1   64.20   12.60
  -4   9   1   84.99   11.42
  -4   9   1   73.08   11.25
   3  -9  -1    6.94    6.28
   3  -9  -1   -1.50    2.89
   3  -9  -1    5.06    4.90
  -3   9   1    3.92    4.37
  -3   9   1    9.78    5.17
   2  -9  -1    5.70    4.32
   2  -9  -1   -2.90    4.08
   2  -9  -1    5.91    4.68
  -2   9   1    6.87    4.01
  -2   9   1    2.42    4.24
   1  -9  -1   28.95    6.40
   1  -9  -1   29.06    6.87
   1  -9  -1   27.83    6.93
  -1   9   1   26.30    6.73
  -1   9   1   29.15    6.77
   0  -9  -1    5.95    4.43
   0  -9  -1   -5.83    3.19
   0  -9  -1   -0.21    3.49
   0   9   1    0.07    4.00
   0   9   1   -3.91    3.54
  -1  -9  -1   24.49    6.49
  -1  -9  -1   26.52    6.59
   1   9   1   24.30    6.47
   1   9   1   19.08    6.30
  -2  -9  -1    3.84    4.65
  -2  -9  -1   11.99    5.07
   2   9   1    7.22    5.23
   2   9   1    4.14    4.26
  -3  -9  -1   24.26    6.88
  -3  -9  -1   34.86    6.56
   3   9   1   13.65    6.27
   3   9   1   16.28    5.60
  -4  -9  -1   19.59    6.51
  -4  -9  -1   18.99    5.75
   4   9   1   14.36    7.05
   4   9   1   12.43    5.23
  -5  -9  -1   17.54    6.93
  -5  -9  -1    3.33    4.83
   5   9   1   14.27    5.45
   5   9   1    8.59    6.14
  -6  -9  -1   18.32    7.35
   6   9   1   13.04    5.63
   7 -10  -1   -1.01    5.54
   7 -10  -1  -10.05    6.81
  -7  10   1    9.20    5.85
  -7  10   1   -0.91    6.93
   6 -10  -1    1.60    5.85
   6 -10  -1   10.88   10.10
  -6  10   1    5.20    6.47
  -6  10   1   10.14    6.20
   5 -10  -1   32.46    6.41
   5 -10  -1   28.17    7.95
   5 -10  -1   15.79    9.34
  -5  10   1   34.78    8.55
  -5  10   1   26.40    7.84
   4 -10  -1    2.16    3.73
   4 -10  -1    5.39    5.10
   4 -10  -1    3.58    6.27
  -4  10   1   -2.16    4.29
  -4  10   1    9.78    5.95
   3 -10  -1   15.27    5.42
   3 -10  -1    9.15    6.69
   3 -10  -1   19.38    6.53
  -3  10   1   24.60    7.04
  -3  10   1   10.28    6.14
   2 -10  -1   17.17    6.17
   2 -10  -1   21.54    6.01
   2 -10  -1    6.28    6.23
  -2  10   1   21.07    7.00
  -2  10   1   28.61    7.15
   1 -10  -1   -1.54    4.21
   1 -10  -1    3.43    4.77
   1 -10  -1   -7.13    3.99
  -1  10   1    0.19    4.61
  -1  10   1    0.62    4.05
   0 -10  -1   11.33    5.77
   0 -10  -1   22.84    6.51
   0  10   1   11.61    5.55
   0  10   1    4.16    4.95
  -1 -10  -1    0.53    4.77
  -1 -10  -1    4.17    4.81
   1  10   1    3.48    5.19
   1  10   1   -3.32    4.05
  -2 -10  -1    4.76    5.04
  -2 -10  -1   11.43    5.92
   2  10   1    3.80    5.46
   2  10   1   12.93    5.70
  -3 -10  -1    8.91    5.28
  -3 -10  -1    9.77    6.09
   3  10   1    3.69    4.30
   3  10   1   12.38    6.66
  -4 -10  -1   18.77    7.25
   4  10   1   19.77    7.53
   4  10   1    9.72    5.68
   6 -11  -1    5.64    6.42
   6 -11  -1   12.66   10.39
  -6  11   1   13.16    7.91
  -6  11   1    0.33    5.64
   5 -11  -1    5.75    6.40
   5 -11  -1   14.64    8.86
  -5  11   1   -2.27    5.68
  -5  11   1    5.21    6.54
   4 -11  -1   11.60    6.63
   4 -11  -1   25.19    9.15
   4 -11  -1   33.91    7.22
  -4  11   1   11.41    6.36
  -4  11   1   19.83    7.56
   3 -11  -1   38.90    8.35
   3 -11  -1   35.47   10.30
   3 -11  -1   36.77    8.97
  -3  11   1   42.38    8.92
  -3  11   1   43.15    9.81
   2 -11  -1    8.79    5.51
   2 -11  -1    4.05    5.79
   2 -11  -1   -6.67    4.77
  -2  11   1   -4.43    5.30
  -2  11   1   -7.90    3.75
   1 -11  -1    6.80    5.61
   1 -11  -1    6.09    5.33
  -1  11   1    6.09    6.36
  -1  11   1    2.53    5.89
   0 -11  -1    3.72    4.91
   0 -11  -1   -3.55    4.71
   0  11   1    9.65    6.21
   0  11   1    0.09    4.74
  -1 -11  -1    3.79    5.40
  -1 -11  -1    9.06    5.88
   1  11   1    2.96    6.08
   1  11   1    6.20    5.45
  -2 -11  -1    0.88    5.17
   2  11   1   -5.33    5.97
   2  11   1   -6.45    4.33
  -3 -11  -1   -9.62    3.67
   3  11   1    7.39    5.61
   3 -12  -1   20.66    6.82
   3 -12  -1    5.99    7.54
  -3  12   1   13.11    7.52
  -3  12   1    3.76    6.78
   2 -12  -1   23.66    8.05
   2 -12  -1   29.47    8.33
  -2  12   1   28.37    9.16
  -2  12   1   14.12    8.50
   1 -12  -1   -1.17    5.83
   1 -12  -1   -8.04    4.98
  -1  12   1   -4.49    5.90
  -1  12   1   -5.83    5.07
   0 -12  -1    1.36    5.73
   0  12   1    5.96    6.78
  -1 -12   2   49.26   10.19
   0  12  -2    7.01    6.62
   0  12  -2   -3.20    5.82
   0 -12   2   13.01    7.40
   0 -12   2    3.01    5.13
  -1  12  -2   -5.04    5.01
  -1  12  -2  -13.41    4.53
   1 -12   2    2.54    6.41
   1 -12   2   -9.00    4.41
  -2  12  -2   27.03    8.29
  -2  12  -2   15.20    6.79
   2 -12   2   22.76    7.72
   2 -12   2   22.49    9.26
   2 -12   2   32.42    8.07
  -3  12  -2   -5.40    5.64
  -3  12  -2   -3.63    5.27
   3 -12   2   11.93    7.49
   3 -12   2   -6.52    6.73
  -4  12  -2    3.92    6.21
   4 -12   2   -4.09    8.63
   3  11  -2   -5.10    4.03
   3  11  -2   -4.26    4.44
   3  11  -2   -6.02    5.27
  -3 -11   2    1.57    5.37
  -3 -11   2   -6.48    4.74
   2  11  -2   -1.21    5.38
   2  11  -2   -0.90    4.51
   2  11  -2    0.18    4.14
  -2 -11   2   -0.40    5.62
  -2 -11   2    0.12    4.75
   1  11  -2   -1.83    3.50
   1  11  -2    1.92    5.05
  -1 -11   2   -7.42    4.71
  -1 -11   2   -4.21    4.83
   0  11  -2   35.58    8.53
   0  11  -2   20.20    6.88
   0 -11   2   49.51    9.41
   0 -11   2   33.76    7.33
  -1  11  -2   -5.11    4.12
  -1  11  -2    0.89    4.55
   1 -11   2   -0.44    5.29
   1 -11   2  -15.14    4.40
   1 -11   2   -0.23    3.78
  -2  11  -2   -1.06    3.47
  -2  11  -2   -5.37    4.23
   2 -11   2  -13.78    5.03
   2 -11   2    1.64    4.16
   2 -11   2   -1.85    4.87
  -3  11  -2    2.71    5.76
  -3  11  -2    3.46    5.39
   3 -11   2  -10.00    5.51
   3 -11   2    1.32    5.41
  -4  11  -2   -7.14    4.09
  -4  11  -2   -0.20    4.34
   4 -11   2   -0.60    7.18
   4 -11   2   -0.24    5.33
  -5  11  -2    3.88    4.99
  -5  11  -2   -2.86    4.95
   5 -11   2    6.10    6.03
   5 -11   2   -7.85    7.98
  -6  11  -2   66.07   12.15
  -6  11  -2   83.96   12.72
   6 -11   2   62.24   11.93
   6 -11   2   64.58   16.22
   5  10  -2   -4.49    5.83
  -5 -10   2   -0.57    5.24
  -5 -10   2    1.80    6.66
   4  10  -2    1.41    3.94
   4  10  -2   -2.25    5.00
  -4 -10   2    3.05    6.45
  -4 -10   2    3.51    5.71
   3  10  -2    8.45    5.80
   3  10  -2    1.13    4.05
  -3 -10   2    3.89    4.99
  -3 -10   2    2.83    5.45
   2  10  -2   -1.09    4.48
   2  10  -2    9.49    5.40
   2  10  -2    0.86    4.43
  -2 -10   2   15.45    6.02
  -2 -10   2   12.65    5.24
   1  10  -2   48.82    9.38
   1  10  -2   53.91    9.08
   1  10  -2   70.13    8.81
  -1 -10   2   72.92   10.01
  -1 -10   2   67.65   10.55
  -1 -10   2   71.76   10.44
   0  10  -2   -0.54    2.93
   0  10  -2   -2.00    3.78
   0  10  -2   -3.75    3.70
   0 -10   2   -7.55    3.19
   0 -10   2   -4.48    4.61
   0 -10   2  -10.38    3.52
  -1  10  -2    3.13    4.21
  -1  10  -2   -1.75    4.05
   1 -10   2    1.81    4.07
   1 -10   2   -0.76    4.31
   1 -10   2    7.09    5.46
  -2  10  -2   44.12    8.26
  -2  10  -2   39.38    8.58
   2 -10   2   60.11   11.10
   2 -10   2   48.91    7.43
   2 -10   2   32.79    8.37
  -3  10  -2    0.68    4.67
  -3  10  -2   -0.89    3.89
   3 -10   2    4.60    6.26
   3 -10   2    2.21    4.37
   3 -10   2    0.03    3.17
  -4  10  -2   11.10    5.24
  -4  10  -2    8.98    5.88
   4 -10   2   -2.16    6.53
   4 -10   2    2.38    4.69
  -5  10  -2   36.23    8.01
  -5  10  -2   20.92    7.11
   5 -10   2   17.96    6.75
   5 -10   2   25.64   10.39
  -6  10  -2   -2.17    4.28
  -6  10  -2    4.70    5.94
   6 -10   2   -2.39    4.60
   6 -10   2   -3.16    7.07
  -7  10  -2    0.30    4.98
  -7  10  -2    1.11    6.66
   7 -10   2   -8.07    8.02
   7 -10   2   -4.96    5.63
   6   9  -2   -2.72    5.62
   6   9  -2    6.81    4.38
  -6  -9   2    1.27    5.78
  -6  -9   2    4.65    5.57
   5   9  -2    7.43    4.36
   5   9  -2    8.34    6.50
  -5  -9   2   16.68    6.72
  -5  -9   2    8.96    6.75
   4   9  -2    3.31    3.99
   4   9  -2    5.39    4.91
  -4  -9   2    6.08    5.28
  -4  -9   2   10.32    5.59
   3   9  -2   13.41    5.81
   3   9  -2   17.93    5.09
  -3  -9   2   15.83    5.87
  -3  -9   2   12.13    5.50
   2   9  -2  106.99   10.80
   2   9  -2   87.94   12.00
  -2  -9   2  101.40   11.88
  -2  -9   2   93.48    9.79
  -2  -9   2   82.59   11.65
   1   9  -2   -3.83    3.51
   1   9  -2    3.94    3.92
   1   9  -2   -1.23    3.34
  -1  -9   2    1.07    4.02
  -1  -9   2    0.07    3.65
  -1  -9   2   12.23    5.26
   0   9  -2   13.16    5.26
   0   9  -2   10.08    3.87
   0   9  -2   10.55    4.79
   0  -9   2   17.13    5.74
   0  -9   2   16.99    5.05
   0  -9   2    9.95    5.61
  -1   9  -2   70.06    6.97
  -1   9  -2   52.95    8.96
  -1   9  -2   78.84    9.72
   1  -9   2   51.18    9.27
   1  -9   2   76.45   11.38
   1  -9   2   71.35    8.77
  -2   9  -2   10.28    3.08
  -2   9  -2   10.03    4.95
  -2   9  -2   13.09    5.36
   2  -9   2    7.78    4.72
   2  -9   2    3.17    5.64
   2  -9   2   14.05    4.18
  -3   9  -2   24.36    6.66
  -3   9  -2   13.18    5.17
   3  -9   2   17.17    4.09
   3  -9   2   22.67    6.08
   3  -9   2   25.19    8.27
  -4   9  -2    4.44    4.10
  -4   9  -2    3.17    4.29
   4  -9   2    3.89    6.60
   4  -9   2    0.61    3.64
  -5   9  -2    8.12    5.97
  -5   9  -2    8.94    5.20
   5  -9   2   10.09    5.67
   5  -9   2   -3.88    6.08
  -6   9  -2    6.83    4.48
  -6   9  -2    3.98    4.98
   6  -9   2    6.87    5.36
   6  -9   2    7.26    7.84
  -7   9  -2   -5.95    5.81
  -7   9  -2   10.35    5.40
   7  -9   2   -5.16    7.96
   7  -9   2    1.94    4.42
  -8   9  -2   -0.26    6.39
   8  -9   2    6.93    6.69
   8  -9   2    9.92   10.02
   7   8  -2    3.55    6.66
  -7  -8   2   10.25    7.48
  -7  -8   2   -3.67    4.18
   6   8  -2   13.54    4.59
   6   8  -2   10.73    6.51
  -6  -8   2   16.88    6.81
  -6  -8   2   13.04    6.39
   5   8  -2    3.21    4.89
   5   8  -2   11.78    4.19
  -5  -8   2    3.71    5.48
  -5  -8   2   10.56    5.19
   4   8  -2    5.22    3.63
   4   8  -2    5.62    4.87
  -4  -8   2    5.61    4.94
  -4  -8   2   -0.59    4.39
   3   8  -2   15.79    5.58
   3   8  -2   19.34    4.82
  -3  -8   2   12.84    5.42
  -3  -8   2   23.47    5.97
  -3  -8   2   17.51    3.92
   2   8  -2    4.01    3.42
   2   8  -2    3.35    3.37
  -2  -8   2    8.16    4.76
  -2  -8   2    4.81    4.05
  -2  -8   2    3.81    3.22
   1   8  -2    9.99    4.24
   1   8  -2   12.50    4.46
   1   8  -2   22.55    5.18
  -1  -8   2   16.41    4.68
  -1  -8   2   -0.85    3.81
  -1  -8   2    8.52    4.12
   0   8  -2    3.78    3.43
   0   8  -2    6.23    4.36
   0   8  -2    5.70    3.82
   0  -8   2    1.22    3.00
   0  -8   2    9.33    4.59
   0  -8   2   12.23    4.59
  -1   8  -2   -1.54    2.24
  -1   8  -2   -0.30    2.96
  -1   8  -2   -1.31    3.19
   1  -8   2    0.23    3.66
   1  -8   2    0.96    3.09
   1  -8   2    2.47    4.34
  -2   8  -2  143.41   13.74
  -2   8  -2  144.99   13.76
  -2   8  -2  155.49   11.67
   2  -8   2  163.66   15.78
   2  -8   2  164.35   13.83
   2  -8   2  148.80   12.00
  -3   8  -2   -3.02    3.28
  -3   8  -2    4.27    4.10
  -3   8  -2    1.22    1.89
   3  -8   2    0.81    2.12
   3  -8   2    1.31    3.67
   3  -8   2   -5.58    4.50
  -4   8  -2   11.84    4.76
  -4   8  -2   10.68    3.06
  -4   8  -2    4.34    4.74
   4  -8   2   26.62    7.93
   4  -8   2   10.47    2.49
   4  -8   2   15.13    5.41
  -5   8  -2   -0.54    4.13
  -5   8  -2    3.11    4.39
  -5   8  -2   -1.25    2.42
   5  -8   2   -3.68    5.93
   5  -8   2    2.28    3.42
  -6   8  -2   -4.31    2.65
  -6   8  -2    6.78    5.12
  -6   8  -2   -0.16    4.83
   6  -8   2   -1.66    5.91
   6  -8   2    0.85    4.35
  -7   8  -2   12.67    5.84
  -7   8  -2    4.79    5.81
   7  -8   2    1.06    5.17
   7  -8   2    1.46    7.38
  -8   8  -2   34.67    9.15
   8  -8   2   45.69    9.09
   8  -8   2   42.14   12.15
  -9   8  -2    0.42    5.03
  -9   8  -2    3.82    6.70
   9  -8   2   12.56    7.27
   9  -8   2   -2.20    8.09
   8   7  -2    1.35    6.53
  -8  -7   2   -1.86    5.65
  -8  -7   2   -6.18    4.44
   7   7  -2    0.40    5.09
  -7  -7   2   -5.86    3.96
  -7  -7   2    0.26    4.26
   6   7  -2   -2.51    4.23
  -6  -7   2    7.02    5.32
  -6  -7   2   -3.96    3.74
   5   7  -2   43.62    8.08
  -5  -7   2   52.43    9.30
  -5  -7   2   53.85    9.32
   4   7  -2   19.80    5.83
   4   7  -2   17.02    4.21
  -4  -7   2   18.26    5.04
  -4  -7   2   16.02    3.08
  -4  -7   2    7.80    5.12
   3   7  -2   21.73    4.77
   3   7  -2    7.76    3.78
  -3  -7   2   15.31    3.52
  -3  -7   2   17.78    5.09
  -3  -7   2   10.95    4.64
   2   7  -2   10.43    4.38
   2   7  -2    8.09    3.59
  -2  -7   2   11.00    3.58
  -2  -7   2    2.36    4.13
  -2  -7   2    5.10    3.72
   1   7  -2    6.63    3.39
   1   7  -2    8.73    4.16
  -1  -7   2   11.44    4.63
  -1  -7   2   10.70    3.93
  -1  -7   2    3.96    3.44
   0   7  -2   79.23    8.75
   0   7  -2   75.75    9.41
   0   7  -2   64.47    6.80
   0  -7   2   77.28    9.50
   0  -7   2   75.80    8.70
   0  -7   2   60.22    7.59
  -1   7  -2  281.79   19.90
  -1   7  -2  240.01   17.78
  -1   7  -2  236.83   19.27
   1  -7   2  259.87   19.79
   1  -7   2  260.20   18.20
   1  -7   2  249.16   22.02
  -2   7  -2   -0.72    2.89
  -2   7  -2    3.04    2.24
  -2   7  -2   -0.96    2.28
   2  -7   2    2.79    4.18
   2  -7   2    1.20    3.36
   2  -7   2   -1.48    1.94
  -3   7  -2   21.59    5.31
  -3   7  -2   11.20    2.92
  -3   7  -2   15.89    5.06
   3  -7   2    8.22    4.25
   3  -7   2   11.24    2.69
   3  -7   2   16.90    6.43
  -4   7  -2    8.22    2.78
  -4   7  -2    1.07    4.02
  -4   7  -2    7.49    4.22
   4  -7   2    2.37    5.62
   4  -7   2    9.07    2.13
   4  -7   2    7.59    3.81
  -5   7  -2   12.94    3.59
  -5   7  -2   15.12    5.49
  -5   7  -2    2.98    3.88
   5  -7   2   12.82    5.22
   5  -7   2   12.36    6.86
  -6   7  -2   -0.37    3.58
  -6   7  -2    5.85    3.51
  -6   7  -2   -2.15    4.40
   6  -7   2    5.41    6.24
   6  -7   2   -0.70    4.22
  -7   7  -2   13.05    6.05
   7  -7   2   13.43    5.84
   7  -7   2    8.54    6.97
  -8   7  -2   10.23    5.75
  -8   7  -2   25.77    7.53
   8  -7   2   14.39    6.97
   8  -7   2   13.16    8.76
  -9   7  -2   29.56    9.05
  -9   7  -2   28.07    7.78
   9  -7   2   18.67    8.70
   9  -7   2   21.52   10.72
   8   6  -2   -0.97    6.12
  -8  -6   2    1.89    4.91
  -8  -6   2    1.95    6.12
  -8  -6   2   -2.87    6.29
   7   6  -2   14.13    6.36
  -7  -6   2   14.74    6.58
  -7  -6   2    2.29    4.64
   6   6  -2   49.05    8.73
  -6  -6   2   35.32    7.49
  -6  -6   2   36.51    7.84
   5   6  -2    1.11    3.65
  -5  -6   2    9.66    2.09
  -5  -6   2   -4.45    2.84
   4   6  -2    2.49    3.82
  -4  -6   2    7.53    4.14
  -4  -6   2    8.83    2.51
   3   6  -2    8.38    3.40
   3   6  -2    4.30    3.78
  -3  -6   2   11.48    3.14
  -3  -6   2   11.69    4.34
  -3  -6   2   20.29    5.14
   2   6  -2   -0.92    2.93
   2   6  -2    3.81    2.71
  -2  -6   2    6.31    3.47
  -2  -6   2    1.49    2.60
  -2  -6   2    1.26    2.81
   1   6  -2    0.79    3.17
   1   6  -2   -0.83    2.27
  -1  -6   2    2.28    2.91
  -1  -6   2   -6.84    2.57
  -1  -6   2    2.57    2.92
   0   6  -2  214.47   15.75
   0   6  -2  223.12   16.82
   0   6  -2  215.87   17.01
   0  -6   2  230.31   16.06
   0  -6   2  212.24   17.02
   0  -6   2  222.76   18.84
  -1   6  -2    1.07    2.57
  -1   6  -2   -0.57    2.12
  -1   6  -2    2.66    2.87
  -1   6  -2    0.08    2.06
   1  -6   2   -1.08    3.00
   1  -6   2    2.39    2.33
   1  -6   2   -0.24    2.84
   1  -6   2   -3.43    1.76
  -2   6  -2    3.43    3.29
  -2   6  -2    8.16    3.30
  -2   6  -2    9.55    2.71
   2  -6   2    9.27    3.24
   2  -6   2    7.27    2.25
   2  -6   2    9.42    3.77
   2  -6   2    1.25    3.67
  -3   6  -2   20.42    4.71
  -3   6  -2    9.23    2.74
  -3   6  -2   14.49    4.55
   3  -6   2   19.28    2.79
   3  -6   2    9.16    3.88
   3  -6   2   17.88    5.96
  -4   6  -2   13.65    3.38
  -4   6  -2   14.66    4.64
  -4   6  -2   26.09    5.69
   4  -6   2   16.30    4.97
   4  -6   2   14.81    6.44
  -5   6  -2    7.90    3.28
  -5   6  -2   16.87    5.07
  -5   6  -2   11.12    4.33
   5  -6   2   10.70    6.45
   5  -6   2   21.63    5.53
  -6   6  -2   -1.46    2.84
  -6   6  -2   -1.38    3.04
  -6   6  -2   -2.77    3.70
   6  -6   2   -3.10    5.28
   6  -6   2   -1.33    3.52
  -7   6  -2   17.69    5.99
   7  -6   2   10.71    5.60
   7  -6   2   13.29    7.57
  -8   6  -2   16.81    5.80
  -8   6  -2   22.88    6.96
   8  -6   2   14.61    6.31
   8  -6   2   17.42    8.68
  -9   6  -2    3.90    5.67
  -9   6  -2   18.15    6.94
   9  -6   2   17.45    9.10
   9  -6   2   26.38    8.09
 -10   6  -2   13.98    6.58
  10  -6   2   -3.55    8.02
  10  -6   2   -2.59    6.87
   9   5  -2    9.98    6.93
  -9  -5   2    4.50    6.96
  -9  -5   2    9.92    5.75
   8   5  -2    3.85    5.52
  -8  -5   2    4.20    6.21
  -8  -5   2   -3.05    3.84
   7   5  -2   73.90   11.08
  -7  -5   2   54.77    9.49
  -7  -5   2   90.36   11.84
   6   5  -2   11.68    4.81
  -6  -5   2   12.15    5.18
  -6  -5   2   15.57    5.68
   5   5  -2    5.04    4.17
  -5  -5   2    3.07    4.19
  -5  -5   2    6.07    4.20
  -5  -5   2    2.08    3.29
   4   5  -2    9.99    4.50
  -4  -5   2    5.93    4.51
  -4  -5   2    9.05    4.16
   3   5  -2    3.26    2.81
  -3  -5   2    5.27    3.32
  -3  -5   2   -0.94    1.99
   2   5  -2   50.64    6.76
   2   5  -2   46.49    5.81
  -2  -5   2   54.96    7.05
  -2  -5   2   49.99    5.67
   1   5  -2   40.87    5.84
   1   5  -2   33.80    4.79
  -1  -5   2   45.20    5.89
  -1  -5   2   35.47    5.15
  -1  -5   2   46.37    6.10
   0   5  -2   37.18    5.64
   0   5  -2   43.94    5.37
   0   5  -2   36.49    4.76
   0  -5   2   37.19    4.80
   0  -5   2   39.45    5.92
   0  -5   2   35.12    5.35
   0  -5   2   38.10    4.82
   0  -5   2   43.36    5.89
  -1   5  -2  143.45   10.43
  -1   5  -2  128.69   11.07
  -1   5  -2  149.24   12.89
  -1   5  -2  126.97   11.28
   1  -5   2  155.71   11.69
   1  -5   2  133.66   11.42
   1  -5   2  130.38   12.90
   1  -5   2  147.43   10.27
   1  -5   2  148.16   11.20
  -2   5  -2    1.49    2.18
  -2   5  -2   -2.74    1.57
  -2   5  -2   -0.57    2.77
  -2   5  -2   -0.23    2.08
  -2   5  -2   -0.54    2.45
   2  -5   2   -1.51    2.85
   2  -5   2   -0.69    1.30
   2  -5   2    1.78    2.64
   2  -5   2    0.19    2.26
   2  -5   2   -1.28    2.33
  -3   5  -2   14.91    3.86
  -3   5  -2   13.57    4.42
  -3   5  -2   26.53    4.62
  -3   5  -2   14.42    3.17
   3  -5   2   17.89    4.24
   3  -5   2   12.44    3.91
   3  -5   2   16.89    5.40
   3  -5   2   15.88    4.17
   3  -5   2   16.07    2.11
  -4   5  -2   69.92    7.54
  -4   5  -2   72.54    8.52
  -4   5  -2   70.56    6.52
  -4   5  -2   48.34    7.61
   4  -5   2   68.68   10.17
   4  -5   2   66.02    8.26
  -5   5  -2    1.80    3.05
  -5   5  -2    0.93    3.48
  -5   5  -2    1.80    2.83
  -5   5  -2    3.41    3.69
   5  -5   2   -0.26    4.51
   5  -5   2    1.40    2.82
  -6   5  -2   68.31    9.36
  -6   5  -2   68.76    7.47
   6  -5   2   63.82   11.33
   6  -5   2   77.39    9.66
  -7   5  -2   -2.21    3.29
  -7   5  -2    0.79    4.30
   7  -5   2    1.20    4.15
   7  -5   2    4.15    6.12
  -8   5  -2    7.04    4.89
  -8   5  -2   -0.15    4.25
   8  -5   2    5.21    6.63
   8  -5   2    8.10    4.60
  -9   5  -2   -2.05    3.82
  -9   5  -2   -7.44    4.95
   9  -5   2   -2.19    6.73
   9  -5   2    7.37    6.22
 -10   5  -2    7.44    5.43
  10  -5   2    3.45    8.67
  10  -5   2   -1.84    5.78
   9   4  -2   -1.08    4.38
  -9  -4   2   -0.14    4.35
  -9  -4   2    1.77    6.05
   8   4  -2   41.07    8.85
  -8  -4   2   48.14    9.21
  -8  -4   2   66.41   10.49
   7   4  -2   -5.17    3.72
  -7  -4   2    7.17    5.56
  -7  -4   2    4.93    4.38
   6   4  -2    6.19    4.40
  -6  -4   2    1.99    3.88
  -6  -4   2    6.49    4.85
  -6  -4   2    2.30    4.05
   5   4  -2    4.61    3.81
  -5  -4   2    4.94    4.35
  -5  -4   2   -3.06    2.93
  -5  -4   2   -2.33    3.38
   4   4  -2   -1.71    2.38
   4   4  -2    0.93    2.40
  -4  -4   2    2.00    3.57
  -4  -4   2    2.96    3.38
  -4  -4   2   -0.26    3.41
   3   4  -2   39.37    6.21
   3   4  -2   39.76    6.10
  -3  -4   2   43.74    6.69
  -3  -4   2   42.40    6.04
  -3  -4   2   37.88    5.77
   2   4  -2    5.34    3.17
   2   4  -2    6.30    2.73
   2   4  -2    5.69    2.97
   2   4  -2    7.01    2.87
  -2  -4   2    4.14    2.67
  -2  -4   2    2.85    3.00
  -2  -4   2    0.24    2.44
   1   4  -2   83.06    7.54
   1   4  -2   81.26    7.11
   1   4  -2   77.24    6.78
   1   4  -2   79.79    7.29
   1   4  -2   95.39    8.45
  -1  -4   2   85.06    7.46
  -1  -4   2   76.47    7.79
  -1  -4   2   91.90    7.67
  -1  -4   2   81.10    8.23
   0   4  -2   37.24    4.22
   0   4  -2   47.36    4.53
   0   4  -2   49.37    5.61
   0   4  -2   40.27    6.07
   0  -4   2   44.06    6.24
   0  -4   2   43.20    4.34
   0  -4   2   42.48    5.42
   0  -4   2   47.28    5.71
   0  -4   2   45.49    6.15
  -1   4  -2   60.42    7.03
  -1   4  -2   49.64    4.86
  -1   4  -2   54.22    5.17
  -1   4  -2   63.50    6.66
  -1   4  -2   57.75    6.46
  -1   4  -2   51.68    6.31
   1  -4   2   54.19    7.22
   1  -4   2   55.01    4.59
   1  -4   2   59.75    6.50
   1  -4   2   53.50    5.21
   1  -4   2   58.59    6.53
  -2   4  -2  165.37   14.28
  -2   4  -2  164.13   13.09
  -2   4  -2  166.83   11.55
  -2   4  -2  160.53   12.48
  -2   4  -2  166.37   12.37
  -2   4  -2  153.43   12.22
   2  -4   2  146.54   12.23
   2  -4   2  152.73   14.31
   2  -4   2  154.78   12.23
   2  -4   2  157.79   10.63
   2  -4   2  168.85   12.45
  -3   4  -2   63.84    7.30
  -3   4  -2   59.32    5.60
  -3   4  -2   49.94    6.76
  -3   4  -2   59.91    6.90
   3  -4   2   53.71    6.65
   3  -4   2   61.31    7.03
   3  -4   2   69.26    7.30
   3  -4   2   60.56    8.59
  -4   4  -2    3.74    3.07
  -4   4  -2    5.22    3.20
  -4   4  -2   -0.66    2.30
  -4   4  -2    3.65    2.69
   4  -4   2    5.88    3.22
   4  -4   2    5.32    4.18
   4  -4   2    8.93    3.52
  -5   4  -2   -0.36    2.30
  -5   4  -2    5.78    3.94
  -5   4  -2    1.08    3.03
   5  -4   2    8.61    5.22
   5  -4   2   -0.15    2.81
   5  -4   2    3.41    3.33
  -6   4  -2   48.29    7.06
  -6   4  -2   42.45    5.51
  -6   4  -2   41.87    7.11
   6  -4   2   51.74    9.42
   6  -4   2   41.26    7.10
  -7   4  -2    4.00    3.72
  -7   4  -2   -2.04    3.64
  -7   4  -2    3.06    2.02
   7  -4   2    1.23    5.37
   7  -4   2    5.55    4.46
  -8   4  -2    8.69    5.14
  -8   4  -2   11.69    4.73
   8  -4   2   15.03    7.47
   8  -4   2    8.70    5.66
  -9   4  -2   -0.91    3.77
  -9   4  -2    5.27    5.34
   9  -4   2    1.99    5.53
   9  -4   2   -7.22    5.95
 -10   4  -2   17.58    6.91
  10  -4   2   12.29    9.35
  10  -4   2   22.42    9.03
  10   3  -2   13.70    7.65
 -10  -3   2    3.08    5.75
 -10  -3   2    8.31    7.38
   9   3  -2   23.58    7.18
  -9  -3   2   10.33    6.06
  -9  -3   2   14.97    6.98
   8   3  -2    1.80    4.77
  -8  -3   2   11.94    5.80
  -8  -3   2   -2.81    3.93
   7   3  -2   15.31    5.24
  -7  -3   2    7.41    5.05
  -7  -3   2    6.11    4.59
   6   3  -2    8.03    4.18
   6   3  -2   12.50    3.38
  -6  -3   2   15.63    4.76
  -6  -3   2    2.02    4.37
  -6  -3   2   12.40    3.98
  -6  -3   2    8.41    4.56
   5   3  -2   49.38    7.44
   5   3  -2   58.33    6.68
  -5  -3   2   74.78    7.47
  -5  -3   2   61.00    8.28
  -5  -3   2   65.01    8.41
  -5  -3   2   72.86    8.85
   4   3  -2   99.90    9.48
   4   3  -2  113.26    9.55
  -4  -3   2  109.64   10.06
  -4  -3   2   94.13    9.46
  -4  -3   2  116.16   10.39
  -4  -3   2   96.37    9.37
   3   3  -2   15.85    3.47
   3   3  -2   27.28    4.64
   3   3  -2   20.97    3.95
   3   3  -2   20.24    4.00
  -3  -3   2   17.93    4.05
  -3  -3   2   18.20    3.99
  -3  -3   2   14.25    3.66
  -3  -3   2   25.96    4.61
   2   3  -2   96.69    7.98
   2   3  -2   87.94    7.98
   2   3  -2   98.94    8.78
   2   3  -2  119.52    8.80
  -2  -3   2  101.58    8.41
  -2  -3   2   92.49    8.76
  -2  -3   2   92.59    8.39
  -2  -3   2   97.39    7.90
   1   3  -2   75.87    6.21
   1   3  -2   72.84    6.53
   1   3  -2   74.00    5.84
   1   3  -2   69.70    6.33
   1   3  -2   74.82    7.13
  -1  -3   2   74.88    6.55
  -1  -3   2   69.65    7.08
   0   3  -2   35.71    4.43
   0   3  -2   36.46    5.02
   0   3  -2   29.52    3.23
   0   3  -2   35.86    4.18
   0  -3   2   30.22    4.20
   0  -3   2   31.46    3.25
   0  -3   2   36.25    5.12
   0  -3   2   35.54    4.55
   0  -3   2   37.58    5.06
  -1   3  -2   31.42    3.91
  -1   3  -2   31.94    3.77
  -1   3  -2   26.16    4.06
  -1   3  -2   32.06    4.67
  -1   3  -2   33.02    4.25
  -1   3  -2   44.16    5.71
   1  -3   2   28.49    3.67
   1  -3   2   38.72    4.47
   1  -3   2   34.69    4.92
   1  -3   2   27.28    2.84
   1  -3   2   36.05    4.43
   1  -3   2   35.30    5.37
  -2   3  -2  135.58   10.92
  -2   3  -2  139.38   10.96
  -2   3  -2  147.46   11.68
  -2   3  -2  150.11   11.37
  -2   3  -2  154.46   13.13
  -2   3  -2  154.11   10.67
   2  -3   2  141.26    9.42
   2  -3   2  141.28   10.99
   2  -3   2  154.58   11.44
   2  -3   2  161.46   13.30
   2  -3   2  148.82   11.06
  -3   3  -2  123.14    9.65
  -3   3  -2  124.70    9.36
  -3   3  -2  127.91    9.75
  -3   3  -2  108.42    9.74
  -3   3  -2  119.89   10.06
  -3   3  -2  130.12   11.62
   3  -3   2  127.28   10.38
   3  -3   2  119.51    9.51
   3  -3   2  128.01    9.79
   3  -3   2  111.17   11.50
  -4   3  -2    8.65    3.14
  -4   3  -2    6.05    2.94
  -4   3  -2    6.02    2.32
   4  -3   2   14.03    4.59
   4  -3   2    5.34    2.58
   4  -3   2    7.57    3.21
   4  -3   2   10.25    3.16
  -5   3  -2   30.53    5.42
  -5   3  -2   39.47    4.59
  -5   3  -2   48.02    6.52
  -5   3  -2   37.60    5.70
   5  -3   2   37.05    5.81
   5  -3   2   41.76    7.62
   5  -3   2   32.78    5.64
  -6   3  -2    6.76    3.88
  -6   3  -2    8.31    3.82
  -6   3  -2    7.55    2.04
   6  -3   2   13.85    4.57
   6  -3   2    4.42    5.01
  -7   3  -2    2.44    4.13
  -7   3  -2    1.97    3.44
   7  -3   2    6.30    5.93
   7  -3   2   -2.88    3.69
  -8   3  -2   43.27    7.90
  -8   3  -2   48.67    8.15
   8  -3   2   44.26    8.39
   8  -3   2   51.31   10.80
  -9   3  -2    7.85    4.56
  -9   3  -2    8.11    5.42
   9  -3   2    1.79    7.11
   9  -3   2    9.31    6.55
 -10   3  -2    9.62    5.59
  10  -3   2    0.89    6.59
  10  -3   2    9.50    8.34
  10   2  -2    1.12    6.31
 -10  -2   2   -6.34    3.66
 -10  -2   2    0.35    6.04
   9   2  -2    2.04    5.08
  -9  -2   2   -2.97    3.82
  -9  -2   2    3.62    5.54
   8   2  -2    6.17    4.83
  -8  -2   2    3.16    4.99
  -8  -2   2    6.12    4.58
   7   2  -2   -1.18    2.86
  -7  -2   2    4.73    3.90
  -7  -2   2   -1.09    4.18
  -7  -2   2    0.36    2.77
   6   2  -2    2.40    3.84
  -6  -2   2   -1.57    3.42
  -6  -2   2   -0.83    2.65
  -6  -2   2   -1.38    3.49
   5   2  -2  199.79   15.23
  -5  -2   2  187.35   16.87
  -5  -2   2  168.96   14.76
  -5  -2   2  187.21   15.22
  -5  -2   2  213.81   15.56
   4   2  -2    3.06    2.87
   4   2  -2    2.53    2.14
   4   2  -2    2.07    2.21
  -4  -2   2    1.29    2.40
  -4  -2   2    2.66    3.42
  -4  -2   2    5.23    3.22
  -4  -2   2    3.65    2.80
   3   2  -2  125.46   10.45
   3   2  -2  144.19   10.37
   3   2  -2  131.71   10.81
   3   2  -2  133.88   10.53
  -3  -2   2  129.29   10.45
  -3  -2   2  128.04   10.18
  -3  -2   2  137.53   11.01
  -3  -2   2  131.17   10.46
   2   2  -2  125.26   10.39
   2   2  -2  140.19   10.00
   2   2  -2  138.32   10.01
   2   2  -2  127.87    9.54
  -2  -2   2  133.00   10.01
  -2  -2   2  122.44   10.49
  -2  -2   2  123.87    9.98
  -2  -2   2  124.12    9.46
   1   2  -2   77.41    7.33
   1   2  -2   86.35    6.75
   1   2  -2   81.81    6.97
   1   2  -2   82.47    6.43
  -1  -2   2   95.55    7.14
  -1  -2   2   85.36    6.41
  -1  -2   2   86.81    7.63
  -1  -2   2   86.74    6.92
   0   2  -2  153.38   11.06
   0   2  -2  161.90   11.13
   0   2  -2  155.24   12.16
   0   2  -2  154.91   10.88
   0   2  -2  149.30   10.76
   0  -2   2  154.42   10.76
   0  -2   2  164.14   11.19
   0  -2   2  166.56   13.10
   0  -2   2  151.70   11.03
   0  -2   2  164.73   12.21
  -1   2  -2   70.91    5.60
  -1   2  -2   65.84    6.94
  -1   2  -2   76.00    5.73
  -1   2  -2   70.83    6.21
  -1   2  -2   69.33    5.56
  -1   2  -2   68.02    5.74
   1  -2   2   63.74    5.62
   1  -2   2   71.64    5.63
   1  -2   2   69.20    5.71
   1  -2   2   70.38    6.99
   1  -2   2   69.27    6.21
  -2   2  -2  271.36   20.80
  -2   2  -2  256.28   17.52
  -2   2  -2  257.97   17.30
  -2   2  -2  257.09   17.41
  -2   2  -2  251.98   18.67
   2  -2   2  255.48   18.32
   2  -2   2  223.27   17.33
   2  -2   2  253.83   20.71
   2  -2   2  262.06   18.74
   2  -2   2  270.16   17.54
  -3   2  -2   55.43    4.99
  -3   2  -2   56.29    5.27
  -3   2  -2   49.09    4.70
  -3   2  -2   49.93    5.12
  -3   2  -2   52.78    7.18
   3  -2   2   51.21    7.03
   3  -2   2   55.02    5.17
   3  -2   2   51.91    6.14
   3  -2   2   49.09    5.04
  -4   2  -2   93.69    7.90
  -4   2  -2   81.67    6.91
  -4   2  -2   81.76    7.65
  -4   2  -2   77.80    7.50
  -4   2  -2  103.46    8.04
  -4   2  -2   96.46    9.31
   4  -2   2   87.87    7.75
   4  -2   2   86.17    9.28
   4  -2   2   89.22    8.46
   4  -2   2   90.65    7.85
  -5   2  -2   -1.27    2.53
  -5   2  -2    0.97    1.12
  -5   2  -2   -1.68    2.39
   5  -2   2   -3.90    2.55
   5  -2   2    3.67    3.85
   5  -2   2   -0.12    2.53
  -6   2  -2   10.44    4.08
  -6   2  -2   13.68    4.67
   6  -2   2   21.13    4.92
   6  -2   2   18.48    4.82
   6  -2   2   15.33    6.03
  -7   2  -2   -3.76    2.53
  -7   2  -2   -4.88    3.28
   7  -2   2   -0.14    5.12
   7  -2   2    0.68    3.82
  -8   2  -2   31.52    6.53
  -8   2  -2   33.50    6.73
   8  -2   2   26.97    8.14
   8  -2   2    6.32    5.10
  -9   2  -2   14.68    5.97
  -9   2  -2   25.81    6.56
   9  -2   2    9.69    8.34
   9  -2   2   40.82    9.10
 -10   2  -2    4.59    4.94
  10  -2   2    1.26    6.52
  10  -2   2   -9.37    5.98
  10   1  -2    2.43    6.25
 -10  -1   2    0.08    4.49
 -10  -1   2    7.37    6.85
   9   1  -2    6.65    5.16
  -9  -1   2   23.10    7.18
  -9  -1   2    1.89    4.33
   8   1  -2   -6.26    3.70
  -8  -1   2   -1.96    4.67
  -8  -1   2    2.70    3.79
  -8  -1   2   -4.71    2.08
   7   1  -2   -7.84    2.88
  -7  -1   2   -1.52    2.29
  -7  -1   2   -5.14    2.44
  -7  -1   2   -8.06    3.56
   6   1  -2   29.78    6.41
  -6  -1   2   57.60    6.32
  -6  -1   2   33.71    6.38
  -6  -1   2   50.00    7.45
   5   1  -2   59.91    7.69
  -5  -1   2   54.68    7.60
  -5  -1   2   46.55    6.90
  -5  -1   2   64.21    6.28
  -5  -1   2   64.93    8.85
   4   1  -2   26.40    4.74
   4   1  -2   25.39    4.32
   4   1  -2   26.41    4.77
   4   1  -2   21.67    4.22
  -4  -1   2   29.69    4.85
  -4  -1   2   33.18    4.41
  -4  -1   2   23.73    4.78
  -4  -1   2   33.30    5.73
  -4  -1   2   23.94    4.43
   3   1  -2   58.96    5.82
   3   1  -2   73.08    6.20
   3   1  -2   54.14    5.24
   3   1  -2   55.83    5.36
  -3  -1   2   56.16    5.79
  -3  -1   2   48.79    5.30
  -3  -1   2   51.50    5.34
  -3  -1   2   60.67    6.05
   2   1  -2  233.55   16.58
   2   1  -2  234.16   16.29
   2   1  -2  225.79   16.36
   2   1  -2  242.48   15.79
   2   1  -2  247.04   17.62
  -2  -1   2  247.07   15.86
  -2  -1   2  233.02   17.58
  -2  -1   2  236.91   16.47
  -2  -1   2  225.14   16.43
   1   1  -2  253.52   18.40
   1   1  -2  268.74   20.03
   1   1  -2  295.71   18.45
   1   1  -2  261.22   18.57
   1   1  -2  289.28   17.68
  -1  -1   2  277.01   17.63
  -1  -1   2  266.80   18.40
  -1  -1   2  294.12   18.51
  -1  -1   2  277.81   20.10
   0   1  -2   22.32    1.97
   0   1  -2   28.46    3.40
   0   1  -2   26.20    2.91
   0   1  -2   26.67    3.32
   0   1  -2   29.62    2.82
   0   1  -2   22.48    2.53
   0  -1   2   22.93    3.27
   0  -1   2   21.24    2.32
   0  -1   2   27.38    2.74
  -1   1  -2   57.61    4.03
  -1   1  -2   71.41    5.80
  -1   1  -2   67.98    4.91
  -1   1  -2   60.32    5.01
  -1   1  -2   59.64    4.44
  -1   1  -2   52.91    5.82
   1  -1   2   50.65    5.75
   1  -1   2   61.18    4.48
   1  -1   2   61.74    4.52
   1  -1   2   47.44    4.86
  -2   1  -2  353.21   24.39
  -2   1  -2  332.53   21.18
  -2   1  -2  325.66   21.03
  -2   1  -2  292.19   24.90
  -2   1  -2  339.34   22.59
  -2   1  -2  329.00   20.50
  -2   1  -2  311.89   20.15
  -2   1  -2  264.23   20.94
   2  -1   2  320.50   21.05
   2  -1   2  319.60   24.93
   2  -1   2  311.43   22.51
   2  -1   2  321.71   21.06
  -3   1  -2   33.94    3.12
  -3   1  -2   33.77    4.58
  -3   1  -2   25.80    3.81
  -3   1  -2   42.84    5.70
  -3   1  -2   38.60    4.24
  -3   1  -2   30.61    4.17
   3  -1   2   31.60    5.10
   3  -1   2   30.65    4.17
   3  -1   2   34.50    4.18
  -4   1  -2   13.67    2.92
  -4   1  -2    9.97    3.05
  -4   1  -2   12.14    3.64
  -4   1  -2   12.25    3.12
  -4   1  -2   12.52    3.54
   4  -1   2    7.89    2.93
   4  -1   2   12.22    3.12
   4  -1   2   16.84    4.26
  -5   1  -2   16.76    4.15
  -5   1  -2   24.01    5.20
  -5   1  -2   14.95    4.05
   5  -1   2   20.96    4.32
   5  -1   2   28.80    5.92
   5  -1   2   16.55    4.06
  -6   1  -2    9.91    3.71
  -6   1  -2   12.59    4.69
   6  -1   2    6.78    3.83
   6  -1   2    7.84    4.64
   6  -1   2    5.12    4.04
  -7   1  -2   14.10    4.68
  -7   1  -2   11.37    4.46
   7  -1   2   12.88    4.73
   7  -1   2   13.58    5.78
  -8   1  -2    3.05    3.81
  -8   1  -2   -0.02    3.83
   8  -1   2    3.64    4.84
   8  -1   2   -2.49    5.75
  -9   1  -2   19.07    6.50
  -9   1  -2   13.24    5.65
   9  -1   2   19.27    6.79
   9  -1   2    7.69    7.20
 -10   1  -2   37.67    7.38
 -10   1  -2    6.26    5.04
  10  -1   2   32.73    8.86
  10  -1   2   18.56    8.18
  10   0  -2    7.37    6.67
 -10   0   2    9.27    7.20
 -10   0   2    4.24    4.54
   9   0  -2   -0.52    4.19
  -9   0   2   -1.75    3.74
  -9   0   2   -2.27    4.88
   8   0  -2    5.67    4.88
  -8   0   2   -0.49    3.25
  -8   0   2    4.88    4.00
  -8   0   2    1.58    2.32
   7   0  -2    8.68    4.83
  -7   0   2   10.67    3.26
  -7   0   2   11.17    5.19
  -7   0   2   10.84    4.65
   6   0  -2   48.11    7.68
  -6   0   2   53.91    8.21
  -6   0   2   55.06    5.90
  -6   0   2   60.56    7.90
   5   0  -2  103.03   10.62
  -5   0   2  125.77   10.10
  -5   0   2  117.33   10.28
  -5   0   2  135.99   10.88
  -5   0   2  121.17   12.19
   4   0  -2    3.90    2.42
   4   0  -2   -1.13    2.62
   4   0  -2   -2.28    1.94
   4   0  -2   -1.74    2.46
  -4   0   2    1.15    3.16
  -4   0   2    0.70    2.33
  -4   0   2   -1.55    1.84
  -4   0   2    1.99    2.42
  -4   0   2    2.17    2.76
   3   0  -2   11.96    2.88
   3   0  -2    8.24    2.81
   3   0  -2   12.02    3.16
   3   0  -2   10.14    2.69
  -3   0   2    5.49    2.44
  -3   0   2   11.18    2.62
  -3   0   2   11.58    3.84
  -3   0   2    9.82    2.59
  -3   0   2    8.04    3.20
   2   0  -2  467.41   34.53
   2   0  -2  555.20   34.78
   2   0  -2  529.81   33.44
   2   0  -2  528.22   35.86
  -2   0   2  529.70   33.44
  -2   0   2  510.54   34.68
  -2   0   2  558.84   34.70
  -2   0   2  533.64   35.90
   1   0  -2    4.57    1.36
   1   0  -2    4.25    1.51
   1   0  -2    4.50    1.66
  -1   0   2    3.38    1.35
  -1   0   2    6.61    1.65
  -1   0   2    3.30    1.22
  -1   0   2    5.62    1.61
   0   0  -2  382.36   24.11
   0   0  -2  358.85   23.98
   0   0  -2  377.02   24.15
   0   0   2  380.22   24.14
   0   0   2  376.82   24.12
  -1   0  -2  324.03   19.99
  -1   0  -2  336.56   20.81
  -1   0  -2  361.05   24.24
  -1   0  -2  326.34   20.36
  -1   0  -2  292.35   20.28
   1   0   2  309.75   20.37
   1   0   2  272.10   24.22
   1   0   2  320.40   20.39
   1   0   2  328.26   19.99
  -2   0  -2   -0.14    1.25
  -2   0  -2    1.98    2.06
  -2   0  -2   -0.64    1.22
  -2   0  -2   -1.36    1.79
  -2   0  -2    1.01    1.62
  -2   0  -2   -2.08    1.45
   2   0   2   -0.19    1.65
   2   0   2   -3.11    1.21
   2   0   2   -0.29    1.83
   2   0   2    0.62    1.45
  -3   0  -2   58.38    6.05
  -3   0  -2   48.37    5.17
  -3   0  -2   55.59    4.91
  -3   0  -2   57.23    5.07
  -3   0  -2   59.96    5.28
  -3   0  -2   60.23    5.76
  -3   0  -2   56.30    5.60
   3   0   2   54.14    5.83
   3   0   2   58.10    4.32
   3   0   2   56.09    5.25
   3   0   2   60.01    5.32
   3   0   2   53.91    5.22
  -4   0  -2   14.32    3.37
  -4   0  -2   16.13    3.23
  -4   0  -2   19.65    3.86
  -4   0  -2   27.05    3.65
  -4   0  -2   21.06    4.08
  -4   0  -2   19.42    3.37
   4   0   2   24.72    3.85
   4   0   2   23.39    3.99
   4   0   2   20.60    3.85
   4   0   2   22.65    4.49
  -5   0  -2   55.92    6.96
  -5   0  -2   57.42    7.16
  -5   0  -2   58.69    6.79
   5   0   2   54.01    6.93
   5   0   2   68.98    7.68
   5   0   2   58.97    6.98
  -6   0  -2   30.68    5.81
  -6   0  -2   44.72    6.25
   6   0   2   26.69    5.39
   6   0   2   41.33    7.15
   6   0   2   27.43    5.24
  -7   0  -2    6.78    4.25
  -7   0  -2    5.17    3.96
   7   0   2   13.14    4.87
   7   0   2   14.25    5.59
  -8   0  -2   13.56    4.62
  -8   0  -2   13.14    5.03
  -8   0  -2   10.48    4.83
   8   0   2   12.15    5.95
   8   0   2    6.55    5.74
  -9   0  -2    0.04    4.47
  -9   0  -2    4.12    4.70
  -9   0  -2    2.84    4.56
   9   0   2    9.31    7.05
   9   0   2   20.66    6.75
 -10   0  -2   29.17    7.56
 -10   0  -2   19.24    6.85
  10   0   2   21.88    8.06
 -11   1   2    3.66    5.33
  10  -1  -2    5.70    5.86
 -10   1   2    6.44    4.97
 -10   1   2   -0.38    5.33
   9  -1  -2    8.64    5.57
  -9   1   2   30.69    8.10
  -9   1   2   15.07    5.52
   8  -1  -2   10.23    5.38
  -8   1   2    1.28    3.77
  -8   1   2    7.01    2.61
  -8   1   2   11.09    6.18
   7  -1  -2   80.67   10.56
  -7   1   2   95.09    8.05
  -7   1   2   64.15    9.52
  -7   1   2   95.64   11.55
   6  -1  -2   65.64    8.75
  -6   1   2   57.19    8.09
  -6   1   2   73.01    6.85
  -6   1   2   69.19    8.58
   5  -1  -2   -1.18    2.86
  -5   1   2   -3.46    2.01
  -5   1   2   -1.25    2.85
   4  -1  -2   25.57    4.59
   4  -1  -2   21.37    4.03
   4  -1  -2   26.58    4.41
  -4   1   2   22.31    5.39
  -4   1   2   22.11    4.60
  -4   1   2   22.41    4.45
  -4   1   2   29.77    4.61
  -4   1   2   33.60    4.86
   3  -1  -2   84.42    7.18
   3  -1  -2  104.01    7.64
   3  -1  -2   87.62    7.16
   3  -1  -2   81.52    7.32
  -3   1   2   72.75    7.15
  -3   1   2   79.71    6.90
  -3   1   2   75.21    7.26
  -3   1   2   85.62    8.64
  -3   1   2   75.97    7.04
   2  -1  -2  138.78   10.34
   2  -1  -2  122.12    9.56
   2  -1  -2  108.68    9.25
   2  -1  -2  125.23    9.35
  -2   1   2  120.76    9.34
  -2   1   2  137.62   11.47
  -2   1   2  127.42    9.78
  -2   1   2  111.97    9.25
   1  -1  -2   47.05    4.60
   1  -1  -2   42.85    3.98
   1  -1  -2   36.96    3.61
   1  -1  -2   42.51    3.90
   1  -1  -2   36.94    3.76
  -1   1   2   41.24    3.82
  -1   1   2   38.41    3.66
  -1   1   2   36.79    3.98
   0  -1  -2  155.60   10.38
   0  -1  -2  163.95   10.77
   0  -1  -2  185.85   12.89
   0   1   2  149.49   10.40
   0   1   2  145.87   11.40
   0   1   2  150.76   10.39
  -1  -1  -2   33.72    2.88
  -1  -1  -2   45.19    4.30
  -1  -1  -2   39.14    3.98
  -1  -1  -2   40.96    4.03
  -1  -1  -2   38.21    3.75
   1   1   2   32.89    2.98
   1   1   2   35.55    3.26
   1   1   2   33.03    2.94
  -2  -1  -2   -0.04    1.48
  -2  -1  -2    0.81    1.45
  -2  -1  -2   -0.87    1.86
  -2  -1  -2   -0.39    1.44
  -2  -1  -2    1.70    1.64
  -2  -1  -2   -1.99    1.47
   2   1   2   -1.55    1.41
   2   1   2   -1.27    1.37
   2   1   2   -2.12    1.24
   2   1   2   -1.51    1.59
  -3  -1  -2  104.98    8.62
  -3  -1  -2   90.28    7.60
  -3  -1  -2   86.71    7.61
  -3  -1  -2   93.92    7.50
  -3  -1  -2   99.75    8.50
  -3  -1  -2   96.23    7.56
   3   1   2  103.25    7.73
   3   1   2   90.96    7.55
   3   1   2   97.60    7.74
   3   1   2   95.66    8.40
  -4  -1  -2  199.97   14.46
  -4  -1  -2  201.99   14.63
  -4  -1  -2  196.60   14.59
  -4  -1  -2  221.61   16.56
  -4  -1  -2  194.46   14.59
  -4  -1  -2  204.28   16.19
   4   1   2  197.05   14.36
   4   1   2  196.03   14.73
   4   1   2  193.72   14.59
   4   1   2  196.97   14.63
   4   1   2  204.09   16.45
  -5  -1  -2   49.34    6.66
  -5  -1  -2   56.04    6.58
  -5  -1  -2   45.70    5.23
  -5  -1  -2   50.27    6.26
  -5  -1  -2   38.90    6.25
   5   1   2   48.28    6.84
   5   1   2   50.04    6.33
   5   1   2   38.53    5.80
  -6  -1  -2   29.09    5.20
  -6  -1  -2   12.28    4.40
  -6  -1  -2   22.50    3.58
  -6  -1  -2   26.37    5.20
  -6  -1  -2   18.64    4.81
   6   1   2   16.35    5.38
   6   1   2   19.21    5.05
   6   1   2   14.91    4.50
  -7  -1  -2    3.92    3.54
  -7  -1  -2    0.29    3.40
  -7  -1  -2    7.27    3.81
   7   1   2   -1.34    3.92
   7   1   2   -6.91    3.59
  -8  -1  -2    3.26    4.66
  -8  -1  -2    8.41    4.53
  -8  -1  -2    1.60    3.51
   8   1   2   -1.41    4.74
   8   1   2    0.50    4.97
  -9  -1  -2   17.90    6.60
  -9  -1  -2    3.07    5.11
   9   1   2    1.24    5.17
 -10  -1  -2   11.34    6.52
 -10  -1  -2    0.36    5.86
  10   1   2    2.02    5.93
 -11   2   2    2.30    5.06
  10  -2  -2   15.02    7.25
 -10   2   2   20.82    7.86
 -10   2   2   18.38    6.47
   9  -2  -2   11.07    5.69
  -9   2   2   16.61    6.37
  -9   2   2    1.38    4.13
   8  -2  -2    3.36    4.94
  -8   2   2   11.86    3.20
  -8   2   2    4.04    4.83
  -8   2   2   10.93    4.67
   7  -2  -2   12.62    5.13
  -7   2   2   17.44    5.85
  -7   2   2   17.47    4.75
   6  -2  -2    0.20    5.32
   6  -2  -2    0.92    1.82
   6  -2  -2    1.29    3.46
  -6   2   2   -3.84    3.36
  -6   2   2   -1.14    3.21
   5  -2  -2    3.45    4.87
   5  -2  -2   11.89    4.14
  -5   2   2    4.23    3.42
  -5   2   2    9.52    3.83
  -5   2   2    9.82    4.06
   4  -2  -2   -2.54    1.68
   4  -2  -2   -1.61    3.42
   4  -2  -2   -2.24    1.96
   4  -2  -2   -0.96    2.56
  -4   2   2    1.28    2.62
  -4   2   2    1.30    2.50
  -4   2   2   -2.34    3.27
  -4   2   2    0.17    2.10
   3  -2  -2   64.77    6.18
   3  -2  -2   60.12    6.18
   3  -2  -2   69.15    7.80
   3  -2  -2   60.43    6.21
  -3   2   2   60.49    6.08
  -3   2   2   64.32    6.42
  -3   2   2   57.38    6.07
  -3   2   2   64.67    8.40
   2  -2  -2  115.33    8.11
   2  -2  -2   86.72    9.52
   2  -2  -2   97.94    8.36
   2  -2  -2  102.45    7.70
   2  -2  -2  102.72    8.00
  -2   2   2   98.23    8.39
  -2   2   2   88.75    7.87
  -2   2   2  101.44    7.96
  -2   2   2  102.22    9.76
   1  -2  -2  132.36    9.52
   1  -2  -2  129.73    9.54
   1  -2  -2  131.04   10.29
   1  -2  -2  136.59    9.57
  -1   2   2  139.43   11.59
  -1   2   2  132.94    9.67
  -1   2   2  118.18    9.46
  -1   2   2  139.70   10.40
   0  -2  -2   53.11    5.12
   0  -2  -2   46.66    4.22
   0  -2  -2   46.16    4.24
   0  -2  -2   55.82    5.90
   0  -2  -2   49.04    5.13
   0   2   2   45.98    4.15
   0   2   2   55.11    4.35
   0   2   2   47.96    5.35
  -1  -2  -2  128.85    9.18
  -1  -2  -2  142.01   11.50
  -1  -2  -2  108.18    9.29
  -1  -2  -2  126.85    9.12
   1   2   2  136.30    9.31
   1   2   2  141.84    9.29
  -2  -2  -2   53.30    5.69
  -2  -2  -2   54.12    5.14
  -2  -2  -2   55.88    4.66
  -2  -2  -2   55.75    5.92
   2   2   2   55.02    5.08
   2   2   2   50.22    4.61
   2   2   2   49.07    4.56
   2   2   2   56.03    4.85
  -3  -2  -2   40.99    5.38
  -3  -2  -2   37.22    4.94
  -3  -2  -2   31.19    4.71
  -3  -2  -2   40.47    4.61
  -3  -2  -2   37.90    4.47
   3   2   2   31.24    4.36
   3   2   2   31.26    3.67
   3   2   2   37.33    4.60
   3   2   2   39.65    5.10
  -4  -2  -2   55.74    7.06
  -4  -2  -2   61.28    6.68
  -4  -2  -2   61.70    6.10
  -4  -2  -2   70.91    6.40
  -4  -2  -2   70.59    7.67
   4   2   2   66.30    6.35
   4   2   2   62.70    5.77
   4   2   2   65.05    6.47
   4   2   2   66.79    6.36
  -5  -2  -2    9.37    2.86
  -5  -2  -2    8.45    3.57
  -5  -2  -2   11.71    3.17
  -5  -2  -2   14.52    4.21
  -5  -2  -2   11.51    4.12
   5   2   2   14.08    3.79
   5   2   2   13.64    2.56
   5   2   2   13.26    3.90
   5   2   2    5.65    3.56
  -6  -2  -2    6.67    2.56
  -6  -2  -2    9.52    4.31
  -6  -2  -2   16.51    3.61
  -6  -2  -2    2.59    3.59
  -6  -2  -2    3.51    3.62
   6   2   2    2.07    3.74
   6   2   2   12.89    4.40
   6   2   2   18.87    4.62
  -7  -2  -2    9.05    4.44
  -7  -2  -2   18.11    5.07
  -7  -2  -2    2.65    3.78
   7   2   2    0.63    3.87
  -8  -2  -2    5.43    4.49
  -8  -2  -2    4.90    4.83
  -8  -2  -2   -1.97    3.44
   8   2   2    9.65    5.30
  -9  -2  -2    1.26    5.09
  -9  -2  -2    2.73    4.45
   9   2   2    5.13    5.93
 -10  -2  -2    1.58    5.61
 -10  -2  -2   -2.57    5.88
  10   2   2   -0.38    6.07
  10  -3  -2    3.43    5.82
 -10   3   2    6.71    6.74
 -10   3   2   11.51    5.55
   9  -3  -2   -8.28    3.42
  -9   3   2   -0.83    3.85
  -9   3   2   -8.87    4.50
   8  -3  -2    3.68    4.55
  -8   3   2    6.22    4.15
  -8   3   2    6.54    5.30
   7  -3  -2    3.06    5.80
   7  -3  -2    0.57    4.16
  -7   3   2    2.98    3.64
  -7   3   2    1.94    3.86
   6  -3  -2    3.44    5.33
   6  -3  -2   -0.54    3.24
  -6   3   2   -0.29    3.55
  -6   3   2    0.95    3.32
  -6   3   2    0.61    3.56
   5  -3  -2    2.37    3.39
   5  -3  -2   -2.37    4.27
  -5   3   2   -0.17    3.15
  -5   3   2    0.91    2.46
   4  -3  -2   89.97   11.19
   4  -3  -2  109.98    9.57
  -4   3   2  105.52    9.49
  -4   3   2  111.33    9.49
  -4   3   2  108.28    9.99
   3  -3  -2  161.21   12.11
   3  -3  -2  143.23   10.66
   3  -3  -2  149.15   11.37
   3  -3  -2  143.16   11.15
   3  -3  -2  145.22   13.63
  -3   3   2  145.40   11.34
  -3   3   2  139.67   13.36
  -3   3   2  134.20   11.27
  -3   3   2  128.68   11.72
   2  -3  -2   -1.00    2.93
   2  -3  -2    3.44    2.25
   2  -3  -2   -1.29    1.89
   2  -3  -2    1.91    1.80
   2  -3  -2   -2.26    1.72
  -2   3   2    2.61    1.93
  -2   3   2    2.42    2.21
  -2   3   2    0.42    2.86
  -2   3   2    2.73    2.17
   1  -3  -2   53.65    5.11
   1  -3  -2   48.13    4.84
   1  -3  -2   56.59    5.65
   1  -3  -2   61.74    5.32
   1  -3  -2   59.33    6.30
  -1   3   2   53.56    6.09
  -1   3   2   57.80    5.27
  -1   3   2   53.76    6.18
  -1   3   2   51.41    5.15
   0  -3  -2   75.74    6.00
   0  -3  -2   66.81    6.59
   0  -3  -2   62.54    5.73
   0  -3  -2   74.90    6.17
   0   3   2   71.04    6.64
   0   3   2   64.35    5.95
   0   3   2   75.78    6.77
   0   3   2   65.44    5.80
  -1  -3  -2   89.77    7.55
  -1  -3  -2   99.66    7.18
  -1  -3  -2   80.11    7.00
   1   3   2   86.86    7.18
   1   3   2   96.55    7.24
   1   3   2   88.98    8.12
   1   3   2   91.19    7.51
  -2  -3  -2   78.89    7.92
  -2  -3  -2   80.25    6.93
  -2  -3  -2   61.47    6.11
  -2  -3  -2   77.72    6.67
  -2  -3  -2   85.71    6.38
   2   3   2   65.70    6.36
   2   3   2   68.05    6.25
   2   3   2   71.66    6.51
  -3  -3  -2   54.52    6.13
  -3  -3  -2   69.01    7.22
  -3  -3  -2   53.63    7.17
  -3  -3  -2   45.45    6.18
   3   3   2   40.03    5.34
   3   3   2   47.23    5.78
  -4  -3  -2   58.42    6.61
  -4  -3  -2   60.92    7.40
  -4  -3  -2   43.36    6.83
  -4  -3  -2   41.30    6.37
   4   3   2   59.57    6.68
   4   3   2   52.07    6.20
   4   3   2   55.13    6.54
  -5  -3  -2   57.96    7.42
  -5  -3  -2   59.12    7.94
  -5  -3  -2   66.59    8.33
  -5  -3  -2   58.49    7.64
   5   3   2   52.15    7.20
   5   3   2   56.28    7.44
   5   3   2   65.77    6.21
  -6  -3  -2    3.19    2.51
  -6  -3  -2   -1.68    3.45
  -6  -3  -2    0.62    3.43
  -6  -3  -2   -0.75    2.76
   6   3   2    3.26    3.48
   6   3   2   -1.81    2.90
   6   3   2    0.09    1.95
  -7  -3  -2   -3.19    3.49
  -7  -3  -2    0.18    4.06
  -7  -3  -2   -0.38    3.37
   7   3   2    3.46    4.11
  -8  -3  -2   -5.75    4.03
  -8  -3  -2   -5.00    3.59
  -8  -3  -2   -2.90    3.71
   8   3   2    4.15    4.70
  -9  -3  -2   -0.74    5.10
  -9  -3  -2    1.64    4.52
   9   3   2    2.17    6.09
  10  -4  -2   20.30    7.99
 -10   4   2   12.97    5.80
 -10   4   2   17.15    7.49
   9  -4  -2   -0.63    4.80
  -9   4   2    2.73    4.47
  -9   4   2   -0.59    4.67
   8  -4  -2   24.15    8.62
   8  -4  -2   29.04    7.22
  -8   4   2   28.96    7.48
  -8   4   2   21.83    6.22
   7  -4  -2    7.31    4.91
   7  -4  -2    6.55    6.10
  -7   4   2   11.63    5.12
  -7   4   2    9.35    4.26
  -7   4   2   10.61    4.55
   6  -4  -2   87.67   11.07
   6  -4  -2   89.71   13.78
  -6   4   2  103.29   10.08
  -6   4   2  108.04   11.15
   5  -4  -2   96.66    9.54
   5  -4  -2  101.30   13.23
  -5   4   2   91.71   10.68
  -5   4   2   68.79    9.24
   4  -4  -2   84.04   11.56
   4  -4  -2   87.74    8.51
  -4   4   2   85.95    8.77
  -4   4   2   71.74    8.82
   3  -4  -2   -2.63    1.62
   3  -4  -2    2.87    3.90
   3  -4  -2    1.76    2.78
  -3   4   2   -1.17    2.54
  -3   4   2    1.05    2.61
  -3   4   2    2.13    2.48
   2  -4  -2   -1.23    2.98
   2  -4  -2   -1.08    1.98
   2  -4  -2   -0.48    1.98
   2  -4  -2   -0.92    2.00
   2  -4  -2   -0.64    2.29
  -2   4   2    2.19    2.49
  -2   4   2    2.17    2.46
  -2   4   2    1.49    3.08
  -2   4   2   -2.20    1.91
   1  -4  -2    0.25    3.02
   1  -4  -2   -0.63    2.08
   1  -4  -2   -3.00    1.82
   1  -4  -2    2.02    2.08
   1  -4  -2    1.29    2.08
  -1   4   2   -1.88    1.80
  -1   4   2    0.44    3.08
  -1   4   2   -0.84    2.00
  -1   4   2   -2.82    2.08
   0  -4  -2  131.78    9.87
   0  -4  -2  113.99    9.72
   0  -4  -2  128.41    9.71
   0   4   2  113.66    9.60
   0   4   2  115.33   10.52
   0   4   2  129.19   10.72
   0   4   2  136.05    9.91
  -1  -4  -2   61.07    5.75
  -1  -4  -2   50.91    6.38
  -1  -4  -2   52.33    5.38
   1   4   2   59.27    6.46
   1   4   2   53.60    6.85
   1   4   2   58.31    5.21
   1   4   2   58.15    5.79
  -2  -4  -2    6.29    3.18
  -2  -4  -2    5.38    2.86
   2   4   2    5.84    2.63
   2   4   2    7.34    2.57
  -3  -4  -2  103.29    8.76
  -3  -4  -2   97.56    8.47
  -3  -4  -2   86.03    8.43
  -3  -4  -2   81.67    9.79
   3   4   2   96.99    8.51
   3   4   2   92.34    8.31
  -4  -4  -2   24.92    5.39
  -4  -4  -2   18.13    5.11
  -4  -4  -2   20.57    4.91
   4   4   2   25.89    4.66
   4   4   2   20.02    4.45
   4   4   2   11.67    4.09
  -5  -4  -2   36.27    7.05
  -5  -4  -2   51.50    7.57
  -5  -4  -2   55.90    8.16
  -5  -4  -2   59.59    7.34
   5   4   2   50.52    7.31
   5   4   2   49.58    6.69
   5   4   2   62.58    7.74
  -6  -4  -2   29.95    6.48
  -6  -4  -2   18.32    4.53
  -6  -4  -2   12.02    4.64
  -6  -4  -2   29.58    5.95
   6   4   2   29.45    6.51
  -7  -4  -2    2.86    3.83
  -7  -4  -2    0.06    3.47
  -7  -4  -2    3.05    4.63
   7   4   2    4.35    4.44
  -8  -4  -2    1.89    4.28
  -8  -4  -2    2.86    4.68
   8   4   2   -2.37    4.64
  -9  -4  -2    1.46    5.66
  -9  -4  -2    0.67    5.07
   9   4   2   -0.32    5.54
  10  -5  -2   -1.93    5.98
 -10   5   2    2.22    4.95
 -10   5   2    6.40    6.98
   9  -5  -2    1.05    5.42
   9  -5  -2    5.83    7.34
  -9   5   2    1.44    5.84
  -9   5   2   -1.90    3.78
   8  -5  -2    4.15    5.23
   8  -5  -2   -5.52    6.20
  -8   5   2    6.15    5.01
  -8   5   2    7.09    4.75
  -8   5   2    4.66    5.15
   7  -5  -2    1.04    4.38
   7  -5  -2   -0.48    5.70
  -7   5   2    7.21    4.94
  -7   5   2   -2.13    3.11
  -7   5   2    2.83    4.32
   6  -5  -2    4.86    4.46
   6  -5  -2    3.54    5.97
  -6   5   2    6.72    4.44
  -6   5   2   -2.21    3.79
   5  -5  -2   32.40    8.13
   5  -5  -2   22.26    5.81
  -5   5   2   24.94    5.73
  -5   5   2   38.11    6.90
   4  -5  -2   30.76    5.56
   4  -5  -2   20.38    6.67
   4  -5  -2   21.18    4.15
  -4   5   2   28.93    6.03
  -4   5   2   21.92    5.39
   3  -5  -2   19.21    5.87
   3  -5  -2   16.00    3.59
   3  -5  -2   24.63    5.08
  -3   5   2   19.12    4.17
  -3   5   2   22.55    4.62
  -3   5   2   19.60    4.69
   2  -5  -2   46.39    6.16
   2  -5  -2   34.62    6.90
   2  -5  -2   40.22    5.62
  -2   5   2   53.07    6.73
  -2   5   2   46.72    6.25
  -2   5   2   45.68    6.67
  -2   5   2   51.95    7.55
   1  -5  -2   51.55    7.69
   1  -5  -2   55.48    6.66
   1  -5  -2   63.75    7.03
  -1   5   2   57.01    6.85
  -1   5   2   67.90    7.49
  -1   5   2   58.86    6.98
  -1   5   2   58.91    7.45
   0  -5  -2   12.31    3.54
   0  -5  -2   15.11    3.79
   0   5   2    7.29    3.41
   0   5   2   14.66    3.66
   0   5   2   11.14    3.43
   0   5   2   12.75    3.43
  -1  -5  -2    2.22    2.64
  -1  -5  -2    4.36    3.30
   1   5   2    4.86    2.64
   1   5   2    2.52    3.00
   1   5   2    0.49    1.58
  -2  -5  -2   70.17    7.58
  -2  -5  -2   67.77    8.18
   2   5   2   60.63    7.19
   2   5   2   63.06    7.20
   2   5   2   42.44    7.27
  -3  -5  -2   12.70    4.93
  -3  -5  -2   13.23    4.56
  -3  -5  -2   10.50    3.53
   3   5   2   17.54    4.33
   3   5   2   14.95    3.90
  -4  -5  -2   27.09    5.97
  -4  -5  -2   22.11    4.83
  -4  -5  -2   17.74    5.04
  -4  -5  -2   18.07    5.50
   4   5   2   29.37    5.50
   4   5   2   24.92    4.91
  -5  -5  -2   -0.76    2.98
  -5  -5  -2   -0.68    2.79
  -5  -5  -2    0.32    3.32
  -5  -5  -2   -6.83    2.90
   5   5   2    3.34    3.55
  -6  -5  -2   -0.66    3.43
  -6  -5  -2   -3.83    3.85
  -6  -5  -2    4.77    3.95
   6   5   2    1.84    4.78
  -7  -5  -2    7.23    5.41
  -7  -5  -2    7.96    5.02
   7   5   2   10.42    6.07
  -8  -5  -2   -0.37    4.96
  -8  -5  -2    1.77    4.78
   8   5   2    3.01    5.59
  -9  -5  -2   10.29    7.20
  -9  -5  -2    7.43    5.74
  10  -6  -2   -1.47    6.09
 -10   6   2    3.86    5.52
 -10   6   2    5.96    7.32
   9  -6  -2  -12.19    5.59
   9  -6  -2    4.44    6.26
  -9   6   2   -2.56    4.12
  -9   6   2    0.83    4.04
   8  -6  -2   18.85    6.85
   8  -6  -2   20.31    8.29
  -8   6   2   23.12    7.47
  -8   6   2   26.98    7.35
  -8   6   2   12.61    5.71
   7  -6  -2    5.76    6.43
   7  -6  -2   -5.58    3.69
  -7   6   2   -4.18    3.88
  -7   6   2    9.08    5.45
   6  -6  -2    0.42    5.58
   6  -6  -2   -0.97    3.92
  -6   6   2    1.20    4.10
  -6   6   2    6.84    4.51
   5  -6  -2   26.50    6.38
   5  -6  -2   35.28    8.72
  -5   6   2   38.57    7.08
  -5   6   2   41.71    7.78
   4  -6  -2   49.77    9.03
   4  -6  -2   33.10    6.30
   4  -6  -2   34.83    5.43
  -4   6   2   44.77    7.71
  -4   6   2   32.54    6.62
   3  -6  -2    7.96    4.09
   3  -6  -2    4.20    2.83
   3  -6  -2    7.28    5.51
  -3   6   2   13.30    4.54
  -3   6   2    7.24    3.80
   2  -6  -2   33.00    5.52
   2  -6  -2   30.99    6.82
   2  -6  -2   36.37    6.11
  -2   6   2   35.81    5.98
  -2   6   2   35.80    6.61
  -2   6   2   40.79    6.16
   1  -6  -2    5.37    3.11
   1  -6  -2    2.69    3.15
   1  -6  -2    6.00    4.37
  -1   6   2    7.20    3.43
  -1   6   2    9.25    3.86
  -1   6   2    1.08    3.41
  -1   6   2    5.23    3.26
   0  -6  -2   -2.80    2.62
   0  -6  -2    2.05    2.79
   0   6   2    2.10    2.82
   0   6   2   -4.75    2.00
   0   6   2    4.83    2.74
   0   6   2    2.20    3.46
  -1  -6  -2   25.77    5.11
  -1  -6  -2   26.79    5.68
   1   6   2   26.91    3.89
   1   6   2   24.18    5.11
   1   6   2   17.96    4.99
  -2  -6  -2   16.35    5.16
  -2  -6  -2   17.32    4.62
   2   6   2   11.50    4.26
   2   6   2    8.53    3.93
   2   6   2   20.06    4.83
  -3  -6  -2    2.75    4.03
  -3  -6  -2   10.97    3.81
   3   6   2    5.26    3.14
   3   6   2   19.36    5.19
   3   6   2   -0.39    3.26
  -4  -6  -2    5.87    3.59
  -4  -6  -2    3.28    4.20
  -4  -6  -2    2.91    4.75
   4   6   2   -0.11    3.63
  -5  -6  -2   -4.61    3.39
  -5  -6  -2   -3.46    3.95
  -5  -6  -2    0.95    3.45
   5   6   2   -0.08    4.15
  -6  -6  -2    3.05    4.16
  -6  -6  -2    5.69    4.41
  -6  -6  -2    7.22    4.92
  -6  -6  -2   10.66    4.86
   6   6   2    8.35    4.83
  -7  -6  -2    8.51    5.62
  -7  -6  -2   11.84    5.72
   7   6   2   22.16    7.23
  -8  -6  -2    2.83    5.37
  -8  -6  -2    2.51    5.92
   8   6   2   10.44    7.40
   9  -7  -2   11.76    8.46
   9  -7  -2    0.75    6.25
  -9   7   2   15.11    6.46
  -9   7   2   11.86    7.32
  -9   7   2    6.90    5.01
   8  -7  -2    5.01    7.53
   8  -7  -2   -2.30    5.52
  -8   7   2   18.44    6.69
  -8   7   2   -4.58    4.82
   7  -7  -2   -2.21    3.41
   7  -7  -2    1.86    6.50
  -7   7   2   -0.59    4.33
  -7   7   2   -1.44    4.91
   6  -7  -2   44.32    8.38
   6  -7  -2   30.09    9.47
  -6   7   2   37.01    7.75
  -6   7   2   26.33    7.22
   5  -7  -2   32.57    7.16
   5  -7  -2   30.13    5.29
   5  -7  -2   34.46    9.13
  -5   7   2   33.54    6.69
  -5   7   2   37.09    7.73
   4  -7  -2   61.93    7.76
   4  -7  -2   67.37   11.46
   4  -7  -2   64.63    9.02
  -4   7   2   75.05   10.49
  -4   7   2   79.74   10.13
   3  -7  -2   22.70    4.79
   3  -7  -2   24.19    5.59
   3  -7  -2   15.65    6.37
  -3   7   2   11.89    5.21
  -3   7   2   23.61    5.96
   2  -7  -2   14.47    6.02
   2  -7  -2   18.25    5.01
   2  -7  -2   24.71    4.94
  -2   7   2   19.67    4.92
  -2   7   2   13.78    5.00
   1  -7  -2   28.81    5.50
   1  -7  -2   25.29    6.27
   1  -7  -2   33.28    6.27
  -1   7   2   31.52    6.08
  -1   7   2   40.56    6.43
  -1   7   2   41.83    7.07
   0  -7  -2    7.74    3.98
   0  -7  -2    1.48    3.35
   0   7   2    7.90    3.35
   0   7   2   14.05    4.44
   0   7   2    2.02    3.83
  -1  -7  -2    6.24    3.85
  -1  -7  -2    6.13    4.16
   1   7   2    4.42    3.77
   1   7   2    6.95    2.38
   1   7   2    0.92    3.50
  -2  -7  -2    1.24    3.07
  -2  -7  -2   -1.40    3.68
   2   7   2   -1.20    3.18
   2   7   2   -1.35    2.92
  -3  -7  -2    8.29    4.13
  -3  -7  -2   10.74    4.31
   3   7   2   13.67    4.77
   3   7   2    4.68    3.95
  -4  -7  -2    8.94    5.13
  -4  -7  -2   10.42    4.88
  -4  -7  -2    5.37    3.80
   4   7   2    5.86    4.90
   4   7   2    0.65    4.13
  -5  -7  -2   32.23    7.63
  -5  -7  -2   39.31    6.93
  -5  -7  -2   37.40    7.89
   5   7   2   39.59    8.22
   5   7   2   31.91    7.35
  -6  -7  -2   12.79    6.55
  -6  -7  -2    0.93    3.96
   6   7   2    7.23    5.66
  -7  -7  -2   35.42    8.49
   7   7   2   28.73    7.90
   9  -8  -2   21.74    8.68
   9  -8  -2   -0.19    9.08
  -9   8   2   17.85    8.57
  -9   8   2   12.59    6.69
  -9   8   2   31.43    8.68
   8  -8  -2   -0.95    5.75
   8  -8  -2   -7.99    6.30
  -8   8   2   -2.95    5.12
  -8   8   2    1.46    5.59
   7  -8  -2   16.67    7.22
   7  -8  -2    7.36    8.18
  -7   8   2   17.27    7.34
  -7   8   2    9.11    6.30
   6  -8  -2    0.04    3.94
   6  -8  -2    3.50    6.87
  -6   8   2    5.18    5.28
  -6   8   2    1.59    5.06
   5  -8  -2    5.87    4.66
   5  -8  -2    0.74    3.22
   5  -8  -2    6.13    6.91
  -5   8   2    6.71    5.05
  -5   8   2   -1.21    4.35
   4  -8  -2   16.00    7.31
   4  -8  -2   12.81    4.56
   4  -8  -2   12.25    4.09
  -4   8   2   17.34    6.19
  -4   8   2   14.10    5.45
   3  -8  -2   17.63    4.82
   3  -8  -2    4.35    4.54
   3  -8  -2    8.13    6.04
  -3   8   2   15.59    5.39
  -3   8   2   15.27    5.24
   2  -8  -2   60.44   10.01
   2  -8  -2   63.71    8.32
   2  -8  -2   59.24    8.67
  -2   8   2   61.36    8.94
  -2   8   2   50.03    8.73
   1  -8  -2    4.76    3.83
   1  -8  -2    2.49    4.42
   1  -8  -2    5.83    3.95
  -1   8   2    0.23    3.69
  -1   8   2    3.21    3.70
   0  -8  -2  123.16   11.40
   0  -8  -2  115.98   11.10
   0   8   2   97.48   12.71
   0   8   2  113.94   11.33
  -1  -8  -2    0.74    3.65
  -1  -8  -2    4.05    4.32
   1   8   2    4.56    4.58
   1   8   2    1.55    3.75
  -2  -8  -2    2.26    3.61
  -2  -8  -2    3.08    3.69
   2   8   2    0.50    4.15
   2   8   2   -2.24    3.36
  -3  -8  -2   10.59    4.35
  -3  -8  -2   13.87    5.57
   3   8   2    3.45    4.80
   3   8   2    4.64    4.23
  -4  -8  -2   20.30    7.36
  -4  -8  -2   47.62    7.77
  -4  -8  -2   39.06    8.10
   4   8   2   26.85    6.81
   4   8   2   33.80    7.67
  -5  -8  -2    1.14    5.15
  -5  -8  -2   10.85    5.65
   5   8   2    1.53    5.26
   5   8   2   16.97    6.14
  -6  -8  -2    6.62    4.96
  -6  -8  -2    4.08    5.53
   6   8   2   11.00    5.14
   6   8   2    5.19    5.73
   8  -9  -2    8.17    6.93
   8  -9  -2   -2.03    8.61
  -8   9   2    4.04    7.05
  -8   9   2    1.36    5.22
   7  -9  -2    3.43    5.72
   7  -9  -2    9.68    8.71
  -7   9   2   16.68    7.38
  -7   9   2    2.15    5.61
   6  -9  -2    4.94    5.62
   6  -9  -2    3.81    8.44
  -6   9   2   -3.49    5.23
  -6   9   2   18.52    6.79
   5  -9  -2   10.70    7.54
   5  -9  -2   10.68    4.52
   5  -9  -2   10.42    5.60
  -5   9   2    3.55    5.05
  -5   9   2   10.45    6.09
   4  -9  -2    2.21    4.59
   4  -9  -2   -0.51    5.58
   4  -9  -2    3.24    3.78
  -4   9   2   -0.39    4.89
  -4   9   2    4.66    4.80
   3  -9  -2   71.55   10.41
   3  -9  -2   52.07   11.34
   3  -9  -2  100.20   10.99
  -3   9   2   76.25   10.75
  -3   9   2   93.37   11.92
   2  -9  -2   21.34    7.20
   2  -9  -2   33.10    6.65
   2  -9  -2   30.03    6.83
  -2   9   2   29.94    7.03
  -2   9   2   30.59    7.25
   1  -9  -2   12.70    4.99
   1  -9  -2   11.61    5.08
  -1   9   2   15.21    5.50
  -1   9   2    7.86    4.89
   0  -9  -2   -4.14    3.36
   0  -9  -2   11.43    4.98
   0   9   2   -2.10    4.06
   0   9   2   -5.29    3.46
  -1  -9  -2    0.27    3.86
  -1  -9  -2    0.93    3.93
   1   9   2   -5.06    3.70
   1   9   2    0.61    3.88
  -2  -9  -2   12.96    5.93
  -2  -9  -2    5.70    4.41
   2   9   2   17.53    6.00
   2   9   2    6.02    4.41
  -3  -9  -2   -4.59    4.00
  -3  -9  -2   -1.36    4.43
   3   9   2    2.80    4.13
   3   9   2    3.17    5.08
  -4  -9  -2    7.27    5.52
  -4  -9  -2   -7.96    4.39
   4   9   2    5.41    4.83
   4   9   2   -1.33    4.36
  -5  -9  -2    7.90    6.35
  -5  -9  -2    0.47    4.72
   5   9   2   11.40    5.41
   5   9   2    5.30    5.68
   7 -10  -2    8.53    7.00
   7 -10  -2   -8.22    7.41
  -7  10   2    7.58    6.25
  -7  10   2    3.07    7.11
   6 -10  -2    0.55    5.40
   6 -10  -2    5.40    7.70
  -6  10   2    1.92    6.44
  -6  10   2    3.51    6.07
   5 -10  -2    0.45    4.23
   5 -10  -2   -8.31    6.52
   5 -10  -2   -1.93    4.85
  -5  10   2    5.94    5.79
  -5  10   2   -2.06    5.10
   4 -10  -2   49.55    9.34
   4 -10  -2   41.92    7.38
   4 -10  -2   45.60   10.70
  -4  10   2   40.13    8.90
  -4  10   2   29.39    8.44
   3 -10  -2   -0.07    6.26
   3 -10  -2   12.72    5.65
   3 -10  -2   12.09    5.19
  -3  10   2   17.35    6.42
  -3  10   2   11.38    6.14
   2 -10  -2   -0.22    4.98
   2 -10  -2   -2.25    3.94
   2 -10  -2    1.09    4.48
  -2  10   2   -2.90    4.42
  -2  10   2   -0.09    4.71
   1 -10  -2   -2.55    3.76
   1 -10  -2    7.51    5.18
  -1  10   2   -2.26    4.57
  -1  10   2    1.26    5.15
   0 -10  -2    6.57    5.26
   0 -10  -2    3.13    4.45
   0  10   2    8.84    5.50
   0  10   2    3.54    5.49
  -1 -10  -2   22.90    6.41
  -1 -10  -2   16.69    5.98
   1  10   2    4.41    6.22
   1  10   2   14.57    6.27
  -2 -10  -2    2.38    4.83
   2  10   2    8.10    5.09
   2  10   2   -1.97    5.19
  -3 -10  -2   -1.73    4.52
  -3 -10  -2    1.06    6.26
   3  10   2    0.36    5.51
   3  10   2   -0.21    4.25
  -4 -10  -2    0.13    5.50
  -4 -10  -2   -1.53    5.36
   4  10   2    1.00    4.64
   4  10   2    2.66    6.54
   5 -11  -2   -0.01    6.24
   5 -11  -2    2.13    5.12
   5 -11  -2    0.22    6.96
  -5  11   2    1.38    6.64
  -5  11   2   -0.14    5.93
   4 -11  -2  -10.10    4.79
   4 -11  -2    4.34    4.61
   4 -11  -2   -1.50    6.28
  -4  11   2   -4.98    4.89
  -4  11   2   -4.53    5.29
   3 -11  -2    0.66    5.94
   3 -11  -2   -0.73    5.74
   3 -11  -2    4.48    5.45
  -3  11   2    1.39    5.67
  -3  11   2    1.12    5.58
   2 -11  -2   18.53    7.39
   2 -11  -2   29.75    7.83
  -2  11   2   30.20    8.46
  -2  11   2   21.43    8.16
   1 -11  -2    5.58    5.35
   1 -11  -2    3.81    5.39
  -1  11   2    7.80    6.53
  -1  11   2   -2.79    5.13
   0 -11  -2   17.42    6.59
   0 -11  -2   10.40    5.80
   0  11   2   28.10    7.86
   0  11   2   13.45    6.87
  -1 -11  -2   10.61    6.31
   1  11   2   -5.54    5.19
   1  11   2    5.85    6.05
  -2 -11  -2   17.96    7.34
   2  11   2   35.08    9.37
   2  11   2   13.12    6.48
   2 -12  -2    6.78    6.22
   1 -12  -2   13.41    6.95
  -1 -12   3    4.62    6.67
   0  12  -3   59.62   11.42
   0 -12   3   78.57   13.01
   0 -12   3   83.82   11.80
  -1  12  -3   15.42    7.44
   1 -12   3   10.44    5.98
   1 -12   3    2.70    6.23
  -2  12  -3    4.93    5.63
  -2  12  -3    6.82    6.92
   2 -12   3    2.27    6.22
   2 -12   3    4.05    7.44
  -3  12  -3    1.44    6.06
  -3  12  -3   -5.71    4.56
   3 -12   3   -2.93    5.23
   3 -12   3  -10.87    7.86
   4 -12   3   -3.41    7.23
   3  11  -3   -6.83    4.76
   3  11  -3    9.55    7.10
  -3 -11   3   17.57    7.07
  -3 -11   3   -1.23    4.44
   2  11  -3   -3.43    3.86
   2  11  -3    6.26    5.85
  -2 -11   3    3.71    5.27
  -2 -11   3    2.02    5.02
   1  11  -3   19.06    6.17
   1  11  -3   15.88    6.97
   1  11  -3   25.35    6.38
  -1 -11   3   43.79    8.30
  -1 -11   3   29.25    7.81
   0  11  -3   15.28    4.85
   0  11  -3   21.21    6.44
   0  11  -3   13.58    6.58
   0 -11   3   13.46    6.95
   0 -11   3   12.05    6.06
   0 -11   3   12.25    7.06
  -1  11  -3    6.25    5.77
  -1  11  -3   -0.21    4.39
   1 -11   3    2.18    5.58
   1 -11   3   -0.83    4.38
   1 -11   3    0.01    5.94
  -2  11  -3    4.64    6.04
  -2  11  -3   -3.12    4.10
   2 -11   3    4.80    5.55
   2 -11   3  -15.02    5.08
  -3  11  -3    3.63    5.80
  -3  11  -3    0.74    4.58
   3 -11   3    0.39    4.88
   3 -11   3   -4.81    6.47
  -4  11  -3   36.01    9.23
  -4  11  -3   35.46    8.39
   4 -11   3   24.51   10.16
   4 -11   3   39.30    9.09
  -5  11  -3   10.18    7.09
  -5  11  -3    4.18    5.21
   5 -11   3    3.64    8.09
   5 -11   3    0.79    6.16
  -6  11  -3   13.21    7.14
  -6  11  -3    2.30    5.11
   6 -11   3   -7.46    8.95
   6 -11   3   17.69    8.02
  -5 -10   3    9.86    6.32
   4  10  -3   -1.48    5.37
  -4 -10   3   -8.21    4.67
  -4 -10   3    5.42    6.52
   3  10  -3   16.35    6.74
   3  10  -3   14.46    5.48
  -3 -10   3   16.94    6.80
  -3 -10   3   19.44    6.52
   2  10  -3   -1.37    4.64
   2  10  -3   -0.12    3.87
   2  10  -3    0.24    3.84
  -2 -10   3    2.76    4.55
  -2 -10   3   -1.07    4.15
   1  10  -3   -6.96    3.12
   1  10  -3    2.84    3.74
   1  10  -3    1.71    4.56
  -1 -10   3    1.76    4.26
  -1 -10   3    4.43    4.48
  -1 -10   3    3.29    4.82
   0  10  -3   18.96    4.97
   0  10  -3   17.03    6.35
   0  10  -3    9.35    4.54
   0 -10   3   17.00    6.47
   0 -10   3   19.60    6.07
   0 -10   3   14.56    6.14
  -1  10  -3   -4.78    3.24
  -1  10  -3    1.59    2.93
  -1  10  -3    1.05    4.22
   1 -10   3    1.91    4.56
   1 -10   3    6.04    4.42
   1 -10   3    3.99    5.60
  -2  10  -3   -8.14    3.29
  -2  10  -3    0.73    4.79
  -2  10  -3    3.86    2.79
   2 -10   3   -0.65    3.39
   2 -10   3    1.16    6.16
   2 -10   3   -2.53    3.98
  -3  10  -3   75.68   10.81
  -3  10  -3   64.22   11.13
   3 -10   3   95.27   12.47
   3 -10   3   88.59   14.44
  -4  10  -3   15.15    6.51
  -4  10  -3    6.57    5.05
   4 -10   3   13.93    8.48
   4 -10   3   10.05    5.83
  -5  10  -3   11.62    5.72
  -5  10  -3   -2.05    5.40
   5 -10   3   -3.88    4.61
   5 -10   3   -5.78    6.81
  -6  10  -3   12.53    5.42
  -6  10  -3   23.58    7.58
   6 -10   3   15.71    7.01
   6 -10   3   20.28    9.98
  -7  10  -3    6.90    7.63
   7 -10   3   13.28   10.03
   7 -10   3   17.04    7.91
   6   9  -3    5.51    5.89
  -6  -9   3   -0.08    5.40
  -6  -9   3   -1.57    5.93
   5   9  -3   -4.88    4.50
   5   9  -3   -2.04    3.28
  -5  -9   3   -4.52    4.46
  -5  -9   3    4.12    5.58
   4   9  -3   11.49    4.46
   4   9  -3    4.77    5.39
  -4  -9   3   13.54    6.08
  -4  -9   3   12.77    6.67
   3   9  -3   -0.91    4.25
   3   9  -3    1.32    3.39
  -3  -9   3   -2.13    4.17
  -3  -9   3    5.55    4.70
   2   9  -3   10.82    4.57
   2   9  -3   11.25    5.57
   2   9  -3    8.67    4.96
  -2  -9   3   19.82    6.28
  -2  -9   3    5.98    4.67
  -2  -9   3   16.82    4.80
   1   9  -3    2.62    4.47
   1   9  -3   10.71    4.52
   1   9  -3    7.09    3.87
  -1  -9   3   -2.80    4.08
  -1  -9   3    6.56    4.72
  -1  -9   3    1.13    3.82
   0   9  -3    4.93    3.57
   0   9  -3   -6.43    3.39
   0   9  -3    0.24    2.83
   0  -9   3   -0.41    3.98
   0  -9   3   -6.23    2.55
   0  -9   3    4.72    4.55
  -1   9  -3   -2.31    3.70
  -1   9  -3   -0.42    2.74
  -1   9  -3   -2.36    3.42
   1  -9   3   -3.44    3.43
   1  -9   3   -0.88    3.42
   1  -9   3    4.92    4.82
  -2   9  -3   72.24    8.14
  -2   9  -3   61.01    9.85
  -2   9  -3   57.53    8.62
   2  -9   3   61.24    7.68
   2  -9   3   72.09   11.38
   2  -9   3   57.85    9.29
  -3   9  -3   35.34    7.22
  -3   9  -3   26.26    5.95
  -3   9  -3   33.59    5.14
   3  -9   3   30.90    9.00
   3  -9   3   28.59    6.55
  -4   9  -3   11.57    3.66
  -4   9  -3    7.72    5.37
  -4   9  -3   11.89    4.77
   4  -9   3   18.17    7.78
   4  -9   3   14.13    5.60
  -5   9  -3   11.14    3.83
  -5   9  -3   16.14    5.42
  -5   9  -3    6.89    5.50
   5  -9   3   13.59    7.73
   5  -9   3    8.76    5.38
  -6   9  -3   -2.31    3.41
  -6   9  -3   -0.11    5.03
   6  -9   3   12.99    5.87
   6  -9   3   -3.82    7.00
  -7   9  -3   -7.51    5.36
   7  -9   3   -8.08    6.57
   7  -9   3   -7.99    4.40
  -8   9  -3   -0.03    6.60
   8  -9   3    2.09    6.85
   8  -9   3   -4.86    7.68
   7   8  -3   -7.47    5.59
  -7  -8   3   -2.90    5.27
  -7  -8   3   -4.59    5.86
   6   8  -3   -0.37    4.91
   6   8  -3    8.85    3.61
  -6  -8   3    5.12    6.46
  -6  -8   3   -3.64    4.64
   5   8  -3   46.72    7.36
   5   8  -3   47.01    9.11
  -5  -8   3   52.21    9.74
  -5  -8   3   44.78    8.89
   4   8  -3    2.93    4.61
   4   8  -3   15.45    4.29
  -4  -8   3   20.09    6.26
  -4  -8   3   15.46    6.23
   3   8  -3    7.55    3.69
   3   8  -3   15.19    5.69
  -3  -8   3   15.67    4.25
  -3  -8   3   19.26    5.44
  -3  -8   3   13.53    6.00
   2   8  -3   64.10    9.49
   2   8  -3   57.74    7.93
  -2  -8   3   67.58    8.85
  -2  -8   3   61.38    9.38
  -2  -8   3   76.72    8.29
   1   8  -3   16.52    4.81
   1   8  -3   29.39    5.21
   1   8  -3   11.83    5.07
  -1  -8   3    9.42    4.14
  -1  -8   3   14.86    5.38
  -1  -8   3   17.02    5.09
   0   8  -3    3.76    3.29
   0   8  -3    5.87    3.34
   0   8  -3    7.42    3.51
   0  -8   3    1.03    3.08
   0  -8   3    5.74    4.42
   0  -8   3    7.19    4.63
  -1   8  -3   27.90    5.39
  -1   8  -3   22.31    5.78
  -1   8  -3   23.56    4.84
   1  -8   3   31.21    7.20
   1  -8   3   30.01    6.32
   1  -8   3   25.78    5.01
  -2   8  -3   -1.71    2.18
  -2   8  -3    2.94    3.50
  -2   8  -3    3.33    3.82
   2  -8   3    5.98    5.01
   2  -8   3    7.14    4.17
   2  -8   3    4.99    2.72
  -3   8  -3   14.91    4.78
  -3   8  -3    3.85    4.06
  -3   8  -3   10.83    3.36
   3  -8   3    7.17    2.44
   3  -8   3   16.27    5.09
   3  -8   3    5.46    5.46
  -4   8  -3   -1.57    2.26
  -4   8  -3    4.02    4.45
  -4   8  -3    2.00    3.66
   4  -8   3   -8.85    4.77
   4  -8   3   -0.89    3.83
  -5   8  -3   11.55    4.75
  -5   8  -3   15.60    5.56
  -5   8  -3    8.42    3.43
   5  -8   3    9.02    4.90
   5  -8   3    4.05    6.09
  -6   8  -3   17.49    4.71
  -6   8  -3   20.90    5.97
  -6   8  -3   13.69    6.28
   6  -8   3   16.10    8.51
   6  -8   3   15.58    6.08
  -7   8  -3   10.15    6.15
   7  -8   3   -0.44    7.34
   7  -8   3   17.69    6.86
  -8   8  -3   12.52    6.85
  -8   8  -3    9.22    5.98
   8  -8   3   20.44    8.01
   8  -8   3   -3.02    7.50
  -9   8  -3    6.21    6.33
   9  -8   3   15.87   10.08
   9  -8   3   14.63    8.23
  -8  -7   3    0.74    5.63
  -8  -7   3   -3.03    5.47
   7   7  -3   -1.74    5.20
  -7  -7   3    0.73    4.92
  -7  -7   3   -6.23    4.75
   6   7  -3   26.57    7.42
  -6  -7   3   23.74    6.90
   5   7  -3   21.85    6.18
   4   7  -3    3.14    2.67
   4   7  -3   -0.38    3.94
  -4  -7   3    7.93    2.65
  -4  -7   3    0.68    4.26
   3   7  -3    5.19    4.15
   3   7  -3    1.08    2.76
  -3  -7   3    7.78    3.28
  -3  -7   3    7.73    4.43
  -3  -7   3    9.69    4.46
   2   7  -3    8.20    4.51
   2   7  -3   -6.05    2.14
  -2  -7   3    2.66    4.12
  -2  -7   3   -0.36    3.38
  -2  -7   3    5.67    3.38
   1   7  -3   21.33    4.33
   1   7  -3   15.19    4.83
   1   7  -3   22.31    4.93
  -1  -7   3   16.94    5.29
  -1  -7   3   14.93    4.40
  -1  -7   3   23.94    5.24
   0   7  -3   86.30    8.23
   0   7  -3   84.09    7.92
   0   7  -3   74.88    9.83
   0  -7   3   90.02   10.40
   0  -7   3   73.59    7.61
   0  -7   3   83.26    9.67
  -1   7  -3   58.61    7.08
  -1   7  -3   64.12    7.58
  -1   7  -3   55.02    8.04
   1  -7   3   54.88    9.06
   1  -7   3   65.92    6.76
   1  -7   3   60.20    8.56
   1  -7   3   62.48    6.82
  -2   7  -3   97.39   10.30
  -2   7  -3  101.99   10.03
  -2   7  -3  107.12    8.99
   2  -7   3   91.01   11.49
   2  -7   3  122.62   10.86
   2  -7   3  107.94    8.49
  -3   7  -3   49.00    7.68
  -3   7  -3   49.39    6.99
  -3   7  -3   43.10    5.66
   3  -7   3   29.52    6.15
   3  -7   3   39.43    4.32
   3  -7   3   44.89    8.89
  -4   7  -3    9.78    4.52
  -4   7  -3    4.80    2.75
  -4   7  -3    7.15    4.70
   4  -7   3    5.66    3.47
   4  -7   3    5.20    5.35
  -5   7  -3    7.16    4.71
  -5   7  -3    3.93    4.22
  -5   7  -3    6.70    3.33
   5  -7   3   12.87    6.80
   5  -7   3    7.97    4.48
  -6   7  -3    3.74    3.53
  -6   7  -3    4.40    4.32
   6  -7   3   -5.83    3.68
   6  -7   3   -5.37    5.09
  -7   7  -3    5.00    5.48
   7  -7   3    2.25    5.11
   7  -7   3    2.16    6.58
  -8   7  -3   28.97    7.71
  -8   7  -3   43.36    8.69
   8  -7   3   28.54    7.97
   8  -7   3   33.10   10.55
  -9   7  -3   -2.72    5.76
  -9   7  -3    3.65    5.51
   9  -7   3    3.36    8.27
   9  -7   3   12.97    7.77
   8   6  -3    4.05    6.84
  -8  -6   3   -0.84    4.59
  -8  -6   3   14.87    7.17
   7   6  -3   32.24    7.50
  -7  -6   3   10.06    5.86
  -7  -6   3   23.59    7.41
   6   6  -3   17.06    6.10
  -6  -6   3    8.82    4.94
  -6  -6   3   15.54    6.15
   5   6  -3    9.27    4.06
  -5  -6   3    1.23    4.13
  -5  -6   3   20.75    6.34
   4   6  -3   -3.07    3.09
  -4  -6   3    7.00    2.71
  -4  -6   3   -0.57    3.31
   3   6  -3   -2.04    2.30
   3   6  -3   -2.38    2.12
  -3  -6   3   -4.89    1.83
  -3  -6   3    5.00    3.74
   2   6  -3   19.92    3.93
   2   6  -3   22.91    4.87
  -2  -6   3   15.74    4.16
  -2  -6   3   16.84    4.55
   1   6  -3    4.59    2.43
   1   6  -3    2.30    3.10
   1   6  -3    4.36    3.50
  -1  -6   3    0.40    2.64
  -1  -6   3    6.18    2.98
  -1  -6   3    0.42    3.09
   0   6  -3    2.56    2.35
   0   6  -3    6.45    3.12
   0   6  -3   -0.82    2.77
   0  -6   3    6.78    3.53
   0  -6   3    0.83    3.18
   0  -6   3    5.64    2.84
  -1   6  -3  220.41   15.72
  -1   6  -3  212.08   16.76
  -1   6  -3  226.84   16.48
   1  -6   3  206.37   18.96
   1  -6   3  212.87   16.63
   1  -6   3  219.89   15.21
   1  -6   3  209.23   16.26
  -2   6  -3    5.48    2.49
  -2   6  -3    1.78    3.10
  -2   6  -3    4.11    3.09
   2  -6   3   11.55    4.94
   2  -6   3    4.30    2.70
   2  -6   3    1.87    2.37
   2  -6   3    2.02    1.86
  -3   6  -3   15.91    4.67
  -3   6  -3   12.66    4.01
  -3   6  -3   11.15    3.24
   3  -6   3    9.95    5.20
   3  -6   3    8.92    1.76
   3  -6   3    4.75    3.02
  -4   6  -3   18.85    5.06
  -4   6  -3   22.10    5.24
  -4   6  -3   20.10    4.12
   4  -6   3   12.12    6.07
   4  -6   3   19.10    5.12
  -5   6  -3    6.60    4.45
  -5   6  -3    7.43    4.06
  -5   6  -3    7.61    3.61
   5  -6   3    9.02    4.51
   5  -6   3   10.78    6.23
  -6   6  -3   30.39    6.57
  -6   6  -3   21.68    5.02
   6  -6   3   47.52    7.86
   6  -6   3   43.39    9.58
  -7   6  -3   10.06    4.76
  -7   6  -3    1.39    4.78
   7  -6   3    3.56    6.86
   7  -6   3    4.98    4.92
  -8   6  -3   -6.96    3.39
  -8   6  -3   -1.75    5.07
   8  -6   3   -5.01    4.69
   8  -6   3   -0.66    6.88
  -9   6  -3    7.75    6.13
  -9   6  -3    3.31    5.75
   9  -6   3    1.74    6.28
   9  -6   3  -12.89    6.17
 -10   6  -3   13.46    6.85
  10  -6   3   28.18    9.12
  10  -6   3   16.56   11.04
   9   5  -3   17.12    7.58
  -9  -5   3    3.76    6.59
  -9  -5   3    1.42    5.14
   8   5  -3   -6.42    4.03
  -8  -5   3    1.67    4.39
  -8  -5   3   -1.52    5.54
   7   5  -3    1.01    4.24
  -7  -5   3    1.03    5.01
  -7  -5   3   -5.48    3.76
   6   5  -3   42.10    8.17
  -6  -5   3   62.78    8.96
  -6  -5   3   58.31    9.33
   5   5  -3    5.66    4.20
  -5  -5   3    8.72    4.19
  -5  -5   3    8.00    4.74
  -5  -5   3    4.16    3.83
  -5  -5   3    4.99    4.55
   4   5  -3   19.99    5.12
  -4  -5   3   13.64    4.04
  -4  -5   3    3.78    4.50
  -4  -5   3   10.90    4.03
   3   5  -3   46.38    6.87
  -3  -5   3   47.87    7.02
  -3  -5   3   63.76    7.93
  -3  -5   3   65.97    8.74
   2   5  -3   10.36    2.74
   2   5  -3   12.65    4.01
  -2  -5   3    9.32    3.60
  -2  -5   3   15.92    4.98
  -2  -5   3    6.01    3.08
   1   5  -3    5.21    3.44
   1   5  -3    8.29    3.11
   1   5  -3    6.52    2.07
  -1  -5   3    6.36    3.38
  -1  -5   3    9.27    4.15
  -1  -5   3    4.74    3.25
  -1  -5   3   10.11    3.74
   0   5  -3  290.12   19.99
   0   5  -3  299.52   20.42
   0   5  -3  289.75   20.67
   0   5  -3  292.95   19.80
   0  -5   3  273.57   23.53
   0  -5   3  291.66   20.41
   0  -5   3  261.42   20.67
   0  -5   3  272.35   22.51
   0  -5   3  304.04   20.87
  -1   5  -3   17.48    3.40
  -1   5  -3   17.43    4.83
  -1   5  -3   18.06    4.14
  -1   5  -3   16.80    3.52
   1  -5   3   20.39    4.98
   1  -5   3   15.29    3.91
   1  -5   3   20.44    3.14
   1  -5   3   20.51    3.39
   1  -5   3   21.34    4.27
  -2   5  -3   22.23    4.21
  -2   5  -3   36.04    5.39
  -2   5  -3   27.90    4.24
   2  -5   3   28.31    4.52
   2  -5   3   24.13    4.65
   2  -5   3   23.12    2.88
   2  -5   3   31.59    5.16
   2  -5   3   26.46    5.94
  -3   5  -3    2.26    2.41
  -3   5  -3   -1.32    2.61
  -3   5  -3    3.05    3.14
   3  -5   3    6.87    3.15
   3  -5   3    3.67    2.84
   3  -5   3    1.25    0.71
   3  -5   3    0.41    2.79
   3  -5   3    2.03    3.87
  -4   5  -3   -3.20    2.50
  -4   5  -3   -3.26    2.66
  -4   5  -3    1.23    2.43
  -4   5  -3    0.19    3.02
   4  -5   3   -3.48    2.65
   4  -5   3    1.62    4.36
   4  -5   3    2.20    2.96
  -5   5  -3   19.25    4.61
  -5   5  -3   18.07    4.47
  -5   5  -3   21.05    5.21
   5  -5   3   17.87    6.06
   5  -5   3   21.79    5.35
  -6   5  -3   14.02    4.41
  -6   5  -3   14.77    4.92
  -6   5  -3   10.18    4.06
  -6   5  -3   10.18    3.62
   6  -5   3   18.83    5.48
   6  -5   3    5.81    5.90
  -7   5  -3    6.57    4.63
  -7   5  -3    9.28    4.69
   7  -5   3   20.21    7.62
   7  -5   3   20.91    6.33
  -8   5  -3    3.60    5.05
  -8   5  -3    5.09    4.22
   8  -5   3    0.19    5.93
   8  -5   3   -5.39    4.55
  -9   5  -3   -4.58    4.02
  -9   5  -3    7.22    5.79
   9  -5   3    5.41    6.26
   9  -5   3   -1.70    7.23
 -10   5  -3   -3.40    4.31
  10  -5   3   -7.13    7.14
  10  -5   3    1.28    6.69
   9   4  -3    5.91    6.48
  -9  -4   3   -3.38    4.58
  -9  -4   3    1.88    6.05
   8   4  -3   -3.99    4.27
  -8  -4   3   -2.79    4.24
  -8  -4   3    5.00    5.72
   7   4  -3   71.14   10.23
  -7  -4   3   67.64   10.10
  -7  -4   3   97.46   11.91
   6   4  -3    4.00    4.27
  -6  -4   3   -3.31    3.88
  -6  -4   3   -0.24    3.90
  -6  -4   3   -1.02    3.42
   5   4  -3    6.65    4.15
  -5  -4   3   -0.51    2.78
  -5  -4   3    2.07    3.60
  -5  -4   3    5.20    4.41
  -5  -4   3    4.66    4.11
   4   4  -3   28.39    5.34
  -4  -4   3   27.02    5.94
  -4  -4   3   25.02    5.20
  -4  -4   3   36.65    6.37
   3   4  -3    2.96    3.16
  -3  -4   3    2.84    2.91
  -3  -4   3    0.07    3.33
  -3  -4   3    8.34    3.90
   2   4  -3   -1.78    2.31
   2   4  -3    2.12    2.43
   2   4  -3   -0.44    1.81
  -2  -4   3   -0.88    2.87
  -2  -4   3   -0.65    2.42
  -2  -4   3   -2.44    2.82
  -2  -4   3    0.73    2.42
   1   4  -3   -0.23    1.62
   1   4  -3   -1.66    2.38
   1   4  -3    3.45    2.61
   1   4  -3    0.76    1.86
   1   4  -3   -0.53    1.19
  -1  -4   3   -3.81    2.07
  -1  -4   3   -0.63    1.67
  -1  -4   3   -2.20    2.75
  -1  -4   3   -2.11    2.39
   0   4  -3   15.49    2.45
   0   4  -3   17.86    3.49
   0   4  -3   17.55    4.14
   0   4  -3   21.09    3.85
   0   4  -3   20.45    3.28
   0   4  -3   15.21    3.57
   0  -4   3   14.71    3.55
   0  -4   3   17.67    2.49
   0  -4   3   13.54    4.06
   0  -4   3   15.96    4.11
   0  -4   3   19.55    3.74
  -1   4  -3   33.41    4.45
  -1   4  -3   36.20    6.06
  -1   4  -3   29.37    3.84
  -1   4  -3   36.26    4.98
  -1   4  -3   32.05    5.31
  -1   4  -3   35.18    4.84
   1  -4   3   32.04    5.32
   1  -4   3   25.04    4.43
   1  -4   3   34.96    4.71
   1  -4   3   34.04    3.98
   1  -4   3   20.47    5.02
  -2   4  -3   82.56    7.62
  -2   4  -3   94.95    7.42
  -2   4  -3   96.90    7.94
  -2   4  -3   83.73    8.16
  -2   4  -3   84.81    7.56
  -2   4  -3   81.64    8.95
   2  -4   3   88.65    7.84
   2  -4   3   82.02    7.51
   2  -4   3   89.85    9.26
   2  -4   3   81.41    7.64
   2  -4   3   87.06    5.94
   2  -4   3   88.11    8.65
  -3   4  -3   11.65    3.16
  -3   4  -3   10.53    3.18
  -3   4  -3   10.62    3.38
  -3   4  -3   11.15    3.03
   3  -4   3   14.61    3.57
   3  -4   3   15.10    3.50
   3  -4   3    7.65    3.10
   3  -4   3    7.74    4.19
  -4   4  -3  228.90   16.93
  -4   4  -3  235.03   16.17
  -4   4  -3  197.34   16.09
   4  -4   3  197.70   16.11
   4  -4   3  221.85   16.26
   4  -4   3  209.47   19.46
  -5   4  -3   57.00    6.04
  -5   4  -3   52.87    7.14
  -5   4  -3   48.95    7.05
   5  -4   3   40.71    8.69
   5  -4   3   70.89    7.97
   5  -4   3   59.54    7.59
  -6   4  -3   40.95    6.52
  -6   4  -3   31.21    5.94
  -6   4  -3   29.90    4.33
  -6   4  -3   17.30    4.96
   6  -4   3   38.24    8.57
   6  -4   3   25.29    5.69
  -7   4  -3   -2.70    3.37
  -7   4  -3   -5.69    2.98
   7  -4   3    0.01    4.04
   7  -4   3    5.88    5.92
  -8   4  -3    1.77    5.58
  -8   4  -3    8.63    4.92
   8  -4   3   21.83    8.08
   8  -4   3    9.68    5.64
  -9   4  -3   -6.74    3.51
  -9   4  -3   -3.33    5.10
   9  -4   3   -4.86    5.84
   9  -4   3    0.07    5.03
 -10   4  -3    5.35    5.53
  10  -4   3    8.96    8.03
  10  -4   3   -1.11    8.27
  10   3  -3    9.29    7.12
 -10  -3   3    5.96    5.99
 -10  -3   3   21.87    8.04
   9   3  -3   -5.88    4.04
  -9  -3   3    6.81    5.16
  -9  -3   3   -7.77    5.38
   8   3  -3   32.67    7.45
  -8  -3   3   24.59    6.56
  -8  -3   3   40.13    8.69
   7   3  -3   11.51    5.54
  -7  -3   3   33.53    7.13
  -7  -3   3   26.07    6.88
  -7  -3   3   43.50    6.73
   6   3  -3    4.71    3.22
  -6  -3   3    1.82    3.92
  -6  -3   3    4.82    4.74
  -6  -3   3    8.03    4.36
   5   3  -3    7.04    3.80
  -5  -3   3    3.22    4.44
  -5  -3   3   18.31    4.55
  -5  -3   3    8.93    4.19
  -5  -3   3   11.14    4.00
   4   3  -3    2.08    2.70
   4   3  -3    2.29    2.31
  -4  -3   3    2.28    3.09
  -4  -3   3    4.52    2.82
  -4  -3   3    3.56    3.55
   3   3  -3  164.37   12.50
   3   3  -3  164.06   12.03
   3   3  -3  165.88   13.19
  -3  -3   3  146.29   12.46
  -3  -3   3  157.57   12.69
  -3  -3   3  154.33   13.32
  -3  -3   3  141.41   11.73
   2   3  -3    0.21    2.35
   2   3  -3    2.99    2.19
   2   3  -3   -0.69    2.22
   2   3  -3    3.11    2.36
  -2  -3   3    0.39    1.96
  -2  -3   3    0.94    2.59
  -2  -3   3   -1.43    2.04
  -2  -3   3    0.99    2.06
   1   3  -3   49.13    4.66
   1   3  -3   47.44    3.87
   1   3  -3   50.44    5.64
   1   3  -3   48.47    5.79
   1   3  -3   45.72    6.18
  -1  -3   3   47.83    5.57
  -1  -3   3   59.98    6.85
  -1  -3   3   53.59    5.94
   0   3  -3    7.38    2.51
   0   3  -3    3.97    1.16
   0   3  -3    4.08    2.16
   0   3  -3    0.08    1.93
   0   3  -3    2.62    2.56
   0   3  -3    3.70    1.77
   0  -3   3    2.17    2.76
   0  -3   3    1.28    1.89
   0  -3   3    3.06    1.07
   0  -3   3    6.44    2.41
   0  -3   3    4.97    2.75
  -1   3  -3   11.86    3.20
  -1   3  -3   12.48    2.71
  -1   3  -3   11.85    2.80
  -1   3  -3   13.66    2.28
  -1   3  -3   10.92    2.66
   1  -3   3   13.73    2.78
   1  -3   3    9.25    3.57
   1  -3   3   11.11    2.15
   1  -3   3   17.32    3.05
   1  -3   3   14.24    3.46
  -2   3  -3   -1.43    1.68
  -2   3  -3    1.39    1.81
  -2   3  -3    1.70    1.95
  -2   3  -3   -1.57    2.51
  -2   3  -3   -2.29    1.88
   2  -3   3    0.73    1.82
   2  -3   3    0.81    2.37
   2  -3   3   -3.52    1.39
   2  -3   3    1.88    2.73
   2  -3   3   -0.43    1.74
  -3   3  -3  130.94   11.07
  -3   3  -3  153.48   13.75
  -3   3  -3  150.84   11.86
  -3   3  -3  138.40   11.12
  -3   3  -3  143.17   11.23
   3  -3   3  144.69   11.31
   3  -3   3  156.27   13.89
   3  -3   3  154.17   12.06
   3  -3   3  147.75   11.97
   3  -3   3  160.17   11.37
  -4   3  -3   31.55    4.75
  -4   3  -3   21.36    4.47
  -4   3  -3   35.11    4.53
  -4   3  -3   40.34    5.46
   4  -3   3   35.40    5.10
   4  -3   3   30.50    6.55
   4  -3   3   26.58    4.82
  -5   3  -3    2.20    1.83
  -5   3  -3    1.04    2.76
  -5   3  -3    3.93    3.45
  -5   3  -3    1.15    3.27
  -5   3  -3   -1.28    1.02
   5  -3   3    4.58    4.33
   5  -3   3    4.94    2.82
   5  -3   3    1.89    3.04
  -6   3  -3   59.95    8.59
  -6   3  -3   76.38    6.01
  -6   3  -3   70.57    5.71
  -6   3  -3   79.44    9.19
  -6   3  -3   56.90    7.93
   6  -3   3   70.21   10.90
   6  -3   3   56.57    8.35
   6  -3   3   78.04    9.00
  -7   3  -3    3.65    3.82
  -7   3  -3    3.51    3.99
  -7   3  -3    4.95    2.55
   7  -3   3    7.99    5.70
   7  -3   3    8.52    4.61
  -8   3  -3   12.05    4.97
  -8   3  -3   17.22    5.58
   8  -3   3   17.51    5.89
   8  -3   3   10.64    6.63
  -9   3  -3    5.02    4.60
  -9   3  -3    1.50    5.17
   9  -3   3   14.21    8.27
   9  -3   3   -1.27    5.29
 -10   3  -3   13.83    6.44
  10  -3   3   21.07    8.21
  10  -3   3   13.50    9.44
  10   2  -3    3.63    6.00
 -10  -2   3    3.07    4.90
 -10  -2   3   17.06    7.89
   9   2  -3    1.19    5.16
  -9  -2   3   -0.96    4.05
  -9  -2   3    5.24    6.09
   8   2  -3    2.25    4.55
  -8  -2   3    6.58    5.77
  -8  -2   3    1.65    4.12
  -8  -2   3    2.02    3.71
   7   2  -3    0.90    4.01
  -7  -2   3   -2.34    3.62
  -7  -2   3   -3.34    2.63
  -7  -2   3   -4.16    2.94
   6   2  -3   -1.83    3.15
  -6  -2   3    1.62    3.36
  -6  -2   3   -1.71    3.28
  -6  -2   3    1.92    4.19
   5   2  -3   19.30    4.73
  -5  -2   3   11.76    4.45
  -5  -2   3   12.10    4.19
  -5  -2   3   21.47    5.94
  -5  -2   3   20.74    4.77
   4   2  -3  240.86   17.01
   4   2  -3  218.15   17.60
   4   2  -3  196.53   16.69
  -4  -2   3  237.06   17.90
  -4  -2   3  234.02   17.20
  -4  -2   3  222.74   16.43
   3   2  -3  130.19   11.25
   3   2  -3  128.88   10.86
   3   2  -3  154.40   10.48
   3   2  -3  117.93   10.54
   3   2  -3  147.99   10.37
  -3  -2   3  120.74   11.20
  -3  -2   3  139.44   10.98
  -3  -2   3  123.55   10.81
  -3  -2   3  140.55   10.49
   2   2  -3   54.15    5.28
   2   2  -3   54.68    5.53
   2   2  -3   52.22    5.11
   2   2  -3   47.73    4.32
   2   2  -3   50.71    4.91
  -2  -2   3   52.24    5.34
  -2  -2   3   51.91    5.85
  -2  -2   3   47.02    4.71
  -2  -2   3   54.07    5.84
   1   2  -3    5.76    2.24
   1   2  -3    5.89    2.22
   1   2  -3    3.50    2.44
   1   2  -3    8.05    2.05
  -1  -2   3    6.12    1.73
  -1  -2   3    3.22    2.11
  -1  -2   3    9.42    2.65
  -1  -2   3    6.88    2.99
   0   2  -3    7.40    2.68
   0   2  -3    5.87    2.36
   0   2  -3    4.48    1.97
   0   2  -3    6.06    1.54
   0   2  -3    4.08    1.98
   0  -2   3    8.07    2.87
   0  -2   3    5.39    1.94
   0  -2   3    5.83    0.90
  -1   2  -3   35.95    3.78
  -1   2  -3   29.12    3.62
  -1   2  -3   32.82    4.05
  -1   2  -3   32.35    4.44
   1  -2   3   35.49    3.77
   1  -2   3   28.48    3.53
   1  -2   3   27.17    3.29
   1  -2   3   28.61    4.50
   1  -2   3   27.76    4.91
  -2   2  -3   15.78    2.58
  -2   2  -3   11.37    2.78
  -2   2  -3   11.66    2.34
  -2   2  -3   14.94    3.02
  -2   2  -3   11.68    3.68
   2  -2   3    6.10    2.24
   2  -2   3   10.45    3.62
   2  -2   3   12.07    2.52
   2  -2   3   13.87    2.84
   2  -2   3   12.42    2.61
  -3   2  -3   -1.21    1.69
  -3   2  -3    0.78    1.80
  -3   2  -3   -0.86    2.37
  -3   2  -3   -0.57    0.61
  -3   2  -3   -1.41    1.43
  -3   2  -3    3.89    2.24
  -3   2  -3    0.97    1.80
   3  -2   3    3.41    3.06
   3  -2   3    2.05    1.87
   3  -2   3   -1.75    1.50
   3  -2   3    0.01    1.93
   3  -2   3    0.71    1.78
  -4   2  -3   20.97    3.74
  -4   2  -3   24.72    4.06
  -4   2  -3   24.84    4.19
  -4   2  -3   21.32    2.45
  -4   2  -3   19.44    4.29
  -4   2  -3   28.53    5.54
  -4   2  -3   20.84    3.07
   4  -2   3   22.31    3.91
   4  -2   3   18.69    4.10
   4  -2   3   28.44    5.51
   4  -2   3   16.75    3.59
  -5   2  -3   23.44    5.10
  -5   2  -3   28.13    4.99
  -5   2  -3   25.82    3.25
  -5   2  -3   32.40    5.05
   5  -2   3   18.08    5.52
   5  -2   3   20.36    4.22
   5  -2   3   21.48    4.71
  -6   2  -3    0.80    2.05
  -6   2  -3    2.09    3.03
  -6   2  -3   -0.41    2.94
   6  -2   3    7.92    3.42
   6  -2   3    3.43    4.68
   6  -2   3    0.87    3.27
  -7   2  -3   62.14    8.44
  -7   2  -3   65.81    8.67
  -7   2  -3   63.79    6.36
   7  -2   3   66.16    9.29
   7  -2   3   67.66   11.32
  -8   2  -3   -5.14    3.83
  -8   2  -3   -3.55    2.75
  -8   2  -3   -2.29    3.08
   8  -2   3    3.12    6.39
   8  -2   3    5.24    5.03
  -9   2  -3    8.09    5.04
  -9   2  -3    5.09    4.53
   9  -2   3   10.51    7.98
   9  -2   3   18.70    7.59
 -10   2  -3   15.01    6.76
  10  -2   3   22.42    8.00
  10  -2   3   19.23    9.54
  10   1  -3   -7.73    5.16
 -10  -1   3    0.05    4.34
 -10  -1   3  -10.39    5.29
   9   1  -3   -5.67    4.00
  -9  -1   3    2.56    4.33
  -9  -1   3   -4.31    4.83
   8   1  -3    0.71    4.54
  -8  -1   3   -3.21    4.65
  -8  -1   3    4.98    3.60
  -8  -1   3   -0.34    3.69
   7   1  -3   -2.50    2.76
  -7  -1   3   -6.86    3.41
  -7  -1   3    0.89    3.10
  -7  -1   3    1.45    3.53
   6   1  -3    5.04    4.33
  -6  -1   3   13.57    4.09
  -6  -1   3    3.70    4.36
  -6  -1   3    6.53    3.83
   5   1  -3   71.47    8.51
  -5  -1   3   55.62    7.54
  -5  -1   3   63.92    6.79
  -5  -1   3   53.98    7.31
   4   1  -3   12.50    3.28
   4   1  -3    6.55    2.71
   4   1  -3    4.99    3.09
  -4  -1   3    6.27    2.87
  -4  -1   3    5.31    2.96
  -4  -1   3    5.59    4.30
  -4  -1   3    5.96    3.15
  -4  -1   3   14.51    3.55
   3   1  -3   -0.34    2.11
   3   1  -3    4.30    2.21
   3   1  -3    2.69    1.85
   3   1  -3    1.73    2.42
  -3  -1   3   -0.30    2.28
  -3  -1   3    2.53    2.16
  -3  -1   3   -1.19    2.38
  -3  -1   3   -0.31    2.06
   2   1  -3   43.81    5.04
   2   1  -3   48.95    5.28
   2   1  -3   43.12    4.56
   2   1  -3   42.81    4.32
   2   1  -3   42.56    4.01
  -2  -1   3   41.53    4.67
  -2  -1   3   51.75    4.93
  -2  -1   3   49.36    5.84
  -2  -1   3   46.32    5.27
   1   1  -3   54.44    5.25
   1   1  -3   52.54    3.97
   1   1  -3   49.78    4.43
   1   1  -3   48.13    3.78
   1   1  -3   44.73    4.60
   1   1  -3   51.52    4.58
   1   1  -3   49.83    5.23
  -1  -1   3   54.18    4.06
  -1  -1   3   49.11    5.38
  -1  -1   3   44.59    3.78
  -1  -1   3   51.39    4.52
  -1  -1   3   43.12    4.47
   0   1  -3   40.61    4.83
   0   1  -3   32.29    2.40
   0   1  -3   29.42    3.06
   0   1  -3   36.56    4.57
   0   1  -3   39.49    3.23
   0   1  -3   40.27    4.16
   0  -1   3   32.85    3.29
   0  -1   3   34.33    4.68
   0  -1   3   29.22    3.13
  -1   1  -3   13.45    2.45
  -1   1  -3    7.58    1.55
  -1   1  -3    4.44    1.20
  -1   1  -3    8.22    2.46
  -1   1  -3   11.93    3.13
   1  -1   3   10.84    2.81
   1  -1   3    4.33    3.05
   1  -1   3    6.83    1.54
   1  -1   3    8.63    1.59
  -2   1  -3   36.00    3.48
  -2   1  -3   34.79    3.13
  -2   1  -3   40.11    5.38
  -2   1  -3   51.50    6.42
  -2   1  -3   32.96    3.40
  -2   1  -3   42.86    4.88
   2  -1   3   36.52    3.58
   2  -1   3   37.15    3.57
   2  -1   3   40.49    5.78
   2  -1   3   41.98    4.53
  -3   1  -3   19.96    3.83
  -3   1  -3   18.06    2.80
  -3   1  -3   26.34    4.81
  -3   1  -3   19.74    3.06
  -3   1  -3   19.70    3.22
  -3   1  -3   16.93    2.33
  -3   1  -3   18.50    3.68
   3  -1   3   15.49    2.79
   3  -1   3   20.19    3.22
   3  -1   3   20.75    4.44
   3  -1   3   16.36    2.59
  -4   1  -3   13.39    2.90
  -4   1  -3   12.95    3.64
  -4   1  -3   14.70    3.39
  -4   1  -3   15.87    3.39
  -4   1  -3   22.69    4.95
  -4   1  -3   10.10    3.12
  -4   1  -3   12.58    2.39
   4  -1   3   13.26    4.04
   4  -1   3   13.53    3.08
   4  -1   3   12.37    3.33
  -5   1  -3    9.13    3.55
  -5   1  -3    6.21    3.06
  -5   1  -3    8.24    3.33
  -5   1  -3    6.81    2.52
   5  -1   3    7.25    3.55
   5  -1   3   14.59    3.65
   5  -1   3    5.60    4.14
  -6   1  -3  109.34   10.67
  -6   1  -3  121.46   10.72
  -6   1  -3  133.46    9.80
   6  -1   3  116.43   12.89
   6  -1   3  122.72   10.79
   6  -1   3  115.45   10.82
  -7   1  -3   17.92    3.92
  -7   1  -3    6.95    3.58
  -7   1  -3    8.25    3.97
   7  -1   3    7.44    4.78
   7  -1   3    3.53    4.00
   7  -1   3    7.88    5.27
  -8   1  -3    8.14    4.33
  -8   1  -3   14.76    4.97
  -8   1  -3   11.66    4.11
   8  -1   3   18.06    5.89
   8  -1   3    8.75    6.51
  -9   1  -3    6.09    4.45
  -9   1  -3    3.80    4.22
   9  -1   3   -1.02    4.89
   9  -1   3   -5.36    5.47
 -10   1  -3    5.78    5.63
  10  -1   3   -4.96    6.87
  10  -1   3   18.02    6.68
  10   0  -3   -4.28    5.50
 -10   0   3   -8.31    5.15
 -10   0   3    0.58    4.43
   9   0  -3    5.79    5.55
  -9   0   3   -2.86    5.35
  -9   0   3   -3.94    3.34
   8   0  -3    3.53    4.72
  -8   0   3   -0.33    3.72
  -8   0   3    3.61    3.24
  -8   0   3    5.11    4.26
   7   0  -3   -6.11    3.42
  -7   0   3    1.44    4.50
  -7   0   3   -1.03    2.67
  -7   0   3   -0.94    3.17
   6   0  -3   17.30    5.31
  -6   0   3   32.14    5.18
  -6   0   3   28.95    6.33
  -6   0   3   29.29    5.82
   5   0  -3    4.53    3.61
  -5   0   3   -1.33    2.54
  -5   0   3    5.05    3.28
  -5   0   3   -1.00    3.32
   4   0  -3    1.74    2.73
   4   0  -3    5.25    2.51
   4   0  -3    1.16    3.03
  -4   0   3    5.36    3.23
  -4   0   3    4.78    2.88
  -4   0   3    1.84    2.65
  -4   0   3    5.37    4.19
  -4   0   3    2.77    2.61
   3   0  -3   10.69    3.17
   3   0  -3   10.37    2.30
   3   0  -3    6.53    2.76
   3   0  -3    8.03    2.38
  -3   0   3    6.96    3.04
  -3   0   3    9.35    2.80
  -3   0   3    6.24    2.66
  -3   0   3   11.07    2.72
  -3   0   3    7.29    2.84
   2   0  -3   14.74    2.85
   2   0  -3   15.91    2.97
   2   0  -3   15.75    3.04
   2   0  -3   11.43    2.38
  -2   0   3    8.72    2.28
  -2   0   3   11.16    2.94
  -2   0   3    7.59    2.43
  -2   0   3   12.43    2.49
   1   0  -3 1000.00   67.68
   1   0  -3  941.39   59.01
   1   0  -3  908.20   58.92
   1   0  -3  884.47   61.37
   1   0  -3  914.11   58.15
  -1   0   3  851.82   61.38
  -1   0   3  868.15   58.94
  -1   0   3  916.30   56.89
  -1   0   3  973.67   59.05
   0   0  -3  164.69   11.63
   0   0  -3  172.82   11.21
   0   0  -3  180.99   13.98
   0   0  -3  166.28   11.69
   0   0   3  170.39   11.29
   0   0   3  163.54   12.19
   0   0   3  173.98   11.29
  -1   0  -3  228.66   13.93
  -1   0  -3  231.30   17.59
  -1   0  -3  239.29   15.01
  -1   0  -3  232.90   14.57
   1   0   3  199.59   14.00
   1   0   3  203.73   14.01
   1   0   3  215.08   13.90
  -2   0  -3  168.16   11.46
  -2   0  -3  176.07   12.36
  -2   0  -3  162.19   11.27
  -2   0  -3  166.96   11.62
  -2   0  -3  187.00   14.34
   2   0   3  162.63   11.45
   2   0   3  168.51   11.50
   2   0   3  183.34   11.55
   2   0   3  164.36   14.10
  -3   0  -3  289.62   21.21
  -3   0  -3  263.00   17.63
  -3   0  -3  267.37   17.88
  -3   0  -3  261.47   17.73
  -3   0  -3  234.92   18.30
  -3   0  -3  264.53   21.22
  -3   0  -3  257.96   17.67
   3   0   3  268.20   17.92
   3   0   3  266.67   17.77
   3   0   3  267.79   17.93
   3   0   3  263.88   21.23
   3   0   3  258.65   18.94
  -4   0  -3   -1.22    2.01
  -4   0  -3    0.54    2.19
  -4   0  -3    1.64    1.87
  -4   0  -3    1.10    2.10
  -4   0  -3    0.48    2.38
  -4   0  -3   -3.30    1.73
  -4   0  -3    5.77    2.70
   4   0   3   -2.80    1.81
   4   0   3    1.39    1.03
   4   0   3   -0.35    2.11
   4   0   3   -0.61    1.82
   4   0   3    0.58    2.70
  -5   0  -3    5.99    3.21
  -5   0  -3    3.78    2.83
  -5   0  -3    4.51    3.17
  -5   0  -3    5.25    3.09
  -5   0  -3    3.67    2.66
   5   0   3    7.51    3.14
   5   0   3    7.98    4.39
   5   0   3    5.19    2.93
  -6   0  -3    5.26    3.62
  -6   0  -3    5.87    3.60
  -6   0  -3    5.94    3.25
   6   0   3    5.67    4.35
   6   0   3    2.25    3.07
   6   0   3    3.41    3.80
  -7   0  -3    7.54    4.11
  -7   0  -3    8.48    3.61
  -7   0  -3    3.02    3.23
   7   0   3   12.18    5.07
   7   0   3    5.32    5.37
  -8   0  -3    7.32    4.24
  -8   0  -3   15.60    4.92
  -8   0  -3   11.80    5.37
   8   0   3    9.47    4.93
   8   0   3   12.04    6.60
  -9   0  -3    1.04    4.19
  -9   0  -3    3.64    4.17
   9   0   3   -7.15    5.06
   9   0   3  -10.80    4.77
 -10   0  -3   -4.59    4.69
 -10   0  -3   -1.31    4.78
  10   0   3    7.53    6.78
  10  -1  -3    1.68    5.51
 -10   1   3   -5.23    4.06
 -10   1   3   -7.68    5.16
   9  -1  -3   -4.08    3.95
  -9   1   3   -7.86    4.81
  -9   1   3    9.65    4.47
   8  -1  -3   18.24    6.16
  -8   1   3    4.19    4.20
  -8   1   3    4.79    5.46
  -8   1   3   16.83    4.15
   7  -1  -3    4.58    3.88
  -7   1   3   18.29    5.85
  -7   1   3   12.79    3.77
  -7   1   3    6.76    4.32
   6  -1  -3    5.69    4.35
  -6   1   3   11.41    3.77
  -6   1   3   10.92    4.49
  -6   1   3    6.22    3.97
   5  -1  -3    2.12    3.42
   5  -1  -3    4.77    1.98
  -5   1   3    5.14    3.40
  -5   1   3   -0.02    2.38
  -5   1   3    6.05    3.69
   4  -1  -3   35.70    5.33
   4  -1  -3   37.03    5.31
   4  -1  -3   36.00    4.63
  -4   1   3   36.57    5.47
  -4   1   3   48.00    5.79
  -4   1   3   25.22    5.20
  -4   1   3   37.13    5.32
  -4   1   3   35.80    7.21
   3  -1  -3    4.35    2.08
   3  -1  -3   10.27    2.76
   3  -1  -3   10.28    3.11
   3  -1  -3    9.36    2.80
  -3   1   3    9.50    3.14
  -3   1   3   11.23    2.85
  -3   1   3   11.56    2.89
  -3   1   3   15.14    4.80
  -3   1   3   10.95    3.06
   2  -1  -3  106.71    8.26
   2  -1  -3   94.88    8.43
   2  -1  -3  112.51    9.48
   2  -1  -3  105.51    8.30
  -2   1   3  106.51    8.69
  -2   1   3  110.18    8.40
  -2   1   3  105.27    8.30
   1  -1  -3  329.35   21.90
   1  -1  -3  354.06   21.95
   1  -1  -3  310.30   21.45
   1  -1  -3  337.53   21.89
   1  -1  -3  358.61   25.80
   1  -1  -3  332.95   23.13
  -1   1   3  314.79   21.87
  -1   1   3  330.46   21.91
  -1   1   3  314.57   23.09
   0  -1  -3  126.47   10.57
   0  -1  -3  119.82    7.90
   0  -1  -3  121.17    8.71
   0  -1  -3  109.06    8.27
   0   1   3  116.10    7.99
   0   1   3  112.80    7.99
   0   1   3  123.10    9.24
  -1  -1  -3  124.73   10.00
  -1  -1  -3  159.29   12.44
  -1  -1  -3  161.37   10.37
   1   1   3  130.19    9.34
   1   1   3  154.34    9.71
   1   1   3  138.19    9.36
  -2  -1  -3    0.54    1.73
  -2  -1  -3   -1.83    0.95
  -2  -1  -3    0.37    2.12
  -2  -1  -3    2.33    2.26
  -2  -1  -3    0.01    1.72
   2   1   3    0.27    1.16
   2   1   3   -0.79    1.51
   2   1   3    0.63    1.16
   2   1   3   -3.19    1.59
  -3  -1  -3    1.47    1.90
  -3  -1  -3    3.34    2.64
  -3  -1  -3    0.81    1.56
  -3  -1  -3    3.68    2.10
  -3  -1  -3    3.64    1.86
  -3  -1  -3    1.06    2.35
   3   1   3    4.14    2.22
   3   1   3    2.17    1.76
   3   1   3    3.64    1.92
   3   1   3    2.50    2.20
  -4  -1  -3   72.50    6.20
  -4  -1  -3   70.69    7.05
  -4  -1  -3   70.51    6.61
  -4  -1  -3   56.21    6.74
  -4  -1  -3   65.18    6.10
  -4  -1  -3   63.56    7.14
   4   1   3   66.22    6.53
   4   1   3   64.50    6.31
   4   1   3   72.63    7.26
   4   1   3   72.92    6.33
  -5  -1  -3    0.56    2.72
  -5  -1  -3    3.73    2.78
  -5  -1  -3    6.89    2.94
  -5  -1  -3    7.60    3.06
  -5  -1  -3    3.49    3.03
   5   1   3    8.01    3.71
   5   1   3    3.50    1.09
   5   1   3    1.79    2.87
   5   1   3   -0.05    2.70
  -6  -1  -3   50.79    6.88
  -6  -1  -3   34.81    5.74
  -6  -1  -3   37.05    6.05
  -6  -1  -3   33.38    6.23
  -6  -1  -3   41.98    5.80
   6   1   3   32.59    5.84
   6   1   3   21.50    5.30
   6   1   3   38.01    6.67
  -7  -1  -3    7.34    4.09
  -7  -1  -3    8.51    4.34
  -7  -1  -3   15.61    4.86
   7   1   3   11.47    4.65
   7   1   3   12.20    5.44
  -8  -1  -3    6.53    4.58
  -8  -1  -3   14.19    5.24
  -8  -1  -3    0.54    4.02
   8   1   3   16.52    5.82
   8   1   3    3.31    5.24
  -9  -1  -3    2.81    4.50
  -9  -1  -3    2.28    4.45
   9   1   3   11.93    6.05
 -10  -1  -3   15.09    6.91
 -10  -1  -3   -0.43    5.31
  10   1   3    3.85    6.87
  10  -2  -3   -4.95    5.26
 -10   2   3    3.25    6.63
 -10   2   3    2.38    4.81
   9  -2  -3   12.30    6.36
  -9   2   3   20.64    6.94
  -9   2   3   31.47    7.17
   8  -2  -3   15.25    6.12
  -8   2   3    8.02    5.79
  -8   2   3   17.57    4.42
  -8   2   3   13.46    5.31
   7  -2  -3   22.54    6.05
  -7   2   3   14.79    5.68
  -7   2   3   11.23    4.66
   6  -2  -3   75.01    7.57
   6  -2  -3   97.47    9.11
  -6   2   3   90.23   10.34
  -6   2   3   76.61    9.53
  -6   2   3   67.77    9.53
   5  -2  -3   20.32    3.96
   5  -2  -3   22.73    4.77
  -5   2   3   25.87    5.42
  -5   2   3   33.25    5.71
  -5   2   3   15.56    4.27
   4  -2  -3   25.43    4.41
   4  -2  -3   26.73    4.57
   4  -2  -3   28.71    4.86
  -4   2   3   14.99    4.00
  -4   2   3   25.40    4.79
  -4   2   3   29.71    5.17
   3  -2  -3   99.92    9.20
   3  -2  -3   94.34    8.55
   3  -2  -3   97.75    8.40
   3  -2  -3   99.09    8.31
  -3   2   3   94.39    8.63
  -3   2   3   80.68    8.10
  -3   2   3   98.35    8.29
  -3   2   3  103.08   10.55
   2  -2  -3   13.85    2.10
   2  -2  -3   11.09    2.69
   2  -2  -3   10.35    2.87
   2  -2  -3   11.04    3.21
   2  -2  -3   11.45    2.85
   2  -2  -3   12.59    2.83
  -2   2   3   14.35    2.95
  -2   2   3   12.52    3.10
  -2   2   3   13.98    4.07
  -2   2   3   10.15    2.70
   1  -2  -3   39.25    4.91
   1  -2  -3   43.82    4.92
   1  -2  -3   40.32    4.01
   1  -2  -3   32.42    5.57
   1  -2  -3   38.23    4.20
  -1   2   3   46.49    4.60
  -1   2   3   37.74    4.89
  -1   2   3   35.84    4.27
   0  -2  -3    0.59    1.27
   0  -2  -3    1.94    2.08
   0  -2  -3   -1.47    1.35
   0  -2  -3    1.69    1.32
   0   2   3    0.23    1.30
   0   2   3   -0.47    1.99
   0   2   3    1.31    1.34
  -1  -2  -3    1.37    1.71
  -1  -2  -3    2.12    1.16
  -1  -2  -3    2.28    2.67
  -1  -2  -3    1.93    2.02
   1   2   3    1.69    1.54
   1   2   3    2.17    1.32
  -2  -2  -3   14.07    3.05
  -2  -2  -3   12.26    3.65
  -2  -2  -3    9.13    1.99
  -2  -2  -3    6.25    2.42
  -2  -2  -3    7.52    2.69
   2   2   3   12.04    2.27
   2   2   3    6.43    2.33
   2   2   3   12.40    2.61
   2   2   3   11.03    2.21
  -3  -2  -3   25.09    4.27
  -3  -2  -3   33.10    4.49
  -3  -2  -3   22.55    4.71
  -3  -2  -3   26.14    3.62
   3   2   3   27.84    4.32
   3   2   3   26.44    3.61
   3   2   3   24.65    3.66
   3   2   3   22.94    3.55
  -4  -2  -3   92.79    8.80
  -4  -2  -3   87.57    7.97
  -4  -2  -3   78.36    7.74
  -4  -2  -3   89.87    7.37
   4   2   3   80.02    7.49
   4   2   3   79.86    7.49
   4   2   3   85.61    7.97
  -5  -2  -3   40.04    6.11
  -5  -2  -3   31.89    5.40
  -5  -2  -3   22.64    5.11
  -5  -2  -3   42.74    5.47
   5   2   3   33.62    5.11
   5   2   3   20.11    4.92
   5   2   3   36.79    4.22
   5   2   3   32.57    5.24
  -6  -2  -3   25.69    5.07
  -6  -2  -3   31.75    5.83
  -6  -2  -3   36.65    4.83
  -6  -2  -3   16.17    4.98
  -6  -2  -3   20.49    4.48
   6   2   3   16.52    5.15
   6   2   3   26.91    2.45
   6   2   3   18.03    5.04
   6   2   3   25.07    5.40
  -7  -2  -3   20.62    5.18
  -7  -2  -3   18.20    5.57
  -7  -2  -3   13.61    4.97
   7   2   3   18.15    5.64
   7   2   3   19.08    5.65
  -8  -2  -3   11.18    5.30
  -8  -2  -3    2.34    4.35
   8   2   3    5.67    4.68
  -9  -2  -3   14.38    6.52
  -9  -2  -3    8.86    5.51
   9   2   3    4.78    5.44
 -10  -2  -3   -3.26    5.17
 -10  -2  -3  -10.67    5.14
  10   2   3   -1.62    5.58
  10  -3  -3   19.54    7.91
 -10   3   3   25.06    7.24
 -10   3   3   30.61    8.96
   9  -3  -3   -0.43    4.80
  -9   3   3    4.71    4.86
  -9   3   3    1.30    4.14
   8  -3  -3   -1.08    4.24
  -8   3   3    2.69    5.11
  -8   3   3    1.56    4.23
   7  -3  -3    5.94    4.52
  -7   3   3   -1.08    4.12
  -7   3   3    1.26    3.82
  -7   3   3    3.18    4.48
   6  -3  -3   -2.53    3.51
   6  -3  -3    1.69    2.66
  -6   3   3   -0.45    3.25
  -6   3   3    0.88    3.90
  -6   3   3   -1.29    2.80
   5  -3  -3    1.49    3.49
   5  -3  -3    0.05    2.58
  -5   3   3   -0.04    2.52
  -5   3   3    3.69    3.50
   4  -3  -3   81.04    8.02
  -4   3   3   86.81    8.48
  -4   3   3   84.07    7.93
  -4   3   3   55.28    7.87
   3  -3  -3   61.99    7.38
   3  -3  -3   50.19    6.18
   3  -3  -3   57.47    6.63
  -3   3   3   60.65    5.93
  -3   3   3   48.85    8.26
  -3   3   3   74.13    7.85
  -3   3   3   58.13    6.72
   2  -3  -3   13.98    3.40
   2  -3  -3    9.39    2.74
   2  -3  -3   18.55    3.39
   2  -3  -3   13.38    3.04
  -2   3   3   14.86    3.25
  -2   3   3   19.02    3.48
  -2   3   3    4.38    2.51
  -2   3   3   10.76    4.46
   1  -3  -3   69.95    7.90
   1  -3  -3   68.42    6.38
   1  -3  -3   67.46    6.08
   1  -3  -3   61.26    6.73
   1  -3  -3   74.70    6.17
  -1   3   3   69.48    6.26
  -1   3   3   68.19    6.17
  -1   3   3   72.28    7.84
  -1   3   3   77.14    7.11
   0  -3  -3    1.43    1.50
   0  -3  -3    2.44    1.54
   0  -3  -3    5.57    2.47
   0  -3  -3    2.10    1.71
   0  -3  -3    1.14    2.21
   0   3   3    2.96    2.72
   0   3   3    0.82    1.83
   0   3   3    1.49    1.68
   0   3   3    4.55    1.96
  -1  -3  -3   27.19    4.29
  -1  -3  -3   27.55    5.10
  -1  -3  -3   28.48    3.67
  -1  -3  -3   32.68    3.73
   1   3   3   35.10    3.91
   1   3   3   37.50    4.42
   1   3   3   26.09    4.70
  -2  -3  -3   57.32    6.70
  -2  -3  -3   58.06    7.92
  -2  -3  -3   58.25    5.26
  -2  -3  -3   61.52    5.32
   2   3   3   52.75    5.29
   2   3   3   55.19    5.60
   2   3   3   64.02    5.50
  -3  -3  -3   69.01    6.15
  -3  -3  -3   72.61    8.04
  -3  -3  -3   69.41    6.32
  -3  -3  -3   72.26    7.05
  -3  -3  -3   60.10    7.27
   3   3   3   65.64    5.67
   3   3   3   56.66    6.03
   3   3   3   67.52    6.31
  -4  -3  -3   58.07    7.24
  -4  -3  -3   45.72    6.54
  -4  -3  -3   49.94    7.27
   4   3   3   49.18    5.96
   4   3   3   41.79    5.69
   4   3   3   41.72    4.46
  -5  -3  -3   61.57    7.18
  -5  -3  -3   51.04    7.64
  -5  -3  -3   72.62    8.82
  -5  -3  -3   55.14    8.09
   5   3   3   62.33    7.63
   5   3   3   64.35    7.69
   5   3   3   58.30    6.26
   5   3   3   62.80    6.10
  -6  -3  -3    5.01    3.49
  -6  -3  -3    2.40    2.79
  -6  -3  -3    1.95    3.46
  -6  -3  -3    3.25    4.02
   6   3   3    4.20    4.01
  -7  -3  -3    0.43    3.58
  -7  -3  -3    4.83    3.58
  -7  -3  -3   -0.01    4.21
   7   3   3    5.99    4.38
  -8  -3  -3   13.81    5.74
  -8  -3  -3   14.25    5.58
   8   3   3    6.43    4.90
  -9  -3  -3   -0.41    5.48
  -9  -3  -3   -2.68    5.03
   9   3   3   -2.90    5.60
  10  -4  -3    2.07    6.40
 -10   4   3    0.07    4.30
 -10   4   3   20.76    8.24
   9  -4  -3    6.63    6.21
  -9   4   3    6.70    4.95
  -9   4   3   12.52    7.03
   8  -4  -3    7.42    5.18
  -8   4   3   -2.10    3.83
  -8   4   3    4.10    5.12
   7  -4  -3   11.57    4.08
   7  -4  -3   10.54    4.92
  -7   4   3    2.28    4.58
  -7   4   3    4.84    4.12
  -7   4   3   16.11    5.85
   6  -4  -3    2.84    4.38
  -6   4   3   11.40    5.10
  -6   4   3   16.25    5.28
   5  -4  -3   11.22    4.50
   5  -4  -3    9.18    6.18
  -5   4   3   11.14    4.52
  -5   4   3   16.37    5.24
   4  -4  -3   20.13    4.60
   4  -4  -3   17.62    6.47
  -4   4   3   19.77    4.43
  -4   4   3   22.74    5.37
   3  -4  -3  236.38   17.25
   3  -4  -3  227.74   16.66
  -3   4   3  227.38   18.38
  -3   4   3  242.15   17.38
  -3   4   3  225.02   17.30
   2  -4  -3   54.02    6.43
   2  -4  -3   59.27    6.67
  -2   4   3   64.24    6.20
  -2   4   3   53.14    8.06
  -2   4   3   55.11    6.54
  -2   4   3   63.90    7.54
   1  -4  -3   18.48    3.66
   1  -4  -3   15.03    3.16
   1  -4  -3   14.15    3.50
  -1   4   3   14.75    3.58
  -1   4   3   18.30    4.09
  -1   4   3   11.67    4.06
  -1   4   3   20.39    3.69
   0  -4  -3   -1.50    1.82
   0  -4  -3   -0.79    1.56
   0  -4  -3    0.29    1.70
   0   4   3   -2.71    1.55
   0   4   3   -1.22    1.77
   0   4   3   -1.14    2.20
   0   4   3    2.97    2.83
  -1  -4  -3   -0.68    1.73
  -1  -4  -3   -0.49    2.04
  -1  -4  -3    1.81    2.62
  -1  -4  -3   -0.34    2.92
   1   4   3    2.13    2.28
   1   4   3   -1.79    2.25
   1   4   3    1.15    2.08
   1   4   3    1.98    2.24
  -2  -4  -3    4.25    3.21
  -2  -4  -3    4.90    2.60
  -2  -4  -3    3.40    3.60
   2   4   3    5.05    1.65
   2   4   3    7.25    2.83
   2   4   3    4.47    2.53
  -3  -4  -3    5.36    3.59
  -3  -4  -3    0.19    3.27
  -3  -4  -3    1.69    2.52
   3   4   3    6.45    2.74
   3   4   3    0.36    2.54
  -4  -4  -3   13.56    4.69
  -4  -4  -3   10.31    3.98
  -4  -4  -3   16.44    4.05
  -4  -4  -3   15.48    5.30
   4   4   3   13.60    3.83
   4   4   3   16.35    4.31
  -5  -4  -3    1.66    3.64
  -5  -4  -3   -3.48    2.83
  -5  -4  -3    3.95    4.03
   5   4   3    3.89    3.57
   5   4   3   -1.99    2.56
   5   4   3   -2.98    2.64
  -6  -4  -3  152.18   14.01
  -6  -4  -3  136.24   14.02
   6   4   3  158.11   13.24
  -7  -4  -3    8.11    4.62
  -7  -4  -3   -4.71    3.64
   7   4   3    3.02    4.43
  -8  -4  -3    5.70    5.38
  -8  -4  -3   -0.48    4.02
   8   4   3    9.12    5.42
  -9  -4  -3    1.86    5.59
  -9  -4  -3    6.58    5.63
   9   4   3    6.29    6.28
  10  -5  -3    3.71    7.16
 -10   5   3    2.36    5.30
 -10   5   3    4.65    7.00
   9  -5  -3    3.95    5.97
  -9   5   3   -0.82    5.88
  -9   5   3    8.44    5.39
   8  -5  -3   -5.31    3.99
  -8   5   3   -1.63    3.73
  -8   5   3   13.38    6.17
  -8   5   3    4.13    5.31
   7  -5  -3   22.96    6.70
  -7   5   3   29.52    6.58
  -7   5   3    9.40    5.38
  -7   5   3   19.22    6.48
   6  -5  -3    0.01    5.81
   6  -5  -3    0.94    4.07
  -6   5   3    8.07    4.65
  -6   5   3    5.36    4.36
   5  -5  -3   17.95    7.29
   5  -5  -3   16.97    5.39
  -5   5   3   15.71    4.82
  -5   5   3   21.88    6.07
   4  -5  -3  128.55   10.84
   4  -5  -3  119.37   13.93
   4  -5  -3  128.26   11.65
  -4   5   3  137.47   12.68
  -4   5   3  130.01   11.86
   3  -5  -3   28.18    4.98
   3  -5  -3   28.51    7.24
   3  -5  -3   37.66    5.93
  -3   5   3   36.56    5.57
  -3   5   3   32.41    6.02
  -3   5   3   33.24    5.76
   2  -5  -3   14.03    3.90
   2  -5  -3   16.38    3.97
  -2   5   3   18.34    4.27
  -2   5   3   22.48    5.08
  -2   5   3   15.39    5.17
  -2   5   3   15.02    4.16
   1  -5  -3   66.63    7.69
   1  -5  -3   75.32    7.27
  -1   5   3   68.64    8.57
  -1   5   3   73.79    8.28
  -1   5   3   66.22    6.81
  -1   5   3   67.81    7.00
   0  -5  -3   27.57    4.61
   0  -5  -3   27.71    5.02
   0   5   3   26.89    4.64
   0   5   3   21.21    4.88
   0   5   3   33.27    5.32
   0   5   3   32.45    5.01
  -1  -5  -3    0.11    2.32
  -1  -5  -3    0.91    3.12
   1   5   3   -0.68    3.02
   1   5   3    3.78    2.76
   1   5   3    6.68    2.61
  -2  -5  -3   12.90    3.51
  -2  -5  -3   12.11    4.18
  -2  -5  -3   10.56    4.08
   2   5   3    5.55    3.92
   2   5   3   15.28    3.89
   2   5   3   11.96    3.57
  -3  -5  -3   40.76    5.81
  -3  -5  -3   35.58    6.70
  -3  -5  -3   30.54    6.91
   3   5   3   28.94    5.05
   3   5   3   36.71    5.58
  -4  -5  -3    1.58    3.97
  -4  -5  -3   -1.93    2.34
  -4  -5  -3   -2.98    3.34
   4   5   3    2.37    3.13
   4   5   3    1.21    2.75
  -5  -5  -3   -1.24    3.48
  -5  -5  -3   12.77    4.64
  -5  -5  -3   12.76    3.80
  -5  -5  -3    5.74    4.55
   5   5   3   15.95    4.87
  -6  -5  -3    4.38    4.12
  -6  -5  -3    9.85    5.33
  -6  -5  -3   11.10    4.57
  -6  -5  -3    2.05    3.85
   6   5   3    8.01    4.56
  -7  -5  -3   35.22    7.77
  -7  -5  -3   50.97    9.13
   7   5   3   51.98    8.75
  -8  -5  -3    6.09    5.13
  -8  -5  -3    1.14    5.85
   8   5   3    2.12    6.21
  10  -6  -3    3.67    5.26
 -10   6   3   -3.82    4.60
 -10   6   3   -2.85    6.75
   9  -6  -3    8.91    6.71
  -9   6   3   -4.96    3.83
  -9   6   3    1.54    5.02
  -9   6   3   -7.22    5.44
   8  -6  -3   25.16    7.94
  -8   6   3   18.21    6.78
  -8   6   3   47.83    9.85
  -8   6   3   20.03    6.14
   7  -6  -3   21.05    6.19
   7  -6  -3    3.67    6.61
  -7   6   3   21.53    6.84
  -7   6   3   27.01    7.11
   6  -6  -3    6.07    4.82
   6  -6  -3    1.77    6.55
  -6   6   3    9.84    5.31
  -6   6   3    0.33    4.58
   5  -6  -3    2.79    5.49
   5  -6  -3   -0.87    3.62
  -5   6   3   -8.91    3.06
  -5   6   3    2.12    4.37
   4  -6  -3   31.00    5.59
   4  -6  -3   19.16    5.45
   4  -6  -3   24.93    7.65
  -4   6   3   35.21    6.98
  -4   6   3   17.05    5.68
   3  -6  -3   17.68    4.54
   3  -6  -3   28.46    7.35
   3  -6  -3   21.84    5.13
  -3   6   3   24.72    5.37
  -3   6   3   23.59    5.75
   2  -6  -3   67.25    8.55
   2  -6  -3   78.74    9.14
  -2   6   3   90.81    8.56
  -2   6   3   75.69    9.08
  -2   6   3   86.07   10.31
   1  -6  -3   41.85    6.21
   1  -6  -3   39.19    6.21
  -1   6   3   46.73    7.29
  -1   6   3   34.19    5.90
  -1   6   3   39.20    6.20
  -1   6   3   34.33    6.59
   0  -6  -3   59.65    7.44
   0  -6  -3   64.54    8.12
   0   6   3   65.98    7.95
   0   6   3   60.63    8.49
   0   6   3   57.61    7.48
   0   6   3   58.83    6.99
  -1  -6  -3   29.94    5.17
  -1  -6  -3   26.65    5.55
   1   6   3   21.95    5.01
   1   6   3   19.60    3.64
   1   6   3   18.61    5.20
  -2  -6  -3   37.08    6.84
  -2  -6  -3   48.02    6.54
  -2  -6  -3   26.99    7.05
   2   6   3   49.52    6.71
   2   6   3   28.09    6.61
   2   6   3   43.50    6.23
  -3  -6  -3   -0.53    4.13
  -3  -6  -3   -2.98    1.93
  -3  -6  -3   -0.98    3.61
   3   6   3    0.19    2.78
   3   6   3    3.36    3.92
   3   6   3   -2.68    2.64
  -4  -6  -3   23.32    5.77
  -4  -6  -3   18.76    6.11
  -4  -6  -3   23.91    4.95
   4   6   3   30.68    5.93
  -5  -6  -3    3.45    4.36
  -5  -6  -3   -0.93    3.26
  -5  -6  -3    5.67    4.17
   5   6   3    5.21    4.02
  -6  -6  -3    9.57    4.98
  -6  -6  -3    8.80    5.67
   6   6   3   14.34    5.57
  -7  -6  -3   -0.14    4.53
  -7  -6  -3    7.15    5.76
   7   6   3    1.52    4.69
  -8  -6  -3    1.03    5.51
  -8  -6  -3   15.28    6.79
   8   6   3   -1.27    6.26
   9  -7  -3   10.10    7.68
  -9   7   3   17.52    7.37
  -9   7   3   12.65    6.01
  -9   7   3   15.63    7.57
   8  -7  -3    0.96    5.90
  -8   7   3   12.88    6.39
  -8   7   3    2.26    6.09
   7  -7  -3    7.08    7.15
   7  -7  -3   22.04    7.01
  -7   7   3   12.88    6.32
  -7   7   3   23.40    7.30
   6  -7  -3    3.60    5.04
   6  -7  -3   -2.06    5.72
  -6   7   3    0.95    4.58
  -6   7   3    5.82    4.90
   5  -7  -3    1.31    5.47
   5  -7  -3   -2.51    2.69
   5  -7  -3    5.56    4.53
  -5   7   3    4.93    4.81
  -5   7   3   -1.70    3.89
   4  -7  -3    1.53    3.02
   4  -7  -3   -4.45    4.38
   4  -7  -3    4.33    4.33
  -4   7   3    2.87    4.48
  -4   7   3    4.72    4.49
   3  -7  -3   -5.96    4.22
   3  -7  -3   -5.52    2.56
   3  -7  -3   -2.34    3.35
  -3   7   3   -0.70    3.83
  -3   7   3   -1.78    3.47
   2  -7  -3   15.02    4.80
   2  -7  -3   20.79    4.86
  -2   7   3   11.75    5.21
  -2   7   3   26.94    5.65
   1  -7  -3  172.27   14.28
   1  -7  -3  180.51   14.38
  -1   7   3  161.02   15.59
  -1   7   3  175.09   14.53
   0  -7  -3    0.11    3.35
   0  -7  -3   -0.94    3.05
   0   7   3    1.16    2.91
   0   7   3   -3.79    2.85
   0   7   3    5.71    4.17
   0   7   3   -1.13    3.00
  -1  -7  -3   10.54    4.09
  -1  -7  -3   -3.14    3.13
   1   7   3    9.29    4.27
   1   7   3    1.03    3.60
   1   7   3    6.54    2.58
  -2  -7  -3   14.83    4.49
  -2  -7  -3    2.28    4.47
  -2  -7  -3    1.72    4.86
   2   7   3    8.65    4.44
   2   7   3   14.98    5.14
  -3  -7  -3   37.22    8.37
  -3  -7  -3   40.36    6.38
  -3  -7  -3   31.15    7.27
   3   7   3   38.54    6.83
   3   7   3   22.21    6.14
  -4  -7  -3    8.68    5.04
  -4  -7  -3   10.64    4.32
  -4  -7  -3   -1.60    4.10
   4   7   3    6.78    4.49
   4   7   3    3.19    4.20
  -5  -7  -3    5.06    4.50
  -5  -7  -3    0.89    4.46
   5   7   3    4.77    4.62
   5   7   3    5.65    4.09
  -6  -7  -3    2.91    5.08
  -6  -7  -3    1.21    4.78
   6   7   3    1.89    5.37
  -7  -7  -3   16.86    6.94
   7   7   3  -11.18    5.22
   8  -8  -3   35.77   10.05
  -8   8   3   64.36   11.98
  -8   8   3   43.15    9.97
   7  -8  -3    3.26    4.81
   7  -8  -3    3.49    7.32
  -7   8   3    2.94    5.13
  -7   8   3   -1.07    4.68
   6  -8  -3    6.43    5.55
   6  -8  -3   13.92    8.18
  -6   8   3   27.58    7.75
  -6   8   3   21.09    7.11
   5  -8  -3    2.90    3.58
   5  -8  -3    4.53    6.62
   5  -8  -3   -5.38    3.79
  -5   8   3    2.16    4.75
  -5   8   3    0.05    4.61
   4  -8  -3   11.04    6.72
   4  -8  -3   13.40    4.50
   4  -8  -3   11.25    5.17
  -4   8   3   13.53    5.86
  -4   8   3   10.88    5.43
   3  -8  -3    3.13    3.86
   3  -8  -3    1.66    4.08
  -3   8   3    8.94    4.82
  -3   8   3   -0.37    3.71
   2  -8  -3   -2.44    3.45
   2  -8  -3   -3.88    3.08
  -2   8   3   -2.17    3.56
  -2   8   3    7.04    4.45
   1  -8  -3   11.17    4.55
   1  -8  -3    8.51    4.20
  -1   8   3    3.36    4.16
  -1   8   3    6.22    5.21
   0  -8  -3    1.22    3.45
   0  -8  -3    2.83    3.31
   0   8   3    4.58    4.53
   0   8   3    3.34    3.68
  -1  -8  -3   18.50    5.81
  -1  -8  -3   35.63    6.58
   1   8   3   27.38    6.56
   1   8   3   28.13    6.37
  -2  -8  -3    8.34    4.66
  -2  -8  -3    5.94    4.48
  -2  -8  -3    4.34    5.53
   2   8   3   11.84    4.94
   2   8   3    8.23    4.70
  -3  -8  -3   18.60    5.27
  -3  -8  -3   13.70    6.60
  -3  -8  -3   22.00    6.98
   3   8   3   18.34    6.12
   3   8   3   19.29    5.75
  -4  -8  -3    3.58    5.11
  -4  -8  -3    6.63    5.77
   4   8   3   -1.12    3.94
   4   8   3    5.45    4.96
  -5  -8  -3    9.63    5.89
  -5  -8  -3   16.87    6.58
   5   8   3    3.37    5.23
   5   8   3   12.22    5.16
  -6  -8  -3   15.44    6.81
  -6  -8  -3   -1.53    4.45
   6   8   3    7.10    6.60
   6   8   3   16.76    6.69
   8  -9  -3   -4.45    5.92
  -8   9   3    3.33    6.30
  -8   9   3   14.89    8.37
   7  -9  -3   -1.04    5.23
  -7   9   3   -6.90    5.06
  -7   9   3   -3.35    5.07
   6  -9  -3  -12.04    5.02
   6  -9  -3    0.57    5.02
  -6   9   3   -2.02    5.70
  -6   9   3    6.03    6.24
   5  -9  -3   -2.57    6.18
   5  -9  -3    9.54    4.64
   5  -9  -3    4.43    4.99
  -5   9   3   13.67    6.33
  -5   9   3   15.50    6.60
   4  -9  -3   -4.25    3.85
   4  -9  -3   -4.71    2.84
  -4   9   3   -2.05    4.20
  -4   9   3   -0.98    4.89
   3  -9  -3    7.34    4.48
   3  -9  -3    7.57    4.83
  -3   9   3    4.29    4.89
  -3   9   3   -1.59    4.07
   2  -9  -3   27.35    6.40
   2  -9  -3   16.85    5.80
  -2   9   3   17.85    6.35
  -2   9   3   18.78    6.00
   1  -9  -3    6.75    4.98
   1  -9  -3    8.47    4.75
  -1   9   3    4.47    4.97
  -1   9   3    8.86    5.57
   0  -9  -3   56.76    9.14
   0  -9  -3   65.46    9.50
   0   9   3   58.91   10.11
   0   9   3   58.29    9.39
  -1  -9  -3    2.87    3.89
  -1  -9  -3    0.98    4.20
   1   9   3   -6.10    4.14
   1   9   3    3.67    4.28
  -2  -9  -3   11.03    5.23
  -2  -9  -3    5.81    6.12
  -2  -9  -3    3.06    4.22
   2   9   3    7.53    5.68
   2   9   3    3.53    4.54
  -3  -9  -3    2.03    5.69
  -3  -9  -3    0.71    4.68
   3   9   3    1.34    4.92
   3   9   3    0.49    4.15
  -4  -9  -3   13.19    6.37
  -4  -9  -3   11.80    6.22
   4   9   3    2.02    4.24
   4   9   3   23.77    6.83
  -5  -9  -3   -0.67    5.07
  -5  -9  -3    0.88    4.98
   5   9   3    8.86    5.20
   5   9   3    3.23    5.99
   6 -10  -3    5.84    5.98
  -6  10   3    3.14    6.51
  -6  10   3    0.06    5.47
   5 -10  -3    8.17    4.67
   5 -10  -3    2.28    5.82
  -5  10   3    4.46    6.10
  -5  10   3   24.51    7.47
   4 -10  -3   -0.82    4.57
   4 -10  -3    1.71    3.92
  -4  10   3   -3.15    5.47
  -4  10   3   -1.00    5.38
   3 -10  -3   23.21    7.19
   3 -10  -3   23.57    6.52
  -3  10   3   15.68    6.69
  -3  10   3   29.30    8.10
   2 -10  -3    2.19    4.06
   2 -10  -3   -3.90    3.70
  -2  10   3   -3.67    4.16
  -2  10   3   -5.41    4.33
   1 -10  -3   53.23    9.14
   1 -10  -3   54.28    9.30
  -1  10   3   55.12   10.31
  -1  10   3   42.64    9.32
   0 -10  -3   10.96    5.66
   0 -10  -3    6.03    4.82
   0  10   3   11.39    5.71
   0  10   3    8.44    6.11
  -1 -10  -3   28.47    7.53
   1  10   3   19.21    6.62
   1  10   3   44.21    8.93
  -2 -10  -3    7.13    6.72
  -2 -10  -3    6.88    5.84
   2  10   3    6.94    5.56
   2  10   3    0.62    6.47
  -3 -10  -3    3.76    5.20
  -3 -10  -3   -5.16    5.19
   3  10   3    0.62    4.48
   3  10   3   -0.97    5.18
  -4 -10  -3    4.75    5.80
  -4 -10  -3    0.88    6.09
   5 -11  -3    7.74    5.66
   5 -11  -3    1.17    6.23
  -5  11   3   11.51    7.48
  -5  11   3    0.96    5.74
   4 -11  -3   -4.41    4.80
   4 -11  -3    3.74    5.01
  -4  11   3    5.97    6.95
  -4  11   3    9.12    6.61
   3 -11  -3    6.86    5.98
   3 -11  -3    1.66    5.50
  -3  11   3    9.23    6.93
  -3  11   3    7.48    7.08
   2 -11  -3   30.76    7.72
   2 -11  -3   23.55    7.92
  -2  11   3   31.17    8.79
  -2  11   3   10.59    6.89
   1 -11  -3   -8.25    4.00
  -1  11   3   -4.75    4.83
  -1  11   3   -2.17    5.03
   0 -11  -3   -2.51    4.62
   0  11   3   -9.38    5.39
   0  11   3    4.73    6.06
  -1 -11  -3    9.89    6.00
   1  11   3    6.17    5.88
   1  11   3   -3.47    5.52
  -2 -11  -3   -2.30    5.15
  -2 -11  -3   10.80    7.93
   0 -12   4   10.28    7.06
   0 -12   4    2.74    5.61
  -1  12  -4   23.19    7.99
   1 -12   4   -2.95    5.13
  -2  12  -4    5.88    6.03
   2 -12   4   -7.78    7.21
   2 -12   4    2.45    5.99
   3 -12   4   13.33    9.15
   3  11  -4    6.50    5.92
   3  11  -4    1.77    6.49
  -3 -11   4    6.53    6.48
  -3 -11   4    9.28    6.90
   2  11  -4   12.32    6.99
   2  11  -4    8.66    5.86
  -2 -11   4   14.25    6.74
  -2 -11   4   18.32    6.93
   1  11  -4    2.44    5.60
   1  11  -4    1.12    4.30
  -1 -11   4   -3.93    4.57
  -1 -11   4   12.56    6.81
   0  11  -4   17.62    7.30
   0  11  -4   16.65    5.09
   0 -11   4   20.42    7.92
   0 -11   4   17.57    7.03
   0 -11   4   23.31    6.44
  -1  11  -4   58.50    8.26
  -1  11  -4   57.58   10.71
   1 -11   4   48.69    8.26
   1 -11   4   50.27   10.89
   1 -11   4   74.41   11.26
  -2  11  -4   -2.83    3.86
  -2  11  -4    5.10    5.76
   2 -11   4   -2.50    5.45
   2 -11   4   10.66    7.32
  -3  11  -4   -2.36    5.19
  -3  11  -4   -0.34    4.01
   3 -11   4  -10.69    5.62
   3 -11   4    7.55    5.54
  -4  11  -4   10.33    5.59
  -4  11  -4   22.02    7.93
   4 -11   4    6.62    8.54
   4 -11   4   26.16    8.44
  -5  11  -4    8.35    7.28
  -5  11  -4    4.38    4.84
   5 -11   4   14.00    7.21
   5 -11   4   -8.71    7.26
   4  10  -4   -1.66    5.51
  -4 -10   4   -2.99    4.68
  -4 -10   4   -1.66    5.33
   3  10  -4   12.54    6.01
   3  10  -4    7.83    5.83
  -3 -10   4    7.30    6.30
  -3 -10   4   10.75    5.96
   2  10  -4    0.00    4.87
   2  10  -4    4.34    5.36
  -2 -10   4    3.46    4.83
  -2 -10   4   -1.92    4.03
   1  10  -4   29.77    7.76
   1  10  -4   28.90    6.05
   1  10  -4   32.49    6.93
  -1 -10   4   32.24    6.66
  -1 -10   4   24.38    7.18
  -1 -10   4   33.15    7.43
   0  10  -4   13.64    6.35
   0  10  -4   22.73    5.30
   0  10  -4   22.06    5.54
   0 -10   4   15.94    5.46
   0 -10   4   28.56    6.88
   0 -10   4   24.23    6.98
  -1  10  -4    1.43    4.90
  -1  10  -4    0.68    3.45
  -1  10  -4    1.03    3.28
   1 -10   4   -2.70    4.90
   1 -10   4   -0.69    3.88
   1 -10   4    1.19    4.70
  -2  10  -4    6.10    4.21
  -2  10  -4   -1.38    4.88
  -2  10  -4    6.76    3.51
   2 -10   4    1.25    5.49
   2 -10   4    3.49    4.78
  -3  10  -4   29.44    6.54
  -3  10  -4   42.80    8.88
  -3  10  -4   44.68    6.50
   3 -10   4   38.41   10.07
   3 -10   4   25.29    7.30
  -4  10  -4   50.89    9.10
  -4  10  -4   49.75    9.90
   4 -10   4   57.87   10.35
   4 -10   4   55.15   12.08
  -5  10  -4    8.63    6.26
  -5  10  -4    9.22    4.97
   5 -10   4    0.74    6.87
   5 -10   4    9.56    6.24
  -6  10  -4    3.70    6.01
   6 -10   4    7.47    6.82
   6 -10   4   15.87    9.40
  -7  10  -4    7.65    7.99
   7 -10   4    4.45    6.60
   7 -10   4    9.94   10.04
   6   9  -4   -0.75    5.53
  -6  -9   4   10.89    7.37
  -6  -9   4    1.49    6.26
   5   9  -4    8.36    6.63
  -5  -9   4   13.89    6.62
  -5  -9   4   11.58    7.05
   4   9  -4   51.26    9.72
  -4  -9   4   38.97    9.22
  -4  -9   4   57.28    9.42
   3   9  -4   -1.39    3.06
   3   9  -4   -3.63    4.01
  -3  -9   4    3.93    4.65
  -3  -9   4    2.63    4.96
   2   9  -4   14.41    5.83
   2   9  -4   13.32    5.47
   2   9  -4    8.59    3.76
  -2  -9   4    2.48    4.70
  -2  -9   4    6.88    4.96
  -2  -9   4   11.62    4.83
   1   9  -4   -3.77    2.70
   1   9  -4    8.12    4.55
   1   9  -4   -2.81    3.64
  -1  -9   4   -1.33    3.95
  -1  -9   4    4.80    4.62
  -1  -9   4    2.19    4.20
   0   9  -4    4.46    3.68
   0   9  -4    2.46    4.46
   0   9  -4    2.71    3.71
   0  -9   4   -0.50    4.23
   0  -9   4    2.69    3.52
   0  -9   4   11.98    5.33
  -1   9  -4   -4.12    3.57
  -1   9  -4    2.16    2.85
  -1   9  -4   -4.09    2.73
   1  -9   4   -1.84    3.92
   1  -9   4    1.26    3.22
   1  -9   4    4.46    4.42
  -2   9  -4    2.21    3.53
  -2   9  -4    5.20    4.21
  -2   9  -4    2.28    3.20
   2  -9   4   -4.29    4.80
   2  -9   4    3.90    4.25
   2  -9   4   -0.45    2.83
  -3   9  -4  101.64   12.91
  -3   9  -4  109.47   10.84
  -3   9  -4   88.81    9.05
   3  -9   4  101.44   12.56
   3  -9   4   95.76   14.40
  -4   9  -4   64.19    8.12
  -4   9  -4   67.63    9.69
  -4   9  -4   68.31   10.44
   4  -9   4   64.20   12.54
   4  -9   4   78.40   10.98
  -5   9  -4   10.07    4.58
  -5   9  -4   20.42    6.75
  -5   9  -4    8.23    3.77
   5  -9   4   16.25    8.49
   5  -9   4   13.97    6.39
  -6   9  -4    5.79    5.51
  -6   9  -4    0.07    3.35
   6  -9   4    3.75    5.39
   6  -9   4    0.29    7.25
  -7   9  -4   -2.65    3.63
  -7   9  -4    0.73    6.20
   7  -9   4   -7.57    7.55
   7  -9   4   -4.40    6.02
   8  -9   4   -1.35    8.61
   8  -9   4    1.93    6.27
   7   8  -4   -5.13    5.24
  -7  -8   4    3.43    6.21
  -7  -8   4    1.71    6.11
   6   8  -4    3.78    5.31
  -6  -8   4  -10.01    4.46
  -6  -8   4   -2.11    5.25
   5   8  -4    5.85    3.10
   5   8  -4    7.24    5.66
  -5  -8   4   -1.41    5.08
  -5  -8   4    2.02    5.42
   4   8  -4   37.27    7.54
   4   8  -4   33.60    5.94
  -4  -8   4   50.21    6.96
  -4  -8   4   31.59    7.84
  -4  -8   4   31.98    7.41
   3   8  -4   14.58    5.27
   3   8  -4   15.57    4.27
  -3  -8   4   16.97    4.73
  -3  -8   4   12.93    5.32
  -3  -8   4   14.12    5.17
   2   8  -4   -1.03    2.55
   2   8  -4    2.52    4.21
   2   8  -4    0.41    3.87
  -2  -8   4    0.69    3.52
  -2  -8   4    2.25    4.16
  -2  -8   4    2.58    3.55
   1   8  -4   36.97    7.23
   1   8  -4   20.73    4.45
   1   8  -4   21.92    5.58
  -1  -8   4   35.45    7.07
  -1  -8   4   34.01    6.26
  -1  -8   4   27.89    6.34
   0   8  -4    3.39    2.97
   0   8  -4    6.10    4.50
   0   8  -4    1.00    3.35
   0  -8   4   -0.22    2.65
   0  -8   4    3.24    3.23
   0  -8   4    2.44    4.35
  -1   8  -4   -1.81    2.87
  -1   8  -4   -0.97    2.65
  -1   8  -4   -5.84    3.12
   1  -8   4   -3.81    3.18
   1  -8   4   -1.03    3.94
   1  -8   4   -4.85    2.14
  -2   8  -4   34.35    7.06
  -2   8  -4   43.51    6.63
  -2   8  -4   33.86    5.68
   2  -8   4   37.67    8.26
   2  -8   4   39.59    5.10
   2  -8   4   38.00    7.21
  -3   8  -4   38.39    6.06
  -3   8  -4   37.66    7.55
  -3   8  -4   27.99    6.01
   3  -8   4   45.56    7.86
   3  -8   4   49.23    9.46
  -4   8  -4    2.98    2.80
  -4   8  -4   -2.44    3.59
  -4   8  -4   -4.62    3.01
   4  -8   4   -0.33    3.70
   4  -8   4    2.57    5.22
  -5   8  -4    5.98    4.83
  -5   8  -4    4.71    3.88
  -5   8  -4    3.44    2.99
   5  -8   4   -8.59    4.60
   5  -8   4    4.39    4.68
  -6   8  -4   22.59    7.04
  -6   8  -4    3.75    3.55
   6  -8   4   13.79    7.94
   6  -8   4    3.88    5.21
  -7   8  -4    9.90    4.60
  -7   8  -4   21.49    7.24
   7  -8   4    9.67    6.03
   7  -8   4    4.11    7.62
  -8   8  -4   -3.86    5.47
  -8   8  -4   -5.78    4.18
   8  -8   4    4.02    6.64
   8  -8   4   -6.71    6.22
   7   7  -4    3.72    5.34
  -7  -7   4    1.02    5.32
   6   7  -4    1.96    4.84
  -6  -7   4    4.53    5.30
   5   7  -4   45.84    8.82
  -5  -7   4   63.59    7.07
   4   7  -4   63.29    9.56
  -4  -7   4   90.15    8.56
  -4  -7   4   47.40    9.21
   3   7  -4   -5.86    2.96
   3   7  -4    1.76    2.51
  -3  -7   4   -0.22    3.73
  -3  -7   4    2.83    3.08
   2   7  -4    6.84    4.39
   2   7  -4    6.63    2.72
  -2  -7   4    0.08    3.43
  -2  -7   4    2.16    3.31
   1   7  -4   -0.13    3.30
   1   7  -4    4.71    2.71
   1   7  -4   -0.29    3.47
  -1  -7   4    0.50    3.69
  -1  -7   4    3.85    3.68
  -1  -7   4   -4.90    2.35
   0   7  -4   17.70    3.62
   0   7  -4   17.95    4.55
   0   7  -4   11.28    4.81
   0  -7   4    9.90    3.24
   0  -7   4    7.84    4.34
   0  -7   4   10.30    4.78
  -1   7  -4   53.25    7.14
  -1   7  -4   58.47    6.98
  -1   7  -4   55.93    8.21
   1  -7   4   57.05    9.39
   1  -7   4   56.41    8.22
   1  -7   4   56.50    6.73
   1  -7   4   50.77    6.11
  -2   7  -4   34.31    5.59
  -2   7  -4   39.99    7.12
  -2   7  -4   33.83    5.50
   2  -7   4   35.50    7.57
   2  -7   4   42.70    5.81
   2  -7   4   45.85    7.36
   2  -7   4   33.61    4.52
  -3   7  -4   15.65    5.40
  -3   7  -4    7.54    3.65
  -3   7  -4   10.73    3.34
   3  -7   4   12.15    4.79
   3  -7   4   12.17    5.82
  -4   7  -4   -1.04    2.62
  -4   7  -4    1.87    3.11
  -4   7  -4   -1.92    3.69
   4  -7   4    2.45    5.14
   4  -7   4    6.01    3.91
  -5   7  -4   25.77    5.16
  -5   7  -4   25.09    6.25
   5  -7   4   15.65    5.59
   5  -7   4   22.08    7.94
  -6   7  -4   44.24    7.33
  -6   7  -4   58.03    8.85
   6  -7   4   55.43    9.06
   6  -7   4   49.33   11.08
  -7   7  -4   17.08    6.21
  -7   7  -4    2.37    3.83
   7  -7   4   14.71    7.82
   7  -7   4   17.16    6.29
  -8   7  -4    8.01    5.51
  -8   7  -4    7.39    5.50
   8  -7   4    1.99    5.79
   8  -7   4  -11.14    5.40
  -9   7  -4   15.55    6.57
   9  -7   4   19.11    7.90
   9  -7   4   18.71   10.52
   8   6  -4    6.56    6.99
  -8  -6   4   -4.55    4.00
  -8  -6   4   -3.03    6.08
   7   6  -4   -9.75    3.60
  -7  -6   4   10.10    5.56
  -7  -6   4   -0.72    5.74
   6   6  -4   37.39    8.05
  -6  -6   4   32.12    8.14
  -6  -6   4   37.10    8.10
   5   6  -4   16.76    5.40
  -5  -6   4   15.55    6.15
  -5  -6   4   15.64    5.39
  -5  -6   4   23.32    7.09
   4   6  -4   -2.38    3.12
  -4  -6   4    3.29    3.63
  -4  -6   4    2.54    4.70
   3   6  -4   -0.48    2.50
   3   6  -4    0.62    2.24
  -3  -6   4    1.34    3.00
  -3  -6   4    0.47    4.14
   2   6  -4   12.89    4.09
   2   6  -4   11.61    2.95
  -2  -6   4   17.58    4.82
  -2  -6   4   16.14    5.64
  -2  -6   4    6.64    4.10
   1   6  -4   22.75    5.18
   1   6  -4   22.97    3.54
   1   6  -4   31.03    5.55
  -1  -6   4   17.76    5.11
  -1  -6   4   12.65    4.56
  -1  -6   4   26.91    6.31
   0   6  -4   -1.80    2.93
   0   6  -4    1.05    2.05
   0   6  -4   -1.49    2.52
   0  -6   4   -3.41    2.76
   0  -6   4    2.28    3.55
   0  -6   4   -2.10    3.53
  -1   6  -4    4.08    3.07
  -1   6  -4    8.77    3.80
  -1   6  -4    3.48    2.39
   1  -6   4    6.90    3.55
   1  -6   4    1.93    2.05
   1  -6   4    8.39    4.51
   1  -6   4    0.64    1.91
   1  -6   4   -0.97    3.25
  -2   6  -4    9.91    3.32
  -2   6  -4    8.59    3.22
  -2   6  -4    9.24    4.01
   2  -6   4   16.12    5.38
   2  -6   4   15.49    3.61
   2  -6   4    7.21    3.72
   2  -6   4   10.03    2.26
  -3   6  -4   37.00    6.53
  -3   6  -4   27.78    5.25
  -3   6  -4   31.47    5.35
   3  -6   4   37.69    6.34
   3  -6   4   37.31    7.71
  -4   6  -4   34.99    6.34
  -4   6  -4   29.59    5.29
   4  -6   4   37.33    6.59
   4  -6   4   41.06    8.77
  -5   6  -4   76.47    8.99
  -5   6  -4   56.47    7.79
   5  -6   4   59.41   10.79
   5  -6   4   61.41    8.79
  -6   6  -4   30.71    6.44
  -6   6  -4   50.12    7.98
   6  -6   4   46.96    8.02
   6  -6   4   56.83   11.20
  -7   6  -4    6.23    4.78
  -7   6  -4    0.54    4.13
  -7   6  -4   -1.98    3.42
   7  -6   4    4.83    6.67
   7  -6   4    4.74    5.26
  -8   6  -4   -2.22    3.71
  -8   6  -4   -1.64    5.49
   8  -6   4   -0.49    7.04
   8  -6   4   -3.11    4.50
  -9   6  -4    1.45    5.03
   9  -6   4    4.81    6.17
   9  -6   4   -5.84    6.51
   9   5  -4   -2.82    3.97
  -9  -5   4    9.73    6.04
  -9  -5   4   -4.04    6.63
   8   5  -4   -2.25    3.31
  -8  -5   4   -4.23    5.34
  -8  -5   4    2.54    5.12
   7   5  -4   13.88    6.09
  -7  -5   4    9.47    5.53
  -7  -5   4   18.94    7.14
   6   5  -4   12.23    4.74
  -6  -5   4   16.90    5.57
  -6  -5   4   21.01    6.71
  -6  -5   4   12.72    6.03
   5   5  -4   -1.16    2.34
  -5  -5   4   -2.88    4.12
  -5  -5   4   -1.17    3.45
  -5  -5   4    2.70    4.22
   4   5  -4    1.51    3.65
  -4  -5   4   -2.40    3.35
  -4  -5   4    2.43    4.36
  -4  -5   4    0.06    3.89
   3   5  -4    2.72    3.26
  -3  -5   4   -1.11    2.87
  -3  -5   4    2.40    4.13
  -3  -5   4    1.81    3.72
   2   5  -4   75.76    6.48
   2   5  -4   73.97    8.94
  -2  -5   4   79.54   10.10
  -2  -5   4   76.16    8.53
   1   5  -4   78.84    6.38
   1   5  -4   82.31    8.19
   1   5  -4   69.73    8.37
   1   5  -4   80.02    7.37
  -1  -5   4   85.12   10.35
  -1  -5   4   78.00    8.95
  -1  -5   4   68.30    8.43
  -1  -5   4   85.90    7.95
   0   5  -4   49.34    5.05
   0   5  -4   54.97    7.12
   0   5  -4   64.62    6.08
   0   5  -4   64.38    7.32
   0  -5   4   61.26    7.26
   0  -5   4   59.11    8.49
   0  -5   4   60.98    7.29
   0  -5   4   58.23    8.29
  -1   5  -4   74.84    7.69
  -1   5  -4   85.39    7.61
  -1   5  -4   74.49    6.74
   1  -5   4   77.10    7.64
   1  -5   4   79.88    6.74
   1  -5   4   73.46   10.03
   1  -5   4   83.41    7.80
   1  -5   4   78.52    9.68
  -2   5  -4    6.46    2.92
  -2   5  -4    3.68    2.48
  -2   5  -4    8.96    3.52
   2  -5   4    6.43    3.23
   2  -5   4    5.10    3.56
   2  -5   4    5.04    2.49
   2  -5   4   12.05    3.66
   2  -5   4   10.48    4.32
   2  -5   4    9.86    1.71
  -3   5  -4   77.75    8.64
  -3   5  -4   74.03    8.05
   3  -5   4   73.50    8.48
   3  -5   4   65.84    7.85
   3  -5   4   55.23    9.66
   3  -5   4   84.49    8.90
  -4   5  -4   38.10    6.01
  -4   5  -4   52.60    6.84
   4  -5   4   38.59    8.31
   4  -5   4   41.91    6.68
   4  -5   4   42.37    6.27
  -5   5  -4    0.64    3.35
  -5   5  -4    0.74    3.01
   5  -5   4    2.47    3.56
   5  -5   4    7.92    5.36
   5  -5   4    1.92    3.48
  -6   5  -4    2.03    4.10
  -6   5  -4   -0.72    4.00
  -6   5  -4    7.79    3.14
  -6   5  -4    5.65    3.80
   6  -5   4    1.04    4.46
   6  -5   4    4.91    5.50
  -7   5  -4    6.15    4.73
  -7   5  -4   16.38    5.34
  -7   5  -4   12.92    5.40
   7  -5   4    2.06    5.34
   7  -5   4   13.43    6.86
  -8   5  -4    5.60    5.13
  -8   5  -4   11.05    5.29
   8  -5   4    6.16    5.92
   8  -5   4    8.13    7.45
  -9   5  -4    4.18    4.95
   9  -5   4   13.25    6.72
   9  -5   4    6.57    8.48
 -10   5  -4    4.35    5.83
  10  -5   4   -1.84    8.39
  10  -5   4   -5.78    6.19
   9   4  -4   -2.47    5.44
  -9  -4   4   -2.26    5.55
  -9  -4   4   -2.66    5.03
   8   4  -4   -2.34    4.48
  -8  -4   4   -3.43    5.30
  -8  -4   4   -7.28    4.01
  -8  -4   4   -2.81    4.42
   7   4  -4   -0.64    4.13
  -7  -4   4    8.73    5.10
  -7  -4   4    0.18    4.91
  -7  -4   4    3.43    4.49
   6   4  -4   50.09    8.36
  -6  -4   4   54.06    8.65
  -6  -4   4   54.66    8.36
  -6  -4   4   43.83    8.14
   5   4  -4    6.28    3.81
  -5  -4   4    4.94    4.09
  -5  -4   4    2.01    3.94
  -5  -4   4    4.43    4.46
   4   4  -4    1.55    3.33
  -4  -4   4    7.11    4.16
  -4  -4   4    1.96    3.03
  -4  -4   4    1.61    3.80
   3   4  -4   58.70    7.75
  -3  -4   4   49.59    7.44
  -3  -4   4   59.86    8.57
  -3  -4   4   76.16    7.85
   2   4  -4   46.43    4.21
   2   4  -4   44.55    6.34
   2   4  -4   59.83    6.53
  -2  -4   4   45.18    5.80
  -2  -4   4   46.69    6.54
  -2  -4   4   46.48    6.33
  -2  -4   4   44.08    7.09
   1   4  -4   -0.11    2.26
   1   4  -4   -1.24    1.57
   1   4  -4   10.29    3.30
   1   4  -4    1.68    0.99
  -1  -4   4    2.20    2.54
  -1  -4   4   -1.93    2.93
   0   4  -4   22.34    4.02
   0   4  -4   16.75    2.11
   0   4  -4   15.19    2.92
   0   4  -4   19.87    3.84
   0  -4   4   15.54    4.59
   0  -4   4   15.75    3.44
   0  -4   4   15.47    4.36
   0  -4   4   16.27    2.10
   0  -4   4   18.82    3.80
  -1   4  -4   -3.75    2.13
  -1   4  -4   -2.31    2.09
  -1   4  -4   -1.05    1.54
   1  -4   4    0.02    2.03
   1  -4   4    1.25    1.49
   1  -4   4   -0.06    3.06
   1  -4   4   -0.76    2.55
   1  -4   4    3.56    2.15
  -2   4  -4   90.52    8.61
  -2   4  -4   82.64    7.42
  -2   4  -4   77.51    7.61
   2  -4   4   85.18    5.91
   2  -4   4   83.94    7.59
   2  -4   4   75.85    9.38
   2  -4   4   87.21    8.76
   2  -4   4  104.79    8.18
   2  -4   4   95.13    7.91
  -3   4  -4   28.28    4.88
  -3   4  -4   34.35    5.48
  -3   4  -4   40.19    5.37
   3  -4   4   38.58    6.14
   3  -4   4   32.26    6.86
   3  -4   4   38.81    5.47
   3  -4   4   34.75    5.28
   3  -4   4   31.14    4.97
  -4   4  -4   69.13    6.93
  -4   4  -4   62.70    7.71
  -4   4  -4   57.70    7.22
   4  -4   4   67.86   10.14
   4  -4   4   69.69    7.66
   4  -4   4   53.60    7.09
  -5   4  -4   89.09    8.47
  -5   4  -4   84.12    9.98
  -5   4  -4  105.35    9.43
  -5   4  -4   91.92    8.60
   5  -4   4   77.03    9.46
   5  -4   4   95.13    8.91
   5  -4   4   99.78   11.58
  -6   4  -4   10.41    4.46
  -6   4  -4   10.28    4.34
  -6   4  -4    9.67    2.83
  -6   4  -4    4.42    3.74
   6  -4   4    0.30    3.15
   6  -4   4    2.54    4.91
   6  -4   4    0.77    3.59
  -7   4  -4    1.63    3.65
  -7   4  -4    6.78    4.51
  -7   4  -4    4.79    4.04
   7  -4   4    5.61    4.64
   7  -4   4   -6.60    4.50
  -8   4  -4   18.43    5.90
  -8   4  -4   11.60    5.54
   8  -4   4    8.48    7.18
   8  -4   4   23.10    6.80
  -9   4  -4   -2.49    4.14
   9  -4   4   14.96    6.64
   9  -4   4    6.88    7.50
 -10   4  -4    0.54    4.45
  10  -4   4   -5.48    6.83
  10  -4   4   -4.00    8.54
   9   3  -4    4.16    5.97
  -9  -3   4    8.15    5.59
  -9  -3   4   16.00    7.23
   8   3  -4    0.03    4.68
  -8  -3   4    0.22    4.26
  -8  -3   4    1.79    4.19
  -8  -3   4    8.20    5.95
   7   3  -4    1.63    4.08
  -7  -3   4   16.15    5.86
  -7  -3   4    4.80    4.27
  -7  -3   4    2.99    5.02
   6   3  -4   19.77    5.85
  -6  -3   4   19.86    5.72
  -6  -3   4   19.39    5.59
  -6  -3   4   33.03    6.99
   5   3  -4   23.06    5.43
   5   3  -4   23.91    4.49
  -5  -3   4   14.05    4.59
  -5  -3   4   34.70    6.37
  -5  -3   4   31.10    6.38
   4   3  -4   12.04    4.03
   4   3  -4   19.95    3.53
  -4  -3   4    8.93    3.69
  -4  -3   4   18.38    4.82
  -4  -3   4    7.40    4.23
   3   3  -4   21.31    3.12
   3   3  -4   28.40    4.40
   3   3  -4   17.16    3.76
  -3  -3   4   14.48    3.82
  -3  -3   4   19.11    4.53
  -3  -3   4   17.20    4.37
  -3  -3   4   18.49    4.84
   2   3  -4   46.65    6.22
   2   3  -4   61.68    6.39
   2   3  -4   51.92    5.18
   2   3  -4   48.84    4.17
  -2  -3   4   49.26    6.24
  -2  -3   4   53.28    6.47
  -2  -3   4   58.02    7.56
  -2  -3   4   59.07    6.01
   1   3  -4   15.88    3.36
   1   3  -4   18.49    3.08
   1   3  -4   19.73    3.93
   1   3  -4   19.85    4.24
   1   3  -4   18.60    3.63
  -1  -3   4   17.33    3.43
  -1  -3   4   13.40    4.19
  -1  -3   4   16.09    3.69
   0   3  -4   20.73    4.34
   0   3  -4   19.16    3.68
   0   3  -4   19.40    3.75
   0   3  -4   26.27    3.86
   0   3  -4   24.15    3.05
   0  -3   4   23.88    1.96
   0  -3   4   21.56    3.56
   0  -3   4   20.48    3.57
   0  -3   4   24.52    4.68
   0  -3   4   29.87    5.55
  -1   3  -4  117.01   10.10
  -1   3  -4  121.31    8.99
  -1   3  -4  116.64    9.15
   1  -3   4  113.19   11.17
   1  -3   4  109.99    8.85
   1  -3   4  106.69    8.83
   1  -3   4  118.09   10.15
   1  -3   4  115.14    8.62
  -2   3  -4    8.40    2.61
  -2   3  -4    8.42    3.64
  -2   3  -4    7.36    2.32
  -2   3  -4    1.78    2.35
  -2   3  -4    6.84    2.65
   2  -3   4    8.48    2.51
   2  -3   4    5.80    2.24
   2  -3   4    7.90    2.39
   2  -3   4    8.67    3.17
   2  -3   4    3.99    3.68
  -3   3  -4   19.44    3.88
  -3   3  -4   19.21    3.45
  -3   3  -4   16.66    3.76
  -3   3  -4   20.77    3.48
   3  -3   4   12.64    3.15
   3  -3   4   17.69    3.89
   3  -3   4   17.72    5.06
   3  -3   4   18.11    3.41
   3  -3   4   18.05    3.85
  -4   3  -4  167.82   13.41
  -4   3  -4  172.76   12.93
  -4   3  -4  146.60   12.95
  -4   3  -4  162.02   12.49
   4  -3   4  187.92   13.76
   4  -3   4  168.76   12.98
   4  -3   4  178.54   13.03
   4  -3   4  168.00   16.05
  -5   3  -4  127.41   10.46
  -5   3  -4  111.98   10.79
  -5   3  -4  129.15   11.57
  -5   3  -4  125.96   10.57
   5  -3   4  143.61   13.89
   5  -3   4  140.78   11.01
   5  -3   4  133.05   11.38
  -6   3  -4   48.25    7.37
  -6   3  -4   57.71    7.97
  -6   3  -4   60.34    8.73
  -6   3  -4   63.54    4.84
   6  -3   4   64.24    8.42
   6  -3   4   70.40    8.13
   6  -3   4   73.16   11.13
  -7   3  -4   -4.35    2.92
  -7   3  -4    1.11    3.18
   7  -3   4    1.71    4.81
   7  -3   4   -2.94    5.27
  -8   3  -4   -0.33    3.64
  -8   3  -4   -0.72    3.57
   8  -3   4   -5.23    6.46
   8  -3   4    1.93    4.57
  -9   3  -4   -2.37    3.80
   9  -3   4   -3.33    5.08
   9  -3   4   -3.20    6.94
 -10   3  -4    4.30    5.25
  10  -3   4  -11.20    6.91
  10  -3   4    7.46    7.00
  10   2  -4   -0.96    5.92
 -10  -2   4    3.79    5.76
 -10  -2   4    9.45    7.16
   9   2  -4   -3.43    5.03
  -9  -2   4   -5.63    5.00
  -9  -2   4    1.86    4.35
   8   2  -4   -2.67    3.89
  -8  -2   4   20.27    5.40
  -8  -2   4    6.06    4.90
  -8  -2   4    8.05    5.76
   7   2  -4   -0.59    2.81
  -7  -2   4    6.78    4.54
  -7  -2   4    3.54    3.85
  -7  -2   4    2.80    3.67
   6   2  -4   21.75    4.92
  -6  -2   4   18.94    5.78
  -6  -2   4   26.72    5.77
  -6  -2   4   18.73    5.36
   5   2  -4   17.87    4.16
   5   2  -4   22.83    5.19
  -5  -2   4   23.28    5.38
  -5  -2   4   15.99    4.91
  -5  -2   4   21.54    5.17
   4   2  -4   87.59    7.69
   4   2  -4   77.81    8.25
  -4  -2   4   84.03    8.59
  -4  -2   4   81.93    7.94
  -4  -2   4   89.52    8.73
   3   2  -4    4.84    1.79
   3   2  -4   -1.64    1.70
   3   2  -4    0.63    2.38
   3   2  -4   -2.85    2.06
  -3  -2   4    1.16    3.02
  -3  -2   4    2.00    2.52
  -3  -2   4   -3.87    2.05
  -3  -2   4    4.85    2.82
   2   2  -4   23.98    4.03
   2   2  -4   21.91    2.39
   2   2  -4   27.42    4.13
   2   2  -4   20.49    4.20
   2   2  -4   23.76    3.38
  -2  -2   4   23.47    3.44
  -2  -2   4   23.90    4.73
  -2  -2   4   20.51    3.82
  -2  -2   4   19.54    3.80
   1   2  -4   19.34    3.95
   1   2  -4   16.90    3.45
   1   2  -4   18.48    2.54
   1   2  -4   20.51    3.78
   1   2  -4   18.78    3.14
   1   2  -4   15.08    3.03
  -1  -2   4   17.03    2.50
  -1  -2   4   20.13    3.29
  -1  -2   4   17.44    3.26
  -1  -2   4   24.00    4.53
   0   2  -4   24.81    4.56
   0   2  -4   33.17    3.73
   0   2  -4   22.49    3.69
   0   2  -4   34.22    3.81
   0   2  -4   23.67    2.48
   0   2  -4   23.73    4.30
   0  -2   4   29.40    4.83
   0  -2   4   25.86    3.40
  -1   2  -4    5.83    1.88
  -1   2  -4    2.44    2.08
  -1   2  -4   10.84    3.08
  -1   2  -4    2.80    2.24
  -1   2  -4    4.66    1.79
   1  -2   4    4.78    1.74
   1  -2   4    2.32    1.57
   1  -2   4    2.81    2.58
   1  -2   4    3.80    3.12
  -2   2  -4   -0.55    1.45
  -2   2  -4    0.71    2.46
  -2   2  -4   -1.11    1.98
  -2   2  -4   -0.50    1.91
  -2   2  -4   -0.39    1.55
   2  -2   4   -0.01    1.56
   2  -2   4   -2.78    2.75
   2  -2   4    1.89    2.21
   2  -2   4   -0.86    1.49
  -3   2  -4   99.90    6.77
  -3   2  -4  104.34    8.55
  -3   2  -4  110.54   10.47
  -3   2  -4   93.27    8.36
  -3   2  -4   98.31    7.74
  -3   2  -4   95.70    7.64
  -3   2  -4   91.22    7.79
   3  -2   4  101.24    7.86
   3  -2   4  108.67    8.03
   3  -2   4   91.94   10.10
   3  -2   4  101.27    8.51
  -4   2  -4   45.34    6.21
  -4   2  -4   37.39    5.02
  -4   2  -4   37.84    3.34
  -4   2  -4   36.38    5.08
   4  -2   4   39.15    4.94
   4  -2   4   37.50    5.13
   4  -2   4   33.84    6.90
   4  -2   4   47.29    5.17
  -5   2  -4   23.94    4.57
  -5   2  -4   22.61    4.51
  -5   2  -4   21.15    5.26
  -5   2  -4   28.15    3.26
   5  -2   4   31.10    5.26
   5  -2   4   23.74    4.30
   5  -2   4   29.23    6.75
  -6   2  -4   56.54    8.37
  -6   2  -4   52.45    6.97
  -6   2  -4   40.31    6.60
  -6   2  -4   55.33    5.02
   6  -2   4   40.68    6.42
   6  -2   4   55.53    9.62
   6  -2   4   47.78    7.39
  -7   2  -4   -0.10    2.27
  -7   2  -4   -3.27    2.91
  -7   2  -4   -1.71    3.19
   7  -2   4    4.10    4.43
   7  -2   4    2.92    5.32
  -8   2  -4    5.54    4.60
  -8   2  -4    4.18    3.87
   8  -2   4   -6.60    4.46
   8  -2   4    0.41    5.71
  -9   2  -4    7.14    4.87
   9  -2   4   10.27    5.76
   9  -2   4  -16.27    5.55
 -10   2  -4   21.04    7.02
  10  -2   4   11.74    9.45
  10  -2   4   16.85    8.34
  10   1  -4    0.57    4.54
 -10  -1   4   -0.61    4.99
 -10  -1   4   -1.28    5.98
   9   1  -4   -0.98    4.70
  -9  -1   4    4.57    5.83
  -9  -1   4   -0.85    4.53
   8   1  -4   -0.28    4.30
  -8  -1   4   -2.96    3.23
  -8  -1   4    1.81    4.24
  -8  -1   4   -1.44    4.74
   7   1  -4    2.13    4.36
  -7  -1   4    4.36    3.76
  -7  -1   4    4.25    4.13
  -7  -1   4    2.39    4.43
   6   1  -4   18.50    5.26
  -6  -1   4   13.13    4.65
  -6  -1   4   11.46    4.37
  -6  -1   4   11.17    5.03
   5   1  -4    4.82    3.81
   5   1  -4    1.72    2.71
  -5  -1   4    6.27    4.01
  -5  -1   4   -2.56    2.76
  -5  -1   4    3.82    3.23
   4   1  -4  259.72   18.70
   4   1  -4  273.16   18.92
   4   1  -4  254.92   18.01
  -4  -1   4  269.40   20.13
  -4  -1   4  260.98   19.09
  -4  -1   4  223.36   18.66
  -4  -1   4  236.75   17.94
   3   1  -4  225.95   17.86
   3   1  -4  202.96   16.24
   3   1  -4  229.89   16.27
   3   1  -4  222.16   15.56
   3   1  -4  250.36   16.55
  -3  -1   4  223.09   15.61
  -3  -1   4  231.31   16.59
  -3  -1   4  206.65   17.59
  -3  -1   4  227.29   16.54
   2   1  -4  125.64    9.64
   2   1  -4  144.73   10.31
   2   1  -4  129.30    9.40
   2   1  -4  131.38   11.34
   2   1  -4  135.84   10.09
  -2  -1   4  141.03   10.26
  -2  -1   4  123.60   11.20
  -2  -1   4  132.91   10.20
  -2  -1   4  129.82    9.44
  -2  -1   4  128.36    9.69
   1   1  -4    6.82    2.14
   1   1  -4    8.96    2.96
   1   1  -4    8.58    1.60
   1   1  -4   10.65    2.77
   1   1  -4    7.79    2.01
  -1  -1   4    7.98    1.45
  -1  -1   4    6.79    1.60
  -1  -1   4    6.28    2.99
  -1  -1   4    5.90    2.20
  -1  -1   4    4.65    1.94
   0   1  -4    5.71    1.66
   0   1  -4    5.57    2.87
   0   1  -4    8.56    2.25
   0  -1   4    5.09    1.77
   0  -1   4    4.31    1.60
   0  -1   4    7.85    3.03
  -1   1  -4   13.28    1.24
  -1   1  -4    7.35    2.52
  -1   1  -4   13.09    2.21
  -1   1  -4   10.37    1.62
  -1   1  -4   10.94    3.44
   1  -1   4   12.84    3.22
   1  -1   4    9.53    1.69
   1  -1   4   10.12    1.68
  -2   1  -4   88.83    6.71
  -2   1  -4   97.41    9.09
  -2   1  -4   91.15    6.59
  -2   1  -4   81.10    7.47
  -2   1  -4   97.77    6.59
   2  -1   4   92.41    6.75
   2  -1   4   95.93    6.79
   2  -1   4   89.16    8.05
   2  -1   4   91.12    9.28
  -3   1  -4   -0.68    1.59
  -3   1  -4   -0.20    2.29
  -3   1  -4    1.20    1.96
  -3   1  -4    0.08    1.26
  -3   1  -4   -0.07    1.40
   3  -1   4    1.16    1.67
   3  -1   4   -0.62    1.35
   3  -1   4   -0.22    2.63
   3  -1   4   -1.24    1.78
  -4   1  -4    9.34    2.33
  -4   1  -4   10.57    2.42
  -4   1  -4    6.40    3.48
  -4   1  -4    9.35    3.64
  -4   1  -4    6.22    3.51
  -4   1  -4    8.72    3.02
  -4   1  -4    6.45    2.50
   4  -1   4    8.64    4.01
   4  -1   4   11.88    3.08
   4  -1   4    9.79    2.32
   4  -1   4    8.71    2.64
  -5   1  -4   38.00    5.13
  -5   1  -4   33.36    5.46
  -5   1  -4   39.39    4.62
  -5   1  -4   32.35    6.31
  -5   1  -4   41.06    6.24
   5  -1   4   32.46    5.00
   5  -1   4   38.50    5.56
   5  -1   4   40.04    7.22
  -6   1  -4   -2.19    3.06
  -6   1  -4   -0.55    3.14
  -6   1  -4    0.18    2.44
   6  -1   4    3.15    4.61
   6  -1   4    1.53    3.62
   6  -1   4   -1.97    2.67
  -7   1  -4   36.05    6.86
  -7   1  -4   45.23    5.88
  -7   1  -4   41.20    6.46
   7  -1   4   32.30    6.47
   7  -1   4   45.93    9.06
  -8   1  -4    0.80    4.53
  -8   1  -4    3.31    3.58
  -8   1  -4   -2.04    3.36
   8  -1   4    5.52    6.61
   8  -1   4    3.11    5.16
  -9   1  -4   21.75    6.40
   9  -1   4   26.68    7.90
   9  -1   4    1.62    7.52
 -10   1  -4    7.58    6.39
  10  -1   4  -11.49    6.18
  10  -1   4   -0.84    6.47
  10   0  -4   -4.21    5.46
 -10   0   4    1.93    6.72
 -10   0   4    4.94    5.04
   9   0  -4   11.37    6.30
  -9   0   4    2.66    4.66
  -9   0   4    1.48    5.91
   8   0  -4   -1.92    4.37
  -8   0   4    6.59    4.33
  -8   0   4    6.65    3.70
  -8   0   4    8.10    5.90
   7   0  -4   25.91    6.30
  -7   0   4    9.66    4.58
  -7   0   4   28.18    5.31
  -7   0   4   15.62    5.22
   6   0  -4   -0.91    3.36
  -6   0   4    2.22    3.68
  -6   0   4    1.97    4.02
  -6   0   4    3.23    3.57
   5   0  -4   24.54    5.41
   5   0  -4   23.46    3.51
  -5   0   4   20.60    4.84
  -5   0   4   30.43    5.44
  -5   0   4   30.52    6.22
   4   0  -4   90.99    8.18
   4   0  -4   79.13    7.87
   4   0  -4   77.41    7.92
  -4   0   4   94.94    8.41
  -4   0   4   84.44    7.97
  -4   0   4  105.92    8.81
  -4   0   4   96.50    8.80
  -4   0   4   87.83    7.94
   3   0  -4    0.99    1.85
   3   0  -4   -0.49    1.62
   3   0  -4   -2.48    2.18
   3   0  -4   -0.17    2.28
  -3   0   4    1.16    2.09
  -3   0   4   -2.87    2.04
  -3   0   4   -0.99    2.27
  -3   0   4    1.98    2.66
  -3   0   4   -0.63    1.96
   2   0  -4   89.61    7.51
   2   0  -4   92.30    7.70
   2   0  -4   96.60    8.84
   2   0  -4   92.97    7.65
   2   0  -4   89.85    7.50
  -2   0   4  104.66    7.89
  -2   0   4  100.75    7.20
  -2   0   4   89.73    7.56
  -2   0   4   88.05    7.59
   1   0  -4   37.87    4.35
   1   0  -4   32.04    3.60
   1   0  -4   34.72    3.74
   1   0  -4   35.49    5.23
   1   0  -4   34.26    3.63
  -1   0   4   30.33    3.09
  -1   0   4   33.16    3.81
  -1   0   4   33.99    3.88
  -1   0   4   39.84    4.08
   0   0  -4  594.56   38.50
   0   0  -4  598.00   45.08
   0   0  -4  546.15   38.22
   0   0  -4  611.28   38.18
   0   0  -4  629.30   38.39
   0   0   4  587.33   38.32
   0   0   4  610.87   40.58
   0   0   4  600.14   38.35
  -1   0  -4    5.11    2.81
  -1   0  -4    2.05    1.60
  -1   0  -4    6.12    2.07
   1   0   4    5.20    0.73
   1   0   4    4.82    0.76
   1   0   4    6.21    1.24
  -2   0  -4   84.32    7.85
  -2   0  -4   76.53    5.68
  -2   0  -4   59.26    6.23
  -2   0  -4   76.47    6.07
   2   0   4   79.37    5.71
   2   0   4   71.91    5.33
   2   0   4   69.07    7.55
   2   0   4   75.37    5.33
  -3   0  -4   28.31    3.94
  -3   0  -4   29.95    5.21
  -3   0  -4   26.29    2.78
  -3   0  -4   24.49    4.57
  -3   0  -4   33.21    3.97
   3   0   4   23.46    4.80
   3   0   4   25.68    3.74
   3   0   4   33.10    3.97
   3   0   4   28.21    3.40
   3   0   4   28.62    3.36
  -4   0  -4   30.30    3.96
  -4   0  -4   27.88    5.27
  -4   0  -4   21.18    3.30
  -4   0  -4   25.61    3.80
  -4   0  -4   25.98    5.22
  -4   0  -4   27.57    4.35
   4   0   4   25.98    4.23
   4   0   4   36.86    5.79
   4   0   4   24.57    3.81
   4   0   4   27.79    3.49
   4   0   4   22.03    3.72
  -5   0  -4    6.66    3.33
  -5   0  -4    7.94    3.76
  -5   0  -4    6.25    2.81
  -5   0  -4    4.03    3.13
  -5   0  -4    3.29    3.30
  -5   0  -4    7.26    2.95
   5   0   4    5.37    4.13
   5   0   4   14.15    3.62
   5   0   4    6.61    1.45
   5   0   4    2.94    2.75
  -6   0  -4   90.14    8.02
  -6   0  -4   84.40    7.82
  -6   0  -4   80.54    9.38
  -6   0  -4   75.86    8.67
   6   0   4   80.16    8.99
   6   0   4   63.36    8.38
   6   0   4   88.26   10.10
  -7   0  -4    8.06    3.73
  -7   0  -4    5.62    4.39
  -7   0  -4   10.66    3.99
   7   0   4   13.45    6.13
   7   0   4   18.46    4.99
  -8   0  -4   24.12    6.33
  -8   0  -4   35.78    6.23
   8   0   4   36.77    7.34
   8   0   4   29.13    7.91
  -9   0  -4   -3.72    4.01
  -9   0  -4    0.44    4.22
   9   0   4    6.37    5.75
   9   0   4  -12.70    5.27
 -10   0  -4   -6.43    4.62
  10   0   4    2.68    6.36
  10  -1  -4    2.63    4.86
 -10   1   4    3.56    4.93
 -10   1   4    9.49    6.79
   9  -1  -4   21.34    7.31
  -9   1   4   21.68    7.48
  -9   1   4   22.11    6.50
   8  -1  -4   18.60    6.31
  -8   1   4   12.93    6.15
  -8   1   4   19.24    4.83
  -8   1   4    3.64    4.10
   7  -1  -4    2.31    4.23
  -7   1   4    3.58    3.43
  -7   1   4    2.41    3.76
  -7   1   4    1.60    4.55
   6  -1  -4   33.12    6.17
   6  -1  -4   23.86    3.85
  -6   1   4   30.60    5.86
  -6   1   4   26.94    5.73
  -6   1   4   36.64    6.42
   5  -1  -4    0.48    2.03
   5  -1  -4    2.29    2.89
  -5   1   4    8.45    3.57
  -5   1   4    0.12    3.38
  -5   1   4    4.52    3.26
   4  -1  -4   46.53    6.02
   4  -1  -4   51.53    6.19
   4  -1  -4   48.50    6.16
  -4   1   4   34.20    5.92
  -4   1   4   32.07    5.69
  -4   1   4   39.36    5.65
  -4   1   4   51.96    6.48
   3  -1  -4   52.59    6.01
   3  -1  -4   54.90    6.14
   3  -1  -4   42.67    6.00
   3  -1  -4   53.61    6.13
  -3   1   4   36.78    5.62
  -3   1   4   45.17    5.74
  -3   1   4   41.01    5.66
  -3   1   4   51.16    5.77
   2  -1  -4    9.90    2.69
   2  -1  -4   11.19    2.86
   2  -1  -4    8.47    3.10
   2  -1  -4   10.67    2.79
   2  -1  -4    8.43    2.31
  -2   1   4    5.31    2.33
  -2   1   4    6.75    2.50
  -2   1   4    9.71    2.56
   1  -1  -4  137.58    9.02
   1  -1  -4  112.64    8.89
   1  -1  -4  131.09   11.28
   1  -1  -4  113.19    9.61
   1  -1  -4  138.67    8.98
   1  -1  -4   98.35    9.06
  -1   1   4  122.79    8.99
  -1   1   4  126.59    9.88
  -1   1   4  133.52    9.12
   0  -1  -4   36.79    2.85
   0  -1  -4   33.47    2.82
   0  -1  -4   38.96    4.27
   0  -1  -4   38.11    4.48
   0  -1  -4   36.12    5.53
   0   1   4   36.36    3.12
   0   1   4   40.10    4.74
   0   1   4   38.73    3.20
  -1  -1  -4  121.17    8.28
  -1  -1  -4  122.28    8.30
  -1  -1  -4  101.03    9.96
   1   1   4   92.08    6.81
   1   1   4  102.49    7.31
  -2  -1  -4    6.64    2.08
  -2  -1  -4    5.81    2.63
  -2  -1  -4    5.92    3.12
  -2  -1  -4    7.15    2.36
   2   1   4    9.73    3.15
   2   1   4    8.90    2.17
   2   1   4    9.09    1.46
   2   1   4    8.83    1.56
  -3  -1  -4    4.94    2.58
  -3  -1  -4    5.88    3.08
  -3  -1  -4    5.05    1.51
  -3  -1  -4    7.84    2.59
  -3  -1  -4    6.94    2.81
   3   1   4    3.71    2.88
   3   1   4    2.13    1.61
   3   1   4    7.90    2.67
   3   1   4    7.23    2.05
  -4  -1  -4   31.21    4.65
  -4  -1  -4   23.05    5.10
  -4  -1  -4   30.29    4.55
  -4  -1  -4   25.00    3.50
  -4  -1  -4   19.80    4.90
   4   1   4   23.46    3.85
   4   1   4   27.41    3.88
   4   1   4   19.86    4.12
   4   1   4   30.52    5.29
  -5  -1  -4   59.78    6.19
  -5  -1  -4   42.13    6.79
  -5  -1  -4   52.71    6.69
  -5  -1  -4   42.66    6.46
   5   1   4   46.93    6.22
   5   1   4   48.96    4.48
   5   1   4   53.92    7.52
   5   1   4   47.65    6.13
  -6  -1  -4    2.97    3.35
  -6  -1  -4   -0.50    3.06
  -6  -1  -4    1.65    3.03
  -6  -1  -4   -0.77    2.44
   6   1   4    0.79    3.17
   6   1   4    0.96    3.95
   6   1   4    1.29    3.20
  -7  -1  -4    7.26    4.29
  -7  -1  -4    8.43    3.47
  -7  -1  -4   14.46    4.29
  -7  -1  -4    9.56    3.63
   7   1   4   10.66    4.47
   7   1   4    2.81    4.79
  -8  -1  -4   45.40    8.39
  -8  -1  -4   54.72    7.97
   8   1   4   46.07    7.75
   8   1   4   23.17    7.62
  -9  -1  -4    3.17    5.07
  -9  -1  -4    0.39    4.76
   9   1   4    0.63    4.90
 -10  -1  -4    2.60    5.94
 -10  -1  -4   -0.35    5.34
  10   1   4    4.23    6.31
  10  -2  -4    0.92    5.67
 -10   2   4    4.42    6.78
 -10   2   4   -0.22    4.35
   9  -2  -4    1.88    5.52
  -9   2   4    4.48    4.75
  -9   2   4   -2.12    3.62
   8  -2  -4   30.49    7.35
  -8   2   4   14.62    5.61
  -8   2   4   27.50    7.04
  -8   2   4   31.29    5.98
   7  -2  -4    9.38    4.96
  -7   2   4    3.41    4.49
  -7   2   4    7.97    4.24
   6  -2  -4    7.06    2.88
   6  -2  -4    9.00    4.68
  -6   2   4    7.45    4.33
  -6   2   4   12.03    4.83
  -6   2   4    3.30    3.66
   5  -2  -4   -0.76    3.16
   5  -2  -4   -1.66    2.11
  -5   2   4   -1.35    3.19
  -5   2   4   -1.31    3.09
  -5   2   4    1.01    3.32
   4  -2  -4    9.31    3.37
   4  -2  -4   12.96    3.95
  -4   2   4   13.01    3.61
  -4   2   4    9.50    3.65
  -4   2   4   11.06    3.96
   3  -2  -4    5.30    2.82
   3  -2  -4    2.61    2.37
   3  -2  -4   -1.12    2.25
  -3   2   4   -1.60    2.26
  -3   2   4   -0.14    2.40
  -3   2   4    4.02    2.39
   2  -2  -4  304.29   21.43
   2  -2  -4  307.65   20.58
   2  -2  -4  313.56   25.23
   2  -2  -4  336.61   21.59
   2  -2  -4  332.39   22.84
   2  -2  -4  301.72   21.44
  -2   2   4  320.29   21.51
  -2   2   4  312.30   21.56
  -2   2   4  290.85   22.67
   1  -2  -4   54.08    4.93
   1  -2  -4   59.28    5.06
   1  -2  -4   57.96    5.84
   1  -2  -4   66.52    5.82
   1  -2  -4   55.09    4.66
   1  -2  -4   62.02    6.77
  -1   2   4   54.23    6.35
  -1   2   4   58.12    5.10
  -1   2   4   52.50    5.12
   0  -2  -4  145.76   13.63
   0  -2  -4  142.73   10.51
   0  -2  -4  144.77   11.18
   0  -2  -4  152.68   10.24
   0   2   4  146.97   10.39
   0   2   4  146.21   10.39
   0   2   4  165.72   12.08
  -1  -2  -4    2.05    1.00
  -1  -2  -4    2.00    2.21
  -1  -2  -4    1.57    1.92
  -1  -2  -4    1.85    0.94
  -1  -2  -4   -2.41    1.91
   1   2   4    0.64    1.22
   1   2   4    0.66    1.59
  -2  -2  -4    2.56    2.26
  -2  -2  -4    2.05    1.15
  -2  -2  -4    3.37    2.53
  -2  -2  -4    1.56    2.86
  -2  -2  -4    1.56    1.18
   2   2   4    3.23    2.08
   2   2   4    1.88    1.43
   2   2   4    3.77    1.47
  -3  -2  -4   18.50    3.78
  -3  -2  -4    8.81    3.02
  -3  -2  -4   12.64    4.09
  -3  -2  -4    9.43    2.22
  -3  -2  -4   15.91    4.08
   3   2   4   11.89    3.32
   3   2   4    8.83    2.31
   3   2   4   12.78    3.25
   3   2   4   10.69    2.58
  -4  -2  -4   13.63    3.86
  -4  -2  -4   11.78    3.59
  -4  -2  -4   10.33    4.18
   4   2   4   11.00    3.12
   4   2   4   13.99    3.15
   4   2   4   13.30    3.65
  -5  -2  -4   15.35    4.36
  -5  -2  -4   17.64    4.58
  -5  -2  -4   16.69    3.37
  -5  -2  -4   13.34    4.00
   5   2   4    7.96    3.47
   5   2   4   15.62    4.35
   5   2   4    2.87    3.09
  -6  -2  -4   -6.56    2.52
  -6  -2  -4   -0.39    2.43
  -6  -2  -4   -0.47    2.70
  -6  -2  -4    3.51    3.72
   6   2   4    2.09    3.34
   6   2   4   -0.94    3.55
  -7  -2  -4   36.66    6.23
  -7  -2  -4   36.24    7.46
  -7  -2  -4   56.12    8.16
   7   2   4   35.92    6.87
   7   2   4   43.76    7.03
  -8  -2  -4    0.22    4.34
  -8  -2  -4   -3.56    3.72
   8   2   4   -7.28    4.23
  -9  -2  -4    1.09    4.88
  -9  -2  -4   -0.97    4.86
   9   2   4   -4.42    4.25
  10  -3  -4    0.91    6.14
 -10   3   4   -3.42    4.01
 -10   3   4    1.41    6.17
   9  -3  -4   21.19    7.32
  -9   3   4   12.05    5.68
  -9   3   4   31.75    5.90
  -9   3   4   13.83    6.56
   8  -3  -4    9.27    4.97
  -8   3   4    8.08    4.88
  -8   3   4   15.00    5.91
   7  -3  -4   -3.52    3.43
   7  -3  -4   -1.60    2.59
  -7   3   4    1.59    3.86
  -7   3   4    0.52    4.14
  -7   3   4   -0.47    3.86
   6  -3  -4    8.20    4.64
   6  -3  -4    3.33    3.19
  -6   3   4    9.76    5.15
  -6   3   4    3.78    3.93
  -6   3   4   12.99    4.84
   5  -3  -4   -1.62    2.87
   5  -3  -4   -4.83    2.84
  -5   3   4   -0.23    3.54
  -5   3   4   -2.07    3.12
   4  -3  -4   13.14    4.03
   4  -3  -4   12.13    4.28
  -4   3   4   24.04    5.20
  -4   3   4   11.64    3.93
  -4   3   4   10.69    3.88
   3  -3  -4  119.93    8.38
   3  -3  -4  113.85    9.67
   3  -3  -4  104.48   11.27
   3  -3  -4  119.76    9.91
  -3   3   4  124.18    9.95
  -3   3   4  110.93    9.80
  -3   3   4  119.43   10.64
   2  -3  -4    0.18    1.97
   2  -3  -4    1.03    2.25
   2  -3  -4    3.93    2.64
   2  -3  -4    2.45    1.14
   2  -3  -4   -0.67    2.13
   2  -3  -4    0.33    2.77
  -2   3   4    0.87    3.71
  -2   3   4    2.14    2.65
  -2   3   4    1.91    2.05
  -2   3   4   -3.03    2.16
   1  -3  -4   38.94    5.28
   1  -3  -4   29.55    5.49
   1  -3  -4   31.32    3.90
   1  -3  -4   34.22    4.00
   1  -3  -4   28.46    4.77
   1  -3  -4   24.50    3.00
  -1   3   4   28.99    4.04
  -1   3   4   20.02    5.36
  -1   3   4   26.37    3.92
  -1   3   4   29.83    5.07
   0  -3  -4   23.61    3.09
   0  -3  -4   11.42    4.30
   0  -3  -4   20.89    2.94
   0  -3  -4   18.67    3.89
   0  -3  -4   24.05    3.25
   0   3   4   17.42    4.10
   0   3   4   23.06    3.32
   0   3   4   24.24    3.24
  -1  -3  -4   43.87    4.12
  -1  -3  -4   50.25    7.34
  -1  -3  -4   49.41    5.52
  -1  -3  -4   51.34    6.14
   1   3   4   52.19    5.43
   1   3   4   44.27    6.31
   1   3   4   44.00    4.35
   1   3   4   41.26    4.22
  -2  -3  -4  125.99   12.48
  -2  -3  -4  123.57   10.21
  -2  -3  -4  131.87    9.24
   2   3   4  121.88    9.18
   2   3   4  119.44    9.21
   2   3   4  115.19    9.52
  -3  -3  -4    4.69    3.77
  -3  -3  -4    4.21    3.07
  -3  -3  -4    3.65    2.48
  -3  -3  -4   11.00    3.73
   3   3   4   12.84    2.88
   3   3   4   11.25    2.73
   3   3   4    9.12    2.62
  -4  -3  -4   23.59    3.76
  -4  -3  -4   21.53    5.89
  -4  -3  -4   17.16    4.79
  -4  -3  -4   25.52    5.11
   4   3   4   21.73    4.08
   4   3   4   18.09    3.48
   4   3   4   20.91    4.12
  -5  -3  -4   48.76    7.55
  -5  -3  -4   48.60    7.15
  -5  -3  -4   47.85    7.45
   5   3   4   45.68    5.50
   5   3   4   48.67    6.54
   5   3   4   46.55    6.34
  -6  -3  -4   63.95    8.76
  -6  -3  -4   44.27    7.68
  -6  -3  -4   56.83    6.91
  -6  -3  -4   47.00    7.77
   6   3   4   62.91    6.55
   6   3   4   59.88    7.63
  -7  -3  -4   11.70    3.80
  -7  -3  -4    3.74    4.17
  -7  -3  -4    5.66    4.96
   7   3   4   12.22    4.96
  -8  -3  -4    9.45    5.14
  -8  -3  -4   38.96    8.03
   8   3   4   25.88    6.93
  -9  -3  -4    6.51    5.19
  -9  -3  -4    7.68    6.42
   9   3   4    9.80    6.56
  10  -4  -4   65.80   11.90
 -10   4   4   31.11    8.04
 -10   4   4   37.54    9.83
   9  -4  -4   10.72    6.98
  -9   4   4   23.71    6.87
  -9   4   4   25.04    7.85
   8  -4  -4    5.17    5.73
  -8   4   4    8.12    5.41
  -8   4   4    6.92    4.76
  -8   4   4    8.95    5.56
   7  -4  -4    9.94    5.20
   7  -4  -4    7.67    3.61
  -7   4   4    6.67    4.75
  -7   4   4    3.76    4.35
  -7   4   4   13.37    6.02
   6  -4  -4   -1.07    3.81
   6  -4  -4    0.99    2.93
  -6   4   4   -4.24    3.54
  -6   4   4   -0.82    3.68
   5  -4  -4   30.57    5.89
   5  -4  -4   33.92    6.68
  -5   4   4   23.89    5.37
  -5   4   4   41.99    7.51
   4  -4  -4   30.86    3.34
   4  -4  -4   14.55    4.52
   4  -4  -4   21.31    5.38
  -4   4   4   23.65    5.27
  -4   4   4   25.37    5.15
  -4   4   4   29.26    6.10
   3  -4  -4   -0.94    2.72
   3  -4  -4   -2.36    2.33
   3  -4  -4    4.65    3.85
  -3   4   4    2.63    3.38
  -3   4   4   -0.43    2.73
  -3   4   4    2.16    2.92
   2  -4  -4   29.70    6.32
   2  -4  -4   23.70    4.88
   2  -4  -4   35.32    5.01
  -2   4   4   36.99    7.14
  -2   4   4   30.31    5.31
  -2   4   4   44.17    5.51
  -2   4   4   36.47    6.29
   1  -4  -4    6.78    3.34
   1  -4  -4    8.92    2.75
   1  -4  -4   11.79    4.61
  -1   4   4   13.39    4.57
  -1   4   4   18.88    4.45
  -1   4   4   16.12    3.52
  -1   4   4   11.02    3.01
   0  -4  -4    7.51    2.79
   0  -4  -4   11.45    4.69
   0  -4  -4    7.87    2.53
   0  -4  -4   12.90    2.91
   0   4   4    9.87    2.58
   0   4   4    6.36    3.78
   0   4   4   11.42    4.03
   0   4   4   10.89    2.87
  -1  -4  -4   66.64    9.85
  -1  -4  -4   82.06    6.58
  -1  -4  -4   65.08    6.92
  -1  -4  -4   75.40    6.46
   1   4   4   70.75    7.50
   1   4   4   84.80    7.01
   1   4   4   66.01    8.73
   1   4   4   74.15    6.69
  -2  -4  -4    9.61    4.70
  -2  -4  -4   11.48    2.84
  -2  -4  -4    9.98    3.85
   2   4   4    6.75    2.72
   2   4   4    8.18    2.73
   2   4   4   15.00    3.18
   2   4   4   10.42    4.10
  -3  -4  -4    8.53    4.82
  -3  -4  -4   14.83    4.56
  -3  -4  -4   17.24    3.51
   3   4   4   15.33    2.32
   3   4   4   21.66    3.91
   3   4   4   13.03    3.29
  -4  -4  -4   11.22    5.13
  -4  -4  -4   21.00    4.03
  -4  -4  -4   21.17    5.01
  -4  -4  -4   19.60    5.28
   4   4   4   23.28    4.44
   4   4   4   18.43    3.91
  -5  -4  -4   14.61    4.73
  -5  -4  -4   24.29    6.22
  -5  -4  -4   15.00    3.94
  -5  -4  -4   22.03    5.71
   5   4   4   28.17    5.42
  -6  -4  -4   12.01    4.91
  -6  -4  -4   10.89    5.26
  -6  -4  -4   10.62    4.55
   6   4   4   14.35    4.89
  -7  -4  -4   42.40    7.92
  -7  -4  -4   12.42    5.20
  -7  -4  -4   18.78    5.71
   7   4   4   33.72    6.98
  -8  -4  -4    5.36    5.20
  -8  -4  -4   -0.43    5.31
   8   4   4   -0.58    4.74
  -9  -4  -4   -5.57    5.72
  -9  -4  -4   -3.15    5.47
  10  -5  -4   -1.54    6.64
 -10   5   4    9.63    7.36
 -10   5   4   -2.26    5.40
   9  -5  -4   -3.79    5.59
  -9   5   4    1.89    5.12
  -9   5   4    0.64    4.51
   8  -5  -4    5.35    5.52
  -8   5   4    1.10    5.09
  -8   5   4    0.92    4.06
  -8   5   4    2.48    5.30
   7  -5  -4   -2.74    3.28
   7  -5  -4   -4.99    3.77
  -7   5   4    2.85    4.44
  -7   5   4    3.56    5.20
  -7   5   4   -0.68    4.03
   6  -5  -4   40.03    7.97
   6  -5  -4   47.30    7.65
  -6   5   4   87.78   11.19
  -6   5   4   42.77    8.05
   5  -5  -4   21.88    5.55
   5  -5  -4   10.20    4.78
  -5   5   4    9.63    4.99
  -5   5   4   14.93    5.72
   4  -5  -4   48.50    7.43
   4  -5  -4   58.89    7.43
   4  -5  -4   51.33    8.86
  -4   5   4   72.06    9.38
  -4   5   4   48.80    7.65
   3  -5  -4    2.33    3.24
   3  -5  -4    3.41    3.08
  -3   5   4    2.82    3.37
  -3   5   4   -0.10    2.98
  -3   5   4    1.52    3.62
   2  -5  -4   93.97    8.88
   2  -5  -4   94.71    8.74
   2  -5  -4   66.87   10.71
  -2   5   4   99.13    8.82
  -2   5   4   94.36    8.84
  -2   5   4   97.09   10.07
   1  -5  -4   19.59    4.49
   1  -5  -4   20.93    6.38
   1  -5  -4   22.09    4.32
  -1   5   4   19.30    5.34
  -1   5   4   27.32    5.85
  -1   5   4   25.83    4.60
  -1   5   4   27.57    4.66
   0  -5  -4   31.08    6.58
   0  -5  -4   42.95    5.35
   0  -5  -4   37.32    5.93
   0   5   4   36.95    5.33
   0   5   4   29.36    4.88
   0   5   4   32.61    5.95
   0   5   4   32.27    5.98
  -1  -5  -4    0.47    3.10
  -1  -5  -4   -3.76    3.55
  -1  -5  -4    0.69    2.38
   1   5   4   -0.48    2.82
   1   5   4    5.61    2.74
   1   5   4    4.12    3.49
  -2  -5  -4   18.01    3.74
  -2  -5  -4   11.54    5.27
  -2  -5  -4   12.56    4.45
   2   5   4   16.03    3.88
   2   5   4   14.95    4.73
   2   5   4   14.48    2.94
   2   5   4   23.15    4.47
  -3  -5  -4    7.70    4.83
  -3  -5  -4    6.12    4.40
  -3  -5  -4    6.21    3.00
   3   5   4    7.20    3.48
   3   5   4    3.93    3.97
   3   5   4    7.46    3.13
  -4  -5  -4    7.50    5.06
  -4  -5  -4    7.90    3.31
  -4  -5  -4    4.60    4.11
   4   5   4    4.45    3.14
  -5  -5  -4   19.69    5.93
  -5  -5  -4   18.47    4.53
  -5  -5  -4   20.74    6.17
   5   5   4   21.83    5.40
  -6  -5  -4   11.55    5.25
  -6  -5  -4   20.89    6.13
  -6  -5  -4    8.70    5.08
   6   5   4   29.76    6.45
  -7  -5  -4    3.75    5.20
  -7  -5  -4    7.76    5.15
   7   5   4   -0.73    4.67
  -8  -5  -4   -0.96    4.99
  -8  -5  -4    6.10    6.29
   8   5   4   -1.38    5.02
   9  -6  -4    1.25    5.94
  -9   6   4   -0.76    6.00
  -9   6   4    0.95    5.69
  -9   6   4   -3.58    3.96
   8  -6  -4   -2.69    5.15
   8  -6  -4    0.37    4.14
  -8   6   4   -0.87    4.83
  -8   6   4    5.25    4.81
  -8   6   4    1.86    5.92
   7  -6  -4   18.58    6.75
   7  -6  -4    8.45    4.99
  -7   6   4   26.14    7.50
  -7   6   4    5.98    5.49
   6  -6  -4    3.70    4.64
   6  -6  -4    8.45    4.77
  -6   6   4    0.46    4.48
  -6   6   4   -1.29    4.53
   5  -6  -4   -4.77    3.21
  -5   6   4   -6.36    3.70
  -5   6   4    2.71    4.05
   4  -6  -4   14.13    4.59
   4  -6  -4    5.53    3.99
  -4   6   4    4.86    4.75
  -4   6   4   14.44    5.25
   3  -6  -4   -1.48    3.12
   3  -6  -4    6.76    3.68
  -3   6   4    4.72    3.93
  -3   6   4   -0.28    3.86
   2  -6  -4   33.38    5.81
   2  -6  -4   33.58    6.06
  -2   6   4   41.03    6.23
  -2   6   4   36.34    6.12
  -2   6   4   29.29    6.65
   1  -6  -4   56.43    7.88
   1  -6  -4   69.83    7.75
  -1   6   4   51.18    8.36
  -1   6   4   74.91    8.49
  -1   6   4   60.60    7.97
   0  -6  -4    2.42    3.51
   0  -6  -4    6.04    3.26
   0  -6  -4    0.11    4.11
   0   6   4    6.24    3.12
   0   6   4    3.43    3.04
   0   6   4    5.94    4.03
   0   6   4    2.59    3.69
  -1  -6  -4    0.54    3.57
  -1  -6  -4    1.67    4.50
  -1  -6  -4    0.45    2.81
   1   6   4    0.57    2.90
   1   6   4    2.28    3.79
   1   6   4    7.01    3.47
  -2  -6  -4   32.76    5.33
  -2  -6  -4   21.78    6.46
  -2  -6  -4   32.85    6.33
   2   6   4   23.38    2.96
   2   6   4   20.64    4.52
   2   6   4   23.86    6.09
   2   6   4   24.80    5.36
  -3  -6  -4   15.40    5.25
  -3  -6  -4   18.93    4.43
  -3  -6  -4    4.70    4.73
   3   6   4   15.37    4.87
   3   6   4    9.42    4.79
  -4  -6  -4   10.84    3.58
  -4  -6  -4    2.60    5.00
  -4  -6  -4    8.86    5.11
   4   6   4   14.04    4.90
   4   6   4    2.17    3.69
  -5  -6  -4   20.62    7.09
  -5  -6  -4   22.74    6.68
   5   6   4   23.06    5.58
  -6  -6  -4    3.22    4.18
  -6  -6  -4   -0.92    4.17
   6   6   4   -0.47    4.04
  -7  -6  -4   24.25    7.27
   7   6   4   15.63    6.45
   9  -7  -4   -9.28    5.19
  -9   7   4    3.08    5.82
  -9   7   4    3.88    7.04
  -9   7   4    5.70    6.17
   8  -7  -4   18.85    7.21
   8  -7  -4    9.88    5.33
  -8   7   4   24.51    8.43
  -8   7   4   30.53    8.75
   7  -7  -4    4.26    5.50
   7  -7  -4    9.04    5.47
  -7   7   4    9.51    6.45
  -7   7   4    4.50    5.42
   6  -7  -4    8.75    5.31
  -6   7   4   10.55    6.35
  -6   7   4    5.89    5.42
   5  -7  -4    1.20    4.04
   5  -7  -4    4.77    3.46
  -5   7   4   -3.15    4.20
  -5   7   4   -5.46    4.21
   4  -7  -4    2.06    3.49
   4  -7  -4    5.90    4.20
  -4   7   4   -5.30    3.61
  -4   7   4   -2.42    3.97
   3  -7  -4   59.43    8.08
   3  -7  -4   37.42    6.88
  -3   7   4   41.01    8.00
  -3   7   4   41.69    7.44
   2  -7  -4   17.07    4.73
   2  -7  -4   20.50    5.23
  -2   7   4   20.55    6.16
  -2   7   4   22.64    5.51
   1  -7  -4   -0.76    2.88
   1  -7  -4    2.36    3.07
  -1   7   4   -0.20    3.48
  -1   7   4    0.48    2.77
  -1   7   4   -2.20    3.85
   0  -7  -4  124.20   11.23
   0  -7  -4  117.65   10.45
   0   7   4  115.96   12.00
   0   7   4   99.15   10.79
   0   7   4  106.47   10.41
   0   7   4  113.36   10.49
  -1  -7  -4   58.42    8.55
  -1  -7  -4   33.17    8.96
  -1  -7  -4   65.89    7.62
   1   7   4   64.60    8.30
   1   7   4   52.55    8.77
  -2  -7  -4   38.47    9.10
  -2  -7  -4   62.93    7.46
  -2  -7  -4   40.45    7.40
   2   7   4   43.75    7.04
   2   7   4   21.68    6.49
  -3  -7  -4    2.69    4.99
  -3  -7  -4    5.67    4.07
  -3  -7  -4    3.97    3.44
   3   7   4   15.29    4.87
   3   7   4    8.36    4.97
  -4  -7  -4   18.56    6.42
  -4  -7  -4   23.19    7.16
   4   7   4   44.46    7.34
   4   7   4   16.46    6.20
  -5  -7  -4   -0.39    4.25
  -5  -7  -4    5.60    5.38
   5   7   4    2.93    4.29
   5   7   4   12.10    5.35
  -6  -7  -4   -3.86    4.28
  -6  -7  -4   -6.23    4.34
   6   7   4   -4.54    4.23
   6   7   4   10.21    4.91
  -7  -7  -4    2.48    5.73
   8  -8  -4   -1.18    4.16
   8  -8  -4    2.00    5.94
  -8   8   4   -4.31    5.45
  -8   8   4    2.82    6.75
   7  -8  -4    1.16    5.57
  -7   8   4    4.41    5.72
  -7   8   4   13.23    7.14
   6  -8  -4    9.12    5.31
  -6   8   4    3.85    5.54
  -6   8   4    0.37    5.72
   5  -8  -4   44.49    8.38
   5  -8  -4   42.64    7.33
  -5   8   4   29.86    8.10
  -5   8   4   67.04   11.01
   4  -8  -4   15.11    5.51
   4  -8  -4   10.95    5.59
  -4   8   4   17.36    6.01
  -4   8   4   16.88    6.34
   3  -8  -4   10.71    4.74
   3  -8  -4    6.91    4.32
  -3   8   4    6.06    4.46
  -3   8   4   11.38    5.44
   2  -8  -4   11.61    4.60
   2  -8  -4   13.76    5.12
  -2   8   4   19.20    5.96
  -2   8   4   16.36    5.90
   1  -8  -4    5.04    4.07
   1  -8  -4    4.75    3.69
  -1   8   4    9.98    4.51
  -1   8   4    3.77    4.76
   0  -8  -4   46.76    8.09
   0  -8  -4   51.66    7.67
   0  -8  -4   29.41    8.16
   0   8   4   52.12    8.80
   0   8   4   51.52    8.19
  -1  -8  -4    6.41    4.65
  -1  -8  -4   12.18    4.80
  -1  -8  -4    3.30    5.58
   1   8   4    2.30    4.08
   1   8   4    8.54    4.98
  -2  -8  -4   35.34    8.73
  -2  -8  -4   35.44    7.58
  -2  -8  -4   42.16    7.00
   2   8   4   56.84    8.30
   2   8   4   29.20    7.33
  -3  -8  -4    1.59    4.25
  -3  -8  -4   -2.39    4.04
   3   8   4    5.13    4.52
   3   8   4    4.62    4.59
  -4  -8  -4    1.20    5.30
  -4  -8  -4   -3.09    4.47
   4   8   4    4.16    5.07
   4   8   4    2.05    4.37
  -5  -8  -4   -8.85    4.20
  -5  -8  -4    5.80    5.95
   5   8   4    2.54    5.63
   5   8   4    6.39    4.38
  -6  -8  -4    3.34    5.69
  -6  -8  -4    5.57    5.81
   6   8   4    5.56    4.89
   6   8   4   10.87    5.66
   7  -9  -4   19.29    7.61
  -7   9   4   25.68    8.49
  -7   9   4   31.63    9.70
   6  -9  -4    8.64    6.24
  -6   9   4    0.29    6.56
  -6   9   4    8.76    6.89
   5  -9  -4    5.66    5.38
   5  -9  -4   20.57    6.20
  -5   9   4    7.49    6.81
  -5   9   4   13.62    7.08
   4  -9  -4    3.15    4.74
   4  -9  -4    4.53    4.33
  -4   9   4   -2.01    4.59
  -4   9   4   -0.30    4.86
   3  -9  -4   -4.41    3.42
   3  -9  -4    2.51    4.26
  -3   9   4    0.35    4.66
  -3   9   4    2.30    5.22
   2  -9  -4   14.08    5.81
   2  -9  -4   15.34    5.68
  -2   9   4   21.43    6.22
  -2   9   4   11.96    5.76
   1  -9  -4   -3.66    3.58
   1  -9  -4    4.17    4.14
  -1   9   4   -1.78    3.93
  -1   9   4   -3.29    4.39
   0  -9  -4   -3.76    4.10
   0  -9  -4    9.79    4.47
   0  -9  -4   -1.32    4.00
   0   9   4   -2.69    4.18
   0   9   4    3.76    5.40
  -1  -9  -4   21.65    7.91
  -1  -9  -4   22.02    6.87
   1   9   4   25.30    7.14
   1   9   4   40.80    7.86
  -2  -9  -4   16.70    7.53
  -2  -9  -4   18.75    6.74
   2   9   4   16.57    6.79
   2   9   4    7.36    5.46
  -3  -9  -4   -5.95    4.50
  -3  -9  -4    2.54    5.09
   3   9   4   -2.08    4.57
   3   9   4   -6.98    3.18
  -4  -9  -4    6.48    5.87
  -4  -9  -4   20.41    8.41
   4   9   4   17.07    6.17
   4   9   4   11.15    5.70
  -5  -9  -4    6.16    6.20
  -5  -9  -4    0.50    5.39
   6 -10  -4   12.54    6.93
  -6  10   4   12.62    7.87
  -6  10   4    3.86    7.49
   5 -10  -4    1.86    5.05
   5 -10  -4   -3.10    4.93
  -5  10   4   -9.04    5.38
  -5  10   4    3.01    7.47
   4 -10  -4    9.70    5.39
   4 -10  -4    5.55    5.70
  -4  10   4   -5.76    5.25
  -4  10   4    0.79    5.98
   3 -10  -4   -1.78    4.35
   3 -10  -4   -0.93    4.66
  -3  10   4   -4.39    4.77
  -3  10   4   -2.89    5.02
   2 -10  -4   -4.17    4.72
   2 -10  -4   -0.04    5.19
  -2  10   4    2.19    5.15
  -2  10   4    4.06    5.63
   1 -10  -4   10.67    5.67
  -1  10   4   -1.93    4.58
  -1  10   4   -4.35    4.68
   0 -10  -4    5.77    6.75
   0 -10  -4   18.80    6.91
   0  10   4   43.95    8.98
   0  10   4   24.22    7.45
  -1 -10  -4   -2.49    5.58
  -1 -10  -4    1.88    4.75
   1  10   4    2.94    4.67
   1  10   4   -5.24    5.17
  -2 -10  -4    5.93    5.60
  -2 -10  -4    6.05    6.97
   2  10   4   10.42    6.70
   2  10   4   18.80    6.89
  -3 -10  -4   27.76    7.60
  -3 -10  -4   15.98    8.23
   3  10   4   15.96    6.82
   3  10   4   16.05    6.91
   4 -11  -4   11.00    6.36
  -4  11   4    3.38    6.69
  -4  11   4   16.41    8.11
   3 -11  -4   21.40    7.54
  -3  11   4    4.20    6.25
  -3  11   4   12.88    7.43
   2 -11  -4    0.52    5.49
  -2  11   4    4.27    5.76
  -2  11   4    0.52    5.31
   1 -11  -4   26.40    9.69
   1 -11  -4   40.44    9.23
  -1  11   4   34.61    9.47
  -1  11   4   44.01    9.81
   0 -11  -4   -0.39    5.66
   0 -11  -4   -3.72    4.62
   0  11   4    3.90    5.35
   0  11   4    3.71    6.36
  -1 -11  -4   -2.84    3.82
  -1 -11  -4    7.71    6.02
   3  11  -5   -3.97    5.65
   2  11  -5    5.99    6.37
   2  11  -5   -6.36    4.18
  -2 -11   5   -5.52    4.22
  -2 -11   5    3.87    5.78
   1  11  -5   19.15    6.16
   1  11  -5    2.47    5.65
  -1 -11   5   11.77    6.27
  -1 -11   5    5.00    5.23
   0  11  -5   11.37    6.65
   0  11  -5    4.66    4.15
   0 -11   5    9.69    5.49
   0 -11   5   -2.23    5.30
   0 -11   5    3.43    4.78
  -1  11  -5   10.85    6.21
  -1  11  -5    3.59    3.47
   1 -11   5    1.89    5.41
   1 -11   5    0.42    6.05
  -2  11  -5    3.07    6.02
  -2  11  -5   14.18    4.75
   2 -11   5   12.50    6.55
   2 -11   5    3.68    6.41
  -3  11  -5    4.63    6.15
   3 -11   5    8.42    5.83
   3 -11   5   -3.27    6.48
  -4  11  -5   11.82    6.97
   4 -11   5   -1.10    7.26
   4 -11   5    4.02    5.91
  -5  11  -5    9.50    7.30
   5 -11   5   17.76    8.07
   5 -11   5    8.32    9.81
   4  10  -5   -3.18    5.23
   4  10  -5    2.80    5.35
  -4 -10   5    4.95    6.43
  -4 -10   5    1.56    5.70
   3  10  -5   11.18    5.93
   3  10  -5   13.29    6.58
  -3 -10   5   30.13    8.21
  -3 -10   5    0.31    5.44
   2  10  -5   34.66    8.96
   2  10  -5   39.25    8.25
  -2 -10   5   49.97    9.50
  -2 -10   5   38.82    8.34
   1  10  -5    3.09    4.05
   1  10  -5   -0.54    4.69
  -1 -10   5    2.42    4.49
  -1 -10   5    3.89    3.79
  -1 -10   5    0.77    4.19
   0  10  -5   11.44    4.62
   0  10  -5    1.44    5.29
   0 -10   5   10.22    5.95
   0 -10   5   15.52    6.38
   0 -10   5   12.81    5.30
  -1  10  -5    2.66    3.25
  -1  10  -5    2.42    5.00
  -1  10  -5   -1.06    3.25
   1 -10   5   -5.21    4.14
   1 -10   5    8.03    5.83
   1 -10   5    4.52    4.15
  -2  10  -5    8.21    5.59
  -2  10  -5   13.12    4.72
  -2  10  -5   17.26    4.89
   2 -10   5   10.63    7.09
   2 -10   5   15.54    6.15
  -3  10  -5    5.07    3.32
  -3  10  -5    4.41    5.23
  -3  10  -5    4.92    3.96
   3 -10   5    9.76    5.54
   3 -10   5   -2.79    5.53
  -4  10  -5   25.91    5.54
  -4  10  -5   50.68    9.74
  -4  10  -5   25.93    6.08
   4 -10   5   39.85    9.45
   4 -10   5   29.04    9.63
  -5  10  -5    6.65    6.40
  -5  10  -5   -2.13    3.38
   5 -10   5    6.46    6.38
   5 -10   5   -4.91    6.64
  -6  10  -5    6.05    5.98
   6 -10   5    1.28    5.61
   6 -10   5  -12.06    6.31
   5   9  -5    7.27    6.45
  -5  -9   5    5.71    5.07
  -5  -9   5    9.34    6.51
   4   9  -5   -4.11    4.51
  -4  -9   5   -1.04    4.90
  -4  -9   5    1.72    5.34
   3   9  -5   40.97    8.94
   3   9  -5   41.47    8.75
  -3  -9   5   35.89    7.73
  -3  -9   5   43.99    7.76
  -3  -9   5   40.43    8.67
   2   9  -5    3.49    4.60
   2   9  -5   -2.61    4.19
  -2  -9   5    2.29    4.06
  -2  -9   5    0.37    3.87
  -2  -9   5   -0.97    4.07
   1   9  -5   18.36    6.26
   1   9  -5   30.79    6.47
   1   9  -5   17.86    4.13
  -1  -9   5   12.47    5.12
  -1  -9   5   18.10    6.08
  -1  -9   5   15.59    5.80
   0   9  -5   -3.85    2.31
   0   9  -5    5.46    4.69
   0   9  -5    1.16    3.25
   0  -9   5   -5.36    2.56
   0  -9   5    2.46    3.87
   0  -9   5   -0.29    3.93
  -1   9  -5   35.19    7.62
  -1   9  -5   17.96    4.91
  -1   9  -5   23.28    4.88
   1  -9   5   19.01    5.64
   1  -9   5   29.67    7.89
   1  -9   5   29.19    5.34
  -2   9  -5   12.53    4.46
  -2   9  -5    7.74    4.86
  -2   9  -5    7.38    3.86
   2  -9   5    4.79    5.63
   2  -9   5   13.20    5.57
  -3   9  -5   21.59    6.73
  -3   9  -5   19.00    5.00
  -3   9  -5   18.46    4.99
   3  -9   5   23.96    7.69
   3  -9   5   19.26    6.33
  -4   9  -5   -0.71    2.86
  -4   9  -5    5.41    3.79
  -4   9  -5   10.64    5.63
   4  -9   5    7.09    6.54
   4  -9   5    3.51    4.78
  -5   9  -5    4.18    3.58
  -5   9  -5    3.27    4.90
   5  -9   5    1.17    4.84
   5  -9   5   15.29    7.89
  -6   9  -5   14.39    5.12
  -6   9  -5   26.67    7.34
   6  -9   5   18.29    9.00
   6  -9   5   14.07    6.43
  -7   9  -5   -1.89    4.37
   7  -9   5   -2.72    5.81
   7  -9   5   -7.14    7.08
   6   8  -5   -1.40    5.26
  -6  -8   5   -6.54    5.38
   5   8  -5   -1.79    4.79
  -5  -8   5    3.07    5.51
   4   8  -5   46.42    9.11
  -4  -8   5   73.85    7.99
  -4  -8   5   32.51    8.57
   3   8  -5    1.75    4.14
   3   8  -5   -3.75    2.22
   3   8  -5    6.75    5.27
  -3  -8   5    4.31    4.99
  -3  -8   5    2.02    3.49
   2   8  -5    5.72    4.48
   2   8  -5    2.02    4.22
   2   8  -5    4.46    2.77
  -2  -8   5    2.93    3.74
  -2  -8   5   -1.51    3.65
  -2  -8   5   13.24    4.87
   1   8  -5   -0.04    4.05
   1   8  -5    2.50    3.78
   1   8  -5    0.16    2.39
  -1  -8   5    6.97    4.53
  -1  -8   5   -2.04    3.55
  -1  -8   5    4.13    3.62
   0   8  -5   15.07    3.54
   0   8  -5   15.18    5.32
   0   8  -5   11.99    4.48
   0  -8   5   21.34    5.58
   0  -8   5   13.15    4.08
   0  -8   5   16.22    5.91
  -1   8  -5   33.59    7.13
  -1   8  -5   39.83    6.90
  -1   8  -5   41.65    5.66
   1  -8   5   39.39    8.26
   1  -8   5   42.87    7.70
   1  -8   5   46.12    6.02
  -2   8  -5   34.19    6.14
  -2   8  -5   32.81    5.61
  -2   8  -5   37.11    7.20
   2  -8   5   32.29    8.02
   2  -8   5   37.27    4.84
   2  -8   5   37.60    7.22
  -3   8  -5   59.65    8.07
  -3   8  -5   56.78    8.05
  -3   8  -5   84.33   10.54
   3  -8   5   59.29   10.70
   3  -8   5   75.84   10.12
  -4   8  -5   -0.15    2.70
  -4   8  -5    1.25    4.02
   4  -8   5    0.41    5.21
   4  -8   5    0.81    4.14
  -5   8  -5   92.95   11.34
  -5   8  -5   56.93    8.51
   5  -8   5   85.08   14.22
   5  -8   5   91.81   11.70
  -6   8  -5    0.84    5.07
  -6   8  -5   -2.54    3.26
   6  -8   5    5.38    6.59
   6  -8   5    5.35    5.73
  -7   8  -5   18.49    7.24
  -7   8  -5    6.40    4.69
   7  -8   5    4.18    5.56
   7  -8   5   25.11    9.66
  -8   8  -5   13.17    5.78
  -8   8  -5   26.26    7.28
   8  -8   5   30.87    8.86
   8  -8   5   12.30    9.49
   7   7  -5    1.71    4.57
  -7  -7   5   -2.22    5.08
   6   7  -5   -0.99    4.59
  -6  -7   5    2.34    5.16
   5   7  -5   26.37    6.73
   5   7  -5   25.78    4.92
  -5  -7   5   40.10    6.38
   4   7  -5    2.71    4.59
   4   7  -5   11.82    3.27
  -4  -7   5   11.44    6.16
  -4  -7   5   19.80    4.69
  -4  -7   5    4.86    4.56
   3   7  -5    3.91    2.30
   3   7  -5   -0.11    3.73
  -3  -7   5    4.59    3.29
  -3  -7   5    9.94    3.97
  -3  -7   5    2.30    5.16
   2   7  -5   23.95    5.84
   2   7  -5   25.84    6.06
   2   7  -5   18.90    3.42
  -2  -7   5   25.20    6.99
  -2  -7   5   16.74    5.42
  -2  -7   5   24.97    5.79
   1   7  -5   30.51    6.07
   1   7  -5   22.06    3.54
   1   7  -5   19.96    5.59
  -1  -7   5   11.42    5.07
  -1  -7   5   33.05    7.83
  -1  -7   5   33.53    6.52
   0   7  -5   39.36    4.79
   0   7  -5   41.60    6.71
   0   7  -5   40.62    7.24
   0  -7   5   29.99    5.14
   0  -7   5   41.13    7.07
   0  -7   5   32.70    7.44
   0  -7   5   39.52    7.77
  -1   7  -5    1.41    3.03
  -1   7  -5   -3.37    2.36
  -1   7  -5    0.02    2.26
   1  -7   5   -2.05    2.27
   1  -7   5   -0.31    1.86
   1  -7   5    3.23    4.26
   1  -7   5    0.06    3.46
  -2   7  -5   52.69    6.75
  -2   7  -5   64.73    8.04
  -2   7  -5   76.22    9.28
   2  -7   5   60.05    6.30
   2  -7   5   72.37    9.27
   2  -7   5   49.53    5.24
   2  -7   5   52.93    9.91
  -3   7  -5   42.34    6.71
  -3   7  -5   57.01    8.29
   3  -7   5   47.53    9.17
   3  -7   5   42.26    7.33
  -4   7  -5   45.71    7.31
  -4   7  -5   35.26    6.30
   4  -7   5   30.63    6.74
   4  -7   5   44.33    9.26
  -5   7  -5    4.11    3.41
  -5   7  -5    4.63    4.12
   5  -7   5   -4.04    4.77
   5  -7   5   -4.68    4.18
  -6   7  -5   22.86    6.09
  -6   7  -5   19.59    5.70
   6  -7   5   18.72    6.35
   6  -7   5   45.60   10.71
  -7   7  -5    5.83    4.73
  -7   7  -5    1.83    4.81
  -7   7  -5    0.72    4.16
   7  -7   5    3.45    4.71
   7  -7   5   -0.65    6.36
  -8   7  -5   -3.40    4.20
  -8   7  -5    0.99    4.28
   8  -7   5   -4.14    7.36
   8  -7   5   -5.35    5.51
  -9   7  -5    1.15    5.27
   9  -7   5   -9.90    6.67
   9  -7   5   -8.19    5.77
   8   6  -5    6.76    5.23
  -8  -6   5   -5.34    5.76
  -8  -6   5    3.22    6.04
   7   6  -5    0.03    4.93
  -7  -6   5   -0.63    5.81
  -7  -6   5   -5.21    3.80
   6   6  -5    0.12    4.52
  -6  -6   5  -11.58    3.85
  -6  -6   5   16.61    5.98
  -6  -6   5   -4.21    4.47
   5   6  -5   20.01    6.25
  -5  -6   5   22.45    6.36
  -5  -6   5   21.89    7.48
  -5  -6   5   21.73    6.00
   4   6  -5   38.19    6.80
   4   6  -5   29.97    4.41
  -4  -6   5   31.24    7.46
  -4  -6   5   28.37    5.96
   3   6  -5   22.34    6.12
   3   6  -5   34.42    4.17
  -3  -6   5   32.09    7.58
  -3  -6   5   28.80    6.41
   2   6  -5   11.28    4.74
   2   6  -5   16.05    2.62
   2   6  -5   19.12    5.56
  -2  -6   5   18.37    5.20
  -2  -6   5   16.57    5.86
  -2  -6   5   12.34    5.07
   1   6  -5   75.13    6.04
   1   6  -5   88.15    9.67
   1   6  -5   70.05    8.98
  -1  -6   5   56.69    9.77
  -1  -6   5   74.08    9.33
  -1  -6   5   72.90   10.61
   0   6  -5    6.59    2.00
   0   6  -5   12.20    4.04
   0   6  -5   16.20    4.74
   0  -6   5    9.99    5.24
   0  -6   5    4.25    4.53
   0  -6   5    9.94    3.98
  -1   6  -5    0.01    2.86
  -1   6  -5   -0.09    1.78
  -1   6  -5    1.29    3.38
   1  -6   5    1.65    3.06
   1  -6   5    1.81    4.40
   1  -6   5    0.45    1.72
   1  -6   5    2.57    3.92
  -2   6  -5   19.95    4.66
  -2   6  -5   22.17    5.24
   2  -6   5   15.93    3.66
   2  -6   5   19.36    2.82
   2  -6   5   21.99    6.07
   2  -6   5   26.76    5.29
   2  -6   5   21.02    6.13
  -3   6  -5   29.30    5.19
  -3   6  -5   31.45    5.85
   3  -6   5   18.55    4.88
   3  -6   5   17.93    6.17
   3  -6   5   25.19    5.07
   3  -6   5   22.79    5.31
  -4   6  -5    8.36    3.59
  -4   6  -5    2.92    3.65
   4  -6   5    3.68    3.41
   4  -6   5    6.79    5.54
  -5   6  -5   23.23    5.47
  -5   6  -5   45.34    7.08
   5  -6   5   29.25    8.18
   5  -6   5   23.64    5.87
  -6   6  -5   28.55    6.01
  -6   6  -5   29.16    5.89
  -6   6  -5   14.69    5.49
   6  -6   5   26.72    8.54
   6  -6   5   20.19    6.14
  -7   6  -5   21.80    6.18
  -7   6  -5   16.85    5.82
  -7   6  -5   22.98    6.09
   7  -6   5   23.49    8.72
   7  -6   5   26.51    6.81
  -8   6  -5   18.35    6.49
  -8   6  -5   15.79    6.45
   8  -6   5   25.74    9.64
   8  -6   5   35.15    8.25
  -9   6  -5   -0.12    4.96
   9  -6   5   -3.19    5.86
   9  -6   5   -4.42    7.29
   8   5  -5   26.82    8.02
  -8  -5   5   25.00    8.69
  -8  -5   5   34.84    8.27
  -8  -5   5   27.37    8.09
   7   5  -5    1.15    4.77
  -7  -5   5   -0.29    5.61
  -7  -5   5   -1.95    5.40
  -7  -5   5   -2.37    4.22
   6   5  -5   19.31    6.40
  -6  -5   5    1.30    4.17
  -6  -5   5   17.33    6.25
  -6  -5   5   18.61    6.43
   5   5  -5   33.08    7.10
  -5  -5   5   46.55    8.50
  -5  -5   5   39.02    7.40
  -5  -5   5   43.70    7.48
   4   5  -5    4.17    2.37
   4   5  -5    1.54    3.79
  -4  -5   5    0.96    3.52
  -4  -5   5    6.46    4.68
  -4  -5   5    2.78    4.10
   3   5  -5   21.80    3.11
   3   5  -5   16.67    4.96
  -3  -5   5   27.74    6.53
  -3  -5   5   23.54    5.80
  -3  -5   5   23.73    5.20
   2   5  -5  137.42   11.97
   2   5  -5  132.67    9.59
   2   5  -5  128.93   11.78
  -2  -5   5  146.78   13.37
   1   5  -5    7.06    3.62
   1   5  -5    8.76    3.42
   1   5  -5   12.95    3.94
  -1  -5   5    4.99    3.37
  -1  -5   5    3.02    3.09
  -1  -5   5    2.00    3.85
  -1  -5   5    4.77    3.80
   0   5  -5   -0.22    2.67
   0   5  -5    0.64    2.17
   0   5  -5    5.10    3.17
   0  -5   5    1.05    2.35
   0  -5   5    5.55    3.14
   0  -5   5   -1.59    3.59
   0  -5   5    7.28    4.35
  -1   5  -5    3.49    2.92
  -1   5  -5    3.73    2.86
   1  -5   5   -4.17    2.17
   1  -5   5    3.05    3.97
   1  -5   5    3.91    1.66
   1  -5   5   -3.44    3.17
   1  -5   5    2.10    2.51
  -2   5  -5   28.26    5.12
  -2   5  -5   29.64    5.12
   2  -5   5   27.25    6.49
   2  -5   5   19.54    5.45
   2  -5   5   23.17    3.85
   2  -5   5   23.99    4.69
   2  -5   5   18.83    2.59
   2  -5   5   24.85    4.81
  -3   5  -5    2.18    3.33
  -3   5  -5    3.69    2.97
   3  -5   5    5.84    3.04
   3  -5   5    5.20    3.12
   3  -5   5    0.52    3.23
   3  -5   5    5.42    3.21
   3  -5   5    1.47    4.19
  -4   5  -5   98.22    9.72
  -4   5  -5  117.96   10.02
   4  -5   5   73.67   12.51
   4  -5   5  108.52   10.18
   4  -5   5  111.80    9.83
  -5   5  -5   81.41    8.91
  -5   5  -5   47.67    7.41
   5  -5   5   56.32   10.74
   5  -5   5   52.52    7.69
   5  -5   5   57.77    7.67
  -6   5  -5    2.03    3.88
  -6   5  -5    2.18    3.43
  -6   5  -5   -0.62    3.81
   6  -5   5   -3.36    3.42
   6  -5   5   -1.04    4.94
  -7   5  -5   74.84    9.43
  -7   5  -5   51.56    8.27
  -7   5  -5   46.94    8.56
   7  -5   5   52.32   11.33
   7  -5   5   68.65   10.03
  -8   5  -5    5.14    4.58
   8  -5   5    5.02    5.51
   8  -5   5   -0.20    6.19
  -9   5  -5    3.89    4.95
   9  -5   5   -2.43    6.22
   9  -5   5   -5.46    7.19
   9   4  -5    7.94    6.51
  -9  -4   5   13.10    7.01
  -9  -4   5    8.37    6.75
   8   4  -5    1.29    5.30
  -8  -4   5    0.74    4.86
  -8  -4   5   -3.74    5.32
  -8  -4   5   -9.02    4.22
   7   4  -5   14.73    5.90
  -7  -4   5   11.05    5.72
  -7  -4   5   18.45    6.94
  -7  -4   5    7.19    5.21
   6   4  -5   11.66    5.26
  -6  -4   5   10.79    5.22
  -6  -4   5   11.13    4.95
  -6  -4   5   15.85    5.77
   5   4  -5    7.47    3.06
   5   4  -5    5.96    3.87
  -5  -4   5    1.77    3.65
  -5  -4   5    6.84    4.76
  -5  -4   5    2.05    4.35
   4   4  -5    4.73    3.09
   4   4  -5   -0.76    1.79
  -4  -4   5    3.09    3.25
  -4  -4   5    1.45    3.96
  -4  -4   5    1.96    3.76
   3   4  -5    9.32    2.16
   3   4  -5   17.32    4.68
  -3  -4   5   11.27    3.85
  -3  -4   5    9.19    4.30
  -3  -4   5   15.05    5.04
   2   4  -5   47.68    6.71
   2   4  -5   60.32    7.70
   2   4  -5   58.40    6.62
  -2  -4   5   54.85    8.33
  -2  -4   5   50.33    7.11
  -2  -4   5   58.52    7.34
  -2  -4   5   52.39    6.10
   1   4  -5   96.69    7.64
   1   4  -5   92.01    8.45
   1   4  -5   84.04    8.10
  -1  -4   5   89.57    9.77
  -1  -4   5   97.07    8.47
   0   4  -5  145.22   10.58
   0   4  -5  148.35   11.65
   0   4  -5  161.35   11.93
   0  -4   5  140.39   13.09
   0  -4   5  147.68   14.08
   0  -4   5  144.07   11.57
   0  -4   5  142.24   11.63
  -1   4  -5    9.39    3.26
  -1   4  -5    5.75    2.70
   1  -4   5    7.07    1.83
   1  -4   5    4.72    2.49
   1  -4   5    7.90    2.90
   1  -4   5    3.50    3.44
   1  -4   5    2.85    3.71
  -2   4  -5    0.20    2.60
  -2   4  -5    1.10    2.38
   2  -4   5    6.28    3.67
   2  -4   5    1.65    2.37
   2  -4   5    3.71    2.53
   2  -4   5    1.31    2.04
   2  -4   5   -1.20    3.58
  -3   4  -5   23.41    4.27
  -3   4  -5    9.88    3.58
   3  -4   5   11.40    5.18
   3  -4   5   16.83    4.02
   3  -4   5   20.29    4.19
   3  -4   5   14.37    3.63
   3  -4   5   16.74    4.58
  -4   4  -5  137.54   11.17
  -4   4  -5  137.15   11.89
  -4   4  -5  135.12   11.66
   4  -4   5  135.52   14.50
   4  -4   5  131.56   11.14
   4  -4   5  131.89   11.22
   4  -4   5  142.66   12.29
  -5   4  -5   71.66   10.03
  -5   4  -5   96.09    9.01
  -5   4  -5   98.18    9.04
  -5   4  -5   96.04    9.31
   5  -4   5  106.76    9.79
   5  -4   5   96.57    9.19
   5  -4   5  100.39   13.54
  -6   4  -5    3.51    4.32
  -6   4  -5   -1.43    3.16
  -6   4  -5   -1.46    2.99
  -6   4  -5    8.06    2.42
   6  -4   5   -0.20    3.58
   6  -4   5    4.15    5.12
  -7   4  -5   -0.11    3.56
  -7   4  -5   -2.62    3.50
  -7   4  -5    4.84    4.88
   7  -4   5   -1.53    4.44
   7  -4   5    4.94    6.05
  -8   4  -5   11.73    5.01
   8  -4   5   18.04    6.33
   8  -4   5   25.40    8.82
  -9   4  -5   12.57    5.37
   9  -4   5    4.74    7.94
   9  -4   5   20.74    7.16
 -10   4  -5    6.42    5.33
  10  -4   5    3.36    7.30
  10  -4   5  -11.38    7.63
   9   3  -5   -3.32    5.14
  -9  -3   5   -2.34    5.57
  -9  -3   5   -0.66    5.29
   8   3  -5    1.51    5.07
  -8  -3   5    4.70    5.69
  -8  -3   5   10.19    5.64
  -8  -3   5    0.06    4.56
   7   3  -5    1.89    4.39
  -7  -3   5   12.50    5.59
  -7  -3   5    8.76    5.63
  -7  -3   5   13.04    5.46
   6   3  -5   -1.77    3.35
  -6  -3   5    9.16    4.50
  -6  -3   5    1.24    4.36
  -6  -3   5   -2.06    3.21
   5   3  -5    9.65    4.27
   5   3  -5    7.02    3.36
  -5  -3   5    5.50    4.57
  -5  -3   5   10.25    4.40
  -5  -3   5   11.60    4.14
   4   3  -5   15.39    4.59
   4   3  -5   25.53    3.89
  -4  -3   5   27.15    5.72
  -4  -3   5   22.47    5.06
  -4  -3   5   32.33    6.21
   3   3  -5   67.17    6.41
   3   3  -5   63.52    7.91
   3   3  -5   72.46    5.67
  -3  -3   5   68.20    6.55
  -3  -3   5   64.52    8.96
  -3  -3   5   54.76    7.69
  -3  -3   5   61.92    7.68
   2   3  -5  166.95   12.83
   2   3  -5  148.29   12.69
   2   3  -5  153.95   11.65
  -2  -3   5  182.26   13.00
  -2  -3   5  159.86   12.77
  -2  -3   5  160.67   14.26
  -2  -3   5  163.04   11.71
   1   3  -5   24.18    4.42
   1   3  -5   18.33    3.78
   1   3  -5   21.64    3.16
  -1  -3   5   20.70    4.75
  -1  -3   5   19.77    3.72
  -1  -3   5   12.54    3.57
   0   3  -5   15.13    3.86
   0   3  -5   13.74    2.38
   0   3  -5   15.20    3.63
   0   3  -5   20.43    3.37
   0   3  -5   18.33    3.34
   0  -3   5   15.86    4.46
   0  -3   5   14.44    3.26
   0  -3   5   10.46    2.97
  -1   3  -5   82.55    6.80
  -1   3  -5   76.22    7.77
  -1   3  -5   77.20    6.67
  -1   3  -5   80.56    7.22
   1  -3   5   70.47    7.88
   1  -3   5   75.47    6.19
   1  -3   5   77.38    6.70
   1  -3   5   73.35    8.92
   1  -3   5   74.46    6.59
  -2   3  -5  131.99   11.32
  -2   3  -5  131.51    9.78
  -2   3  -5  121.49   10.21
   2  -3   5  122.02    9.85
   2  -3   5  124.31   10.12
   2  -3   5  136.31    9.95
   2  -3   5  124.42   11.34
   2  -3   5  123.98   12.71
  -3   3  -5    8.94    2.86
  -3   3  -5    4.24    3.10
  -3   3  -5    5.24    2.33
  -3   3  -5    5.39    3.00
   3  -3   5   10.29    3.61
   3  -3   5    6.49    2.55
   3  -3   5    3.50    3.95
   3  -3   5    6.02    2.50
   3  -3   5    3.18    2.84
  -4   3  -5   14.03    3.45
  -4   3  -5   11.48    3.18
  -4   3  -5    6.98    3.04
  -4   3  -5   11.67    4.22
   4  -3   5   15.82    3.91
   4  -3   5   20.16    5.97
   4  -3   5   18.30    3.60
   4  -3   5   12.37    3.74
  -5   3  -5   10.22    3.73
  -5   3  -5    5.55    3.61
  -5   3  -5    3.63    3.23
   5  -3   5    8.98    3.78
   5  -3   5    1.41    4.56
   5  -3   5    3.38    3.04
  -6   3  -5   23.67    6.02
  -6   3  -5   27.76    5.55
  -6   3  -5   21.53    5.01
   6  -3   5   34.11    7.96
   6  -3   5   32.04    5.98
  -7   3  -5   39.50    8.10
  -7   3  -5   57.78    7.79
  -7   3  -5   48.51    7.09
   7  -3   5   41.35    9.62
   7  -3   5   44.05    7.76
  -8   3  -5    1.46    3.84
   8  -3   5   14.62    8.15
   8  -3   5   15.91    6.23
  -9   3  -5    9.62    5.17
   9  -3   5  -17.30    6.13
   9  -3   5    3.30    5.90
 -10   3  -5    8.23    5.94
  10  -3   5   13.79    6.93
  10  -3   5   -3.07    9.06
  10   2  -5   -1.81    5.96
 -10  -2   5    7.67    7.21
 -10  -2   5    4.44    6.04
   9   2  -5   24.16    8.04
  -9  -2   5   34.69    8.74
  -9  -2   5   20.36    8.07
   8   2  -5    3.05    4.21
  -8  -2   5    6.72    5.33
  -8  -2   5    3.15    4.46
  -8  -2   5    3.96    5.37
   7   2  -5    0.46    4.48
  -7  -2   5   -0.08    4.36
  -7  -2   5   -2.34    3.85
  -7  -2   5   -0.33    3.79
   6   2  -5   76.84   10.14
  -6  -2   5   73.95   10.31
  -6  -2   5   90.51   10.87
  -6  -2   5  119.77   10.81
   5   2  -5    6.10    3.96
   5   2  -5   -0.05    2.64
  -5  -2   5    3.74    3.81
  -5  -2   5    4.59    3.27
  -5  -2   5    3.98    4.26
   4   2  -5   60.85    7.91
   4   2  -5   76.42    6.61
  -4  -2   5   77.34    8.21
  -4  -2   5   50.20    7.65
  -4  -2   5   65.67    7.76
   3   2  -5   91.82    8.71
   3   2  -5  102.87    7.82
   3   2  -5  101.54    8.17
  -3  -2   5   96.33    9.71
  -3  -2   5   92.44    9.00
  -3  -2   5  100.48    8.09
  -3  -2   5   92.75    8.89
   2   2  -5    3.01    2.50
   2   2  -5    3.77    2.10
   2   2  -5    2.72    2.79
   2   2  -5    2.09    2.34
   2   2  -5    3.33    1.04
  -2  -2   5    1.21    3.14
  -2  -2   5    3.63    2.09
  -2  -2   5    1.94    2.41
  -2  -2   5    0.88    2.35
   1   2  -5   27.10    4.36
   1   2  -5   22.06    3.58
   1   2  -5   20.54    4.38
   1   2  -5   20.70    3.49
   1   2  -5   17.57    4.24
   1   2  -5   22.31    2.73
  -1  -2   5   24.93    3.65
  -1  -2   5   19.11    2.54
  -1  -2   5   22.89    4.90
  -1  -2   5   16.45    3.37
   0   2  -5   75.86    6.39
   0   2  -5   70.09    8.18
   0   2  -5   72.19    7.68
   0   2  -5   79.67    6.37
   0   2  -5   78.47    7.10
   0   2  -5   78.88    5.30
   0  -2   5   77.54    5.79
   0  -2   5   84.45    6.53
   0  -2   5   79.34    8.04
  -1   2  -5  156.70   14.87
  -1   2  -5  167.09   11.82
  -1   2  -5  181.78   14.06
  -1   2  -5  161.45   12.60
   1  -2   5  171.08   11.97
   1  -2   5  173.60   13.99
   1  -2   5  178.52   15.49
   1  -2   5  163.04   11.86
  -2   2  -5   27.65    4.60
  -2   2  -5   19.95    4.77
  -2   2  -5   29.55    3.13
   2  -2   5   27.13    3.54
   2  -2   5   25.63    5.60
   2  -2   5   35.60    5.40
   2  -2   5   31.02    3.64
  -3   2  -5   27.66    5.43
  -3   2  -5   22.22    4.67
  -3   2  -5   28.31    3.46
  -3   2  -5   29.85    2.86
  -3   2  -5   20.04    3.39
   3  -2   5   27.81    4.79
   3  -2   5   24.46    5.98
   3  -2   5   26.61    3.87
   3  -2   5   29.39    3.82
  -4   2  -5   29.66    5.86
  -4   2  -5   46.13    5.12
  -4   2  -5   42.11    5.28
  -4   2  -5   36.11    3.59
   4  -2   5   37.38    4.91
   4  -2   5   39.57    5.32
   4  -2   5   54.81    6.06
   4  -2   5   57.62    8.82
  -5   2  -5   10.57    2.11
  -5   2  -5    3.13    4.05
  -5   2  -5    6.73    3.21
  -5   2  -5   11.58    3.56
   5  -2   5    5.01    4.72
   5  -2   5   12.41    3.04
   5  -2   5    7.81    3.68
   5  -2   5    7.60    3.04
  -6   2  -5   43.78    8.04
  -6   2  -5   50.37    6.51
  -6   2  -5   57.58    5.07
  -6   2  -5   54.33    7.52
   6  -2   5   54.88    7.50
   6  -2   5   38.98    6.34
   6  -2   5   63.04   10.07
  -7   2  -5   13.44    4.60
  -7   2  -5    7.74    3.69
   7  -2   5    5.96    4.57
   7  -2   5    5.43    6.30
  -8   2  -5    4.58    4.42
   8  -2   5   -1.38    4.22
   8  -2   5    2.25    6.06
  -9   2  -5    7.81    5.04
   9  -2   5    2.55    8.24
   9  -2   5    1.70    5.36
 -10   2  -5   -6.21    4.57
  10  -2   5   -5.34    8.34
  10  -2   5   -2.83    5.58
  10   1  -5    2.45    6.24
 -10  -1   5    4.25    5.65
 -10  -1   5   10.13    7.69
   9   1  -5    7.60    5.94
  -9  -1   5    4.58    6.44
  -9  -1   5    6.14    5.89
   8   1  -5    0.24    4.42
  -8  -1   5    6.32    4.58
  -8  -1   5    5.24    4.56
  -8  -1   5   -0.62    5.11
   7   1  -5    0.88    4.25
  -7  -1   5    6.53    4.33
  -7  -1   5   10.10    5.38
  -7  -1   5    6.97    4.36
   6   1  -5   37.51    7.17
  -6  -1   5   37.72    7.50
  -6  -1   5   46.57    7.43
  -6  -1   5   33.88    6.74
   5   1  -5    8.54    3.18
   5   1  -5    1.90    3.59
  -5  -1   5    1.54    3.93
  -5  -1   5    5.49    3.65
  -5  -1   5    3.85    3.37
   4   1  -5   -2.80    2.74
   4   1  -5   -0.50    2.30
   4   1  -5    4.63    2.57
  -4  -1   5    5.86    3.32
  -4  -1   5    0.94    3.57
  -4  -1   5    0.63    2.44
  -4  -1   5    7.39    3.58
   3   1  -5   49.94    4.99
   3   1  -5   49.66    6.44
   3   1  -5   50.84    6.14
  -3  -1   5   39.03    6.59
  -3  -1   5   46.31    6.10
  -3  -1   5   52.61    5.00
  -3  -1   5   50.42    5.74
  -3  -1   5   44.32    6.15
   2   1  -5   12.71    3.42
   2   1  -5    7.46    2.86
   2   1  -5    8.39    2.70
   2   1  -5    7.77    1.91
   2   1  -5    6.99    3.07
  -2  -1   5   13.17    3.41
  -2  -1   5    9.08    3.89
  -2  -1   5    8.19    2.83
  -2  -1   5    5.91    2.10
  -2  -1   5   12.67    2.28
   1   1  -5   15.77    4.07
   1   1  -5   21.31    3.86
   1   1  -5   20.54    3.22
   1   1  -5   19.27    3.04
  -1  -1   5   20.22    2.55
  -1  -1   5   24.27    4.82
  -1  -1   5   19.54    3.29
  -1  -1   5   18.01    2.97
  -1  -1   5   17.77    2.21
   0   1  -5   10.87    3.70
   0   1  -5   12.97    2.20
   0   1  -5   12.24    3.04
   0  -1   5   13.24    3.83
   0  -1   5   13.32    2.30
   0  -1   5   11.03    2.11
   0  -1   5   11.11    2.18
  -1   1  -5   19.35    3.76
  -1   1  -5   21.33    3.16
  -1   1  -5   20.77    2.12
  -1   1  -5   20.32    2.07
  -1   1  -5   20.77    4.55
   1  -1   5   18.90    2.38
   1  -1   5   22.91    4.54
   1  -1   5   22.67    2.51
  -2   1  -5   -1.05    1.43
  -2   1  -5    0.09    2.07
  -2   1  -5   -1.39    2.53
  -2   1  -5   -0.22    0.86
  -2   1  -5    1.39    1.18
  -2   1  -5   -0.39    0.74
   2  -1   5   -0.01    2.40
   2  -1   5   -2.25    2.80
   2  -1   5    0.59    1.25
   2  -1   5    0.97    1.16
  -3   1  -5   71.06    5.80
  -3   1  -5   82.36    8.56
  -3   1  -5   65.16    5.48
  -3   1  -5   59.52    7.57
  -3   1  -5   71.20    5.33
  -3   1  -5   70.97    5.84
   3  -1   5   69.66    5.81
   3  -1   5   73.39    6.99
   3  -1   5   68.07    9.34
   3  -1   5   70.21    5.73
  -4   1  -5   12.07    3.88
  -4   1  -5   19.92    3.77
  -4   1  -5   22.19    5.35
  -4   1  -5   12.51    2.46
  -4   1  -5   22.18    3.16
   4  -1   5   15.91    3.40
   4  -1   5   15.96    3.01
   4  -1   5   10.45    4.58
   4  -1   5   17.83    3.62
  -5   1  -5   75.68    6.77
  -5   1  -5   74.72    6.94
  -5   1  -5   77.71    7.69
  -5   1  -5   62.26    9.04
  -5   1  -5   76.99   10.02
   5  -1   5   84.08    6.90
   5  -1   5   70.01    7.11
   5  -1   5   85.85   11.08
   5  -1   5   90.00    7.76
  -6   1  -5   18.36    4.62
  -6   1  -5   11.27    3.43
  -6   1  -5   19.35    5.87
  -6   1  -5   19.72    3.76
   6  -1   5   11.82    4.13
   6  -1   5    9.39    3.65
   6  -1   5   10.72    5.72
  -7   1  -5    5.39    3.18
  -7   1  -5   10.60    3.89
  -7   1  -5   13.72    4.80
   7  -1   5   13.25    4.46
   7  -1   5    4.12    5.87
  -8   1  -5    2.95    4.35
  -8   1  -5    7.19    3.69
   8  -1   5    1.87    4.55
   8  -1   5   -1.48    5.90
  -9   1  -5   13.63    5.86
   9  -1   5    9.73    6.11
   9  -1   5    1.88    7.36
 -10   1  -5   20.00    7.24
  10  -1   5   -0.43    6.27
  10   0  -5   -6.16    5.35
 -10   0   5    3.30    5.28
 -10   0   5    1.24    6.33
   9   0  -5   -2.08    4.88
  -9   0   5    7.25    5.40
  -9   0   5   -5.13    4.83
   8   0  -5    8.14    5.57
  -8   0   5   -5.87    2.92
  -8   0   5    6.54    4.21
  -8   0   5    0.31    5.09
   7   0  -5   21.18    6.51
  -7   0   5   26.33    5.49
  -7   0   5   18.83    5.60
  -7   0   5   12.80    5.66
   6   0  -5   21.60    5.37
  -6   0   5   30.45    6.43
  -6   0   5   20.31    5.36
  -6   0   5   21.50    6.08
   5   0  -5    2.93    2.32
   5   0  -5   -0.70    3.31
  -5   0   5   -2.58    3.33
  -5   0   5    0.72    3.22
  -5   0   5    4.52    3.49
   4   0  -5   24.42    4.89
   4   0  -5   25.54    4.53
   4   0  -5   28.95    4.65
  -4   0   5   26.63    5.11
  -4   0   5   20.76    4.55
  -4   0   5   18.54    5.07
  -4   0   5   35.72    5.04
  -4   0   5   32.12    5.17
   3   0  -5   21.08    3.52
   3   0  -5   15.41    3.74
   3   0  -5   11.72    3.44
  -3   0   5   13.53    3.53
  -3   0   5   13.80    3.29
  -3   0   5    8.35    3.78
  -3   0   5   12.90    3.69
  -3   0   5   17.61    3.42
   2   0  -5  177.73   12.98
   2   0  -5  175.54   12.91
   2   0  -5  187.19   15.37
   2   0  -5  185.60   13.21
   2   0  -5  166.57   12.82
  -2   0   5  178.21   13.18
  -2   0   5  181.37   12.25
  -2   0   5  166.66   12.94
  -2   0   5  169.54   13.10
   1   0  -5  200.34   12.90
   1   0  -5  183.12   15.87
   1   0  -5  170.01   13.15
   1   0  -5  178.22   12.76
  -1   0   5  173.26   12.85
  -1   0   5  183.66   13.52
  -1   0   5  179.38   12.93
  -1   0   5  195.61   12.11
   0   0  -5   26.85    2.44
   0   0  -5   37.41    4.37
   0   0  -5   30.28    4.18
   0   0  -5   35.00    5.51
   0   0  -5   29.41    2.52
   0   0   5   34.38    2.98
   0   0   5   27.08    2.19
   0   0   5   30.38    2.99
   0   0   5   31.85    4.06
  -1   0  -5   18.72    4.26
  -1   0  -5   25.06    3.63
  -1   0  -5   19.60    3.66
   1   0   5   17.28    1.64
   1   0   5   20.94    1.94
   1   0   5   20.48    1.65
  -2   0  -5   18.99    3.17
  -2   0  -5   13.20    3.40
  -2   0  -5   12.37    4.09
  -2   0  -5   16.27    2.30
   2   0   5   13.07    2.22
   2   0   5   15.80    1.69
   2   0   5   13.06    1.53
   2   0   5   16.82    4.31
  -3   0  -5    0.70    2.64
  -3   0  -5    1.53    2.90
  -3   0  -5   -0.44    1.74
  -3   0  -5   -0.20    1.80
   3   0   5    1.06    1.76
   3   0   5    1.92    1.54
   3   0   5    6.22    3.32
   3   0   5    2.29    1.38
   3   0   5    3.29    2.54
  -4   0  -5   57.06    6.57
  -4   0  -5   50.14    7.62
  -4   0  -5   62.87    5.99
  -4   0  -5   60.17    5.09
  -4   0  -5   73.76    8.14
   4   0   5   80.93    9.67
   4   0   5   60.86    6.21
   4   0   5   62.05    5.70
   4   0   5   60.44    6.11
   4   0   5   64.86    5.86
  -5   0  -5    5.99    3.69
  -5   0  -5    9.15    3.02
  -5   0  -5    9.22    4.46
  -5   0  -5    4.63    3.28
   5   0   5    0.97    4.09
   5   0   5    7.15    2.99
   5   0   5    5.86    3.26
   5   0   5    9.80    2.49
  -6   0  -5    8.63    3.67
  -6   0  -5    6.46    3.79
  -6   0  -5    9.16    3.22
  -6   0  -5   12.32    3.65
   6   0   5   10.91    3.93
   6   0   5   13.42    5.63
  -7   0  -5   -0.01    2.88
  -7   0  -5   -2.25    3.57
   7   0   5   -2.57    4.94
   7   0   5    7.11    3.96
  -8   0  -5   70.06    8.69
  -8   0  -5   49.84    8.44
   8   0   5   57.98    8.84
   8   0   5   49.78   10.63
  -9   0  -5   29.14    7.71
  -9   0  -5   49.30    8.19
   9   0   5   40.43    8.46
 -10   0  -5   -2.81    5.16
  10  -1  -5   -2.89    5.79
 -10   1   5   -1.97    6.56
 -10   1   5    4.98    4.97
   9  -1  -5    9.57    6.21
  -9   1   5   11.14    5.58
  -9   1   5   34.27    6.46
  -9   1   5   20.11    7.29
   8  -1  -5   11.69    5.98
  -8   1   5   19.40    5.12
  -8   1   5    7.63    5.86
  -8   1   5   11.12    5.27
   7  -1  -5   27.16    6.83
  -7   1   5   17.00    5.72
  -7   1   5   27.38    6.05
  -7   1   5   22.52    6.70
   6  -1  -5    0.67    2.27
   6  -1  -5   -5.10    3.36
  -6   1   5    0.39    3.64
  -6   1   5    3.77    4.40
  -6   1   5    1.89    3.77
   5  -1  -5   26.88    4.84
   5  -1  -5   33.52    6.21
  -5   1   5   32.30    5.95
  -5   1   5   26.98    5.66
  -5   1   5   28.52    5.55
   4  -1  -5    1.19    2.34
   4  -1  -5    0.75    2.73
   4  -1  -5   -0.49    2.90
  -4   1   5   -2.30    2.68
  -4   1   5    1.14    3.12
  -4   1   5    3.66    3.13
  -4   1   5    2.56    3.16
   3  -1  -5   44.15    5.92
   3  -1  -5   49.45    6.02
   3  -1  -5   38.66    6.39
   3  -1  -5   50.83    5.90
  -3   1   5   35.65    5.55
  -3   1   5   51.31    5.74
  -3   1   5   37.22    5.51
  -3   1   5   48.19    6.01
   2  -1  -5    6.54    2.56
   2  -1  -5    9.77    2.75
   2  -1  -5    7.10    2.65
   2  -1  -5    7.88    2.60
   2  -1  -5    3.74    3.06
  -2   1   5   10.11    2.91
  -2   1   5   10.84    2.87
  -2   1   5    8.13    2.51
   1  -1  -5   23.07    2.88
   1  -1  -5   18.84    3.48
   1  -1  -5   18.90    3.53
   1  -1  -5   19.91    3.31
   1  -1  -5   19.52    4.65
  -1   1   5   23.93    3.87
  -1   1   5   16.64    2.90
  -1   1   5   17.13    2.98
   0  -1  -5    3.82    2.08
   0  -1  -5    4.67    2.30
   0  -1  -5    0.15    2.80
   0  -1  -5    3.48    0.74
   0  -1  -5    3.62    0.78
   0   1   5    5.28    1.55
   0   1   5    1.66    1.21
   0   1   5    2.80    2.41
  -1  -1  -5   34.85    6.18
  -1  -1  -5   45.68    5.34
  -1  -1  -5   43.82    5.10
   1   1   5   38.88    2.72
   1   1   5   35.08    3.49
  -2  -1  -5  108.21    9.33
  -2  -1  -5  117.57    9.14
  -2  -1  -5  122.15   11.35
   2   1   5  107.23    7.54
   2   1   5  123.98    8.44
   2   1   5  109.99    7.57
  -3  -1  -5   33.51    6.15
  -3  -1  -5   40.59    5.14
  -3  -1  -5   39.36    4.78
  -3  -1  -5   32.81    5.44
   3   1   5   45.01    6.51
   3   1   5   30.10    3.47
   3   1   5   38.46    4.75
   3   1   5   34.92    3.73
  -4  -1  -5    0.98    1.41
  -4  -1  -5    0.37    2.57
  -4  -1  -5    1.76    3.47
  -4  -1  -5    4.67    2.86
  -4  -1  -5    0.97    3.17
   4   1   5    1.09    2.05
   4   1   5    1.12    1.97
   4   1   5    2.16    3.20
   4   1   5    0.62    2.25
  -5  -1  -5   -0.72    2.85
  -5  -1  -5    0.58    2.77
  -5  -1  -5   -1.80    2.68
   5   1   5   -0.04    3.58
   5   1   5   -2.32    1.82
   5   1   5   -2.18    2.48
   5   1   5   -2.42    2.11
  -6  -1  -5    2.12    3.41
  -6  -1  -5    7.52    4.09
  -6  -1  -5    7.59    3.82
  -6  -1  -5    3.60    2.72
   6   1   5    0.71    4.41
   6   1   5    5.38    3.50
   6   1   5    7.80    1.76
  -7  -1  -5   15.60    5.21
  -7  -1  -5    8.39    4.45
  -7  -1  -5   10.61    4.45
   7   1   5    5.64    5.44
   7   1   5    9.89    4.50
  -8  -1  -5   24.15    6.44
  -8  -1  -5   34.79    6.71
   8   1   5   27.88    6.70
  -9  -1  -5    5.33    5.45
  -9  -1  -5   16.32    5.41
   9   1   5    2.52    5.54
  10  -2  -5    1.38    6.27
 -10   2   5   14.92    6.23
 -10   2   5    0.96    6.28
   9  -2  -5    4.20    5.44
  -9   2   5   10.52    5.20
  -9   2   5    3.14    5.99
  -9   2   5   12.03    4.70
   8  -2  -5   42.59    9.13
  -8   2   5   60.50    8.65
  -8   2   5   42.56    8.06
  -8   2   5   56.08    9.93
   7  -2  -5   -2.91    3.99
  -7   2   5    4.29    4.17
  -7   2   5   -1.20    3.65
   6  -2  -5   13.33    5.18
   6  -2  -5   12.37    4.01
  -6   2   5   13.48    5.18
  -6   2   5   12.58    4.70
  -6   2   5   12.70    5.15
   5  -2  -5    0.68    3.38
   5  -2  -5   -1.54    2.51
  -5   2   5    2.17    3.67
  -5   2   5    4.10    3.70
  -5   2   5    3.88    4.01
   4  -2  -5   28.76    5.26
   4  -2  -5   24.60    5.06
  -4   2   5   27.76    5.34
  -4   2   5   25.01    4.94
  -4   2   5   23.32    5.15
  -4   2   5   17.89    4.43
   3  -2  -5   13.00    3.05
   3  -2  -5   19.83    4.09
   3  -2  -5    7.73    3.82
   3  -2  -5    8.40    3.22
  -3   2   5   19.41    3.80
  -3   2   5   17.80    3.88
  -3   2   5   21.26    4.49
   2  -2  -5   -1.25    2.07
   2  -2  -5    0.00    1.66
   2  -2  -5    0.58    2.90
   2  -2  -5   -1.64    1.82
   2  -2  -5    0.33    2.06
   2  -2  -5    0.09    2.45
  -2   2   5   -2.70    2.08
  -2   2   5    2.05    2.43
  -2   2   5   -0.25    2.49
   1  -2  -5  145.47   14.26
   1  -2  -5  151.69   11.08
   1  -2  -5  156.54   11.16
   1  -2  -5  157.96   11.06
   1  -2  -5  155.87   11.92
   1  -2  -5  159.61   12.53
  -1   2   5  149.69   12.48
  -1   2   5  161.22   11.25
  -1   2   5  151.90   11.21
   0  -2  -5    7.68    3.11
   0  -2  -5    8.37    1.56
   0  -2  -5    7.57    2.31
   0  -2  -5    7.09    1.41
   0  -2  -5    8.13    3.94
   0   2   5    9.46    2.08
   0   2   5    6.29    2.87
   0   2   5    6.85    1.78
  -1  -2  -5  213.84   14.30
  -1  -2  -5  178.60   17.41
  -1  -2  -5  176.62   14.15
   1   2   5  208.94   13.21
   1   2   5  192.12   15.59
   1   2   5  193.17   13.40
  -2  -2  -5    3.83    3.42
  -2  -2  -5    3.37    2.87
  -2  -2  -5    1.05    2.46
   2   2   5    0.75    1.33
   2   2   5    3.23    1.41
   2   2   5    7.13    2.41
  -3  -2  -5   -0.33    0.96
  -3  -2  -5    1.92    2.56
  -3  -2  -5   -1.56    0.88
  -3  -2  -5    4.89    3.52
  -3  -2  -5    2.07    3.03
  -3  -2  -5   -0.46    2.53
   3   2   5   -0.99    2.73
   3   2   5    3.67    2.28
   3   2   5    3.08    1.84
   3   2   5   -0.78    1.51
  -4  -2  -5   29.43    4.89
  -4  -2  -5   26.00    5.89
  -4  -2  -5   19.51    3.11
  -4  -2  -5   38.06    5.80
   4   2   5   27.49    4.14
   4   2   5   38.63    5.84
   4   2   5   26.09    3.85
  -5  -2  -5   33.63    6.48
  -5  -2  -5   34.42    6.05
  -5  -2  -5   24.88    5.03
   5   2   5   20.21    4.43
   5   2   5   41.71    6.50
   5   2   5   27.15    4.63
  -6  -2  -5    1.65    3.57
  -6  -2  -5    3.37    2.91
  -6  -2  -5    5.37    3.78
  -6  -2  -5    7.73    3.91
   6   2   5    2.76    3.88
   6   2   5    5.42    3.46
  -7  -2  -5   36.74    6.89
  -7  -2  -5   39.14    7.23
  -7  -2  -5   38.00    7.47
   7   2   5   47.68    7.24
  -8  -2  -5   12.94    5.32
  -8  -2  -5    4.73    4.46
   8   2   5   14.07    5.26
  -9  -2  -5   -0.74    5.22
  -9  -2  -5    3.00    5.86
   9   2   5   -1.46    4.53
  10  -3  -5    2.69    6.46
 -10   3   5    7.32    7.22
 -10   3   5   11.25    5.88
   9  -3  -5    6.93    6.05
  -9   3   5    6.83    6.27
  -9   3   5   14.66    5.30
  -9   3   5    7.53    5.36
   8  -3  -5    8.83    5.50
  -8   3   5   14.89    5.86
  -8   3   5   17.30    6.24
   7  -3  -5   -0.12    2.55
   7  -3  -5    5.70    5.00
  -7   3   5   -1.13    3.98
  -7   3   5    0.68    4.19
  -7   3   5   -1.95    4.14
   6  -3  -5   19.68    4.93
   6  -3  -5   19.49    5.67
  -6   3   5   24.96    5.83
  -6   3   5   23.39    6.35
  -6   3   5   21.09    5.48
   5  -3  -5   16.69    4.99
   5  -3  -5   21.18    5.40
  -5   3   5   14.02    5.08
  -5   3   5   19.82    5.52
   4  -3  -5    2.33    3.63
   4  -3  -5    0.88    3.04
   4  -3  -5    3.71    2.39
  -4   3   5    0.83    2.85
  -4   3   5   -0.48    3.29
  -4   3   5    6.69    3.65
   3  -3  -5   -1.75    3.08
   3  -3  -5   -0.51    1.38
   3  -3  -5   -1.49    2.56
   3  -3  -5    0.50    2.87
  -3   3   5   -1.50    2.26
  -3   3   5   -0.38    2.94
  -3   3   5   -0.15    3.28
   2  -3  -5   57.26    8.86
   2  -3  -5   66.19    5.46
   2  -3  -5   66.96    7.70
   2  -3  -5   65.40    6.36
  -2   3   5   77.90    8.89
  -2   3   5   73.93    6.61
  -2   3   5   68.61    6.81
   1  -3  -5   -0.93    2.35
   1  -3  -5   -0.69    1.85
   1  -3  -5    0.94    1.58
   1  -3  -5   -4.59    2.56
   1  -3  -5   -1.53    1.53
  -1   3   5   -1.85    2.01
  -1   3   5   -0.69    2.82
  -1   3   5   -3.43    1.60
   0  -3  -5  299.28   21.06
   0  -3  -5  300.96   19.91
   0  -3  -5  301.05   20.10
   0  -3  -5  257.46   24.82
   0   3   5  310.61   22.50
   0   3   5  294.47   20.19
   0   3   5  304.92   20.17
  -1  -3  -5   72.51   10.72
  -1  -3  -5  110.76    7.95
  -1  -3  -5   85.63    6.51
  -1  -3  -5   87.59    6.35
  -1  -3  -5   67.26    7.39
   1   3   5   90.02    6.85
   1   3   5   78.95    8.64
   1   3   5   81.25    6.63
   1   3   5   86.36    7.12
  -2  -3  -5    0.77    2.93
  -2  -3  -5    0.59    2.80
  -2  -3  -5    1.21    1.42
  -2  -3  -5   -0.39    2.54
  -2  -3  -5    4.37    1.43
   2   3   5    2.70    1.92
   2   3   5    2.35    2.43
   2   3   5    5.19    2.03
  -3  -3  -5   -1.47    1.45
  -3  -3  -5    0.63    3.71
  -3  -3  -5    4.43    3.24
   3   3   5    0.33    1.99
   3   3   5    1.56    2.61
   3   3   5    1.83    2.01
  -4  -3  -5   -2.50    3.76
  -4  -3  -5   -3.50    2.56
  -4  -3  -5    1.14    3.42
   4   3   5    0.53    2.51
   4   3   5   -0.90    2.31
   4   3   5    3.25    2.93
  -5  -3  -5   12.19    4.56
  -5  -3  -5   11.07    5.13
  -5  -3  -5    8.33    4.05
   5   3   5    9.54    3.65
   5   3   5   11.05    3.69
  -6  -3  -5   -2.21    2.82
  -6  -3  -5    1.39    3.48
  -6  -3  -5    1.09    4.01
   6   3   5   -0.13    3.36
  -7  -3  -5   27.44    6.41
  -7  -3  -5   22.80    6.16
  -7  -3  -5   28.88    7.14
   7   3   5   41.13    6.64
  -8  -3  -5    6.68    5.81
  -8  -3  -5    6.56    5.41
   8   3   5   -4.11    4.31
  -9  -3  -5    4.94    6.33
  -9  -3  -5   -1.12    4.85
   9   3   5    1.36    5.23
  10  -4  -5    4.45    6.52
 -10   4   5    5.28    5.35
 -10   4   5    2.29    6.73
   9  -4  -5   20.71    8.11
  -9   4   5   20.38    7.74
  -9   4   5    7.11    5.63
   8  -4  -5    8.21    5.60
  -8   4   5    3.28    4.44
  -8   4   5   14.44    6.59
  -8   4   5    4.81    5.12
   7  -4  -5   41.04    7.66
   7  -4  -5   90.23   11.09
  -7   4   5  100.72   12.35
  -7   4   5   55.47    9.39
  -7   4   5   59.07    9.07
   6  -4  -5   10.58    4.93
   6  -4  -5   12.71    4.67
  -6   4   5   16.83    6.11
  -6   4   5   13.40    5.27
  -6   4   5   24.28    5.73
   5  -4  -5    6.09    4.04
   5  -4  -5    1.39    3.56
  -5   4   5    0.48    3.94
  -5   4   5    3.71    4.39
   4  -4  -5   -2.31    3.06
   4  -4  -5   -1.62    1.38
   4  -4  -5    0.69    3.33
  -4   4   5    0.77    4.00
  -4   4   5   -5.12    2.55
  -4   4   5    0.26    3.47
   3  -4  -5   16.74    5.37
   3  -4  -5   18.77    4.27
   3  -4  -5   18.50    2.46
   3  -4  -5   20.17    4.84
  -3   4   5   24.63    5.25
  -3   4   5   21.47    4.48
  -3   4   5   27.65    5.83
   2  -4  -5   33.78    3.19
   2  -4  -5   27.04    4.73
   2  -4  -5   32.86    5.35
   2  -4  -5   29.97    6.85
  -2   4   5   41.58    5.76
  -2   4   5   39.53    6.60
  -2   4   5   32.71    5.18
   1  -4  -5   40.84    4.07
   1  -4  -5   46.22    5.34
   1  -4  -5   46.62    6.68
   1  -4  -5   41.56    7.40
  -1   4   5   54.55    6.09
  -1   4   5   37.59    7.32
  -1   4   5   40.99    6.77
  -1   4   5   42.86    5.69
   0  -4  -5    0.79    2.92
   0  -4  -5    1.49    2.04
   0  -4  -5    4.38    3.53
   0  -4  -5    0.66    1.76
   0   4   5    4.68    2.49
   0   4   5    3.76    2.30
   0   4   5    2.28    3.86
   0   4   5    2.36    3.24
  -1  -4  -5   26.35    4.98
  -1  -4  -5   20.12    6.18
  -1  -4  -5   27.49    3.74
   1   4   5   29.18    4.23
   1   4   5   29.78    5.73
  -2  -4  -5   23.06    6.67
  -2  -4  -5   26.43    5.33
   2   4   5   34.45    4.31
   2   4   5   26.84    5.98
   2   4   5   28.80    4.39
  -3  -4  -5   62.93    8.05
  -3  -4  -5   35.22    8.07
   3   4   5   48.49    5.86
   3   4   5   58.55    6.35
   3   4   5   53.07    5.52
  -4  -4  -5  110.62   12.29
  -4  -4  -5   90.44   13.33
   4   4   5  114.25    9.43
   4   4   5  119.80    9.80
  -5  -4  -5    0.37    3.15
  -5  -4  -5   -1.63    3.77
  -5  -4  -5   -3.69    3.63
   5   4   5    3.08    3.29
  -6  -4  -5   43.78    8.44
  -6  -4  -5   60.13    9.64
  -6  -4  -5   47.54    8.25
   6   4   5   71.92    8.26
  -7  -4  -5    6.48    4.98
  -7  -4  -5   -0.52    3.69
  -7  -4  -5    5.32    5.15
   7   4   5    8.45    4.91
  -8  -4  -5   -0.07    5.18
  -8  -4  -5   -0.16    4.65
   8   4   5   -2.11    4.64
   9  -5  -5   13.91    7.04
  -9   5   5    0.03    5.50
  -9   5   5    3.17    5.94
  -9   5   5    5.79    5.27
   8  -5  -5    1.67    3.94
  -8   5   5   -4.26    3.90
  -8   5   5   -3.05    5.51
  -8   5   5    5.77    5.96
   7  -5  -5    7.43    4.33
   7  -5  -5    3.02    4.18
  -7   5   5    0.70    4.82
  -7   5   5    1.10    5.09
  -7   5   5    8.44    4.83
   6  -5  -5   82.19   12.37
   6  -5  -5  132.71   12.13
  -6   5   5   83.58   12.07
  -6   5   5  147.57   13.50
   5  -5  -5    6.52    4.12
   5  -5  -5    1.32    3.65
  -5   5   5   -2.06    3.64
  -5   5   5    7.37    5.07
   4  -5  -5   15.75    5.83
   4  -5  -5    8.53    4.07
   4  -5  -5    6.84    3.96
  -4   5   5    1.19    3.83
  -4   5   5   20.16    5.94
   3  -5  -5   23.44    5.29
   3  -5  -5   12.33    3.87
   3  -5  -5   17.15    6.24
  -3   5   5   22.89    5.32
  -3   5   5   31.43    6.65
  -3   5   5   21.54    5.22
   2  -5  -5    4.52    4.74
   2  -5  -5    5.66    3.06
   2  -5  -5   16.90    4.60
  -2   5   5    8.17    4.01
  -2   5   5    7.53    4.67
  -2   5   5    6.65    3.45
   1  -5  -5   18.36    4.87
   1  -5  -5   17.54    3.74
   1  -5  -5    4.87    4.75
  -1   5   5   15.73    4.26
  -1   5   5   17.61    4.01
  -1   5   5   14.64    4.96
   0  -5  -5   45.37    6.68
   0  -5  -5   42.46    5.15
   0  -5  -5   21.57    6.77
   0   5   5   42.29    5.85
   0   5   5   40.47    6.90
   0   5   5   46.79    5.86
   0   5   5   31.81    6.44
  -1  -5  -5   71.87    6.17
  -1  -5  -5   56.61    7.89
  -1  -5  -5   45.87    9.36
   1   5   5   68.46    6.75
   1   5   5   53.91    8.33
   1   5   5   57.63    7.93
  -2  -5  -5    6.34    5.09
  -2  -5  -5    9.00    2.78
  -2  -5  -5   18.65    5.19
   2   5   5    9.65    2.99
   2   5   5   11.51    3.71
   2   5   5   12.45    5.16
   2   5   5   20.37    4.10
  -3  -5  -5   55.64    5.74
  -3  -5  -5   48.09    7.62
  -3  -5  -5   21.88    7.36
   3   5   5   54.75    6.41
   3   5   5   42.27    3.96
   3   5   5   39.55    7.38
   3   5   5   33.48    4.00
  -4  -5  -5    3.69    2.70
  -4  -5  -5    0.70    3.86
  -4  -5  -5    4.15    5.35
   4   5   5    0.94    3.15
  -5  -5  -5   -1.39    3.91
  -5  -5  -5   -1.79    3.81
   5   5   5   -2.21    3.38
  -6  -5  -5   -1.38    4.20
  -6  -5  -5   -1.08    4.68
   6   5   5    2.84    3.97
  -7  -5  -5   -0.09    5.19
  -7  -5  -5    6.03    4.86
  -7  -5  -5   -0.54    4.53
   7   5   5    6.34    5.42
  -8  -5  -5    8.54    6.44
  -8  -5  -5   -0.73    5.81
   8   5   5    4.47    5.42
   9  -6  -5    3.24    5.88
  -9   6   5   -4.59    5.86
  -9   6   5    3.21    5.21
  -9   6   5    9.73    6.96
   8  -6  -5    9.56    5.29
   8  -6  -5    1.56    5.23
  -8   6   5    8.05    6.60
  -8   6   5    4.28    5.81
  -8   6   5    1.55    4.58
   7  -6  -5   -2.37    4.33
   7  -6  -5   -2.85    3.75
  -7   6   5    4.61    5.87
  -7   6   5    3.08    5.53
   6  -6  -5   45.78    8.88
   6  -6  -5   34.13    7.68
  -6   6   5   42.51    8.69
  -6   6   5   59.22   10.41
   5  -6  -5   25.63    7.32
   5  -6  -5   35.84    7.10
  -5   6   5   38.79    7.63
  -5   6   5   53.22    9.38
   4  -6  -5   82.81    9.99
   4  -6  -5   63.95   11.54
   4  -6  -5   90.62   10.31
  -4   6   5  121.18   13.39
  -4   6   5   83.43   10.43
   3  -6  -5    5.31    5.00
   3  -6  -5   -3.95    2.80
   3  -6  -5   -0.91    2.88
  -3   6   5   -1.15    4.10
  -3   6   5    2.35    4.34
   2  -6  -5   19.41    4.24
   2  -6  -5   19.60    4.97
   2  -6  -5   15.31    6.31
  -2   6   5   21.73    5.41
  -2   6   5   20.13    6.03
  -2   6   5   21.00    4.96
   1  -6  -5   10.72    4.55
   1  -6  -5    1.48    3.61
   1  -6  -5    3.06    3.08
  -1   6   5    0.31    4.16
  -1   6   5    6.29    3.93
  -1   6   5    5.77    3.33
   0  -6  -5   44.75    9.34
   0  -6  -5   56.97    7.96
   0   6   5   64.41    7.75
   0   6   5   43.70    7.88
   0   6   5   54.11    6.84
   0   6   5   55.25    8.50
  -1  -6  -5   13.31    4.82
  -1  -6  -5   16.30    3.61
  -1  -6  -5   12.94    6.20
   1   6   5   11.23    3.70
   1   6   5   10.19    4.63
   1   6   5   10.15    4.19
  -2  -6  -5   15.85    5.22
  -2  -6  -5   25.92    4.49
  -2  -6  -5   17.51    5.68
   2   6   5   28.36    5.62
   2   6   5   15.58    5.57
  -3  -6  -5   13.21    3.91
  -3  -6  -5   17.99    6.21
  -3  -6  -5   14.86    5.33
   3   6   5    4.01    4.09
   3   6   5    0.30    3.71
  -4  -6  -5   -5.00    4.01
  -4  -6  -5   -4.00    3.58
   4   6   5    1.45    4.13
   4   6   5    4.72    3.90
  -5  -6  -5    3.47    5.16
  -5  -6  -5    0.45    4.34
   5   6   5    6.85    4.59
  -6  -6  -5   -5.29    4.56
  -6  -6  -5    3.26    4.96
   6   6   5   -1.80    4.16
  -7  -6  -5   18.02    7.04
   7   6   5    9.20    5.59
   8  -7  -5    7.13    5.20
   8  -7  -5   -7.00    5.28
  -8   7   5    8.73    5.81
  -8   7   5   -0.24    5.52
  -8   7   5    3.68    6.52
   7  -7  -5   11.13    6.09
   7  -7  -5    2.88    5.69
  -7   7   5    1.28    6.12
  -7   7   5   23.65    8.12
   6  -7  -5   11.74    6.00
   6  -7  -5   10.03    5.71
  -6   7   5   11.44    6.26
  -6   7   5   15.33    7.11
   5  -7  -5   12.37    5.17
   5  -7  -5   17.94    6.73
   5  -7  -5   25.27    6.52
  -5   7   5   32.79    7.84
  -5   7   5   31.85    8.17
   4  -7  -5   12.56    6.61
   4  -7  -5   16.96    5.43
   4  -7  -5   13.56    4.99
  -4   7   5   33.50    7.24
  -4   7   5   23.15    7.10
   3  -7  -5   -1.31    4.67
   3  -7  -5   -1.71    3.00
   3  -7  -5   -1.51    3.34
  -3   7   5    1.49    4.28
  -3   7   5    0.66    4.11
   2  -7  -5   25.11    7.92
   2  -7  -5   44.80    6.52
   2  -7  -5   28.90    6.30
  -2   7   5   34.69    7.55
  -2   7   5   37.18    7.02
   1  -7  -5   16.64    6.76
   1  -7  -5    3.14    3.70
   1  -7  -5    4.42    3.63
  -1   7   5   13.39    4.82
  -1   7   5    2.40    4.47
   0  -7  -5    0.01    4.69
   0  -7  -5   -0.16    2.46
   0  -7  -5   -0.38    3.59
   0   7   5   -1.85    3.60
   0   7   5   -8.62    2.90
  -1  -7  -5    3.01    5.18
  -1  -7  -5    0.35    3.97
  -1  -7  -5    3.97    2.89
   1   7   5    2.96    3.87
   1   7   5    1.53    4.04
  -2  -7  -5   39.77    9.75
  -2  -7  -5   70.82    9.81
   2   7   5   84.23    9.32
   2   7   5   60.62    9.94
  -3  -7  -5   -2.32    4.10
  -3  -7  -5    0.00    4.30
   3   7   5    4.68    4.33
   3   7   5    1.85    4.16
  -4  -7  -5    6.68    5.26
  -4  -7  -5    1.70    5.22
   4   7   5    0.53    4.68
   4   7   5    1.15    3.66
  -5  -7  -5    1.17    5.74
  -5  -7  -5    4.98    5.44
   5   7   5    1.02    4.12
   5   7   5   -0.65    3.69
  -6  -7  -5   33.41    8.84
  -6  -7  -5   16.78    7.33
   6   7   5   49.93    8.45
   6   7   5   33.71    8.17
   8  -8  -5    4.20    5.43
   8  -8  -5   15.67    7.77
  -8   8   5    9.85    8.27
  -8   8   5   22.45    9.24
   7  -8  -5    9.87    6.77
   7  -8  -5   -0.20    5.78
  -7   8   5    0.59    6.55
  -7   8   5    7.05    7.02
   6  -8  -5    7.06    6.13
   6  -8  -5    6.84    5.22
  -6   8   5    4.74    6.15
  -6   8   5   13.72    7.39
   5  -8  -5   -0.78    3.81
   5  -8  -5    8.36    5.32
   5  -8  -5    2.14    4.81
  -5   8   5    2.02    5.32
  -5   8   5   -2.76    5.33
   4  -8  -5    7.22    4.50
   4  -8  -5    2.49    3.89
   4  -8  -5   14.54    6.49
  -4   8   5    7.99    5.19
  -4   8   5    3.33    5.69
   3  -8  -5   23.20    7.17
   3  -8  -5   27.43    6.41
   3  -8  -5   23.14    5.73
  -3   8   5   30.46    7.73
  -3   8   5   25.62    6.72
   2  -8  -5    1.50    5.68
   2  -8  -5    5.63    4.23
   2  -8  -5    3.13    4.36
  -2   8   5    8.78    5.34
  -2   8   5   -0.37    4.02
   1  -8  -5   27.94    5.96
   1  -8  -5   21.86    6.08
   1  -8  -5   10.97    5.55
  -1   8   5   18.30    6.50
  -1   8   5   41.99    7.68
   0  -8  -5    5.53    3.79
   0  -8  -5    7.94    4.92
   0  -8  -5    8.66    6.07
   0   8   5   12.32    5.65
   0   8   5   10.54    4.98
  -1  -8  -5   48.62    8.61
  -1  -8  -5   26.91    7.89
   1   8   5   37.64    8.18
   1   8   5   68.58    9.22
  -2  -8  -5   18.99    6.31
  -2  -8  -5    1.61    5.71
   2   8   5   18.27    6.18
   2   8   5   24.60    6.34
  -3  -8  -5    5.06    6.25
  -3  -8  -5   -1.56    4.37
   3   8   5    6.31    5.35
   3   8   5    4.56    4.39
  -4  -8  -5   -1.60    5.21
  -4  -8  -5    3.47    5.27
   4   8   5    0.97    4.54
   4   8   5   -2.19    4.39
  -5  -8  -5    4.35    6.93
  -5  -8  -5    7.26    5.29
   5   8   5    7.23    5.05
   5   8   5    7.54    5.61
   7  -9  -5   -0.64    5.18
   7  -9  -5   -2.67    6.08
  -7   9   5   -4.77    5.48
  -7   9   5   -3.87    6.67
   6  -9  -5   18.78    7.63
   6  -9  -5   14.66    6.34
  -6   9   5   37.64   10.04
  -6   9   5   37.53    9.85
   5  -9  -5   -3.82    4.78
   5  -9  -5    7.29    5.54
   5  -9  -5   10.02    5.66
  -5   9   5    5.06    6.08
  -5   9   5    2.87    6.09
   4  -9  -5   20.32    6.35
   4  -9  -5   14.95    7.25
   4  -9  -5   17.58    5.84
  -4   9   5   37.70    8.37
  -4   9   5   22.45    7.65
   3  -9  -5    0.03    4.34
   3  -9  -5    5.83    6.11
   3  -9  -5    0.81    4.48
  -3   9   5   -1.73    4.73
  -3   9   5   -2.13    4.72
   2  -9  -5   15.28    6.08
   2  -9  -5   22.46    8.09
  -2   9   5   32.59    7.82
  -2   9   5   13.82    6.60
   1  -9  -5   24.65    6.90
   1  -9  -5   30.34    9.40
  -1   9   5   31.01    7.64
  -1   9   5   20.61    7.33
   0  -9  -5    4.97    5.41
   0  -9  -5    4.56    6.45
   0   9   5    7.95    6.02
   0   9   5    5.17    5.36
  -1  -9  -5    9.99    5.30
  -1  -9  -5   16.09    7.73
   1   9   5   21.39    7.05
   1   9   5    6.43    5.14
  -2  -9  -5   12.83    6.09
  -2  -9  -5   -0.19    5.50
   2   9   5    1.84    5.19
   2   9   5    5.23    4.93
  -3  -9  -5    4.79    6.02
  -3  -9  -5   -3.42    3.26
   3   9   5   -0.32    4.54
   3   9   5   -3.16    4.50
  -4  -9  -5    2.12    5.88
  -4  -9  -5   -2.20    4.49
   4   9   5   -5.78    4.33
   4   9   5    6.44    5.28
   5 -10  -5   31.17    7.82
   5 -10  -5    6.89    7.62
  -5  10   5   22.47    8.34
  -5  10   5   20.98    9.43
   4 -10  -5   -2.53    5.25
   4 -10  -5    3.46    5.47
  -4  10   5    7.54    6.18
  -4  10   5   -6.87    4.92
   3 -10  -5    4.02    5.60
   3 -10  -5    2.79    5.18
  -3  10   5   -1.20    5.66
  -3  10   5    6.91    6.47
   2 -10  -5   -4.50    4.28
   2 -10  -5   -2.20    5.93
  -2  10   5    3.08    5.56
  -2  10   5   -0.66    5.53
   1 -10  -5    2.21    4.85
   1 -10  -5   -1.93    4.79
  -1  10   5   -3.54    5.00
  -1  10   5   -2.56    4.82
   0 -10  -5    1.24    5.24
   0 -10  -5    2.29    6.15
   0  10   5    3.53    5.73
   0  10   5    4.71    5.68
  -1 -10  -5    0.19    4.73
  -1 -10  -5    4.31    5.56
   1  10   5    0.15    4.58
   1  10   5   -4.62    5.72
  -2 -10  -5    0.48    6.34
  -2 -10  -5    0.01    5.27
   2  10   5    8.39    6.04
   2  10   5    9.03    5.95
   3 -11  -5    1.02    6.29
   2 -11  -5   -3.44    5.20
   2 -11  -5   -1.97    4.80
   1 -11  -5   -3.88    5.27
   1 -11  -5    3.21    5.75
   2  11  -6   21.84    7.93
   2  11  -6   13.88    6.48
  -2 -11   6   15.21    7.34
  -2 -11   6   28.92    7.81
   1  11  -6    8.58    6.30
   1  11  -6   -0.16    4.20
  -1 -11   6   21.19    7.93
  -1 -11   6   14.23    6.25
   0  11  -6   -3.61    5.29
   0  11  -6    4.06    4.26
   0 -11   6    4.59    5.50
   0 -11   6    2.98    6.10
   0 -11   6    0.54    5.77
  -1  11  -6   10.54    6.43
  -1  11  -6   28.25    6.60
   1 -11   6   16.31    7.88
   1 -11   6   22.84    7.84
  -2  11  -6    2.73    4.12
  -2  11  -6   -0.05    6.30
   2 -11   6   -3.57    5.06
   2 -11   6   -1.38    5.43
  -3  11  -6   15.48    5.28
  -3  11  -6    3.92    6.30
   3 -11   6    2.03    6.60
   3 -11   6   16.13    7.50
  -4  11  -6   42.38    9.54
  -4  11  -6   29.74    6.44
   4 -11   6   22.49   10.72
   4 -11   6   47.07   10.68
   4  10  -6    2.15    6.07
   4  10  -6   19.87    7.99
  -4 -10   6   15.57    7.79
  -4 -10   6   16.07    7.25
   3  10  -6   20.53    7.30
   3  10  -6   16.01    7.24
  -3 -10   6   12.72    6.33
  -3 -10   6   13.12    6.66
   2  10  -6   -7.75    4.51
   2  10  -6    0.67    4.58
  -2 -10   6    2.07    4.71
  -2 -10   6   -2.65    4.59
  -2 -10   6   12.21    6.01
   1  10  -6   -1.85    3.91
   1  10  -6    6.52    6.23
  -1 -10   6    9.16    5.32
  -1 -10   6    4.91    5.00
  -1 -10   6    3.70    4.85
   0  10  -6   -4.54    3.48
   0  10  -6    2.76    5.41
   0 -10   6   -3.51    4.43
   0 -10   6   -1.67    4.70
   0 -10   6    3.12    4.34
  -1  10  -6   28.34    6.33
  -1  10  -6   28.48    7.56
   1 -10   6   11.26    6.28
   1 -10   6   18.51    7.46
  -2  10  -6   11.51    6.23
  -2  10  -6   19.50    5.21
   2 -10   6   13.31    6.21
   2 -10   6    7.83    6.98
  -3  10  -6    6.96    4.10
  -3  10  -6   12.16    6.32
   3 -10   6   18.52    7.29
   3 -10   6    9.78    6.83
  -4  10  -6   -0.95    4.92
  -4  10  -6   -0.73    3.00
   4 -10   6   -6.66    4.27
   4 -10   6   -1.08    5.95
  -5  10  -6   32.40    6.88
  -5  10  -6   28.28    8.57
   5 -10   6   29.94   10.36
   5 -10   6   40.94    9.42
  -6  10  -6   13.78    5.53
   6 -10   6   16.23    7.66
   6 -10   6    4.24    8.76
   5   9  -6   -0.83    5.81
   5   9  -6   -2.66    5.25
  -5  -9   6    4.31    6.28
   4   9  -6    9.40    6.39
   4   9  -6    6.25    5.92
  -4  -9   6    4.80    5.36
  -4  -9   6    6.08    5.15
   3   9  -6    5.06    5.50
   3   9  -6    7.12    5.22
  -3  -9   6    9.80    4.67
  -3  -9   6    7.31    5.87
  -3  -9   6    3.15    4.97
   2   9  -6   23.01    6.64
   2   9  -6   28.43    7.54
  -2  -9   6   41.48    7.51
  -2  -9   6   25.53    7.19
  -2  -9   6   27.48    6.77
   1   9  -6   15.33    6.51
   1   9  -6   10.83    5.30
  -1  -9   6    3.27    4.48
  -1  -9   6    7.99    4.68
  -1  -9   6   17.15    5.58
   0   9  -6   19.13    5.52
   0   9  -6   26.63    6.89
   0  -9   6   11.26    4.66
   0  -9   6   18.22    6.14
   0  -9   6   21.56    6.73
  -1   9  -6   38.27    7.85
  -1   9  -6   32.50    6.49
   1  -9   6   32.10    8.78
   1  -9   6   26.50    5.43
   1  -9   6   25.89    6.68
  -2   9  -6    4.96    4.68
  -2   9  -6   -4.20    2.36
   2  -9   6    4.21    4.72
   2  -9   6    7.28    5.70
  -3   9  -6    2.54    4.37
  -3   9  -6   -2.57    2.99
   3  -9   6    2.81    5.67
   3  -9   6    7.91    5.25
  -4   9  -6   77.70   11.04
  -4   9  -6   43.38    7.63
   4  -9   6   52.85   11.45
   4  -9   6   77.12   11.05
  -5   9  -6   22.58    5.84
  -5   9  -6   29.44    7.53
   5  -9   6   31.43    7.98
   5  -9   6   13.87    8.26
  -6   9  -6    4.26    4.36
   6  -9   6    2.79    7.94
   6  -9   6    2.61    5.48
  -7   9  -6    9.80    5.32
   7  -9   6   -3.67    7.73
   7  -9   6   15.20    7.60
   6   8  -6   -3.76    5.47
  -6  -8   6   11.80    7.06
   5   8  -6  -10.25    4.01
  -5  -8   6   -1.90    4.83
   4   8  -6    6.90    5.86
   4   8  -6    4.33    5.47
  -4  -8   6   -0.15    4.71
   3   8  -6   41.32    8.35
   3   8  -6   36.52    8.31
  -3  -8   6   29.90    7.60
  -3  -8   6   40.98    9.63
  -3  -8   6   57.64    9.15
   2   8  -6   13.87    5.77
   2   8  -6   18.74    5.87
  -2  -8   6   11.99    6.82
  -2  -8   6   20.80    5.99
  -2  -8   6   13.97    5.44
   1   8  -6   19.56    6.14
   1   8  -6   29.67    6.52
  -1  -8   6   23.88    6.62
  -1  -8   6   19.38    7.26
  -1  -8   6   25.49    5.98
   0   8  -6    6.30    4.19
   0   8  -6   -2.09    3.68
   0   8  -6    3.58    1.86
   0  -8   6    5.11    3.48
   0  -8   6    3.02    3.05
   0  -8   6    0.45    4.14
  -1   8  -6    1.09    4.46
  -1   8  -6   -4.00    2.49
   1  -8   6   -4.21    4.28
   1  -8   6    3.46    4.05
   1  -8   6   -2.04    2.51
  -2   8  -6    7.66    4.27
  -2   8  -6    1.83    2.98
   2  -8   6    0.91    4.97
   2  -8   6    5.42    4.37
  -3   8  -6    1.25    4.10
  -3   8  -6   -0.37    3.11
   3  -8   6   -2.10    3.38
   3  -8   6   -1.97    4.40
  -4   8  -6    1.32    4.27
  -4   8  -6    6.09    3.58
   4  -8   6   -5.00    4.45
   4  -8   6   -1.92    3.77
  -5   8  -6    7.08    4.88
  -5   8  -6   -1.92    3.13
   5  -8   6   -2.76    5.39
   5  -8   6   -5.22    4.54
  -6   8  -6   75.49   10.49
   6  -8   6   86.98   15.40
   6  -8   6   90.00   12.03
  -7   8  -6   -2.27    3.78
  -7   8  -6    7.50    5.51
   7  -8   6    1.34    5.59
   7  -8   6    4.98    7.86
  -8   8  -6   -7.38    4.07
  -8   8  -6   -4.14    4.83
   8  -8   6    5.26    8.92
   8  -8   6    2.79    7.10
   7   7  -6    0.77    5.72
  -7  -7   6   -0.71    5.78
   6   7  -6    1.99    5.03
  -6  -7   6   -8.20    3.59
  -6  -7   6   -1.05    6.27
   5   7  -6   -5.60    4.12
  -5  -7   6    6.54    6.59
  -5  -7   6   17.36    4.37
   4   7  -6   65.27   10.20
  -4  -7   6   61.65   11.17
  -4  -7   6   86.27    9.60
  -4  -7   6   62.95   10.06
   3   7  -6    6.66    4.98
   3   7  -6   19.95    6.13
  -3  -7   6   17.56    6.00
  -3  -7   6   17.79    7.11
  -3  -7   6   17.64    5.72
   2   7  -6   40.95    7.50
   2   7  -6   34.97    7.05
  -2  -7   6   26.29    6.50
  -2  -7   6   21.29    7.25
  -2  -7   6   35.85    7.93
   1   7  -6   52.27    8.23
   1   7  -6   58.07    8.46
  -1  -7   6   41.94    7.18
  -1  -7   6   38.58    8.53
  -1  -7   6   54.52    9.45
   0   7  -6   28.41    5.75
   0   7  -6   16.61    5.10
   0  -7   6   12.22    4.89
   0  -7   6   14.35    6.06
   0  -7   6   19.49    6.17
  -1   7  -6   26.74    5.58
  -1   7  -6   27.71    6.25
   1  -7   6   41.87    6.71
   1  -7   6   23.60    4.23
   1  -7   6   38.10    8.02
   1  -7   6   24.12    7.25
  -2   7  -6   -3.99    3.34
  -2   7  -6   -3.27    2.99
   2  -7   6    1.17    3.81
   2  -7   6    0.62    4.46
   2  -7   6    5.25    5.20
  -3   7  -6   43.39    7.24
  -3   7  -6   37.89    6.69
   3  -7   6   32.16    8.55
   3  -7   6   39.23    7.32
  -4   7  -6    8.56    4.57
  -4   7  -6    9.36    4.14
   4  -7   6    0.64    4.19
   4  -7   6   -2.59    4.84
  -5   7  -6   29.35    6.41
  -5   7  -6   56.72    8.13
   5  -7   6   47.43   10.62
   5  -7   6   50.26    8.28
  -6   7  -6   -6.02    4.05
  -6   7  -6   -2.17    3.77
   6  -7   6   -0.03    4.99
   6  -7   6    2.12    6.51
  -7   7  -6   49.26    8.56
  -7   7  -6   24.79    6.78
   7  -7   6   56.12   12.42
   7  -7   6   60.50   10.04
  -8   7  -6    8.09    5.53
  -8   7  -6   -0.14    4.39
   8  -7   6    2.71    5.68
   8  -7   6   -6.64    6.49
  -8  -6   6    0.90    6.40
  -8  -6   6   -0.29    5.30
   7   6  -6    2.41    5.58
  -7  -6   6   -5.64    6.37
  -7  -6   6   -2.65    5.79
  -7  -6   6   -0.68    5.47
   6   6  -6   -0.74    4.69
  -6  -6   6    0.02    4.73
  -6  -6   6    2.05    4.35
  -6  -6   6   -4.34    4.98
   5   6  -6   -1.82    4.11
  -5  -6   6    4.12    4.52
  -5  -6   6    3.14    4.32
  -5  -6   6    9.65    6.37
   4   6  -6    5.85    1.97
   4   6  -6    8.17    4.81
  -4  -6   6    7.25    5.56
   3   6  -6    2.67    1.16
   3   6  -6   -1.11    3.50
   3   6  -6   -0.32    4.08
  -3  -6   6    0.81    4.75
   2   6  -6   79.35    9.85
   2   6  -6   73.07    9.54
  -2  -6   6   54.05    8.48
  -2  -6   6   61.93   10.37
  -2  -6   6   75.42   11.05
   1   6  -6    7.70    4.29
   1   6  -6    9.22    4.40
  -1  -6   6    5.32    4.98
  -1  -6   6    2.09    3.63
  -1  -6   6    9.71    4.90
   0   6  -6  192.77   14.63
   0   6  -6  171.14   14.54
   0  -6   6  161.09   14.36
   0  -6   6  178.38   16.40
   0  -6   6  170.61   17.05
  -1   6  -6   -1.93    2.91
  -1   6  -6   -0.33    3.08
   1  -6   6   -0.54    4.01
   1  -6   6    0.55    3.20
   1  -6   6    3.16    3.28
   1  -6   6    3.19    1.62
   1  -6   6   -2.27    4.19
  -2   6  -6   88.41    9.58
  -2   6  -6   75.76    9.30
   2  -6   6   79.89    9.19
   2  -6   6   92.52    9.92
   2  -6   6   79.08   11.81
   2  -6   6   71.45    6.00
   2  -6   6   56.65   10.02
   2  -6   6   72.82    7.07
  -3   6  -6    6.18    3.91
  -3   6  -6   14.73    4.68
   3  -6   6   18.25    4.62
   3  -6   6   17.33    4.89
   3  -6   6   10.41    3.54
   3  -6   6    6.01    5.12
   3  -6   6   19.21    6.75
  -4   6  -6   21.00    5.17
  -4   6  -6   19.94    5.33
   4  -6   6   26.60    7.50
   4  -6   6   31.52    6.07
  -5   6  -6    1.93    3.63
  -5   6  -6    0.75    3.78
   5  -6   6    3.73    5.74
   5  -6   6   -5.39    3.84
  -6   6  -6   42.62    7.38
  -6   6  -6   34.00    7.03
  -6   6  -6   48.89    7.58
   6  -6   6   32.18    9.63
   6  -6   6   43.91    7.51
  -7   6  -6   -4.14    3.96
  -7   6  -6    1.53    4.04
   7  -6   6    4.05    4.93
   7  -6   6   -0.02    5.99
  -8   6  -6    6.54    5.43
  -8   6  -6   -0.20    4.17
   8  -6   6    6.10    5.23
   8  -6   6    7.13    8.12
  -9   6  -6   17.93    6.46
   9  -6   6   41.28   10.26
   9  -6   6   36.75   12.73
   8   5  -6    5.46    6.36
  -8  -5   6   -3.53    6.59
  -8  -5   6   -5.61    5.69
  -8  -5   6   -6.63    4.78
   7   5  -6   12.56    6.70
  -7  -5   6   15.18    6.74
  -7  -5   6   14.22    6.42
  -7  -5   6   17.96    7.43
   6   5  -6   -4.26    2.81
  -6  -5   6    0.83    3.96
  -6  -5   6   -2.86    4.90
  -6  -5   6   -1.96    4.46
   5   5  -6   13.98    5.26
  -5  -5   6   11.76    5.94
  -5  -5   6   22.32    5.98
  -5  -5   6   12.99    4.93
   4   5  -6    4.62    2.04
   4   5  -6    4.33    3.96
  -4  -5   6    1.07    4.06
  -4  -5   6    5.31    4.79
  -4  -5   6    2.50    3.69
   3   5  -6   20.29    5.79
   3   5  -6   21.35    5.57
  -3  -5   6   20.48    5.63
  -3  -5   6   27.00    6.91
   2   5  -6   -2.11    3.08
   2   5  -6    2.75    3.82
  -2  -5   6    4.38    4.64
   1   5  -6  123.78   11.33
   1   5  -6  135.42   10.36
   1   5  -6  142.42   11.67
  -1  -5   6  134.49   13.01
  -1  -5   6  130.93   11.33
  -1  -5   6  114.29   13.14
  -1  -5   6  122.84   11.41
   0   5  -6   10.78    4.01
   0   5  -6   16.18    4.45
   0   5  -6    8.95    2.98
   0  -5   6   10.62    3.74
   0  -5   6   19.46    5.90
   0  -5   6    6.33    4.67
   0  -5   6   12.55    3.99
  -1   5  -6   20.10    4.77
  -1   5  -6   21.50    4.70
  -1   5  -6   26.62    3.95
   1  -5   6   19.02    6.03
   1  -5   6   23.02    2.92
   1  -5   6   23.29    4.77
   1  -5   6   16.19    4.29
   1  -5   6   15.97    5.96
  -2   5  -6    2.54    3.02
  -2   5  -6    4.31    3.32
   2  -5   6    1.84    2.74
   2  -5   6    0.49    2.09
   2  -5   6    1.12    4.02
   2  -5   6    1.16    2.77
   2  -5   6   -1.50    3.92
  -3   5  -6   28.28    5.20
  -3   5  -6   22.99    5.23
   3  -5   6   30.17    5.01
   3  -5   6   29.07    5.14
   3  -5   6   28.84    5.58
   3  -5   6   27.90    6.23
   3  -5   6   24.88    6.96
  -4   5  -6    9.01    3.87
  -4   5  -6   12.74    4.52
   4  -5   6    7.36    3.73
   4  -5   6   10.10    6.00
   4  -5   6   16.97    5.57
   4  -5   6   15.85    4.41
  -5   5  -6    8.20    4.39
  -5   5  -6   11.34    4.44
  -5   5  -6    9.56    3.85
   5  -5   6   17.97    5.18
   5  -5   6    7.83    5.91
  -6   5  -6    9.01    4.99
  -6   5  -6    5.79    3.85
  -6   5  -6    9.65    4.21
   6  -5   6   14.92    5.57
   6  -5   6    9.79    6.24
  -7   5  -6    0.42    3.99
  -7   5  -6    8.80    5.23
   7  -5   6    7.13    6.92
   7  -5   6    8.32    5.68
  -8   5  -6   24.29    6.87
  -8   5  -6   14.02    5.27
   8  -5   6   42.32    8.90
   8  -5   6   16.38    8.71
  -9   5  -6    6.54    5.30
   9  -5   6   -6.65    6.80
   9  -5   6    4.27    6.56
   9   4  -6   -4.31    5.29
  -9  -4   6    2.02    6.42
  -9  -4   6    3.92    6.57
   8   4  -6   24.33    7.98
  -8  -4   6   31.33    8.01
  -8  -4   6   40.05    8.99
  -8  -4   6   30.43    9.12
   7   4  -6   -0.50    4.40
  -7  -4   6   -5.09    4.37
  -7  -4   6   -4.44    3.89
  -7  -4   6    5.52    5.66
   6   4  -6    8.33    4.91
  -6  -4   6   11.93    5.20
  -6  -4   6   14.08    5.44
  -6  -4   6   19.09    6.41
   5   4  -6   -1.01    3.44
  -5  -4   6   -1.88    4.44
  -5  -4   6    0.52    4.32
  -5  -4   6    2.23    3.79
   4   4  -6    2.08    1.99
   4   4  -6    2.28    3.91
  -4  -4   6    4.00    5.06
  -4  -4   6    1.16    3.59
  -4  -4   6    2.52    3.99
   3   4  -6    3.93    3.59
   3   4  -6    6.45    3.57
  -3  -4   6    1.00    4.07
  -3  -4   6    8.18    4.27
  -3  -4   6    0.46    2.98
   2   4  -6   29.68    5.64
   2   4  -6   38.06    6.54
   2   4  -6   40.42    4.99
  -2  -4   6   30.95    5.87
  -2  -4   6   26.69    5.44
  -2  -4   6   44.30    7.54
   1   4  -6   -1.65    2.83
   1   4  -6    2.56    2.95
   1   4  -6    1.54    1.99
  -1  -4   6    2.67    3.39
  -1  -4   6    0.25    2.72
   0   4  -6    1.75    1.81
   0   4  -6   -0.34    2.78
   0   4  -6   -3.02    2.37
   0  -4   6   -2.24    3.73
   0  -4   6    3.06    4.09
   0  -4   6    3.31    2.43
   0  -4   6   -3.06    2.25
  -1   4  -6   38.38    4.13
  -1   4  -6   44.28    5.77
  -1   4  -6   35.77    5.89
   1  -4   6   37.43    5.30
   1  -4   6   34.29    6.84
   1  -4   6   31.73    5.01
   1  -4   6   43.81    7.86
   1  -4   6   33.64    3.64
  -2   4  -6   -2.45    2.63
  -2   4  -6    4.01    2.79
   2  -4   6    3.85    4.45
   2  -4   6    1.24    3.51
   2  -4   6   -0.30    2.57
   2  -4   6    1.60    2.45
   2  -4   6    0.52    2.09
  -3   4  -6    5.69    2.95
  -3   4  -6    6.45    3.55
   3  -4   6    4.68    3.84
   3  -4   6    8.34    2.96
   3  -4   6    3.20    2.89
   3  -4   6    4.58    4.55
   3  -4   6    5.44    2.66
  -4   4  -6   22.68    4.27
  -4   4  -6   30.57    4.86
  -4   4  -6   10.38    4.40
   4  -4   6   21.87    6.35
   4  -4   6   29.96    4.76
   4  -4   6   26.39    5.84
   4  -4   6   22.06    4.93
  -5   4  -6   10.67    4.44
  -5   4  -6   11.79    3.86
  -5   4  -6    5.47    3.15
   5  -4   6   12.53    4.09
   5  -4   6    7.25    4.26
   5  -4   6    9.45    5.74
   5  -4   6   14.47    4.77
  -6   4  -6    5.38    3.64
  -6   4  -6    0.77    4.27
  -6   4  -6   -3.20    2.69
   6  -4   6   11.14    6.29
   6  -4   6    0.05    4.03
  -7   4  -6   41.94    7.21
  -7   4  -6   43.62    8.58
   7  -4   6   65.37   11.85
   7  -4   6   57.83    8.91
  -8   4  -6   -0.88    3.30
  -8   4  -6   -1.06    4.63
   8  -4   6   -2.98    6.84
   8  -4   6    0.68    5.29
  -9   4  -6   -0.32    4.23
   9  -4   6   -4.05    8.66
   9  -4   6    2.23    6.31
   9   3  -6   34.62    9.63
  -9  -3   6   57.30   11.06
  -9  -3   6   62.07   11.75
   8   3  -6   -0.81    4.67
  -8  -3   6   10.00    6.09
  -8  -3   6   10.43    5.77
  -8  -3   6    5.82    5.48
   7   3  -6    0.13    4.36
  -7  -3   6   -3.82    4.23
  -7  -3   6    2.70    5.16
  -7  -3   6   -1.74    4.40
   6   3  -6   -1.80    3.70
  -6  -3   6    2.89    4.53
  -6  -3   6   13.01    5.42
  -6  -3   6    5.53    4.44
   5   3  -6   27.07    4.48
   5   3  -6   19.23    5.19
  -5  -3   6   20.29    5.90
  -5  -3   6   25.74    6.68
  -5  -3   6   20.68    5.23
   4   3  -6   51.72    8.03
   4   3  -6   67.59    6.19
  -4  -3   6   92.28   11.01
  -4  -3   6   78.31    8.27
  -4  -3   6   60.65    8.57
   3   3  -6   54.27    6.51
   3   3  -6   58.33    7.98
   3   3  -6   56.63    7.77
   3   3  -6   60.10    4.85
  -3  -3   6   59.35    7.80
  -3  -3   6   63.37    7.96
  -3  -3   6   72.55    7.52
  -3  -3   6   58.62    9.03
   2   3  -6   58.70    7.19
   2   3  -6   66.69    8.10
   2   3  -6   58.25    5.52
  -2  -3   6   54.25    7.05
  -2  -3   6   55.79    8.65
  -2  -3   6   65.39    7.49
  -2  -3   6   63.78    5.71
   1   3  -6    3.96    1.71
   1   3  -6    1.42    2.87
   1   3  -6   -0.90    2.40
  -1  -3   6    0.34    3.55
  -1  -3   6    2.96    2.38
  -1  -3   6    5.88    2.93
   0   3  -6  104.75    8.19
   0   3  -6  101.17    8.82
   0   3  -6   86.57    6.67
   0  -3   6   96.57    9.94
   0  -3   6   96.25    8.08
   0  -3   6   95.16    8.16
  -1   3  -6   20.71    3.97
  -1   3  -6   18.73    2.29
  -1   3  -6   21.13    4.42
  -1   3  -6   18.50    3.42
   1  -3   6   12.44    5.24
   1  -3   6   22.40    5.31
   1  -3   6   12.01    2.53
   1  -3   6   19.13    3.46
   1  -3   6   17.70    3.25
  -2   3  -6   56.46    7.34
  -2   3  -6   62.47    5.81
   2  -3   6   60.48    5.73
   2  -3   6   57.78    5.98
   2  -3   6   65.18    8.48
   2  -3   6   72.84   10.18
   2  -3   6   57.05    5.81
  -3   3  -6    3.50    2.93
  -3   3  -6    4.43    3.05
  -3   3  -6    0.15    1.83
  -3   3  -6    0.83    2.16
   3  -3   6   -0.20    1.96
   3  -3   6   -1.09    2.23
   3  -3   6   -0.01    3.27
   3  -3   6    1.20    4.36
   3  -3   6    1.68    2.33
  -4   3  -6   47.52    5.77
  -4   3  -6   39.58    6.86
  -4   3  -6   46.12    5.60
   4  -3   6   45.07    5.98
   4  -3   6   50.82    7.01
   4  -3   6   48.74    9.04
   4  -3   6   49.19    5.87
  -5   3  -6   -0.57    2.14
  -5   3  -6   -0.20    2.88
  -5   3  -6    2.93    2.84
   5  -3   6    2.08    3.52
   5  -3   6   -6.46    3.71
   5  -3   6   -1.42    2.21
   5  -3   6   -2.72    3.11
  -6   3  -6   70.80   10.56
  -6   3  -6   92.06    8.68
  -6   3  -6   76.57    9.22
   6  -3   6   91.58   13.37
   6  -3   6  102.45    9.68
  -7   3  -6   -0.03    3.56
  -7   3  -6   -5.05    2.85
   7  -3   6    8.64    5.14
   7  -3   6    0.34    5.62
  -8   3  -6   23.19    6.05
   8  -3   6   27.97    7.05
   8  -3   6   41.48   10.31
  -9   3  -6   -0.84    4.54
   9  -3   6   -9.52    6.47
   9  -3   6    2.42    6.29
   9   2  -6   -1.68    5.35
  -9  -2   6    9.82    6.95
  -9  -2   6   -3.03    5.40
   8   2  -6   -3.86    4.47
  -8  -2   6    2.52    5.12
  -8  -2   6   -0.53    4.53
  -8  -2   6   -1.08    4.91
   7   2  -6   17.03    6.26
  -7  -2   6   29.19    6.96
  -7  -2   6   31.21    7.30
  -7  -2   6   20.91    7.12
   6   2  -6    5.95    3.47
  -6  -2   6    5.52    4.88
  -6  -2   6   -5.92    3.23
  -6  -2   6    2.38    3.94
   5   2  -6    6.47    4.18
   5   2  -6   10.01    3.41
  -5  -2   6   10.36    4.68
  -5  -2   6   12.39    4.36
  -5  -2   6   12.63    4.98
   4   2  -6    1.75    2.99
   4   2  -6    6.81    2.50
  -4  -2   6   10.90    4.21
  -4  -2   6    8.73    4.45
  -4  -2   6   20.29    4.31
   3   2  -6   27.49    5.19
   3   2  -6   35.26    6.14
   3   2  -6   32.81    3.72
   3   2  -6   30.07    5.24
   3   2  -6   29.14    4.41
  -3  -2   6   19.30    4.74
  -3  -2   6   30.99    6.46
  -3  -2   6   30.62    4.59
  -3  -2   6   27.87    5.26
   2   2  -6   36.75    6.13
   2   2  -6   39.45    5.40
   2   2  -6   38.29    5.99
   2   2  -6   28.27    3.93
  -2  -2   6   38.75    4.40
  -2  -2   6   32.77    6.52
  -2  -2   6   32.90    5.20
  -2  -2   6   35.32    5.27
   1   2  -6  200.02   17.39
   1   2  -6  214.10   15.04
   1   2  -6  214.88   14.41
   1   2  -6  171.49   14.23
   1   2  -6  199.63   12.94
  -1  -2   6  200.27   14.45
  -1  -2   6  197.72   14.29
  -1  -2   6  190.49   13.42
  -1  -2   6  193.27   16.64
   0   2  -6   41.04    4.43
   0   2  -6   40.17    5.51
   0   2  -6   34.23    6.21
   0   2  -6   40.29    4.01
   0  -2   6   38.90    4.38
   0  -2   6   32.37    3.39
   0  -2   6   35.74    6.47
  -1   2  -6   11.21    4.36
  -1   2  -6   10.71    2.32
  -1   2  -6   15.90    3.83
   1  -2   6   16.17    2.61
   1  -2   6   13.88    2.55
   1  -2   6   14.88    4.41
  -2   2  -6    5.11    3.78
  -2   2  -6    1.75    1.50
  -2   2  -6   -3.30    2.11
  -2   2  -6    6.05    1.34
   2  -2   6    4.10    4.09
   2  -2   6   -0.71    2.92
   2  -2   6    1.77    1.69
   2  -2   6    4.54    1.96
  -3   2  -6    4.46    3.40
  -3   2  -6   11.04    4.47
  -3   2  -6    7.23    2.17
  -3   2  -6    9.09    2.18
   3  -2   6    3.22    4.25
   3  -2   6    9.92    2.45
   3  -2   6    9.12    2.67
   3  -2   6    3.12    3.32
  -4   2  -6   48.81    5.47
  -4   2  -6   39.18    7.55
  -4   2  -6   41.51    3.90
  -4   2  -6   38.98    6.55
   4  -2   6   35.48    5.00
   4  -2   6   50.20    6.45
   4  -2   6   38.37    4.82
   4  -2   6   33.53    7.78
  -5   2  -6    2.42    1.83
  -5   2  -6    3.17    4.13
  -5   2  -6    9.28    3.33
   5  -2   6    0.29    3.32
   5  -2   6    2.75    2.64
   5  -2   6   -0.04    4.23
   5  -2   6   -0.12    2.91
  -6   2  -6    7.29    4.55
  -6   2  -6    5.37    2.71
  -6   2  -6    0.37    3.09
   6  -2   6    3.43    4.91
   6  -2   6    1.94    3.49
  -7   2  -6   30.75    6.41
  -7   2  -6   24.82    7.10
   7  -2   6   47.05    9.59
   7  -2   6   24.38    5.98
  -8   2  -6   10.37    5.17
   8  -2   6    5.71    7.09
   8  -2   6    5.68    5.40
  -9   2  -6    9.68    5.67
   9  -2   6    3.07    8.86
   9  -2   6    1.25    5.52
 -10  -1   6   -1.31    5.45
   9   1  -6   -0.29    5.34
  -9  -1   6   -2.78    5.03
  -9  -1   6   12.15    6.20
   8   1  -6    0.23    4.80
  -8  -1   6   11.75    6.05
  -8  -1   6   -2.76    4.36
  -8  -1   6   11.06    5.37
   7   1  -6    2.52    4.75
  -7  -1   6    4.70    4.49
  -7  -1   6    4.30    4.40
  -7  -1   6   -2.24    3.68
   6   1  -6   42.40    7.45
  -6  -1   6   36.88    6.93
  -6  -1   6   33.52    7.21
  -6  -1   6   41.04    7.78
   5   1  -6    4.58    3.90
   5   1  -6    0.41    2.80
   5   1  -6   -1.86    2.26
  -5  -1   6    4.11    3.87
  -5  -1   6   -3.94    3.34
  -5  -1   6   -2.11    3.72
   4   1  -6   88.46    7.85
   4   1  -6   73.44    8.80
   4   1  -6   78.01    8.58
  -4  -1   6   91.42    8.13
  -4  -1   6   68.37    8.91
  -4  -1   6   72.57   10.20
  -4  -1   6   91.34    8.88
   3   1  -6   10.94    2.54
   3   1  -6   13.15    3.93
   3   1  -6    6.95    3.45
   3   1  -6    8.32    3.88
  -3  -1   6   10.22    3.63
  -3  -1   6    9.08    2.63
  -3  -1   6    4.54    3.41
  -3  -1   6    7.91    2.93
  -3  -1   6    5.87    4.16
   2   1  -6   21.53    4.95
   2   1  -6   23.62    3.10
   2   1  -6   17.86    3.60
   2   1  -6   21.42    4.41
  -2  -1   6   20.29    3.08
  -2  -1   6   18.73    3.79
  -2  -1   6   21.47    3.16
  -2  -1   6   24.28    5.46
  -2  -1   6   16.20    3.78
   1   1  -6   -0.82    2.69
   1   1  -6    0.36    2.32
   1   1  -6    0.42    1.87
   1   1  -6    1.16    1.93
  -1  -1   6   -2.64    1.95
  -1  -1   6   -0.90    1.85
  -1  -1   6    2.26    2.19
  -1  -1   6    1.23    1.12
  -1  -1   6    0.74    1.50
   0   1  -6   48.15    7.69
   0   1  -6   54.25    6.47
   0   1  -6   49.77    4.49
   0  -1   6   56.93    5.06
   0  -1   6   53.28    4.80
   0  -1   6   46.94    7.28
   0  -1   6   53.67    4.65
  -1   1  -6    4.77    2.07
  -1   1  -6   -0.15    2.19
  -1   1  -6   -1.59    2.06
   1  -1   6   -0.65    2.75
   1  -1   6    3.35    1.31
   1  -1   6    4.74    1.50
  -2   1  -6   -5.11    2.14
  -2   1  -6    1.58    2.63
  -2   1  -6    0.05    0.98
  -2   1  -6    3.69    2.19
   2  -1   6   -0.44    1.17
   2  -1   6   -2.96    3.02
   2  -1   6   -0.62    1.02
   2  -1   6   -3.28    2.64
  -3   1  -6   93.41   11.04
  -3   1  -6  100.25    8.16
  -3   1  -6  106.78    7.80
  -3   1  -6  117.86    9.93
   3  -1   6  101.39    7.76
   3  -1   6  111.58    8.01
   3  -1   6   96.26   11.30
   3  -1   6  113.92    9.88
  -4   1  -6    8.63    1.76
  -4   1  -6    7.28    2.51
  -4   1  -6   11.75    4.00
  -4   1  -6    8.13    4.31
  -4   1  -6    9.40    1.98
  -4   1  -6   10.59    3.15
   4  -1   6    8.89    2.73
   4  -1   6   13.87    2.69
   4  -1   6    7.65    3.38
   4  -1   6   15.55    5.25
  -5   1  -6    2.37    4.02
  -5   1  -6    1.30    2.19
  -5   1  -6   -2.20    2.61
  -5   1  -6   -3.57    3.79
   5  -1   6    0.01    2.31
   5  -1   6    2.32    2.77
   5  -1   6   -0.64    2.46
   5  -1   6   -2.30    4.34
  -6   1  -6   56.12    7.81
  -6   1  -6   62.71    6.11
  -6   1  -6   46.57    8.32
  -6   1  -6   59.78    9.21
   6  -1   6   59.99    5.51
   6  -1   6   62.96   10.18
   6  -1   6   55.59    7.14
  -7   1  -6   -0.27    3.35
  -7   1  -6    5.58    3.03
   7  -1   6    8.69    6.18
   7  -1   6    1.30    3.81
  -8   1  -6   -4.75    3.60
   8  -1   6   -9.18    5.69
   8  -1   6   14.46    5.36
  -9   1  -6    4.14    5.22
   9  -1   6   14.32    6.53
   9  -1   6   22.22    9.19
  10   0  -6    8.73    7.09
 -10   0   6    8.45    7.70
 -10   0   6   24.03    7.41
   9   0  -6    8.27    6.16
  -9   0   6    8.62    6.76
  -9   0   6   18.55    6.00
  -9   0   6    9.74    5.75
   8   0  -6    6.19    5.82
  -8   0   6    6.31    6.07
  -8   0   6    2.50    4.17
  -8   0   6    2.20    4.71
   7   0  -6   31.65    7.46
  -7   0   6   33.02    7.74
  -7   0   6   30.46    6.88
  -7   0   6   51.77    8.43
   6   0  -6   -1.06    2.29
   6   0  -6    1.37    4.24
  -6   0   6    0.31    3.59
  -6   0   6    7.74    4.20
  -6   0   6    9.20    4.87
   5   0  -6    6.78    3.99
   5   0  -6   -0.73    2.56
  -5   0   6    3.61    4.18
  -5   0   6   -7.42    3.33
  -5   0   6    3.02    3.85
  -5   0   6   -3.44    2.66
   4   0  -6    2.01    2.58
   4   0  -6   -2.20    2.62
   4   0  -6   -0.75    2.79
  -4   0   6   -4.62    2.81
  -4   0   6   -0.07    2.52
  -4   0   6    0.65    3.16
  -4   0   6   -0.37    3.23
  -4   0   6    1.61    3.00
   3   0  -6    1.87    2.71
   3   0  -6    3.14    3.19
   3   0  -6    0.85    2.17
   3   0  -6   -0.40    2.55
  -3   0   6    3.55    2.88
  -3   0   6   -0.17    2.47
  -3   0   6    4.96    2.58
  -3   0   6    0.05    2.71
  -3   0   6    4.14    3.97
   2   0  -6   86.16    7.17
   2   0  -6   72.03    7.12
   2   0  -6   82.96    7.41
   2   0  -6   76.04    8.83
   2   0  -6   82.35    7.17
  -2   0   6   80.03    8.88
  -2   0   6   83.72    7.34
  -2   0   6   84.87    7.33
  -2   0   6   87.15    6.63
  -2   0   6   73.84    7.45
   1   0  -6  178.72   13.61
   1   0  -6  187.84   12.98
   1   0  -6  169.99   16.36
  -1   0   6  186.09   12.20
  -1   0   6  191.58   13.19
  -1   0   6  188.83   13.24
  -1   0   6  187.18   13.93
   0   0  -6  164.78   11.65
   0   0  -6  163.06   15.83
   0   0  -6  203.49   13.47
   0   0  -6  154.25   11.65
   0   0  -6  197.93   13.47
   0   0   6  182.37   12.25
   0   0   6  189.61   13.65
   0   0   6  189.12   11.17
   0   0   6  181.44   11.14
   0   0   6  186.16   12.23
  -1   0  -6   54.73    6.00
  -1   0  -6   53.84    6.45
  -1   0  -6   51.77    7.93
   1   0   6   56.75    3.74
   1   0   6   57.46    3.78
   1   0   6   46.39    3.72
  -2   0  -6  137.95   13.74
  -2   0  -6  139.62   11.68
  -2   0  -6  154.56   11.09
   2   0   6  149.92   13.80
   2   0   6  144.91   12.63
   2   0   6  146.49    9.92
  -3   0  -6    1.59    3.59
  -3   0  -6    3.53    2.09
  -3   0  -6   -0.67    2.97
  -3   0  -6    4.58    2.70
   3   0   6    1.16    2.86
   3   0   6    3.85    1.94
   3   0   6    7.27    1.64
   3   0   6    1.32    3.86
   3   0   6    3.15    1.29
  -4   0  -6   -0.98    3.57
  -4   0  -6   -0.17    2.23
  -4   0  -6    0.31    3.01
  -4   0  -6   -0.90    2.42
   4   0   6    0.31    1.77
   4   0   6    3.40    2.54
   4   0   6   -1.12    3.46
   4   0   6    1.09    2.79
   4   0   6   -0.34    1.86
  -5   0  -6    8.76    4.74
  -5   0  -6    7.90    3.12
  -5   0  -6   14.86    5.27
  -5   0  -6   10.60    3.61
  -5   0  -6   10.45    2.30
   5   0   6    5.98    3.07
   5   0   6   10.25    3.16
   5   0   6   14.82    5.47
   5   0   6   11.14    3.00
  -6   0  -6   -0.56    3.17
  -6   0  -6   -1.86    2.39
  -6   0  -6   -0.88    3.22
  -6   0  -6    0.30    3.03
   6   0   6   -4.25    4.35
   6   0   6    1.99    3.26
  -7   0  -6    5.51    4.28
  -7   0  -6    3.01    3.98
  -7   0  -6    9.85    4.78
   7   0   6   11.13    6.79
   7   0   6    4.29    3.88
  -8   0  -6    4.28    3.98
  -8   0  -6    8.70    4.71
   8   0   6   -1.42    5.78
   8   0   6    9.83    4.78
  -9   0  -6    9.73    6.08
   9   0   6    2.38    5.24
  10  -1  -6   -5.82    5.73
 -10   1   6   -2.82    4.68
 -10   1   6    2.82    6.99
   9  -1  -6   -4.44    5.30
  -9   1   6   -3.62    5.00
  -9   1   6    3.55    3.96
  -9   1   6   12.45    5.80
   8  -1  -6   26.55    7.86
  -8   1   6   40.49    7.98
  -8   1   6   52.85    8.47
  -8   1   6   32.44    8.31
   7  -1  -6   13.40    5.60
  -7   1   6   12.56    5.20
  -7   1   6   10.85    5.96
  -7   1   6   22.61    6.26
   6  -1  -6   -5.00    3.04
   6  -1  -6    3.12    2.68
  -6   1   6   -2.45    3.24
  -6   1   6   -1.10    3.27
  -6   1   6   -1.37    4.19
  -6   1   6    2.66    3.87
   5  -1  -6   37.47    6.20
   5  -1  -6   30.79    6.28
  -5   1   6   49.81    7.02
  -5   1   6   43.56    7.33
  -5   1   6   36.56    6.59
   4  -1  -6   41.04    6.66
   4  -1  -6   50.38    6.48
   4  -1  -6   43.39    6.59
  -4   1   6   43.76    6.32
  -4   1   6   41.51    6.78
  -4   1   6   42.44    6.37
  -4   1   6   47.40    6.66
   3  -1  -6   10.94    3.36
   3  -1  -6   10.83    3.18
   3  -1  -6   10.89    3.93
   3  -1  -6    6.10    3.23
  -3   1   6    8.65    3.09
  -3   1   6   11.83    3.46
  -3   1   6    9.26    3.40
  -3   1   6    4.44    3.16
   2  -1  -6   25.99    4.07
   2  -1  -6   25.04    5.63
   2  -1  -6   29.02    4.40
   2  -1  -6   27.51    4.48
   2  -1  -6   23.14    3.90
  -2   1   6   28.83    4.55
  -2   1   6   27.07    4.40
  -2   1   6   26.72    4.14
   1  -1  -6    4.32    2.30
   1  -1  -6    6.74    2.68
   1  -1  -6    5.31    1.95
   1  -1  -6    8.89    4.01
  -1   1   6    6.24    2.42
  -1   1   6    1.41    2.49
  -1   1   6    5.66    2.08
   0  -1  -6   88.70    7.24
   0  -1  -6   69.40    6.51
   0  -1  -6   73.02    9.59
   0   1   6   67.44    7.04
   0   1   6   64.84    5.18
   0   1   6   71.17    5.53
   0   1   6   73.92    5.46
  -1  -1  -6   88.51    8.05
  -1  -1  -6   98.48    8.21
  -1  -1  -6   84.99    9.76
   1   1   6   96.70    8.77
   1   1   6   94.10    6.80
  -2  -1  -6   34.43    4.87
  -2  -1  -6   26.86    4.83
  -2  -1  -6   21.33    5.54
   2   1   6   24.95    3.39
  -3  -1  -6   52.15    8.49
  -3  -1  -6   74.03    7.43
  -3  -1  -6   57.96    7.68
  -3  -1  -6   60.73    5.71
   3   1   6   65.46    8.87
   3   1   6   55.27    4.47
   3   1   6   56.08    4.42
   3   1   6   51.14    5.86
  -4  -1  -6   35.59    7.26
  -4  -1  -6   44.05    5.68
  -4  -1  -6   46.27    7.18
  -4  -1  -6   52.93    6.45
   4   1   6   42.58    4.66
   4   1   6   36.04    5.39
   4   1   6   42.88    4.32
   4   1   6   51.95    7.66
  -5  -1  -6    1.16    2.83
  -5  -1  -6    0.81    2.81
  -5  -1  -6    2.61    4.36
  -5  -1  -6   -1.21    3.48
   5   1   6    0.73    2.41
   5   1   6   -5.39    3.50
   5   1   6   -1.58    2.18
   5   1   6    0.24    2.34
  -6  -1  -6   14.68    4.74
  -6  -1  -6   13.15    5.12
  -6  -1  -6   14.35    4.69
   6   1   6   20.82    6.26
   6   1   6   15.29    4.05
  -7  -1  -6   -2.87    3.46
  -7  -1  -6   -1.79    3.53
  -7  -1  -6   -5.92    2.92
   7   1   6   -5.30    2.94
   7   1   6   -1.36    5.04
  -8  -1  -6   14.39    5.63
  -8  -1  -6    3.04    4.26
   8   1   6   14.38    5.51
  -9  -1  -6   38.67    7.76
  -9  -1  -6   36.93    8.70
   9   1   6   32.76    7.45
  10  -2  -6   -3.37    5.87
 -10   2   6   -0.56    6.50
 -10   2   6   -2.50    4.81
   9  -2  -6   -3.09    4.82
  -9   2   6    2.13    4.56
  -9   2   6    4.95    4.15
  -9   2   6    9.63    7.05
   8  -2  -6    0.46    4.77
  -8   2   6   10.74    6.14
  -8   2   6   13.07    5.12
  -8   2   6   10.30    5.26
   7  -2  -6   20.72    6.44
  -7   2   6   28.24    6.72
  -7   2   6   43.73    7.89
  -7   2   6   35.20    8.00
  -7   2   6   31.38    7.08
   6  -2  -6   32.44    5.90
   6  -2  -6   30.50    6.61
  -6   2   6   28.56    6.27
  -6   2   6   43.26    7.46
  -6   2   6   19.44    6.14
   5  -2  -6   27.98    5.76
   5  -2  -6   20.60    5.34
  -5   2   6   23.65    5.90
  -5   2   6   12.96    5.02
  -5   2   6   18.88    4.87
   4  -2  -6   10.28    4.34
   4  -2  -6   30.60    4.76
   4  -2  -6   19.49    4.70
  -4   2   6   19.59    4.59
  -4   2   6   23.09    4.79
  -4   2   6   26.07    5.48
  -4   2   6   18.81    5.15
   3  -2  -6    7.05    3.36
   3  -2  -6    3.06    3.54
   3  -2  -6    9.62    3.08
  -3   2   6    3.17    3.50
  -3   2   6    8.49    3.18
  -3   2   6    8.37    3.82
   2  -2  -6   31.42    4.69
   2  -2  -6   42.23    6.21
   2  -2  -6   45.51    5.04
   2  -2  -6   38.76    6.96
  -2   2   6   38.35    5.34
  -2   2   6   33.53    4.74
  -2   2   6   52.89    6.63
   1  -2  -6    1.74    3.04
   1  -2  -6   -1.74    3.34
   1  -2  -6    0.27    1.57
   1  -2  -6    2.88    2.09
  -1   2   6    2.71    2.04
  -1   2   6    2.14    2.16
  -1   2   6   -1.00    2.53
   0  -2  -6   28.66    2.36
   0  -2  -6   28.68    2.34
   0  -2  -6   33.21    4.94
   0  -2  -6   34.24    4.42
   0  -2  -6   30.50    6.30
   0   2   6   33.19    3.51
   0   2   6   31.82    5.23
   0   2   6   30.81    3.51
  -1  -2  -6   50.31    6.12
  -1  -2  -6   42.94    6.09
  -1  -2  -6   52.76    8.10
   1   2   6   52.97    6.95
   1   2   6   47.87    4.99
   1   2   6   43.64    3.83
  -2  -2  -6  111.09    9.06
  -2  -2  -6   90.35   10.85
  -2  -2  -6   95.96    8.72
   2   2   6   93.39    6.72
   2   2   6   90.74    6.75
   2   2   6  100.94    7.91
  -3  -2  -6    0.86    3.74
  -3  -2  -6    3.33    3.50
  -3  -2  -6    5.51    3.47
   3   2   6    5.56    1.76
   3   2   6   10.56    3.98
   3   2   6    5.47    1.95
   3   2   6    5.68    2.58
  -4  -2  -6    2.08    3.69
  -4  -2  -6    1.52    3.26
  -4  -2  -6    3.38    3.91
  -4  -2  -6    5.77    3.10
   4   2   6    0.42    3.37
   4   2   6    3.54    2.19
   4   2   6    3.54    2.28
  -5  -2  -6   42.38    6.42
  -5  -2  -6   37.06    7.36
  -5  -2  -6   36.93    3.75
  -5  -2  -6   42.51    6.69
   5   2   6   44.55    7.22
   5   2   6   30.77    4.71
  -6  -2  -6    4.33    3.98
  -6  -2  -6    1.07    3.12
  -6  -2  -6    3.93    3.73
   6   2   6   -3.75    3.79
   6   2   6    2.96    3.24
  -7  -2  -6    7.69    4.74
  -7  -2  -6   13.73    5.22
  -7  -2  -6    7.55    4.72
   7   2   6    7.21    4.03
  -8  -2  -6   19.15    6.50
  -8  -2  -6   13.44    5.95
   8   2   6   14.21    5.33
  -9  -2  -6    5.25    6.37
  -9  -2  -6    2.49    5.04
   9   2   6    6.73    5.44
 -10   3   6    9.99    6.41
   9  -3  -6    3.29    5.96
  -9   3   6    3.31    4.46
  -9   3   6   16.51    6.43
  -9   3   6    1.55    6.11
   8  -3  -6   20.25    7.16
  -8   3   6   36.28    7.66
  -8   3   6   22.98    7.14
  -8   3   6   17.44    6.56
   7  -3  -6   18.40    4.78
   7  -3  -6   13.71    5.68
  -7   3   6   11.93    5.46
  -7   3   6    7.92    5.65
  -7   3   6   15.79    6.12
   6  -3  -6    5.73    3.73
   6  -3  -6    2.38    3.76
  -6   3   6   12.82    5.55
  -6   3   6    4.51    4.32
  -6   3   6    1.85    4.01
   5  -3  -6   21.35    4.17
   5  -3  -6    9.77    4.47
   5  -3  -6   18.55    5.23
  -5   3   6   28.81    6.36
  -5   3   6   10.36    4.66
  -5   3   6   25.15    5.38
   4  -3  -6   21.21    3.85
   4  -3  -6   20.55    5.68
   4  -3  -6   27.85    5.19
  -4   3   6   14.92    4.59
  -4   3   6   29.53    5.64
  -4   3   6   20.75    5.67
   3  -3  -6    4.05    3.94
   3  -3  -6    2.58    3.30
   3  -3  -6    6.04    2.33
   3  -3  -6    4.85    3.30
  -3   3   6    4.06    3.67
  -3   3   6    4.83    3.22
  -3   3   6    3.62    3.28
   2  -3  -6   45.42    4.93
   2  -3  -6   42.98    5.37
   2  -3  -6   34.66    5.97
   2  -3  -6   26.85    6.98
  -2   3   6   35.91    5.48
  -2   3   6   42.70    5.54
  -2   3   6   48.85    7.11
   1  -3  -6    1.14    1.71
   1  -3  -6    0.13    1.89
   1  -3  -6    0.68    3.04
   1  -3  -6    0.59    3.05
  -1   3   6   -0.73    2.19
  -1   3   6    0.21    2.11
  -1   3   6    2.91    3.34
   0  -3  -6   14.57    4.20
   0  -3  -6   14.37    2.20
   0  -3  -6   13.56    3.12
   0  -3  -6   11.59    2.45
   0  -3  -6    8.64    5.02
   0   3   6   16.01    2.96
   0   3   6   12.33    4.15
   0   3   6   13.21    2.58
  -1  -3  -6  100.05    8.36
  -1  -3  -6   91.68   10.71
  -1  -3  -6   81.33    8.49
   1   3   6   92.70    7.50
   1   3   6   84.31    7.04
   1   3   6   94.89    9.71
  -2  -3  -6   52.20    7.08
  -2  -3  -6   55.45    7.47
  -2  -3  -6   48.17    9.06
   2   3   6   62.14    5.11
   2   3   6   63.38    6.84
   2   3   6   55.10    8.19
   2   3   6   60.70    5.27
  -3  -3  -6   36.27    8.46
  -3  -3  -6   53.45    7.30
  -3  -3  -6   40.17    6.84
   3   3   6   57.38    7.29
   3   3   6   52.47    5.16
   3   3   6   47.80    4.95
  -4  -3  -6   38.32    3.24
  -4  -3  -6   32.67    7.74
  -4  -3  -6   36.65    6.40
   4   3   6   35.68    4.94
   4   3   6   39.90    6.15
   4   3   6   38.48    4.88
  -5  -3  -6   -3.34    3.04
  -5  -3  -6    1.27    3.82
  -5  -3  -6    1.95    2.93
   5   3   6   -0.04    2.54
   5   3   6   -3.13    2.86
  -6  -3  -6    2.25    4.80
  -6  -3  -6    4.57    4.07
  -6  -3  -6   -0.10    3.64
   6   3   6   -0.79    3.32
  -7  -3  -6    9.90    5.25
  -7  -3  -6    9.40    4.79
  -7  -3  -6    8.67    4.87
   7   3   6    2.66    3.79
  -8  -3  -6    6.99    5.09
  -8  -3  -6    0.18    5.82
   8   3   6   -1.28    4.64
   9  -4  -6   10.91    6.51
  -9   4   6   -4.78    4.42
  -9   4   6    2.55    6.48
   8  -4  -6   -1.30    4.96
  -8   4   6    5.47    5.83
  -8   4   6   -1.96    4.04
  -8   4   6   -1.88    4.22
   7  -4  -6   -1.92    4.41
   7  -4  -6    3.30    3.74
  -7   4   6   -0.02    4.65
  -7   4   6   -0.41    4.72
  -7   4   6   -4.27    3.72
   6  -4  -6   77.72   11.22
   6  -4  -6  108.45   12.02
   6  -4  -6   92.65    8.03
  -6   4   6   91.58   11.02
  -6   4   6  109.93   12.89
  -6   4   6   64.56   10.62
   5  -4  -6   15.84    3.14
   5  -4  -6   11.72    4.73
   5  -4  -6   15.39    5.69
  -5   4   6   21.52    6.12
  -5   4   6    8.00    4.37
   4  -4  -6   46.39    4.70
   4  -4  -6   38.36    6.54
   4  -4  -6   20.20    6.47
  -4   4   6   33.56    6.25
  -4   4   6   37.10    6.34
  -4   4   6   50.54    8.36
   3  -4  -6    7.59    1.94
   3  -4  -6    2.47    3.30
   3  -4  -6    9.65    4.21
   3  -4  -6    4.69    4.52
  -3   4   6   11.01    4.73
  -3   4   6    7.24    3.18
  -3   4   6    2.37    3.42
   2  -4  -6   25.25    4.40
   2  -4  -6   20.08    6.37
   2  -4  -6   22.33    5.16
   2  -4  -6   23.92    3.23
  -2   4   6   24.76    5.88
  -2   4   6   28.98    5.22
  -2   4   6   26.81    4.87
   1  -4  -6    2.44    3.43
   1  -4  -6   -3.91    3.50
   1  -4  -6    1.38    2.17
   1  -4  -6    0.83    1.78
  -1   4   6   -6.48    2.64
  -1   4   6   -0.49    2.29
  -1   4   6    0.93    2.61
   0  -4  -6  111.98   10.26
   0  -4  -6   85.45   12.84
   0  -4  -6  131.39    9.45
   0   4   6  117.24    9.16
   0   4   6  108.60   11.25
   0   4   6  118.78    9.34
  -1  -4  -6   -0.92    3.23
  -1  -4  -6    0.47    4.42
  -1  -4  -6    1.93    1.69
  -1  -4  -6   -2.18    2.49
   1   4   6   -0.78    2.12
   1   4   6   -2.19    3.26
  -2  -4  -6    3.28    3.63
  -2  -4  -6   -0.61    1.25
  -2  -4  -6    3.17    4.17
   2   4   6    0.89    2.19
   2   4   6    0.94    3.53
   2   4   6    2.38    2.04
  -3  -4  -6    1.94    4.44
  -3  -4  -6    3.80    1.51
  -3  -4  -6   -0.13    3.40
   3   4   6    4.24    2.49
   3   4   6    6.53    2.80
   3   4   6    2.41    2.65
  -4  -4  -6    0.70    4.60
  -4  -4  -6   -0.70    3.38
   4   4   6    3.02    2.68
   4   4   6    2.35    2.77
  -5  -4  -6   72.36   11.97
  -5  -4  -6   86.44   10.90
   5   4   6   89.14    8.40
  -6  -4  -6   13.22    5.84
  -6  -4  -6    7.31    5.31
  -6  -4  -6   11.65    4.91
   6   4   6   14.37    4.44
  -7  -4  -6   -5.10    3.42
  -7  -4  -6    6.89    6.03
  -7  -4  -6   -2.91    3.53
   7   4   6    3.27    4.21
  -8  -4  -6   -2.17    5.50
  -8  -4  -6   -3.65    4.54
   8   4   6    4.37    4.83
   9  -5  -6   -4.15    5.69
  -9   5   6    3.69    6.47
  -9   5   6    8.31    6.95
  -9   5   6   -3.78    4.77
   8  -5  -6    1.14    5.53
  -8   5   6   12.22    6.50
  -8   5   6   11.24    7.60
  -8   5   6    2.40    4.95
   7  -5  -6    9.31    5.22
   7  -5  -6   10.67    4.90
  -7   5   6    9.66    6.28
  -7   5   6   14.64    6.64
  -7   5   6   17.01    6.20
   6  -5  -6    4.59    4.91
   6  -5  -6    8.12    5.48
  -6   5   6   11.79    6.41
  -6   5   6   18.03    5.84
   5  -5  -6   36.08    6.68
   5  -5  -6   19.09    6.40
  -5   5   6   24.10    6.41
  -5   5   6   34.88    7.85
   4  -5  -6   33.28    6.38
   4  -5  -6   31.60    7.52
   4  -5  -6   42.27    7.08
  -4   5   6   41.51    8.04
  -4   5   6   37.77    6.69
   3  -5  -6    4.41    4.79
   3  -5  -6    7.36    3.48
   3  -5  -6    3.83    3.97
  -3   5   6   10.22    5.18
  -3   5   6    9.95    4.30
  -3   5   6    2.88    3.73
   2  -5  -6    6.60    4.76
   2  -5  -6    4.41    2.93
   2  -5  -6    9.30    4.25
  -2   5   6    7.80    3.53
  -2   5   6   13.18    4.51
  -2   5   6    0.69    4.15
   1  -5  -6   72.71   12.40
   1  -5  -6   97.23    8.74
   1  -5  -6  109.59   10.51
  -1   5   6  118.98   11.56
  -1   5   6  108.11    9.58
  -1   5   6  115.08    9.37
   0  -5  -6   19.74    5.24
   0  -5  -6    8.31    2.78
   0  -5  -6    7.05    5.74
   0   5   6   11.18    3.30
   0   5   6   17.37    5.29
   0   5   6   23.66    4.41
  -1  -5  -6    3.05    3.76
  -1  -5  -6    6.15    5.06
   1   5   6    2.84    2.76
   1   5   6   -4.95    3.63
   1   5   6    7.00    4.21
  -2  -5  -6   -0.20    3.40
  -2  -5  -6    3.07    3.89
   2   5   6    5.63    4.35
   2   5   6   -0.85    2.63
  -3  -5  -6    4.93    4.92
  -3  -5  -6    5.54    4.50
   3   5   6   11.74    2.73
   3   5   6    5.17    3.14
   3   5   6    3.24    3.95
  -4  -5  -6   36.78    7.44
  -4  -5  -6   32.56    8.78
   4   5   6   44.82    6.38
  -5  -5  -6    0.71    4.32
  -5  -5  -6    6.41    5.62
   5   5   6    7.57    4.01
  -6  -5  -6   -2.78    3.84
  -6  -5  -6    4.97    5.20
   6   5   6    0.60    3.76
  -7  -5  -6   -2.71    5.80
  -7  -5  -6   -2.72    4.17
   7   5   6   -1.41    4.38
   9  -6  -6    3.26    6.90
  -9   6   6    0.21    7.42
  -9   6   6   -0.44    4.91
  -9   6   6    8.26    6.41
   8  -6  -6   31.68    8.56
   8  -6  -6   25.73    7.44
  -8   6   6   69.38   12.13
  -8   6   6   63.49   12.02
  -8   6   6   42.53    9.37
   7  -6  -6   -5.15    3.07
   7  -6  -6    0.81    5.35
  -7   6   6   -3.19    5.42
  -7   6   6   -2.89    5.09
   6  -6  -6   -1.23    4.70
   6  -6  -6    2.03    4.56
  -6   6   6    5.20    5.55
  -6   6   6    2.61    5.43
   5  -6  -6    3.73    4.59
   5  -6  -6   -2.03    4.33
  -5   6   6   -2.31    4.62
  -5   6   6    1.72    4.54
   4  -6  -6   -2.13    4.33
   4  -6  -6    1.42    3.79
   4  -6  -6    5.63    3.75
  -4   6   6   -1.31    3.94
  -4   6   6    4.79    5.27
   3  -6  -6   27.12    5.94
   3  -6  -6   14.65    4.21
   3  -6  -6    4.94    5.49
  -3   6   6   21.11    5.88
  -3   6   6   14.17    5.88
   2  -6  -6    5.91    3.53
   2  -6  -6    2.88    4.87
   2  -6  -6   11.03    4.70
  -2   6   6   16.65    5.79
  -2   6   6   14.15    4.63
   1  -6  -6    7.59    4.63
   1  -6  -6    6.45    3.06
   1  -6  -6    8.12    4.83
  -1   6   6   11.89    5.26
  -1   6   6    1.33    3.54
   0  -6  -6   -0.15    4.25
   0  -6  -6   -0.37    3.45
   0  -6  -6   -1.59    2.08
   0   6   6    2.13    3.31
   0   6   6   -2.05    3.28
  -1  -6  -6    5.73    4.16
  -1  -6  -6    1.80    3.98
  -1  -6  -6    6.80    2.63
   1   6   6    7.25    3.76
   1   6   6    3.45    4.26
  -2  -6  -6   13.21    5.17
  -2  -6  -6   13.09    6.39
   2   6   6   19.62    4.50
   2   6   6   20.52    6.21
  -3  -6  -6   54.75    8.70
  -3  -6  -6   23.24    8.17
   3   6   6   63.87    7.75
   3   6   6   49.13    9.04
  -4  -6  -6   -9.06    3.72
  -4  -6  -6    0.17    3.97
   4   6   6    4.86    4.16
   4   6   6    5.25    4.70
  -5  -6  -6    5.33    5.06
  -5  -6  -6    2.30    5.38
   5   6   6    7.48    4.45
   5   6   6    2.11    4.32
  -6  -6  -6    4.84    5.48
  -6  -6  -6    4.98    5.84
   6   6   6   -2.23    3.92
   8  -7  -6   -0.73    4.06
   8  -7  -6   -3.28    5.36
  -8   7   6   -1.40    5.32
  -8   7   6   -2.46    6.39
  -8   7   6    5.31    7.08
   7  -7  -6   18.19    7.33
   7  -7  -6   33.54    8.60
  -7   7   6   35.04    9.47
  -7   7   6   31.07    9.35
   6  -7  -6    9.19    5.13
   6  -7  -6    8.33    5.57
  -6   7   6   -0.09    5.57
  -6   7   6  -10.64    4.06
   5  -7  -6    0.95    4.07
   5  -7  -6    1.56    4.77
  -5   7   6   11.81    6.98
  -5   7   6    5.12    5.09
   4  -7  -6   56.32    8.92
   4  -7  -6   36.75    9.56
   4  -7  -6   56.92    8.53
  -4   7   6   74.59   11.43
  -4   7   6   58.98    9.45
   3  -7  -6   -1.40    3.03
   3  -7  -6    6.09    5.70
   3  -7  -6   -2.87    3.54
  -3   7   6    1.35    4.97
  -3   7   6   -0.81    3.95
   2  -7  -6    3.06    3.52
   2  -7  -6   -0.49    4.72
   2  -7  -6   10.57    4.75
  -2   7   6   16.41    5.32
  -2   7   6   12.64    5.96
   1  -7  -6    3.19    2.92
   1  -7  -6    2.95    4.13
   1  -7  -6   -1.65    3.87
  -1   7   6   -1.58    3.68
  -1   7   6   -7.95    3.59
   0  -7  -6   21.93    5.70
   0   7   6   21.75    6.28
   0   7   6   25.93    6.12
  -1  -7  -6   14.23    5.58
  -1  -7  -6    9.07    5.89
   1   7   6   15.77    5.03
   1   7   6    9.89    5.33
  -2  -7  -6   56.52    9.44
  -2  -7  -6   40.72   10.12
   2   7   6   72.23   10.99
   2   7   6   89.87    9.45
  -3  -7  -6    9.83    5.42
  -3  -7  -6    8.41    6.25
   3   7   6    3.58    4.63
   3   7   6   10.33    5.13
  -4  -7  -6    6.06    5.38
  -4  -7  -6   -4.49    4.99
   4   7   6   -0.05    4.07
   4   7   6    5.66    5.02
  -5  -7  -6    5.59    6.33
  -5  -7  -6   -4.49    4.27
   5   7   6    5.44    5.26
   5   7   6    0.65    4.33
  -6  -7  -6    7.80    6.83
  -6  -7  -6   13.60    6.73
   6   7   6    2.46    4.23
   7  -8  -6    5.03    6.08
   7  -8  -6    6.18    6.31
  -7   8   6   18.71    8.53
  -7   8   6   13.63    7.79
   6  -8  -6    5.52    5.34
   6  -8  -6    0.61    5.22
  -6   8   6   -4.40    6.31
  -6   8   6    4.25    7.11
   5  -8  -6   30.19    9.16
   5  -8  -6   41.90    8.31
   5  -8  -6   41.61    8.29
  -5   8   6   36.35    9.67
  -5   8   6   43.84    9.32
   4  -8  -6   -4.48    4.38
   4  -8  -6   -2.97    3.69
   4  -8  -6    0.58    4.43
  -4   8   6   -4.05    4.93
  -4   8   6    6.65    6.43
   3  -8  -6    3.65    5.86
   3  -8  -6   -0.13    3.55
   3  -8  -6    8.24    4.91
  -3   8   6    5.21    4.83
  -3   8   6    2.18    4.92
   2  -8  -6   11.59    5.55
   2  -8  -6    0.78    4.53
  -2   8   6   12.29    5.45
  -2   8   6   16.64    6.87
   1  -8  -6    5.56    4.69
   1  -8  -6    3.55    5.08
  -1   8   6   -2.79    3.91
  -1   8   6    3.90    5.23
   0  -8  -6    4.31    6.14
   0  -8  -6   15.38    5.44
   0   8   6    2.33    5.05
   0   8   6   21.56    6.18
  -1  -8  -6    2.80    4.49
  -1  -8  -6    7.91    6.29
   1   8   6   13.85    6.00
   1   8   6    8.53    5.21
  -2  -8  -6   11.32    5.58
  -2  -8  -6    4.02    4.95
   2   8   6   -3.08    4.16
   2   8   6    2.34    4.28
  -3  -8  -6   20.04    7.98
  -3  -8  -6   23.56    7.32
   3   8   6   10.48    5.58
   3   8   6    8.97    5.98
  -4  -8  -6    2.22    6.01
  -4  -8  -6    1.13    5.22
   4   8   6    1.56    4.94
   4   8   6    4.08    5.91
  -5  -8  -6    1.38    6.41
  -5  -8  -6   -0.44    4.90
   6  -9  -6   21.97    8.45
  -6   9   6   22.69    9.17
  -6   9   6   43.84   11.04
   5  -9  -6   17.51    7.92
   5  -9  -6    0.53    4.93
  -5   9   6    0.62    6.22
  -5   9   6    4.28    6.17
   4  -9  -6   -0.01    6.03
   4  -9  -6    0.83    4.67
  -4   9   6   -0.95    5.13
  -4   9   6   -0.01    5.96
   3  -9  -6    3.07    6.41
   3  -9  -6    3.27    4.74
  -3   9   6    9.37    6.26
  -3   9   6    4.96    6.32
   2  -9  -6    3.49    6.48
   2  -9  -6   -0.70    4.04
  -2   9   6   -2.45    4.93
  -2   9   6   -1.38    5.29
   1  -9  -6   25.18    9.14
   1  -9  -6   40.71    8.08
  -1   9   6   34.24    9.19
  -1   9   6   28.68    7.61
   0  -9  -6   -8.74    4.80
   0  -9  -6   -0.70    4.13
   0   9   6   -3.03    4.96
   0   9   6    0.08    5.05
  -1  -9  -6   16.36    7.76
  -1  -9  -6   11.48    6.38
   1   9   6   17.78    6.22
   1   9   6    8.33    6.17
  -2  -9  -6   -2.79    4.88
  -2  -9  -6    3.07    6.40
   2   9   6    5.78    5.39
   2   9   6    4.50    5.72
  -3  -9  -6    7.00    5.30
  -3  -9  -6   10.07    7.29
   3   9   6    1.09    5.22
   3   9   6   -4.78    4.94
   4 -10  -6    7.25    7.31
   4 -10  -6   -0.23    5.44
  -4  10   6   -9.33    5.40
  -4  10   6    0.37    6.65
   3 -10  -6    6.58    5.89
   3 -10  -6   -4.02    5.77
  -3  10   6   -3.88    6.50
  -3  10   6    3.91    6.10
   2 -10  -6   40.23    8.87
   2 -10  -6   17.16    8.34
  -2  10   6   17.35    8.06
  -2  10   6   57.88   10.13
   1 -10  -6    0.35    5.01
   1 -10  -6    1.92    6.79
  -1  10   6    2.92    6.31
  -1  10   6   -4.44    5.30
   0 -10  -6    3.04    5.84
   0 -10  -6    3.72    6.24
   0  10   6   -1.24    5.65
   0  10   6   -5.44    4.98
  -1 -10  -6    7.32    6.39
  -1 -10  -6   -2.72    6.02
   1  10   6    9.21    7.21
   1  10   6    6.59    6.22
   1  11  -7   30.55    7.93
  -1 -11   7   21.90    7.00
  -1 -11   7   22.19    8.34
   0  11  -7   16.52    6.19
   0  11  -7   10.57    6.60
   0 -11   7   22.51    8.09
   0 -11   7    5.74    6.05
  -1  11  -7   25.20    6.35
  -1  11  -7   16.74    7.11
   1 -11   7   17.69    7.62
   1 -11   7   16.20    7.68
  -2  11  -7   -3.09    3.85
  -2  11  -7   -2.26    5.61
   2 -11   7   -0.45    5.83
   2 -11   7    0.82    6.55
  -3  11  -7    5.27    4.30
   3 -11   7   13.84    7.32
   3 -11   7    5.03    8.03
   3  10  -7    9.75    6.32
   3  10  -7    3.67    6.19
  -3 -10   7   11.96    6.58
  -3 -10   7   -0.17    5.43
   2  10  -7   26.87    8.17
   2  10  -7   20.00    7.20
  -2 -10   7   18.43    7.45
  -2 -10   7   22.71    7.10
  -2 -10   7   32.92    8.25
   1  10  -7    3.20    5.67
   1  10  -7   12.79    5.66
  -1 -10   7    2.22    4.95
  -1 -10   7   11.09    5.91
  -1 -10   7   12.15    6.60
   0  10  -7    1.39    6.12
   0  10  -7    8.88    5.26
   0 -10   7   15.67    6.75
   0 -10   7    6.71    5.36
   0 -10   7   13.97    6.42
  -1  10  -7    3.31    5.80
  -1  10  -7    0.63    3.62
   1 -10   7   -0.29    4.51
   1 -10   7   -1.68    5.54
  -2  10  -7    5.40    5.46
  -2  10  -7   -1.75    3.27
   2 -10   7    3.73    5.43
   2 -10   7   -3.95    5.27
  -3  10  -7   40.75    8.71
  -3  10  -7   27.80    6.46
   3 -10   7   27.04    8.29
   3 -10   7   22.98    9.03
  -4  10  -7   16.43    5.25
   4 -10   7    6.05    6.89
   4 -10   7   18.11    6.60
  -5  10  -7   -6.38    3.16
   5 -10   7   -1.71    7.67
   5 -10   7    2.26    5.80
   5   9  -7    1.31    5.86
   4   9  -7   21.16    7.58
   4   9  -7   15.36    7.16
  -4  -9   7   13.04    7.09
   3   9  -7   22.24    7.30
   3   9  -7    6.92    5.88
  -3  -9   7   11.37    6.42
  -3  -9   7   20.34    6.05
   2   9  -7    5.25    5.09
   2   9  -7   16.02    6.33
  -2  -9   7   14.79    6.17
  -2  -9   7    6.68    4.65
   1   9  -7   10.18    5.17
   1   9  -7    9.41    5.67
  -1  -9   7   18.34    7.05
  -1  -9   7   20.35    5.49
  -1  -9   7   16.77    6.37
   0   9  -7    3.63    4.29
   0   9  -7    0.75    4.70
   0  -9   7    1.86    3.92
   0  -9   7   -2.13    3.73
   0  -9   7    0.90    4.38
  -1   9  -7   11.88    4.59
  -1   9  -7    3.58    4.58
   1  -9   7   11.59    5.95
   1  -9   7    2.41    5.50
  -2   9  -7   25.10    6.61
  -2   9  -7   31.19    7.05
   2  -9   7   35.60    8.99
   2  -9   7   23.99    7.18
  -3   9  -7    6.53    5.33
  -3   9  -7   -0.98    3.70
   3  -9   7    3.86    5.09
   3  -9   7    0.90    5.79
  -4   9  -7    2.31    4.15
  -4   9  -7    2.45    4.69
   4  -9   7    0.85    4.95
   4  -9   7    4.46    5.87
  -5   9  -7    7.93    5.01
   5  -9   7   11.54    7.79
   5  -9   7    9.82    6.36
  -6   9  -7    4.81    4.46
   6  -9   7   12.14    6.80
   6  -9   7   13.24    8.70
   6   8  -7    2.79    5.67
  -6  -8   7   -1.71    5.69
   5   8  -7    9.00    6.43
   5   8  -7   29.35    8.44
  -5  -8   7    7.92    5.84
  -5  -8   7   18.65    8.26
   4   8  -7   15.54    6.65
   4   8  -7    1.00    5.24
  -4  -8   7    1.65    5.17
  -4  -8   7    5.45    6.93
  -4  -8   7   14.22    4.73
   3   8  -7    1.22    4.82
   3   8  -7   -2.40    4.22
  -3  -8   7    3.66    3.82
  -3  -8   7   -4.73    4.96
  -3  -8   7    1.31    4.39
   2   8  -7   23.62    6.83
   2   8  -7   14.83    5.69
  -2  -8   7   28.43    7.31
  -2  -8   7   28.26    8.56
  -2  -8   7   15.56    5.86
   1   8  -7    6.59    4.76
   1   8  -7    6.68    5.22
  -1  -8   7    1.51    3.99
  -1  -8   7   11.02    5.76
  -1  -8   7   15.92    6.86
   0   8  -7   60.73    9.16
   0   8  -7   57.87    8.88
   0  -8   7   54.64   10.61
   0  -8   7   45.78    9.71
   0  -8   7   63.25    9.36
  -1   8  -7   16.62    5.37
  -1   8  -7   27.49    6.59
   1  -8   7   26.27    7.59
   1  -8   7   19.64    4.41
   1  -8   7   25.01    6.24
   1  -8   7   24.04    7.78
  -2   8  -7    4.79    3.81
  -2   8  -7   10.58    4.68
   2  -8   7    3.30    4.85
   2  -8   7    6.42    5.21
  -3   8  -7   17.09    5.06
  -3   8  -7   17.06    5.81
   3  -8   7   20.19    6.82
   3  -8   7   13.93    6.49
  -4   8  -7    4.44    4.42
  -4   8  -7    8.64    4.81
   4  -8   7    1.53    5.05
   4  -8   7   -0.90    5.32
  -5   8  -7    4.32    4.37
   5  -8   7    3.92    6.56
   5  -8   7    5.61    5.47
  -6   8  -7   21.20    6.31
   6  -8   7   31.13    8.48
   6  -8   7   23.74    9.73
  -7   8  -7    7.29    5.40
  -7   8  -7    4.45    5.03
   7  -8   7    7.92    6.02
   7  -8   7    8.48    8.05
  -7  -7   7    1.05    8.65
   6   7  -7    9.59    6.63
  -6  -7   7   25.34    9.23
   5   7  -7   -3.79    4.29
  -5  -7   7    7.13    6.73
   4   7  -7   -4.71    4.35
   4   7  -7    1.60    4.98
  -4  -7   7    3.78    4.74
  -4  -7   7   13.31    4.09
  -4  -7   7  -10.09    4.21
   3   7  -7   -0.37    4.83
   3   7  -7   27.14    6.81
  -3  -7   7   22.08    6.59
  -3  -7   7   12.13    5.68
  -3  -7   7   20.47    7.24
   2   7  -7   25.20    6.34
   2   7  -7   13.92    5.48
  -2  -7   7   29.26    7.78
  -2  -7   7   27.03    7.29
  -2  -7   7   29.13    6.56
   1   7  -7   28.81    6.46
   1   7  -7   22.71    5.85
  -1  -7   7   20.61    5.74
  -1  -7   7   25.39    7.80
  -1  -7   7   26.59    7.48
   0   7  -7   65.99    9.16
   0   7  -7   55.53    8.40
   0  -7   7   50.24    7.87
   0  -7   7   53.61   10.13
   0  -7   7   36.49    8.92
  -1   7  -7   -0.59    3.09
  -1   7  -7    1.77    3.93
   1  -7   7    1.21    5.46
   1  -7   7    2.78    3.53
   1  -7   7    4.34    4.92
  -2   7  -7   -3.35    3.05
  -2   7  -7    0.42    3.28
   2  -7   7   -0.05    4.76
   2  -7   7   -1.09    3.58
   2  -7   7   -1.96    4.30
  -3   7  -7    2.27    3.82
  -3   7  -7    3.88    3.64
   3  -7   7    1.60    5.06
   3  -7   7    1.79    5.16
   3  -7   7    1.56    3.87
  -4   7  -7    0.73    3.51
  -4   7  -7    3.33    3.76
   4  -7   7    1.46    5.37
   4  -7   7    0.60    3.96
  -5   7  -7   15.22    5.35
   5  -7   7    8.89    5.67
   5  -7   7    0.49    6.16
  -6   7  -7   18.13    5.96
  -6   7  -7    8.33    4.62
   6  -7   7   24.74    6.71
   6  -7   7   21.83    8.91
  -7   7  -7   -0.22    3.91
  -7   7  -7    0.94    4.63
   7  -7   7    3.61    5.64
   7  -7   7   -4.00    6.24
  -8   7  -7    1.07    4.66
  -8   7  -7    0.76    5.32
   8  -7   7   -6.26    6.21
   8  -7   7    0.89    8.14
   7   6  -7    4.79    6.15
  -7  -6   7    5.77    7.06
  -7  -6   7    7.15    6.90
  -7  -6   7   16.53    6.53
   6   6  -7   18.11    6.63
  -6  -6   7    3.64    5.78
  -6  -6   7   10.09    6.53
  -6  -6   7   10.77    5.63
   5   6  -7    4.79    5.12
  -5  -6   7    2.34    5.13
  -5  -6   7   10.30    6.47
  -5  -6   7    1.02    4.46
   4   6  -7    5.64    5.11
   4   6  -7    4.02    4.51
  -4  -6   7    1.38    5.35
   3   6  -7   16.64    5.83
   3   6  -7   24.98    6.28
  -3  -6   7   25.92    7.46
   2   6  -7   55.37    8.29
   2   6  -7   52.35    8.49
  -2  -6   7   33.04    6.85
  -2  -6   7   47.31    8.73
  -2  -6   7   35.23    8.44
   1   6  -7   17.79    5.54
   1   6  -7   22.48    5.41
  -1  -6   7    9.68    4.69
  -1  -6   7   22.61    6.75
  -1  -6   7   17.82    6.34
   0   6  -7    7.75    4.16
   0   6  -7    2.51    2.85
   0   6  -7    5.25    3.77
   0  -6   7    9.75    3.98
   0  -6   7    5.62    4.89
   0  -6   7    9.52    5.78
  -1   6  -7    0.37    3.14
  -1   6  -7   -5.01    2.48
  -1   6  -7    2.97    2.56
   1  -6   7   -0.74    4.16
   1  -6   7    1.10    2.89
   1  -6   7   -4.95    2.85
   1  -6   7    2.07    1.23
   1  -6   7   -2.32    4.53
  -2   6  -7    7.25    3.95
  -2   6  -7    9.33    4.00
   2  -6   7    8.88    4.58
   2  -6   7   11.30    5.72
   2  -6   7   12.24    5.88
   2  -6   7   10.91    3.79
  -3   6  -7    3.67    3.62
  -3   6  -7    4.62    3.69
   3  -6   7    4.51    3.88
   3  -6   7    2.52    4.96
   3  -6   7    4.37    4.85
  -4   6  -7   12.42    4.45
  -4   6  -7    6.65    4.18
   4  -6   7   13.90    6.33
   4  -6   7    7.70    5.86
   4  -6   7    9.81    4.46
  -5   6  -7    7.62    4.44
  -5   6  -7   -5.41    2.40
  -5   6  -7   -6.03    3.17
   5  -6   7   -7.79    3.50
   5  -6   7    3.29    4.53
  -6   6  -7   -2.86    3.14
  -6   6  -7    0.12    3.85
   6  -6   7    5.70    4.88
   6  -6   7   -4.86    4.97
  -7   6  -7    2.13    4.78
  -7   6  -7    1.71    3.67
   7  -6   7    3.82    7.64
   7  -6   7   11.32    6.10
  -8   6  -7   26.45    6.84
  -8   6  -7   24.76    8.31
   8  -6   7   20.18    9.91
   8  -6   7   35.20    8.54
   8   5  -7    9.41    7.05
  -8  -5   7    6.02    7.32
  -8  -5   7    8.31    6.50
  -8  -5   7    9.12    7.80
   7   5  -7    5.71    6.04
  -7  -5   7   -7.27    3.72
  -7  -5   7    2.41    6.34
  -7  -5   7   11.57    7.01
   6   5  -7    2.18    4.74
  -6  -5   7    1.29    4.45
  -6  -5   7   -2.51    4.91
  -6  -5   7  -10.21    3.86
   5   5  -7    0.68    4.09
  -5  -5   7   -0.72    4.12
  -5  -5   7    6.09    5.17
  -5  -5   7   -5.72    3.48
   4   5  -7    5.50    4.93
   4   5  -7    7.08    4.60
  -4  -5   7    3.33    4.54
  -4  -5   7    2.22    3.92
  -4  -5   7    3.22    4.50
   3   5  -7   23.77    5.83
   3   5  -7   22.28    6.00
  -3  -5   7   22.54    5.90
  -3  -5   7   13.60    5.94
   2   5  -7   25.15    5.96
   2   5  -7   23.06    5.51
  -2  -5   7   17.09    6.23
   1   5  -7    2.34    3.77
   1   5  -7    2.68    3.08
   1   5  -7   -3.22    2.05
  -1  -5   7   -3.42    4.18
  -1  -5   7   -2.22    2.65
  -1  -5   7   -6.26    3.49
  -1  -5   7   -1.40    3.04
   0   5  -7   77.17    8.65
   0   5  -7   71.25    6.28
   0   5  -7   63.39    8.87
   0  -5   7   62.11    7.94
   0  -5   7   69.74    8.36
   0  -5   7   64.37   10.71
   0  -5   7   58.53    9.92
  -1   5  -7   60.30    8.15
  -1   5  -7   59.49    7.27
  -1   5  -7   56.71    5.70
   1  -5   7   50.73    6.97
   1  -5   7   53.77    8.99
   1  -5   7   43.35    6.50
   1  -5   7   38.06    8.86
   1  -5   7   50.52    4.29
  -2   5  -7  300.32   19.65
  -2   5  -7  242.97   19.61
   2  -5   7  252.91   21.86
   2  -5   7  262.24   24.20
   2  -5   7  257.13   19.47
   2  -5   7  258.90   19.31
   2  -5   7  257.82   18.99
  -3   5  -7   -1.52    2.94
  -3   5  -7    2.25    2.93
   3  -5   7   -3.53    2.58
   3  -5   7   -0.55    3.10
   3  -5   7    3.40    4.42
   3  -5   7   -0.30    2.82
   3  -5   7   -1.28    4.21
  -4   5  -7   42.95    7.14
  -4   5  -7   38.80    5.82
  -4   5  -7   32.53    5.13
   4  -5   7   40.04    8.10
   4  -5   7   55.21    7.24
   4  -5   7   27.58    7.94
  -5   5  -7   -2.20    2.63
  -5   5  -7   -2.83    3.53
  -5   5  -7    1.66    3.07
   5  -5   7    3.60    4.73
   5  -5   7   -3.33    3.39
   5  -5   7   -1.47    4.47
  -6   5  -7   -1.71    3.01
  -6   5  -7    2.25    4.87
   6  -5   7    8.63    4.79
   6  -5   7    3.53    5.45
  -7   5  -7    1.25    4.78
  -7   5  -7    1.64    3.64
   7  -5   7   14.59    7.97
   7  -5   7    2.84    4.35
  -8   5  -7    7.34    6.05
  -8   5  -7    3.14    4.46
   8  -5   7    5.11    5.19
   8  -5   7   11.07    8.76
  -9   5  -7   22.53    6.63
   9  -5   7    1.82    8.91
   8   4  -7    2.78    4.87
  -8  -4   7   15.87    7.82
  -8  -4   7    3.97    5.93
  -8  -4   7    8.15    6.73
   7   4  -7    8.50    5.76
  -7  -4   7   -4.91    4.18
  -7  -4   7   13.10    6.43
  -7  -4   7    2.15    5.65
   6   4  -7   -2.04    2.92
  -6  -4   7   -3.21    4.99
  -6  -4   7    7.75    5.33
  -6  -4   7   10.28    5.67
   5   4  -7   44.07    8.02
  -5  -4   7   29.60    7.46
  -5  -4   7   38.13    7.68
  -5  -4   7   43.49    7.21
   4   4  -7   21.15    5.69
   4   4  -7   32.10    6.96
   4   4  -7   21.39    2.57
  -4  -4   7   18.42    5.09
  -4  -4   7   27.35    6.39
  -4  -4   7   24.18    6.77
   3   4  -7   16.90    5.47
   3   4  -7   13.88    4.90
  -3  -4   7    8.74    4.19
  -3  -4   7   19.44    4.41
  -3  -4   7    7.95    5.23
   2   4  -7   23.01    3.84
   2   4  -7   24.00    5.27
   2   4  -7   17.90    5.39
  -2  -4   7   19.22    5.08
  -2  -4   7   20.96    4.87
  -2  -4   7   12.13    5.54
   1   4  -7   43.61    4.81
   1   4  -7   43.21    6.94
   1   4  -7   51.35    6.52
  -1  -4   7   40.52    8.19
  -1  -4   7   33.76    5.96
   0   4  -7   37.15    3.91
   0   4  -7   36.83    5.41
   0   4  -7   35.37    6.34
   0  -4   7   27.92    4.88
   0  -4   7   23.35    4.59
   0  -4   7   34.78    7.66
   0  -4   7   36.75    7.53
  -1   4  -7   68.06    6.91
  -1   4  -7   64.09    8.58
  -1   4  -7   77.62    5.66
   1  -4   7   73.78    7.12
   1  -4   7   58.66   10.11
   1  -4   7   66.85   10.39
   1  -4   7   68.81    7.04
   1  -4   7   70.58    5.80
  -2   4  -7   92.54    8.06
  -2   4  -7   80.79    8.61
   2  -4   7   87.16    8.33
   2  -4   7   93.21   11.62
   2  -4   7  101.49    8.33
   2  -4   7   90.25    8.01
   2  -4   7   88.63   12.73
  -3   4  -7    9.98    3.19
  -3   4  -7    3.83    2.22
  -3   4  -7    5.44    3.82
   3  -4   7    3.27    3.09
   3  -4   7   -0.19    4.61
   3  -4   7   13.36    4.94
   3  -4   7    5.34    2.98
   3  -4   7    9.96    3.34
  -4   4  -7    0.92    2.65
  -4   4  -7   -0.48    3.25
  -4   4  -7    3.16    2.31
   4  -4   7    3.05    3.93
   4  -4   7    1.96    3.20
   4  -4   7    2.46    2.69
   4  -4   7    4.11    4.96
  -5   4  -7    2.89    4.31
  -5   4  -7    5.47    2.99
  -5   4  -7    2.60    2.86
   5  -4   7    7.52    4.47
   5  -4   7    6.06    5.55
   5  -4   7    4.09    3.62
  -6   4  -7    5.80    3.58
  -6   4  -7   10.53    5.56
   6  -4   7    9.99    4.72
   6  -4   7    6.07    6.09
  -7   4  -7   -0.07    3.23
  -7   4  -7    0.93    4.71
   7  -4   7   -6.30    5.26
   7  -4   7   -7.19    4.27
  -8   4  -7   20.44    7.02
  -8   4  -7   40.46    7.23
   8  -4   7   41.40    8.25
   8  -4   7   38.95   11.28
  -9   4  -7   -3.44    4.29
   9  -4   7    3.06    6.59
   9  -4   7   -6.30    8.25
   9   3  -7    5.74    6.81
  -9  -3   7    6.12    6.60
  -9  -3   7   -7.71    5.27
   8   3  -7   36.42    8.54
  -8  -3   7   23.36    7.60
  -8  -3   7   33.45    8.19
  -8  -3   7   34.99    9.08
   7   3  -7   56.27    9.85
  -7  -3   7   74.30   11.39
  -7  -3   7   72.96   11.43
  -7  -3   7   84.00   11.28
   6   3  -7   33.38    7.32
  -6  -3   7   20.61    6.87
  -6  -3   7   19.34    6.05
  -6  -3   7   35.48    7.67
   5   3  -7   -3.49    3.50
  -5  -3   7    2.16    3.95
  -5  -3   7    3.72    4.93
  -5  -3   7    4.39    4.27
   4   3  -7    7.21    4.63
   4   3  -7   -2.29    3.30
   4   3  -7    0.96    1.65
  -4  -3   7    1.04    3.77
  -4  -3   7    3.73    4.25
  -4  -3   7   -2.70    2.92
   3   3  -7    0.77    3.35
   3   3  -7   -0.64    2.58
   3   3  -7   -2.43    2.19
  -3  -3   7    2.77    4.31
  -3  -3   7    1.22    3.69
  -3  -3   7    1.66    3.28
  -3  -3   7    2.47    2.96
   2   3  -7   28.87    5.25
   2   3  -7   23.86    3.67
   2   3  -7   31.35    5.93
  -2  -3   7   18.17    4.69
  -2  -3   7   26.76    3.95
  -2  -3   7   24.61    6.56
  -2  -3   7   16.58    4.43
   1   3  -7   -4.42    1.84
   1   3  -7   -0.71    2.85
   1   3  -7   -0.52    1.48
  -1  -3   7   -1.51    3.50
  -1  -3   7   -0.81    2.04
  -1  -3   7   -0.48    2.74
   0   3  -7   17.04    4.33
   0   3  -7   20.29    2.15
   0   3  -7   21.89    3.87
   0  -3   7   21.63    3.88
   0  -3   7   21.66    1.81
   0  -3   7   18.80    1.86
   0  -3   7   15.29    5.41
   0  -3   7   18.88    3.91
  -1   3  -7   42.34    6.43
  -1   3  -7   41.70    7.33
  -1   3  -7   48.90    5.21
   1  -3   7   36.69    4.35
   1  -3   7   52.30    8.02
   1  -3   7   42.65    5.18
   1  -3   7   36.21    4.91
   1  -3   7   38.03    7.94
  -2   3  -7   15.37    2.00
  -2   3  -7   10.35    4.17
   2  -3   7   15.43    3.14
   2  -3   7   14.11    3.33
   2  -3   7   12.85    3.19
   2  -3   7   18.35    5.56
   2  -3   7    6.78    5.10
  -3   3  -7   31.26    3.75
  -3   3  -7   23.86    5.21
   3  -3   7   21.78    6.89
   3  -3   7   23.68    4.76
   3  -3   7   41.49    5.16
   3  -3   7   35.05    4.54
   3  -3   7   35.66    6.65
  -4   3  -7   72.60    9.42
  -4   3  -7   73.08    6.55
   4  -3   7   71.36    6.86
   4  -3   7   79.56    7.51
   4  -3   7   72.42    9.35
   4  -3   7   73.18   11.28
  -5   3  -7    5.59    4.33
  -5   3  -7   11.76    3.47
   5  -3   7    0.41    3.17
   5  -3   7    1.85    5.00
   5  -3   7    8.21    4.25
  -6   3  -7   -1.15    3.08
  -6   3  -7    0.24    4.51
   6  -3   7   -5.71    4.05
   6  -3   7    6.32    4.21
  -7   3  -7   38.76    6.79
  -7   3  -7   25.86    7.12
   7  -3   7   39.67    9.96
   7  -3   7   37.41    7.16
  -8   3  -7   11.03    5.27
   8  -3   7   -3.90    4.82
   8  -3   7   11.05    7.87
  -9   3  -7   -0.47    4.06
   9  -3   7    2.27    6.08
   9  -3   7   -6.44    7.81
   9   2  -7   24.47    7.95
  -9  -2   7   37.43    8.97
  -9  -2   7   23.90    8.85
   8   2  -7    2.01    4.98
  -8  -2   7   -1.08    5.23
  -8  -2   7   -4.52    4.29
  -8  -2   7   -6.95    4.76
   7   2  -7   18.26    6.25
  -7  -2   7   16.99    6.25
  -7  -2   7   20.50    6.30
  -7  -2   7   14.25    6.07
   6   2  -7   37.52    7.12
  -6  -2   7   21.53    6.32
  -6  -2   7   24.76    6.09
  -6  -2   7   33.11    7.64
   5   2  -7    9.95    4.27
   5   2  -7    8.25    3.19
  -5  -2   7   18.91    6.00
  -5  -2   7   16.08    4.77
  -5  -2   7   13.10    5.31
   4   2  -7   11.10    4.31
   4   2  -7   10.58    2.78
   4   2  -7   15.41    5.15
  -4  -2   7    6.90    3.23
  -4  -2   7   10.20    4.79
  -4  -2   7   10.61    5.06
   3   2  -7    3.69    3.62
   3   2  -7    8.30    4.11
   3   2  -7    4.60    3.39
   3   2  -7    4.94    1.68
  -3  -2   7    6.31    4.67
  -3  -2   7   -2.06    2.89
  -3  -2   7    6.90    3.58
  -3  -2   7    6.02    2.95
   2   2  -7   11.92    3.69
   2   2  -7   11.85    4.17
   2   2  -7    9.22    4.10
  -2  -2   7    5.96    4.42
  -2  -2   7    9.88    3.10
  -2  -2   7    8.23    4.09
  -2  -2   7   10.64    2.53
   1   2  -7    4.87    3.25
   1   2  -7    3.29    3.84
   1   2  -7   10.87    2.97
  -1  -2   7    6.55    2.87
  -1  -2   7   16.18    5.34
  -1  -2   7    9.03    1.66
  -1  -2   7    5.44    3.18
   0   2  -7   34.47    5.61
   0   2  -7   38.06    7.43
   0   2  -7   27.91    3.88
   0  -2   7   26.58    5.98
   0  -2   7   38.15    3.65
   0  -2   7   30.50    4.25
  -1   2  -7    2.32    3.03
  -1   2  -7    3.49    3.82
  -1   2  -7    1.95    1.58
   1  -2   7    2.95    1.87
   1  -2   7   -1.31    3.63
   1  -2   7    4.60    1.97
  -2   2  -7   28.96    7.09
  -2   2  -7   32.64    2.99
  -2   2  -7   25.73    5.40
  -2   2  -7   30.02    2.88
   2  -2   7   26.64    5.91
   2  -2   7   30.77    3.92
   2  -2   7   30.80    3.72
   2  -2   7   42.38    8.06
  -3   2  -7   74.86    5.35
  -3   2  -7   68.97   10.53
  -3   2  -7   76.38    9.07
  -3   2  -7   70.23    5.41
  -3   2  -7   70.25    5.63
   3  -2   7   72.29    6.47
   3  -2   7   85.48   11.66
   3  -2   7   72.59    8.14
   3  -2   7   77.60    6.27
  -4   2  -7   25.73    4.03
  -4   2  -7   25.99    6.88
  -4   2  -7   18.99    5.51
  -4   2  -7   32.33    4.04
  -4   2  -7   30.43    3.41
   4  -2   7   35.42    4.82
   4  -2   7   32.52    7.70
   4  -2   7   45.02    4.74
   4  -2   7   36.40    6.26
  -5   2  -7    1.42    2.54
  -5   2  -7    6.90    4.42
   5  -2   7    2.73    3.03
   5  -2   7    1.99    4.20
   5  -2   7    3.79    3.47
  -6   2  -7   35.57    6.03
  -6   2  -7   27.98    7.57
   6  -2   7   41.00    6.24
   6  -2   7   35.61    8.79
  -7   2  -7    7.62    4.01
  -7   2  -7   -5.14    4.71
   7  -2   7    3.56    4.01
   7  -2   7   -5.38    4.88
  -8   2  -7   -2.86    3.77
   8  -2   7    3.40    7.57
   8  -2   7    7.11    4.85
  -9   2  -7   -0.03    4.36
   9  -2   7  -13.80    4.46
   9  -2   7   -6.14    7.42
   9   1  -7    2.61    6.10
  -9  -1   7  -13.28    3.86
  -9  -1   7    9.21    7.02
  -9  -1   7   -4.17    4.73
   8   1  -7    4.44    5.15
  -8  -1   7    7.48    5.76
  -8  -1   7   -1.86    4.30
  -8  -1   7    3.10    5.69
   7   1  -7   -2.47    3.50
  -7  -1   7    0.98    4.78
  -7  -1   7    4.83    4.30
  -7  -1   7    6.59    5.39
   6   1  -7   -0.84    3.42
  -6  -1   7    0.78    3.91
  -6  -1   7    4.48    4.12
  -6  -1   7   -0.99    4.15
   5   1  -7   51.55    6.45
   5   1  -7   35.74    6.20
   5   1  -7   23.58    5.69
  -5  -1   7   24.92    6.20
  -5  -1   7   40.93    6.56
  -5  -1   7   43.88    8.16
   4   1  -7   10.38    4.45
   4   1  -7    3.33    3.74
   4   1  -7   11.64    3.21
   4   1  -7    8.13    3.74
  -4  -1   7    1.33    4.10
  -4  -1   7   13.34    4.40
  -4  -1   7    9.01    3.66
  -4  -1   7    8.13    4.18
   3   1  -7   91.56    9.93
   3   1  -7   87.76    8.48
   3   1  -7   94.29    7.51
   3   1  -7   78.41   10.47
  -3  -1   7   58.92    8.56
  -3  -1   7   88.41    8.38
  -3  -1   7   79.88   10.94
  -3  -1   7   86.49    7.58
  -3  -1   7   90.48    7.51
   2   1  -7   -2.41    2.17
   2   1  -7    5.46    3.16
   2   1  -7   -3.53    2.95
  -2  -1   7    0.03    2.50
  -2  -1   7    1.48    3.94
  -2  -1   7    1.96    1.95
  -2  -1   7   -1.45    1.79
  -2  -1   7    2.48    3.02
   1   1  -7  107.76    8.51
   1   1  -7  113.92    8.35
   1   1  -7  104.36    9.35
   1   1  -7   92.35   11.01
  -1  -1   7   92.39    8.37
  -1  -1   7   97.48   10.72
  -1  -1   7  108.49    8.69
  -1  -1   7  116.23    8.49
  -1  -1   7   99.77    6.81
   0   1  -7    3.33    1.61
   0   1  -7    3.32    3.76
   0   1  -7    2.24    2.72
   0   1  -7    4.13    1.71
   0  -1   7    5.59    1.99
   0  -1   7    3.68    3.87
   0  -1   7    5.13    2.15
   0  -1   7    7.49    2.36
  -1   1  -7    0.48    2.67
  -1   1  -7    4.43    3.30
   1  -1   7    3.75    1.50
   1  -1   7    6.47    4.15
   1  -1   7    2.73    1.51
  -2   1  -7    3.73    2.37
  -2   1  -7    0.35    2.75
  -2   1  -7   -1.31    2.72
   2  -1   7    0.68    1.10
   2  -1   7    4.28    1.46
   2  -1   7   -6.42    2.83
   2  -1   7   -1.73    3.34
  -3   1  -7   12.56    4.48
  -3   1  -7   14.02    3.23
  -3   1  -7   15.40    5.33
  -3   1  -7   12.73    2.41
   3  -1   7   13.03    2.10
   3  -1   7   15.04    2.45
   3  -1   7    9.49    4.09
   3  -1   7   11.46    5.20
  -4   1  -7   58.63    6.36
  -4   1  -7   53.69    7.92
  -4   1  -7   57.12    5.58
  -4   1  -7   56.30    9.70
   4  -1   7   55.94    5.51
   4  -1   7   58.82    9.62
   4  -1   7   55.12    7.56
   4  -1   7   62.85    5.26
  -5   1  -7    3.19    4.12
  -5   1  -7    4.19    2.64
  -5   1  -7    1.12    1.13
  -5   1  -7    4.03    4.48
  -5   1  -7   -1.66    2.30
   5  -1   7    0.73    4.23
   5  -1   7   -0.91    2.53
   5  -1   7   -0.85    2.80
  -6   1  -7    4.34    4.30
  -6   1  -7   -0.06    2.67
  -6   1  -7    2.43    3.91
  -6   1  -7   -4.43    2.31
   6  -1   7    2.99    3.26
   6  -1   7    5.97    5.46
  -7   1  -7    8.95    4.02
  -7   1  -7    7.17    5.00
   7  -1   7   12.17    4.37
   7  -1   7   19.23    7.77
  -8   1  -7    5.04    4.60
   8  -1   7   -2.10    4.35
   8  -1   7   11.80    7.92
  -9   1  -7    3.86    4.72
   9  -1   7    1.26    5.15
   9   0  -7   -0.72    5.68
  -9   0   7    8.42    5.68
  -9   0   7    0.92    4.88
  -9   0   7   -1.95    5.08
   8   0  -7    3.72    5.08
  -8   0   7    2.75    4.27
  -8   0   7   10.98    5.17
  -8   0   7    3.54    4.98
   7   0  -7    1.45    4.44
  -7   0   7    1.45    4.06
  -7   0   7    0.26    3.72
  -7   0   7   -5.23    4.54
   6   0  -7   16.55    5.16
   6   0  -7   18.93    4.54
  -6   0   7   19.38    5.88
  -6   0   7   15.48    5.66
  -6   0   7   24.70    6.05
   5   0  -7   56.62    8.26
   5   0  -7   48.02    7.84
  -5   0   7   73.42    8.59
  -5   0   7   76.69    7.65
  -5   0   7   59.84    8.99
  -5   0   7   55.68    9.33
   4   0  -7   42.14    6.55
   4   0  -7   63.34    7.88
   4   0  -7   59.71    6.80
   4   0  -7   53.25    7.83
  -4   0   7   62.67    7.04
  -4   0   7   33.75    6.31
  -4   0   7   46.66    6.37
  -4   0   7   41.52    7.12
  -4   0   7   31.18    7.35
   3   0  -7    5.91    3.29
   3   0  -7    2.54    3.94
   3   0  -7    7.84    2.73
   3   0  -7   -0.48    2.80
  -3   0   7    8.62    4.11
  -3   0   7    7.35    3.32
  -3   0   7    6.03    2.91
  -3   0   7    0.57    3.67
  -3   0   7    5.23    3.04
   2   0  -7   42.58    7.57
   2   0  -7   57.80    6.83
   2   0  -7   48.92    5.55
  -2   0   7   57.32    5.94
  -2   0   7   33.23    5.08
  -2   0   7   43.94    5.83
  -2   0   7   40.19    4.50
  -2   0   7   25.99    6.37
   1   0  -7   44.11    4.54
   1   0  -7   59.70    6.74
   1   0  -7   41.13    7.69
  -1   0   7   32.78    6.88
  -1   0   7   47.49    5.38
  -1   0   7   47.85    5.24
  -1   0   7   47.17    3.82
  -1   0   7   55.31    6.00
   0   0  -7   73.42    6.96
   0   0  -7   53.71    8.91
   0   0  -7   70.87    6.94
   0   0   7   65.00    5.45
   0   0   7   57.09    8.69
   0   0   7   69.54    5.55
   0   0   7   73.70    6.80
  -1   0  -7    2.89    3.60
  -1   0  -7    5.90    2.97
  -1   0  -7    7.14    3.09
   1   0   7   -0.43    2.59
   1   0   7    4.40    0.99
   1   0   7    5.90    1.00
   1   0   7    5.03    4.06
  -2   0  -7   -0.40    2.33
  -2   0  -7   -2.14    3.29
  -2   0  -7   -0.09    2.90
   2   0   7   -2.12    3.14
   2   0   7   -4.05    3.33
  -3   0  -7  106.23    8.25
  -3   0  -7  118.32   11.43
  -3   0  -7   93.92    9.20
   3   0   7   95.16   10.40
   3   0   7   90.95    9.27
   3   0   7   88.51    6.03
   3   0   7   80.34    5.96
  -4   0  -7   -1.39    3.42
  -4   0  -7   -2.65    2.41
  -4   0  -7   -4.28    3.13
  -4   0  -7   -0.32    2.12
   4   0   7   -1.56    1.54
   4   0   7   -2.49    1.30
   4   0   7   -3.45    2.75
   4   0   7   -6.25    3.66
  -5   0  -7   -0.87    2.59
  -5   0  -7    1.30    4.08
  -5   0  -7   -3.23    3.80
  -5   0  -7    3.28    2.91
   5   0   7    1.79    2.78
   5   0   7    3.27    4.75
   5   0   7    1.82    2.39
  -6   0  -7   -4.28    3.21
  -6   0  -7    2.36    3.21
  -6   0  -7   -0.49    3.51
  -6   0  -7    3.56    3.54
   6   0   7   -0.21    2.62
   6   0   7   -2.93    4.58
  -7   0  -7   19.49    4.76
  -7   0  -7   14.40    5.86
  -7   0  -7    1.95    4.17
   7   0   7   14.48    6.98
   7   0   7   10.78    4.13
  -8   0  -7   -7.70    3.98
   8   0   7   -1.54    5.99
   8   0   7    0.86    4.01
  -9   0  -7    9.53    6.19
   9   0   7   16.12    5.89
   9  -1  -7    2.91    6.03
  -9   1   7   10.20    7.20
  -9   1   7   10.75    4.98
  -9   1   7    3.94    6.19
   8  -1  -7   -7.30    3.89
  -8   1   7   14.58    5.14
  -8   1   7    3.38    4.64
  -8   1   7    2.29    5.63
   7  -1  -7    3.75    4.96
  -7   1   7    7.22    5.59
  -7   1   7   17.02    6.21
  -7   1   7   13.94    5.26
   6  -1  -7   -3.50    2.54
   6  -1  -7    2.20    4.22
  -6   1   7    2.76    3.82
  -6   1   7    3.44    4.20
  -6   1   7   -2.34    4.13
  -6   1   7    0.92    3.75
   5  -1  -7   27.64    5.99
   5  -1  -7   25.52    5.86
   5  -1  -7   23.40    5.75
  -5   1   7   34.16    7.06
  -5   1   7   24.66    6.50
  -5   1   7   33.53    6.14
  -5   1   7   32.73    6.06
   4  -1  -7   86.58   10.52
   4  -1  -7   91.79    8.99
   4  -1  -7  114.32   10.08
  -4   1   7   87.79    9.36
  -4   1   7  105.08   10.11
  -4   1   7  104.29   10.03
  -4   1   7  118.54    9.47
   3  -1  -7   -3.59    2.24
   3  -1  -7    2.13    2.61
   3  -1  -7   -0.82    2.83
   3  -1  -7    1.81    2.82
  -3   1   7   -4.02    2.53
  -3   1   7   -0.65    2.42
  -3   1   7    3.93    3.24
  -3   1   7    6.59    3.48
   2  -1  -7    7.56    3.41
   2  -1  -7   13.15    3.15
   2  -1  -7   11.16    4.73
   2  -1  -7   15.57    3.66
  -2   1   7   12.00    3.11
  -2   1   7   10.35    3.45
  -2   1   7   14.90    3.91
  -2   1   7   15.19    3.13
   1  -1  -7    3.13    3.97
   1  -1  -7   13.17    3.63
   1  -1  -7   12.91    2.31
   1  -1  -7   16.85    3.62
  -1   1   7   10.77    3.52
  -1   1   7   14.95    2.73
  -1   1   7    8.80    2.79
   0  -1  -7   -1.04    2.83
   0  -1  -7    1.50    2.52
   0  -1  -7   -3.69    3.07
   0   1   7   -0.20    2.49
   0   1   7    0.35    1.34
   0   1   7    1.44    1.62
   0   1   7   -1.34    1.09
  -1  -1  -7    9.61    3.30
  -1  -1  -7    2.25    3.79
  -1  -1  -7    5.96    3.07
   1   1   7    6.12    1.80
   1   1   7    4.68    3.07
  -2  -1  -7  100.90   12.01
  -2  -1  -7  108.94   10.04
  -2  -1  -7  123.40    9.94
   2   1   7  114.51    8.34
  -3  -1  -7    0.08    3.97
  -3  -1  -7    8.66    4.00
  -3  -1  -7    9.36    3.58
   3   1   7   10.43    2.73
   3   1   7    0.33    3.69
  -4  -1  -7    5.17    3.12
  -4  -1  -7    4.78    4.51
  -4  -1  -7    7.74    3.07
  -4  -1  -7    0.62    3.59
   4   1   7    3.48    1.65
   4   1   7    0.78    4.10
   4   1   7    0.95    2.58
   4   1   7    0.10    3.00
   4   1   7    5.46    1.73
  -5  -1  -7    0.07    3.49
  -5  -1  -7    0.67    2.60
  -5  -1  -7    2.76    3.19
  -5  -1  -7   -1.95    4.08
   5   1   7   -0.05    1.98
   5   1   7    1.74    2.95
   5   1   7   -1.68    3.99
  -6  -1  -7    8.92    3.93
  -6  -1  -7    3.42    3.95
  -6  -1  -7    4.38    4.70
   6   1   7    7.55    5.40
   6   1   7   -0.22    2.70
  -7  -1  -7   -2.69    3.56
  -7  -1  -7    1.48    4.44
  -7  -1  -7   12.48    5.13
   7   1   7    3.66    3.50
   7   1   7   -2.53    5.09
  -8  -1  -7   -2.50    3.77
  -8  -1  -7    1.41    4.68
  -8  -1  -7   -4.27    4.00
   8   1   7    1.90    4.23
   9  -2  -7   -0.83    5.65
  -9   2   7   13.51    6.27
  -9   2   7    9.79    6.89
  -9   2   7   15.05    5.85
   8  -2  -7    7.66    5.70
  -8   2   7   -0.13    4.57
  -8   2   7    5.41    5.26
  -8   2   7   -7.21    5.42
   7  -2  -7    2.16    4.59
  -7   2   7   -3.10    4.25
  -7   2   7    2.77    3.66
  -7   2   7   -3.12    3.56
  -7   2   7   -3.17    3.80
   6  -2  -7   -5.55    2.99
   6  -2  -7    0.45    3.13
  -6   2   7   -1.94    4.15
  -6   2   7    1.95    4.11
  -6   2   7   -0.54    3.89
   5  -2  -7   34.91    5.62
   5  -2  -7   22.49    5.93
   5  -2  -7   24.92    5.63
  -5   2   7   25.57    6.33
  -5   2   7   26.15    6.12
  -5   2   7   24.02    5.41
   4  -2  -7    4.71    3.03
   4  -2  -7   -1.17    3.59
   4  -2  -7    4.57    4.02
  -4   2   7    7.74    4.28
  -4   2   7   -4.70    2.94
  -4   2   7    3.40    2.99
  -4   2   7    4.53    4.33
   3  -2  -7   36.60    7.77
   3  -2  -7   59.05    6.60
   3  -2  -7   59.40    6.99
  -3   2   7   70.46    8.15
  -3   2   7   49.50    6.70
  -3   2   7   35.30    5.73
   2  -2  -7   -0.40    2.25
   2  -2  -7   -3.41    1.93
   2  -2  -7    1.39    3.37
   2  -2  -7    0.29    3.89
  -2   2   7    1.07    2.90
  -2   2   7    1.33    3.02
  -2   2   7    4.37    2.60
   1  -2  -7   26.76    7.11
   1  -2  -7   36.91    4.01
   1  -2  -7   38.51    6.25
   1  -2  -7   42.45    5.42
  -1   2   7   47.32    6.71
  -1   2   7   34.74    4.68
  -1   2   7   38.56    4.63
   0  -2  -7    5.73    2.88
   0  -2  -7   10.10    4.88
   0  -2  -7   13.90    4.10
   0   2   7   14.07    2.41
   0   2   7   12.41    4.11
   0   2   7   14.91    2.62
   0   2   7   15.38    2.64
  -1  -2  -7   71.87    7.12
  -1  -2  -7   58.62    9.85
  -1  -2  -7   71.84    8.28
   1   2   7   64.91    5.93
   1   2   7   74.54    8.98
   1   2   7   72.60    5.11
  -2  -2  -7   41.65    6.25
  -2  -2  -7   30.90    5.81
  -2  -2  -7   38.03    7.97
   2   2   7   44.79    5.15
  -3  -2  -7   -0.24    3.50
  -3  -2  -7   -4.25    3.22
  -3  -2  -7    1.11    3.28
   3   2   7   -2.08    2.11
   3   2   7    0.19    1.13
   3   2   7   -0.08    1.15
   3   2   7    3.40    3.65
  -4  -2  -7    5.64    4.52
  -4  -2  -7    0.21    3.73
  -4  -2  -7    7.70    4.29
   4   2   7    4.09    3.99
   4   2   7    6.37    2.07
   4   2   7    3.79    1.99
  -5  -2  -7   -3.08    3.38
  -5  -2  -7   -2.63    2.51
  -5  -2  -7    2.83    4.41
   5   2   7    4.10    4.09
   5   2   7    3.04    2.31
  -6  -2  -7   13.81    5.56
  -6  -2  -7   25.68    6.09
  -6  -2  -7   11.54    4.64
   6   2   7   12.70    5.81
   6   2   7   22.68    4.26
  -7  -2  -7   -4.91    3.60
  -7  -2  -7    7.64    4.91
  -7  -2  -7    8.95    4.88
   7   2   7    9.61    3.76
  -8  -2  -7    7.72    5.11
  -8  -2  -7   -3.55    4.30
   8   2   7    0.97    4.19
   9  -3  -7    0.89    5.85
  -9   3   7    4.54    5.07
  -9   3   7    5.47    5.52
  -9   3   7    2.44    6.71
   8  -3  -7    7.04    5.97
  -8   3   7   -0.45    4.73
  -8   3   7    7.51    4.33
  -8   3   7    4.90    5.87
  -8   3   7    3.90    4.90
   7  -3  -7    3.82    3.67
   7  -3  -7    1.59    4.50
  -7   3   7    6.52    5.19
  -7   3   7    5.98    4.87
  -7   3   7   -2.42    4.55
   6  -3  -7   47.21    7.85
   6  -3  -7   42.05    6.12
   6  -3  -7   32.68    6.74
  -6   3   7   48.09    8.59
  -6   3   7   29.95    6.66
  -6   3   7   39.11    8.08
   5  -3  -7   34.12    7.61
   5  -3  -7   44.62    5.75
   5  -3  -7   36.46    6.84
  -5   3   7   43.82    7.15
  -5   3   7   33.48    7.41
  -5   3   7   36.93    7.63
   4  -3  -7   29.54    4.33
   4  -3  -7   27.46    5.30
   4  -3  -7   17.72    5.97
  -4   3   7   18.76    5.45
  -4   3   7   21.16    4.91
  -4   3   7   23.61    6.43
   3  -3  -7   11.08    3.69
   3  -3  -7    8.18    4.97
   3  -3  -7   10.02    2.71
  -3   3   7   15.74    4.49
  -3   3   7    8.16    3.59
  -3   3   7   12.43    4.93
   2  -3  -7   11.85    5.27
   2  -3  -7    6.25    3.05
   2  -3  -7   10.19    2.96
   2  -3  -7   10.95    4.45
  -2   3   7   11.40    3.22
  -2   3   7    8.03    3.60
  -2   3   7   11.14    4.60
   1  -3  -7   -1.98    3.93
   1  -3  -7    2.01    2.04
   1  -3  -7    3.02    3.59
  -1   3   7    1.05    2.60
  -1   3   7    3.90    2.47
  -1   3   7    4.85    3.88
   0  -3  -7   24.96    5.14
   0  -3  -7   15.07    1.78
   0  -3  -7   14.83    1.69
   0  -3  -7    6.70    4.16
   0  -3  -7   13.39    3.24
   0   3   7   13.26    4.72
   0   3   7   20.04    2.95
   0   3   7   15.84    3.08
   0   3   7   16.95    3.10
  -1  -3  -7   -3.44    2.84
  -1  -3  -7    5.05    3.29
  -1  -3  -7    2.35    4.53
   1   3   7    5.06    2.40
   1   3   7   -1.54    3.42
   1   3   7    3.43    1.80
  -2  -3  -7   51.87    9.86
  -2  -3  -7   84.62    9.13
  -2  -3  -7   60.07    7.92
   2   3   7   60.90    9.06
   2   3   7   63.24    5.16
   2   3   7   58.69    5.19
   2   3   7   67.62    6.52
  -3  -3  -7    7.91    5.45
  -3  -3  -7    3.37    3.53
  -3  -3  -7    2.92    4.10
   3   3   7    3.93    3.49
   3   3   7   -0.22    1.78
   3   3   7    4.12    2.08
  -4  -3  -7    2.74    4.68
  -4  -3  -7   -0.86    3.56
   4   3   7    1.02    2.16
   4   3   7    2.68    3.38
  -5  -3  -7   51.15    8.21
  -5  -3  -7   41.19    8.74
   5   3   7   46.70    7.40
   5   3   7   41.23    5.39
  -6  -3  -7    2.98    4.79
  -6  -3  -7    6.06    3.87
  -6  -3  -7    6.14    4.84
   6   3   7   12.34    3.86
  -7  -3  -7   -1.24    4.17
  -7  -3  -7    0.55    4.45
  -7  -3  -7    1.51    3.71
   7   3   7    4.55    3.69
  -8  -3  -7   10.72    5.86
  -8  -3  -7   11.78    6.64
   8   3   7    9.53    5.02
   9  -4  -7    5.85    6.75
  -9   4   7   12.55    8.17
  -9   4   7   10.31    6.75
   8  -4  -7   -0.07    5.15
  -8   4   7    0.14    5.20
  -8   4   7    3.14    5.52
  -8   4   7   -1.63    5.86
   7  -4  -7   67.23   10.41
   7  -4  -7   63.66   10.39
  -7   4   7   82.19   12.04
  -7   4   7   95.64   12.65
  -7   4   7   86.79   11.44
   6  -4  -7   10.96    4.99
   6  -4  -7   12.20    3.85
   6  -4  -7   12.94    5.31
  -6   4   7   12.38    6.29
  -6   4   7   14.91    5.17
  -6   4   7    2.29    5.49
   5  -4  -7   16.33    5.92
   5  -4  -7   12.34    4.77
   5  -4  -7   20.62    3.59
  -5   4   7   15.17    5.89
  -5   4   7   19.25    6.06
   4  -4  -7    1.75    3.70
   4  -4  -7   -4.31    3.33
  -4   4   7   -4.40    3.95
  -4   4   7    1.54    3.92
   3  -4  -7    3.08    1.95
   3  -4  -7    3.31    4.02
   3  -4  -7   -5.57    3.69
   3  -4  -7    2.82    3.03
  -3   4   7    4.10    3.86
  -3   4   7    4.60    3.14
  -3   4   7    6.22    4.40
   2  -4  -7   17.89    6.67
   2  -4  -7   33.69    6.38
   2  -4  -7   24.72    3.70
   2  -4  -7   22.11    4.08
  -2   4   7   25.54    6.44
  -2   4   7   25.74    4.88
  -2   4   7   31.87    5.33
   1  -4  -7   -1.20    3.23
   1  -4  -7    0.66    3.67
   1  -4  -7    1.81    2.27
  -1   4   7    2.13    3.05
  -1   4   7   -1.35    2.10
  -1   4   7   -1.98    3.83
   0  -4  -7   16.99    6.65
   0  -4  -7    0.30    2.81
   0  -4  -7    7.04    4.47
   0  -4  -7    6.14    2.05
   0   4   7   13.51    4.89
   0   4   7   13.08    2.94
   0   4   7   12.32    3.25
  -1  -4  -7    1.41    3.11
  -1  -4  -7   -1.50    4.09
  -1  -4  -7   -1.42    3.03
   1   4   7   -5.35    3.35
   1   4   7    0.70    2.30
  -2  -4  -7    1.67    3.62
  -2  -4  -7   -4.01    3.25
  -2  -4  -7    5.60    5.26
   2   4   7   -1.81    1.85
   2   4   7    1.45    1.87
   2   4   7    0.90    3.54
  -3  -4  -7    1.78    4.12
  -3  -4  -7    3.83    4.06
   3   4   7   -4.63    2.89
   3   4   7    5.34    2.92
   3   4   7    6.27    2.53
  -4  -4  -7   95.50   15.40
  -4  -4  -7  131.32   12.49
   4   4   7  141.45   10.60
  -5  -4  -7    3.04    4.64
  -5  -4  -7    7.95    5.74
   5   4   7   12.25    3.77
  -6  -4  -7   -5.03    4.39
  -6  -4  -7    3.20    5.18
   6   4   7    6.78    3.71
  -7  -4  -7   -2.70    4.54
  -7  -4  -7    2.19    5.22
   7   4   7    3.73    4.45
  -9   5   7    4.41    5.71
   8  -5  -7   -0.31    5.03
  -8   5   7    0.69    5.81
  -8   5   7   -8.05    5.48
  -8   5   7   -0.83    4.96
   7  -5  -7   -2.31    4.51
   7  -5  -7   -2.39    3.81
  -7   5   7    0.55    4.44
  -7   5   7   -1.30    5.74
  -7   5   7   -3.71    4.85
   6  -5  -7   17.98    6.07
   6  -5  -7   21.14    5.72
  -6   5   7   25.04    7.76
  -6   5   7   19.49    6.64
   5  -5  -7   -3.86    2.99
   5  -5  -7    0.34    4.43
  -5   5   7    0.37    4.45
  -5   5   7   -5.39    4.43
   4  -5  -7    1.07    3.10
   4  -5  -7    7.73    5.17
   4  -5  -7    3.63    3.87
  -4   5   7   16.29    5.67
  -4   5   7    7.93    5.14
   3  -5  -7   95.60   11.63
   3  -5  -7  100.74    9.57
   3  -5  -7   81.94   13.36
  -3   5   7  103.62   12.82
  -3   5   7  121.14   10.72
   2  -5  -7   12.06    3.76
   2  -5  -7   10.48    5.76
   2  -5  -7   19.52    5.67
  -2   5   7   19.68    6.12
  -2   5   7   24.99    5.40
   1  -5  -7    0.46    2.83
   1  -5  -7    2.74    3.95
   1  -5  -7   -0.77    2.26
   1  -5  -7    3.61    2.85
  -1   5   7    3.06    3.33
  -1   5   7    3.94    4.39
   0  -5  -7    3.73    4.24
   0  -5  -7    4.34    3.27
   0   5   7   16.90    5.60
   0   5   7   16.62    3.88
  -1  -5  -7   -3.05    2.97
  -1  -5  -7    7.67    4.38
   1   5   7    8.74    3.27
   1   5   7    7.57    4.57
  -2  -5  -7    7.54    4.41
  -2  -5  -7   -2.45    4.30
   2   5   7   -1.12    2.51
   2   5   7    5.88    4.98
  -3  -5  -7   16.92    5.59
  -3  -5  -7   15.96    6.79
   3   5   7   11.24    3.75
   3   5   7   14.12    5.47
  -4  -5  -7    7.57    5.95
  -4  -5  -7    4.44    4.53
   4   5   7    3.22    4.29
   4   5   7    3.86    3.51
  -5  -5  -7   14.28    6.25
  -5  -5  -7   16.85    6.99
   5   5   7   21.40    4.93
  -6  -5  -7    2.11    5.44
  -6  -5  -7   -1.43    4.73
   6   5   7   -1.07    3.80
  -7  -5  -7   -1.91    5.11
  -7  -5  -7    3.77    5.47
   8  -6  -7   -3.64    4.97
  -8   6   7    1.47    7.98
  -8   6   7   -8.29    6.43
  -8   6   7    1.89    6.31
   7  -6  -7   12.37    6.38
   7  -6  -7    5.04    5.48
  -7   6   7   16.55    6.89
  -7   6   7    2.30    6.00
  -7   6   7   12.84    6.54
   6  -6  -7   25.50    6.67
   6  -6  -7   12.26    6.14
  -6   6   7   22.07    7.25
  -6   6   7   34.72    9.10
   5  -6  -7   11.30    5.04
   5  -6  -7    6.14    5.72
  -5   6   7    5.12    5.33
  -5   6   7   15.93    7.04
   4  -6  -7   29.25    6.62
   4  -6  -7   23.83    7.73
   4  -6  -7   24.72    6.03
  -4   6   7   19.35    6.76
  -4   6   7   25.09    6.38
   3  -6  -7   14.89    4.55
   3  -6  -7    9.75    5.89
   3  -6  -7   17.55    5.58
  -3   6   7   23.51    6.98
  -3   6   7    8.34    5.05
   2  -6  -7   20.87    4.68
   2  -6  -7   14.11    6.60
   2  -6  -7   21.94    5.41
  -2   6   7   19.06    5.24
  -2   6   7   36.05    7.68
   1  -6  -7    8.21    3.21
   1  -6  -7    8.19    3.97
   1  -6  -7    6.99    5.87
  -1   6   7   15.00    5.95
  -1   6   7    8.07    4.31
   0  -6  -7    1.26    4.12
   0  -6  -7    3.09    5.65
   0   6   7    4.09    3.55
   0   6   7    6.16    5.06
  -1  -6  -7   -0.66    4.80
  -1  -6  -7    7.39    4.42
   1   6   7    8.75    5.34
   1   6   7    5.11    3.49
  -2  -6  -7    1.83    4.40
  -2  -6  -7   -2.95    3.69
   2   6   7    3.19    3.29
   2   6   7    0.57    4.51
  -3  -6  -7   -3.84    4.02
  -3  -6  -7   -3.24    4.57
   3   6   7    0.92    4.30
   3   6   7    2.22    3.42
  -4  -6  -7   31.51    9.55
  -4  -6  -7   51.58    9.44
   4   6   7   39.53    8.63
   4   6   7   73.56    8.13
  -5  -6  -7    1.83    5.17
  -5  -6  -7   -7.03    4.31
   5   6   7    6.02    5.21
   5   6   7    6.07    4.20
  -6  -6  -7    3.04    5.79
  -6  -6  -7    2.88    5.72
   6   6   7    7.01    5.05
   6   6   7    1.42    4.39
   7  -7  -7    6.96    5.98
  -7   7   7    5.42    6.67
  -7   7   7   -5.07    6.74
   6  -7  -7    0.43    4.82
  -6   7   7   -0.61    6.02
  -6   7   7   -8.07    5.29
   5  -7  -7   18.10    7.27
  -5   7   7   33.71    9.27
  -5   7   7   27.05    7.58
   4  -7  -7   -1.92    4.82
   4  -7  -7   -2.98    4.49
  -4   7   7   -1.53    5.22
  -4   7   7    2.00    5.55
   3  -7  -7    7.53    5.66
   3  -7  -7    9.66    5.44
  -3   7   7    2.60    5.68
  -3   7   7   12.02    6.12
   2  -7  -7    2.14    4.38
   2  -7  -7   -0.22    5.12
  -2   7   7    4.34    4.40
  -2   7   7   -6.20    4.05
   1  -7  -7    7.36    5.97
   1  -7  -7   12.38    5.02
  -1   7   7   22.53    5.72
  -1   7   7   25.51    7.35
   0  -7  -7    7.50    6.18
   0  -7  -7   23.15    6.38
   0   7   7   22.67    5.57
   0   7   7   10.35    6.16
  -1  -7  -7    4.86    4.61
  -1  -7  -7    5.77    5.74
   1   7   7    6.58    4.42
   1   7   7    0.73    4.85
  -2  -7  -7    2.01    4.27
  -2  -7  -7   -1.27    4.51
   2   7   7    3.42    4.96
   2   7   7   -0.40    3.70
  -3  -7  -7   38.08    8.15
  -3  -7  -7   27.93    9.00
   3   7   7   39.55    6.92
   3   7   7   32.34    8.27
  -4  -7  -7   -1.08    5.41
  -4  -7  -7   -4.55    4.31
   4   7   7    2.94    5.24
   4   7   7   -5.33    3.84
  -5  -7  -7    3.36    5.46
  -5  -7  -7   -0.23    5.28
   5   7   7    7.73    5.40
   5   7   7    4.80    4.90
   7  -8  -7   -3.45    4.73
   6  -8  -7   -3.75    4.82
  -6   8   7   -5.05    5.45
  -6   8   7   -1.01    6.81
   5  -8  -7    0.20    5.02
   5  -8  -7    0.96    5.55
  -5   8   7    8.17    7.18
  -5   8   7   -1.93    5.26
   4  -8  -7   34.86    8.11
   4  -8  -7   14.25    7.67
  -4   8   7   56.76    9.36
  -4   8   7   37.00    9.57
   3  -8  -7    2.00    4.97
   3  -8  -7    5.20    6.39
  -3   8   7    0.74    5.42
  -3   8   7   -4.84    5.21
   2  -8  -7    1.92    6.35
   2  -8  -7   -4.31    4.26
  -2   8   7    1.49    5.61
  -2   8   7    2.43    5.11
   1  -8  -7   52.17    9.54
   1  -8  -7   43.35   10.80
  -1   8   7   68.13    9.66
  -1   8   7   76.41   12.09
   0  -8  -7   -1.41    3.94
   0  -8  -7    6.80    5.83
   0   8   7    2.43    5.53
   0   8   7   -4.87    3.80
  -1  -8  -7   -4.83    3.91
  -1  -8  -7   -6.05    3.28
   1   8   7    3.11    5.25
   1   8   7    1.27    4.45
  -2  -8  -7    7.66    5.45
  -2  -8  -7   10.14    7.28
   2   8   7   24.01    6.79
   2   8   7   13.79    6.06
  -3  -8  -7  -10.36    4.10
  -3  -8  -7   -0.11    5.56
   3   8   7    0.44    5.04
   3   8   7   -2.52    5.14
  -4  -8  -7    3.49    5.29
  -4  -8  -7   10.31    6.96
   4   8   7    1.34    5.09
   4   8   7    6.29    5.46
   5  -9  -7    3.69    6.63
   5  -9  -7   21.27    7.48
  -5   9   7   20.56    9.03
  -5   9   7    8.64    6.74
   4  -9  -7    1.16    5.30
   4  -9  -7    3.04    5.63
  -4   9   7   -0.43    5.95
  -4   9   7   -3.49    6.39
   3  -9  -7   -0.68    4.43
   3  -9  -7    5.32    5.22
  -3   9   7    5.62    6.58
  -3   9   7   -2.08    5.81
   2  -9  -7   21.05    6.85
   2  -9  -7    4.58    6.54
  -2   9   7    8.01    5.49
  -2   9   7    1.23    6.56
   1  -9  -7   -2.16    5.16
   1  -9  -7    4.24    5.22
  -1   9   7    2.25    5.97
  -1   9   7   -3.72    4.89
   0  -9  -7   21.37    6.95
   0  -9  -7   21.51    9.05
   0   9   7   13.02    6.52
   0   9   7   14.58    6.90
  -1  -9  -7    5.57    4.50
  -1  -9  -7   -1.38    6.17
   1   9   7   -5.14    4.80
   1   9   7    1.15    5.32
  -2  -9  -7    4.84    6.51
  -2  -9  -7   -5.16    4.71
   2   9   7    1.11    5.32
   2   9   7    8.01    6.69
   2 -10  -7    3.82    5.50
   2 -10  -7   -1.54    6.34
   1 -10  -7   24.46    9.94
   1 -10  -7   15.80    7.35
   2  10  -8    3.65    5.14
   2  10  -8    9.85    7.25
  -2 -10   8    3.42    5.72
  -2 -10   8    1.44    5.02
  -2 -10   8    0.89    5.66
   1  10  -8   20.00    7.50
   1  10  -8   20.17    7.26
  -1 -10   8   15.15    6.53
  -1 -10   8   10.70    5.34
  -1 -10   8   18.85    7.33
   0  10  -8    6.69    5.44
   0  10  -8    8.81    6.65
   0 -10   8    7.92    5.95
   0 -10   8   17.58    7.79
  -1  10  -8   69.83   11.13
  -1  10  -8   64.39   10.22
   1 -10   8   60.31   12.07
   1 -10   8   68.59   11.72
  -2  10  -8   -0.93    4.34
   2 -10   8    1.81    5.63
   2 -10   8    2.21    6.46
  -3  10  -8   -0.38    3.85
   3 -10   8   -2.23    5.45
   3 -10   8    0.15    6.43
  -4  10  -8    3.29    4.18
   4 -10   8   -0.56    6.58
   4 -10   8    1.11    5.45
   4   9  -8    9.94    6.65
   4   9  -8   -2.58    4.87
  -4  -9   8   -7.09    6.19
  -4  -9   8    0.34    5.78
   3   9  -8    1.10    5.50
   3   9  -8    3.63    5.46
  -3  -9   8    9.80    8.51
  -3  -9   8    5.22    5.76
  -3  -9   8   11.10    5.18
   2   9  -8   13.03    6.12
   2   9  -8   11.93    6.33
  -2  -9   8   24.48    7.47
  -2  -9   8   22.62    7.48
  -2  -9   8    7.78    8.03
   1   9  -8   12.25    5.80
   1   9  -8    7.69    4.73
  -1  -9   8    2.07    7.07
  -1  -9   8    0.14    4.99
  -1  -9   8    7.84    5.75
   0   9  -8   94.08   12.29
   0   9  -8   88.83   11.78
   0  -9   8   57.42   11.64
   0  -9   8   65.47   12.86
   0  -9   8   70.30   10.86
  -1   9  -8    1.59    3.87
  -1   9  -8   -0.46    4.66
   1  -9   8    3.04    4.96
   1  -9   8    8.22    6.87
  -2   9  -8   10.56    5.56
  -2   9  -8    6.66    4.42
   2  -9   8    9.10    5.78
   2  -9   8    4.10    5.54
  -3   9  -8    3.99    4.21
   3  -9   8   -1.71    5.06
   3  -9   8    3.76    5.84
  -4   9  -8    5.69    4.85
   4  -9   8   16.09    6.83
   4  -9   8    8.75    7.23
  -5   9  -8    6.38    4.88
   5  -9   8    5.89    7.46
   5  -9   8   -0.39    5.40
  -6   9  -8    6.98    5.16
   6  -9   8   -1.30    7.80
   5   8  -8   -3.37    5.84
   5   8  -8    5.21    6.27
  -5  -8   8   -5.61    4.97
  -5  -8   8    4.68    8.64
   4   8  -8   11.67    6.28
   4   8  -8   -0.43    6.12
  -4  -8   8   -5.07    5.32
  -4  -8   8   15.62    4.73
  -4  -8   8   -3.23    4.94
   3   8  -8   18.18    7.05
   3   8  -8   10.65    5.99
  -3  -8   8   10.61    7.62
  -3  -8   8   13.85    5.53
  -3  -8   8   11.39    6.12
   2   8  -8    4.07    5.16
   2   8  -8   10.77    5.85
  -2  -8   8    7.91    5.06
  -2  -8   8    5.13    7.05
  -2  -8   8    3.92    5.02
   1   8  -8    3.50    4.67
   1   8  -8    0.08    5.26
  -1  -8   8    2.61    6.19
  -1  -8   8    3.99    5.39
  -1  -8   8    3.28    4.74
   0   8  -8    1.59    4.20
   0   8  -8    6.37    4.75
   0  -8   8   12.99    5.95
   0  -8   8    0.38    5.76
   0  -8   8    6.40    4.46
  -1   8  -8   21.91    6.09
  -1   8  -8   23.85    6.12
   1  -8   8   17.65    7.33
   1  -8   8   18.22    7.81
   1  -8   8   28.94    6.65
  -2   8  -8    6.55    4.62
  -2   8  -8    8.93    4.85
   2  -8   8    2.98    6.91
   2  -8   8    7.40    5.50
   2  -8   8    8.17    6.06
  -3   8  -8   -0.48    3.57
   3  -8   8    5.62    6.05
   3  -8   8    4.95    5.38
  -4   8  -8   75.51   11.21
   4  -8   8   82.66   14.56
   4  -8   8   98.22   12.16
  -5   8  -8   -4.11    3.13
   5  -8   8   -2.87    4.30
   5  -8   8   -0.64    6.52
  -6   8  -8   18.64    6.19
   6  -8   8    4.87    5.11
   6  -8   8   21.55    9.83
  -7   8  -8   11.58    6.31
   7  -8   8    8.61    8.60
   6   7  -8   23.17    8.29
   6   7  -8   15.15    7.42
  -6  -7   8   16.69    8.62
   5   7  -8    5.86    5.01
   5   7  -8    3.03    5.95
  -5  -7   8    3.14    6.58
   4   7  -8    9.61    5.77
   4   7  -8   -0.53    4.90
  -4  -7   8    0.82    5.80
  -4  -7   8    3.04    4.83
  -4  -7   8   23.78    6.35
   3   7  -8    2.84    5.10
   3   7  -8   -3.21    4.45
  -3  -7   8    2.78    3.67
  -3  -7   8    0.98    4.26
  -3  -7   8    4.29    6.25
   2   7  -8   -4.03    3.82
   2   7  -8    9.99    5.03
  -2  -7   8    1.48    5.66
  -2  -7   8    4.18    4.83
  -2  -7   8   11.22    5.41
   1   7  -8   26.70    6.69
   1   7  -8   18.31    5.56
  -1  -7   8   28.79    7.64
  -1  -7   8   27.23    8.06
  -1  -7   8    8.50    4.75
   0   7  -8    6.47    4.18
   0   7  -8   11.74    4.88
   0  -7   8    0.37    3.93
   0  -7   8   12.20    6.88
   0  -7   8    9.74    6.14
  -1   7  -8    9.53    4.80
  -1   7  -8   20.34    5.43
   1  -7   8    8.35    6.20
   1  -7   8   19.86    6.92
   1  -7   8    7.76    4.18
  -2   7  -8   58.33    8.56
  -2   7  -8   44.63    8.06
   2  -7   8   66.03    9.09
   2  -7   8   47.41   10.10
   2  -7   8   47.05   10.63
  -3   7  -8   73.34    8.78
  -3   7  -8   37.39    7.25
   3  -7   8   25.25    8.23
   3  -7   8   41.38    9.98
   3  -7   8   56.98    8.71
  -4   7  -8   21.87    5.86
   4  -7   8   21.89    5.83
   4  -7   8   15.93    7.97
  -5   7  -8    3.10    4.89
  -5   7  -8    1.76    3.58
   5  -7   8   -2.72    4.00
   5  -7   8   -4.73    4.63
  -6   7  -8    5.90    5.03
  -6   7  -8   -1.18    3.54
   6  -7   8   -0.11    6.50
   6  -7   8    3.93    4.72
  -7   7  -8   -6.19    5.13
   7  -7   8   -2.98    4.98
   7  -7   8   -0.86    6.78
   7   6  -8    3.70    5.75
  -7  -6   8    3.62    6.94
  -7  -6   8    8.43    5.93
  -7  -6   8    6.06    7.48
   6   6  -8   11.44    5.84
   6   6  -8   22.20    7.19
  -6  -6   8   19.73    6.60
  -6  -6   8   14.70    7.49
  -6  -6   8    2.83    6.78
   5   6  -8    9.59    5.68
   5   6  -8    8.82    5.92
  -5  -6   8    1.39    6.19
  -5  -6   8    4.74    6.14
   4   6  -8   40.73    8.45
   4   6  -8   50.90    9.18
  -4  -6   8   52.67   10.33
   3   6  -8   13.78    5.21
   3   6  -8   25.23    6.88
  -3  -6   8   16.30    6.73
   2   6  -8    1.00    3.48
   2   6  -8   -2.44    3.56
  -2  -6   8   -4.14    2.86
  -2  -6   8    1.62    3.92
  -2  -6   8    0.69    4.83
   1   6  -8   47.73    7.88
   1   6  -8   47.38    7.27
  -1  -6   8   41.94    8.97
  -1  -6   8   32.41    6.95
  -1  -6   8   44.55    9.45
   0   6  -8    7.38    4.04
   0   6  -8   11.71    5.08
   0  -6   8   17.81    7.07
   0  -6   8    9.53    4.00
   0  -6   8   14.25    6.03
  -1   6  -8   12.65    4.14
  -1   6  -8    9.52    4.55
   1  -6   8    9.36    5.45
   1  -6   8   15.86    4.50
   1  -6   8   -1.89    5.39
  -2   6  -8   35.21    6.50
  -2   6  -8   25.28    5.44
   2  -6   8   34.91    8.34
   2  -6   8   30.68    8.47
   2  -6   8   28.64    6.13
  -3   6  -8   17.02    4.64
  -3   6  -8   13.90    4.92
   3  -6   8    8.18    4.26
   3  -6   8    9.29    6.32
   3  -6   8   15.62    6.98
  -4   6  -8   32.83    7.07
  -4   6  -8   30.04    4.96
   4  -6   8   45.27    7.05
   4  -6   8   27.49    8.64
   4  -6   8   36.91    8.46
  -5   6  -8   10.47    3.91
  -5   6  -8    8.02    4.80
   5  -6   8   13.63    4.98
   5  -6   8    7.85    6.33
  -6   6  -8   -1.99    4.02
  -6   6  -8   -2.76    3.16
   6  -6   8   -3.39    5.65
   6  -6   8    4.84    4.77
  -7   6  -8    2.17    5.47
   7  -6   8    1.64    7.02
   7  -6   8    0.91    5.39
  -8   6  -8   -3.73    5.12
   8  -6   8   -3.87    6.90
   8  -6   8   11.94    6.47
   7   5  -8   21.09    7.64
  -7  -5   8   11.99    6.04
  -7  -5   8   14.47    7.68
  -7  -5   8   40.32    9.75
   6   5  -8   -2.02    4.54
  -6  -5   8    7.99    5.48
  -6  -5   8    7.92    6.43
  -6  -5   8    3.77    5.72
   5   5  -8   30.47    7.89
   5   5  -8   31.41    7.27
  -5  -5   8   22.71    7.93
  -5  -5   8   21.87    6.71
  -5  -5   8   28.32    6.42
   4   5  -8   10.89    5.54
   4   5  -8    7.86    4.73
  -4  -5   8    8.63    4.58
  -4  -5   8    3.97    4.94
  -4  -5   8    1.62    4.62
   3   5  -8   14.95    5.20
   3   5  -8    9.91    4.55
  -3  -5   8    3.82    4.92
  -3  -5   8    4.53    4.83
   2   5  -8   19.48    5.73
   2   5  -8   16.39    5.27
  -2  -5   8    6.05    5.33
   1   5  -8    1.96    3.58
   1   5  -8   -1.17    2.56
   1   5  -8   -0.21    2.13
  -1  -5   8   -1.47    3.01
  -1  -5   8    0.69    3.34
  -1  -5   8   -3.45    3.60
  -1  -5   8    2.97    4.64
   0   5  -8   -4.43    3.04
   0   5  -8    0.92    1.84
   0   5  -8   -1.70    2.83
   0  -5   8   -3.15    2.51
   0  -5   8   11.52    5.85
   0  -5   8   -1.34    3.22
   0  -5   8    4.62    4.46
  -1   5  -8   -0.17    3.42
  -1   5  -8    9.65    3.67
  -1   5  -8    6.77    2.28
   1  -5   8    6.67    3.88
   1  -5   8    2.96    5.01
   1  -5   8   13.37    5.87
   1  -5   8   15.62    4.13
  -2   5  -8   20.32    5.54
  -2   5  -8   13.19    2.69
  -2   5  -8   15.34    4.31
   2  -5   8   16.62    6.52
   2  -5   8   10.83    6.11
   2  -5   8   19.06    4.63
  -3   5  -8   24.63    3.70
  -3   5  -8   25.10    5.97
  -3   5  -8   20.20    4.50
   3  -5   8   12.68    5.85
   3  -5   8   23.77    7.59
   3  -5   8   26.80    5.27
  -4   5  -8   10.35    5.00
  -4   5  -8   17.51    3.51
   4  -5   8   19.30    6.31
   4  -5   8    8.20    6.00
   4  -5   8   18.61    4.98
  -5   5  -8    1.87    4.62
  -5   5  -8   -1.83    2.28
   5  -5   8    7.69    5.90
   5  -5   8    3.58    3.75
   5  -5   8  -10.02    3.80
  -6   5  -8   21.80    6.67
  -6   5  -8   13.95    4.37
   6  -5   8   27.21    8.79
   6  -5   8   16.33    5.49
  -7   5  -8   -3.94    4.68
  -7   5  -8    3.79    4.06
   7  -5   8    7.41    7.23
   7  -5   8   -3.19    4.50
  -8   5  -8    6.24    6.44
   8  -5   8    7.47    6.14
   8  -5   8   -6.56    6.75
   8   4  -8    8.68    6.78
  -8  -4   8   -3.08    6.29
  -8  -4   8    4.40    7.44
  -8  -4   8   11.73    6.88
   7   4  -8    7.36    5.81
  -7  -4   8   -2.90    5.45
  -7  -4   8   -6.75    5.25
  -7  -4   8   -2.82    4.87
   6   4  -8    0.54    4.69
  -6  -4   8    6.51    5.89
  -6  -4   8    4.58    6.06
  -6  -4   8    2.88    4.72
   5   4  -8   -2.65    3.73
   5   4  -8    3.28    4.80
  -5  -4   8    9.95    5.83
  -5  -4   8    1.70    4.79
  -5  -4   8    1.45    3.81
   4   4  -8   -2.35    3.82
   4   4  -8   -6.32    2.56
  -4  -4   8   -0.94    4.03
  -4  -4   8   -2.28    2.90
  -4  -4   8   -1.45    4.51
   3   4  -8    7.99    4.65
   3   4  -8   11.01    4.38
  -3  -4   8   11.06    5.34
  -3  -4   8   18.75    5.16
  -3  -4   8    7.19    3.53
   2   4  -8   20.72    5.50
   2   4  -8    4.90    2.48
   2   4  -8   10.73    3.77
  -2  -4   8   13.65    4.92
  -2  -4   8    3.53    3.43
  -2  -4   8    9.48    5.28
   1   4  -8   13.50    4.98
   1   4  -8   19.60    3.02
   1   4  -8   26.09    5.06
  -1  -4   8   15.90    4.46
  -1  -4   8   18.83    6.31
   0   4  -8   -1.42    2.61
   0   4  -8    0.48    1.25
   0   4  -8    2.44    3.62
   0  -4   8    0.63    2.77
   0  -4   8   -4.56    3.88
   0  -4   8   -1.90    4.23
   0  -4   8    3.71    3.23
  -1   4  -8  105.63    8.23
  -1   4  -8   88.28   10.43
  -1   4  -8   81.66    6.03
   1  -4   8   84.83   12.94
   1  -4   8   96.28   12.50
   1  -4   8   95.62    8.38
   1  -4   8   94.53    8.33
   1  -4   8   85.51    6.94
  -2   4  -8   80.53   10.02
  -2   4  -8   77.06    5.64
  -2   4  -8   74.36    5.62
  -2   4  -8   84.66    7.40
   2  -4   8   87.91    7.65
   2  -4   8   83.53    7.73
   2  -4   8   79.06   11.27
   2  -4   8   73.70   12.15
   2  -4   8   74.74    7.29
  -3   4  -8   -3.00    3.01
  -3   4  -8    2.06    1.75
   3  -4   8    1.11    2.78
   3  -4   8   -0.64    2.59
   3  -4   8    4.08    4.97
   3  -4   8   -1.19    4.28
  -4   4  -8    9.15    2.50
  -4   4  -8   -3.64    3.25
   4  -4   8    6.31    3.52
   4  -4   8    8.08    5.87
   4  -4   8   14.84    5.53
  -5   4  -8    2.20    4.11
  -5   4  -8    1.83    2.61
   5  -4   8    4.08    4.72
   5  -4   8   -1.80    4.69
   5  -4   8    2.27    3.39
  -6   4  -8   24.73    4.94
  -6   4  -8   18.79    5.80
   6  -4   8   20.61    5.60
   6  -4   8   23.92    8.69
  -7   4  -8    3.80    3.69
  -7   4  -8    1.56    5.34
   7  -4   8   -2.44    6.01
   7  -4   8   -1.17    4.35
  -8   4  -8   15.83    7.24
   8  -4   8    5.76    8.09
   8  -4   8   21.87    6.50
   8   3  -8    1.50    5.97
  -8  -3   8    0.96    6.01
  -8  -3   8    1.27    6.27
  -8  -3   8   -1.26    6.36
   7   3  -8   17.98    6.72
  -7  -3   8    4.14    5.23
  -7  -3   8    6.56    6.09
  -7  -3   8    2.53    5.92
   6   3  -8    1.21    4.39
  -6  -3   8    3.20    5.30
  -6  -3   8    8.59    5.83
  -6  -3   8    2.05    4.40
   5   3  -8   19.94    6.47
   5   3  -8   19.15    5.64
  -5  -3   8   18.48    6.71
  -5  -3   8   29.79    6.01
  -5  -3   8   19.98    6.43
   4   3  -8   12.10    4.85
   4   3  -8   24.85    6.07
  -4  -3   8   16.45    6.26
  -4  -3   8   18.52    4.60
  -4  -3   8   12.69    5.35
   3   3  -8   -6.75    2.97
   3   3  -8    5.19    3.91
   3   3  -8    2.47    2.63
  -3  -3   8   -5.13    3.42
  -3  -3   8   -3.69    2.58
  -3  -3   8   -1.97    2.83
  -3  -3   8    1.92    4.56
   2   3  -8    9.46    4.56
   2   3  -8    5.59    3.60
  -2  -3   8    6.63    4.84
  -2  -3   8    2.13    2.67
  -2  -3   8    8.57    4.35
   1   3  -8   11.87    3.57
   1   3  -8   12.29    4.60
   1   3  -8   10.28    4.19
  -1  -3   8    5.52    3.19
  -1  -3   8   11.89    5.51
   0   3  -8   -0.58    4.23
   0   3  -8    2.11    3.30
   0   3  -8    1.01    2.12
   0  -3   8    1.74    2.38
   0  -3   8    0.45    1.04
   0  -3   8    2.99    4.31
   0  -3   8    0.80    0.99
   0  -3   8    4.85    2.91
  -1   3  -8  168.71   14.14
  -1   3  -8  158.76   16.90
   1  -3   8  178.73   12.84
   1  -3   8  155.28   16.73
   1  -3   8  178.00   16.13
   1  -3   8  171.48   12.74
  -2   3  -8   17.36    4.57
  -2   3  -8   26.31    6.57
   2  -3   8   27.82    4.31
   2  -3   8   23.34    3.81
   2  -3   8   26.61    6.60
   2  -3   8   20.61    6.35
  -3   3  -8    4.03    3.70
  -3   3  -8    6.33    1.52
  -3   3  -8    7.74    2.10
   3  -3   8    6.44    4.75
   3  -3   8    9.72    5.37
   3  -3   8    3.01    2.63
   3  -3   8    7.97    2.57
  -4   3  -8    1.97    2.00
  -4   3  -8   -0.13    1.83
  -4   3  -8   -2.86    2.95
   4  -3   8    1.55    4.45
   4  -3   8    1.18    2.81
   4  -3   8    2.79    4.88
  -5   3  -8   18.57    3.96
  -5   3  -8   14.11    5.35
   5  -3   8   22.64    5.83
   5  -3   8   20.08    4.58
   5  -3   8   32.64    8.35
  -6   3  -8   18.09    4.48
  -6   3  -8   20.53    6.36
   6  -3   8   22.16    8.03
   6  -3   8   16.22    4.92
  -7   3  -8    4.91    5.68
  -7   3  -8    1.66    3.59
   7  -3   8   -4.37    3.76
   7  -3   8   -0.14    6.85
  -8   3  -8    1.80    6.04
   8  -3   8   -3.22    7.00
   8  -3   8   11.49    5.73
  -9  -2   8    4.73    6.86
   8   2  -8   -0.98    5.77
  -8  -2   8    4.26    6.57
  -8  -2   8   -1.63    5.30
  -8  -2   8    2.65    5.85
   7   2  -8   -0.47    4.27
  -7  -2   8    1.55    4.70
  -7  -2   8    0.02    4.61
  -7  -2   8    5.15    4.77
   6   2  -8   93.62   11.86
  -6  -2   8  113.42   14.34
  -6  -2   8  106.32   10.22
  -6  -2   8   85.27   12.37
   5   2  -8   12.74    4.77
   5   2  -8   29.52    6.66
  -5  -2   8    9.43    5.31
  -5  -2   8   13.86    4.73
  -5  -2   8   14.04    5.57
   4   2  -8    6.51    3.70
   4   2  -8   11.81    2.43
   4   2  -8    8.78    4.10
   4   2  -8    6.67    4.60
  -4  -2   8   11.14    3.82
  -4  -2   8    1.38    4.60
  -4  -2   8   10.83    4.98
   3   2  -8   46.86    6.98
   3   2  -8   67.19    8.91
   3   2  -8   52.11    8.70
  -3  -2   8   53.64    6.12
  -3  -2   8   49.51    9.12
  -3  -2   8   60.27    7.87
  -3  -2   8   51.76    7.34
   2   2  -8   -1.64    2.78
   2   2  -8    3.65    3.17
   2   2  -8    3.41    3.94
  -2  -2   8    3.31    1.99
  -2  -2   8    5.45    3.81
  -2  -2   8    5.69    4.93
  -2  -2   8    4.56    1.58
  -2  -2   8    7.91    3.36
   1   2  -8    1.44    4.08
   1   2  -8   -3.47    2.67
   1   2  -8    5.73    2.71
  -1  -2   8    9.02    3.43
  -1  -2   8    3.86    1.62
  -1  -2   8    0.09    4.30
  -1  -2   8    4.63    2.61
   0   2  -8   93.48    8.68
   0   2  -8   83.81   11.81
   0  -2   8   84.87   11.51
   0  -2   8   85.22    6.91
   0  -2   8   70.37    6.95
  -1   2  -8    4.01    4.34
  -1   2  -8    8.74    1.77
  -1   2  -8    3.78    1.54
  -1   2  -8    7.26    3.89
   1  -2   8    7.80    4.71
   1  -2   8    8.48    2.45
   1  -2   8    2.84    2.00
  -2   2  -8    2.54    3.46
  -2   2  -8   -2.06    2.60
   2  -2   8    0.84    1.69
   2  -2   8    4.85    2.07
   2  -2   8   -3.42    3.98
   2  -2   8    1.92    4.13
  -3   2  -8    3.85    4.10
  -3   2  -8    0.87    2.70
  -3   2  -8    1.80    1.07
   3  -2   8    0.77    1.61
   3  -2   8    0.40    4.15
   3  -2   8   -1.07    3.92
   3  -2   8    3.61    2.17
  -4   2  -8   24.65    7.25
  -4   2  -8   20.64    5.73
  -4   2  -8   35.45    4.09
  -4   2  -8   32.67    4.35
   4  -2   8   30.44    7.86
   4  -2   8   30.56    4.15
   4  -2   8   29.74    4.40
   4  -2   8   34.24    6.61
  -5   2  -8   32.20    7.24
  -5   2  -8   41.72    5.34
  -5   2  -8   29.42    8.05
   5  -2   8   60.97    7.85
   5  -2   8   44.86    5.63
   5  -2   8   36.35    8.50
  -6   2  -8   -1.83    2.78
  -6   2  -8   -2.60    4.47
   6  -2   8   -2.08    4.55
   6  -2   8    3.26    3.53
  -7   2  -8   -1.62    3.12
  -7   2  -8   -0.40    5.04
   7  -2   8    4.98    4.15
   7  -2   8    4.64    6.70
  -8   2  -8   -7.17    3.33
   8  -2   8   -8.81    6.23
   8  -2   8    3.76    4.72
   9   1  -8   -2.86    5.74
  -9  -1   8    6.97    6.50
  -9  -1   8   15.84    7.85
  -9  -1   8   11.26    6.63
   8   1  -8    1.03    5.48
  -8  -1   8    1.86    4.68
  -8  -1   8    3.09    5.50
  -8  -1   8    4.37    6.90
   7   1  -8    6.57    5.48
  -7  -1   8   15.59    6.01
  -7  -1   8   11.00    5.84
  -7  -1   8   19.74    7.02
   6   1  -8    5.71    4.31
  -6  -1   8   -0.62    4.28
  -6  -1   8    7.14    4.55
  -6  -1   8    6.51    4.33
   5   1  -8    6.27    3.92
   5   1  -8    7.12    4.31
   5   1  -8   17.72    5.62
  -5  -1   8   18.40    6.12
  -5  -1   8    7.55    4.12
  -5  -1   8    2.28    4.38
   4   1  -8   -2.15    2.01
   4   1  -8    1.30    3.36
   4   1  -8   -1.45    3.26
   4   1  -8   -1.20    3.46
  -4  -1   8    0.32    3.66
  -4  -1   8   -4.68    2.68
  -4  -1   8   -4.05    3.81
  -4  -1   8   -2.22    2.92
   3   1  -8   22.60    4.55
   3   1  -8   20.52    3.46
   3   1  -8   14.53    5.38
   3   1  -8   26.97    5.59
  -3  -1   8   15.84    4.48
  -3  -1   8   18.38    3.46
  -3  -1   8   18.66    4.41
  -3  -1   8   21.13    3.91
  -3  -1   8   14.26    5.93
   2   1  -8   14.95    5.37
   2   1  -8   19.93    4.06
   2   1  -8   16.94    4.66
  -2  -1   8   20.52    2.95
  -2  -1   8   17.45    4.07
  -2  -1   8   16.26    3.97
  -2  -1   8   18.82    3.37
  -2  -1   8    9.07    5.18
   1   1  -8    5.46    3.47
   1   1  -8   13.51    5.22
  -1  -1   8    4.44    3.25
  -1  -1   8    7.71    2.60
  -1  -1   8    0.16    3.99
  -1  -1   8    3.54    2.46
   0   1  -8    3.17    2.95
   0   1  -8    2.03    1.37
   0   1  -8    0.85    2.96
   0   1  -8    4.09    1.41
   0  -1   8    2.93    1.94
   0  -1   8    4.18    2.37
   0  -1   8    1.55    4.21
  -1   1  -8    4.62    4.66
  -1   1  -8    8.25    3.75
   1  -1   8    3.96    4.36
   1  -1   8    5.97    1.72
   1  -1   8    7.32    2.90
   1  -1   8    4.74    1.75
  -2   1  -8   10.15    5.17
  -2   1  -8    9.74    3.68
  -2   1  -8   23.12    4.18
   2  -1   8   17.33    2.13
   2  -1   8   12.66    1.81
   2  -1   8   11.10    5.31
   2  -1   8   10.59    4.77
  -3   1  -8    8.01    3.84
  -3   1  -8   21.13    6.64
  -3   1  -8   24.54    4.25
   3  -1   8   28.99    7.03
   3  -1   8   17.22    5.14
   3  -1   8   20.16    2.25
   3  -1   8   18.62    2.39
  -4   1  -8   91.21    7.10
  -4   1  -8   94.87    7.88
  -4   1  -8   71.47   11.75
  -4   1  -8   78.28   10.46
   4  -1   8   84.84    6.66
   4  -1   8   92.56    9.44
   4  -1   8   82.88   12.56
   4  -1   8   90.89    6.89
  -5   1  -8    1.39    2.69
  -5   1  -8   -2.35    2.25
  -5   1  -8   -0.46    4.17
  -5   1  -8   -5.77    3.61
   5  -1   8   -2.06    2.85
   5  -1   8    3.22    2.48
   5  -1   8   -4.19    4.18
  -6   1  -8   -0.43    2.95
  -6   1  -8   -1.91    4.23
  -6   1  -8    0.02    3.27
  -6   1  -8   -2.92    3.94
   6  -1   8    3.57    3.00
   6  -1   8    4.72    5.00
  -7   1  -8    3.00    3.74
  -7   1  -8   -0.15    5.37
   7  -1   8    1.97    6.00
   7  -1   8   -4.56    3.01
  -8   1  -8   -6.38    3.73
   8  -1   8   -0.85    4.18
   8  -1   8   -6.67    5.59
   9   0  -8   -4.46    5.19
  -9   0   8    8.36    5.33
  -9   0   8   -3.98    6.51
  -9   0   8    1.17    5.11
   8   0  -8    7.31    5.45
  -8   0   8   17.07    6.33
  -8   0   8   12.25    6.94
  -8   0   8    8.40    5.61
   7   0  -8   -5.34    3.86
  -7   0   8    3.17    4.61
  -7   0   8    4.08    4.62
  -7   0   8    6.05    5.38
   6   0  -8   15.62    5.41
   6   0  -8    7.34    4.65
   6   0  -8    2.79    3.32
  -6   0   8    7.80    5.62
  -6   0   8    6.46    4.79
  -6   0   8   12.26    5.48
   5   0  -8    4.06    3.54
   5   0  -8    6.39    4.29
   5   0  -8    7.89    4.20
  -5   0   8    1.72    4.46
  -5   0   8    2.28    3.31
  -5   0   8   12.18    5.25
  -5   0   8    3.52    3.79
   4   0  -8   33.94    5.97
   4   0  -8   34.26    6.87
   4   0  -8   37.06    6.43
  -4   0   8   31.32    5.33
  -4   0   8   34.83    5.45
  -4   0   8   34.51    6.53
  -4   0   8   21.32    5.20
  -4   0   8   38.40    7.94
   3   0  -8   52.94    9.43
   3   0  -8   81.23    7.07
   3   0  -8   85.23    9.24
   3   0  -8   71.36    6.98
  -3   0   8   51.31    7.68
  -3   0   8   73.13    7.88
  -3   0   8   47.56    9.06
  -3   0   8   58.98    6.60
  -3   0   8   52.84    7.33
   2   0  -8   13.78    3.50
   2   0  -8   23.44    4.88
   2   0  -8   24.95    6.24
  -2   0   8   12.79    3.52
  -2   0   8   24.76    6.46
  -2   0   8   18.34    4.28
  -2   0   8   19.54    3.05
  -2   0   8   23.76    4.23
   1   0  -8   14.91    5.00
   1   0  -8   23.37    4.90
  -1   0   8   15.65    3.66
  -1   0   8   24.72    4.40
  -1   0   8   20.97    2.04
  -1   0   8   13.25    5.33
  -1   0   8   22.15    3.59
   0   0  -8   -1.28    2.84
   0   0  -8    5.85    3.34
   0   0   8    4.37    2.10
   0   0   8   -0.18    3.96
   0   0   8    4.96    1.92
   0   0   8    1.15    2.57
  -1   0  -8    1.71    2.90
  -1   0  -8    3.91    4.49
  -1   0  -8   -2.57    3.09
   1   0   8    4.22    0.89
   1   0   8    2.72    0.81
   1   0   8    3.40    2.93
   1   0   8   12.53    5.10
  -2   0  -8   21.00    6.62
  -2   0  -8   35.82    5.35
  -2   0  -8   25.54    5.55
   2   0   8   22.77    6.29
   2   0   8   19.87    6.18
  -3   0  -8   10.34    3.68
  -3   0  -8    5.19    3.96
  -3   0  -8    5.98    4.89
   3   0   8    8.18    5.17
   3   0   8   15.98    5.00
  -4   0  -8    0.00    4.15
  -4   0  -8    1.04    3.10
  -4   0  -8   -1.82    2.51
  -4   0  -8    0.72    2.17
   4   0   8    0.77    0.98
   4   0   8    3.51    1.01
   4   0   8   -1.60    3.77
   4   0   8    9.46    3.71
  -5   0  -8    6.21    3.50
  -5   0  -8    3.43    2.97
  -5   0  -8   12.73    5.54
  -5   0  -8    4.73    4.69
   5   0   8    2.30    1.94
   5   0   8    3.77    4.96
   5   0   8   14.35    4.18
  -6   0  -8   -4.14    3.90
  -6   0  -8    2.47    3.66
  -6   0  -8   -2.44    2.50
  -6   0  -8    9.40    5.67
   6   0   8   -0.04    2.51
   6   0   8    6.88    5.48
  -7   0  -8   16.73    5.12
  -7   0  -8    4.69    5.07
   7   0   8   23.87    7.92
   7   0   8   15.42    4.28
  -8   0  -8    6.78    4.94
   8   0   8    9.43    4.39
   9  -1  -8    3.12    6.11
  -9   1   8   11.62    5.38
  -9   1   8    7.20    7.71
  -9   1   8   23.71    7.49
   8  -1  -8    0.58    5.32
  -8   1   8    0.19    6.69
  -8   1   8   20.64    6.75
  -8   1   8    3.94    4.67
   7  -1  -8   -8.81    3.38
  -7   1   8    0.99    4.16
  -7   1   8    1.46    5.31
  -7   1   8    4.91    4.76
   6  -1  -8   13.15    4.56
   6  -1  -8   15.48    5.33
   6  -1  -8   14.21    5.30
  -6   1   8   11.02    5.49
  -6   1   8   15.60    4.94
  -6   1   8    2.14    4.66
  -6   1   8    9.08    4.92
   5  -1  -8   33.04    6.76
   5  -1  -8   29.13    6.46
   5  -1  -8   31.55    5.95
  -5   1   8   41.71    6.97
  -5   1   8   34.53    7.08
  -5   1   8   23.49    5.58
  -5   1   8   29.19    6.95
   4  -1  -8  123.84   10.53
   4  -1  -8  100.77   12.13
   4  -1  -8  109.73   10.10
  -4   1   8  113.54    9.92
  -4   1   8  133.75   11.26
  -4   1   8  109.08   10.58
  -4   1   8   78.80   12.62
  -4   1   8  142.59   11.89
   3  -1  -8    1.62    2.65
   3  -1  -8   -0.29    3.51
   3  -1  -8    0.72    2.71
  -3   1   8    0.00    3.18
  -3   1   8    0.67    3.68
  -3   1   8    2.40    2.72
  -3   1   8    0.77    2.67
   2  -1  -8    3.91    2.86
   2  -1  -8    3.49    2.40
   2  -1  -8    3.90    4.34
  -2   1   8    2.30    2.35
  -2   1   8   -2.27    2.07
  -2   1   8    2.46    3.05
  -2   1   8   -0.34    3.13
   1  -1  -8    2.97    1.61
   1  -1  -8    1.49    3.08
   1  -1  -8    6.75    3.22
   1  -1  -8    3.30    1.69
  -1   1   8    5.98    2.80
  -1   1   8    0.98    2.01
  -1   1   8    8.08    3.59
   0  -1  -8    3.52    4.27
   0  -1  -8    1.24    3.32
   0  -1  -8    0.35    2.45
   0   1   8    0.97    1.80
   0   1   8    0.70    1.30
   0   1   8   -1.10    2.81
   0   1   8    0.04    1.38
  -1  -1  -8    0.70    3.00
  -1  -1  -8   -3.07    2.52
  -1  -1  -8   -0.39    3.18
   1   1   8    0.99    1.26
   1   1   8   -0.81    2.74
  -2  -1  -8   25.31    5.19
  -2  -1  -8   35.16    7.11
  -2  -1  -8   26.41    5.47
   2   1   8   25.94    3.35
  -3  -1  -8   34.57    5.95
  -3  -1  -8   31.33    6.25
  -3  -1  -8   27.10    7.36
   3   1   8   39.66    7.31
  -4  -1  -8    8.88    5.25
  -4  -1  -8   20.43    4.99
  -4  -1  -8    6.65    4.65
   4   1   8   24.05    6.36
   4   1   8   24.72    5.33
  -5  -1  -8   -4.41    3.44
  -5  -1  -8   -1.70    3.83
  -5  -1  -8    1.04    4.53
  -5  -1  -8    3.42    2.90
   5   1   8   -3.69    1.45
   5   1   8    5.05    3.28
   5   1   8    0.42    4.22
  -6  -1  -8   14.56    4.46
  -6  -1  -8    3.42    4.70
  -6  -1  -8   12.50    4.79
   6   1   8    8.16    2.87
   6   1   8    4.24    5.01
  -7  -1  -8   23.64    7.42
  -7  -1  -8   43.75    7.69
  -7  -1  -8   42.23    7.26
   7   1   8   45.39    5.92
  -8  -1  -8    2.62    4.51
  -8  -1  -8    4.04    4.97
   8   1   8    2.39    4.08
   9  -2  -8  -10.45    5.07
  -9   2   8    8.43    6.45
  -9   2   8   -4.11    6.29
  -9   2   8   13.47    5.99
   8  -2  -8   -5.32    4.35
  -8   2   8   11.72    6.99
  -8   2   8    7.72    5.25
  -8   2   8    6.25    5.26
   7  -2  -8    5.04    4.71
   7  -2  -8    2.79    3.59
  -7   2   8    0.89    4.59
  -7   2   8    1.00    4.42
  -7   2   8    1.95    6.11
  -7   2   8    7.18    4.69
   6  -2  -8   18.27    4.85
   6  -2  -8   15.87    5.34
   6  -2  -8   25.21    6.76
  -6   2   8   13.98    6.15
  -6   2   8   16.29    5.86
  -6   2   8   24.66    6.35
   5  -2  -8   16.66    5.67
   5  -2  -8   23.60    4.89
   5  -2  -8   18.34    4.90
  -5   2   8   19.55    5.51
  -5   2   8   23.58    5.52
  -5   2   8   12.09    5.38
   4  -2  -8   12.38    5.05
   4  -2  -8   12.69    4.14
   4  -2  -8   17.89    4.06
  -4   2   8   17.61    4.47
  -4   2   8   13.18    5.12
  -4   2   8   14.61    5.50
   3  -2  -8   -1.19    3.75
   3  -2  -8    0.21    2.66
   3  -2  -8    7.68    3.28
  -3   2   8    0.20    3.40
  -3   2   8    4.68    2.93
  -3   2   8   -0.20    2.85
  -3   2   8   -1.14    3.45
   2  -2  -8    1.50    2.30
   2  -2  -8    6.15    3.03
   2  -2  -8    0.51    4.14
  -2   2   8    1.04    2.57
  -2   2   8   12.36    4.38
  -2   2   8    7.97    3.66
   1  -2  -8   10.71    2.22
   1  -2  -8   15.76    5.94
   1  -2  -8   16.26    2.64
   1  -2  -8   13.37    3.90
   1  -2  -8   21.09    5.20
  -1   2   8   19.81    3.75
  -1   2   8   14.84    3.10
  -1   2   8   31.37    5.93
   0  -2  -8  137.16   14.86
   0  -2  -8  164.12   12.78
   0  -2  -8  135.32   11.57
   0   2   8  148.93   10.22
   0   2   8  137.18   10.25
   0   2   8  139.62   10.13
   0   2   8  142.14   12.77
  -1  -2  -8    7.85    4.06
  -1  -2  -8   11.38    5.22
  -1  -2  -8   17.26    4.58
   1   2   8   16.47    4.77
   1   2   8   12.01    2.80
  -2  -2  -8   72.73   11.20
  -2  -2  -8   68.37    8.85
  -2  -2  -8   84.56    9.55
   2   2   8   80.26    6.94
   2   2   8   87.73   10.57
  -3  -2  -8   28.64    5.89
  -3  -2  -8   23.02    5.64
  -3  -2  -8   20.73    6.34
   3   2   8   27.78    6.48
  -4  -2  -8    2.62    4.05
  -4  -2  -8    0.24    4.26
  -4  -2  -8   -3.84    2.76
   4   2   8    4.54    3.66
   4   2   8    0.35    1.01
  -5  -2  -8    0.39    4.61
  -5  -2  -8   -1.76    4.29
  -5  -2  -8   -1.48    3.22
   5   2   8   -0.24    1.81
   5   2   8   -1.16    3.52
   5   2   8   10.06    3.49
  -6  -2  -8   31.62    6.01
  -6  -2  -8   28.63    7.46
  -6  -2  -8   33.31    7.01
   6   2   8   36.86    4.85
  -7  -2  -8    7.00    5.50
  -7  -2  -8   17.09    6.09
  -7  -2  -8    7.15    4.55
   7   2   8    4.71    3.39
  -8  -2  -8   -1.37    4.37
  -8  -2  -8   -7.14    5.10
  -8  -2  -8   -0.06    4.91
   9  -3  -8    6.99    6.10
  -9   3   8    8.50    5.92
  -9   3   8    2.87    7.65
  -9   3   8   -1.04    5.43
   8  -3  -8    0.74    4.01
   8  -3  -8    0.89    5.79
  -8   3   8   -0.73    4.91
  -8   3   8   -2.59    5.76
  -8   3   8   11.18    5.54
  -8   3   8   13.47    5.40
   7  -3  -8   -2.18    2.96
   7  -3  -8   -7.65    4.26
   7  -3  -8    6.96    4.30
  -7   3   8   -3.14    3.89
  -7   3   8    3.31    5.47
  -7   3   8    3.97    5.32
   6  -3  -8    9.48    3.69
   6  -3  -8    0.25    3.84
   6  -3  -8   -0.16    4.12
  -6   3   8    2.23    4.53
  -6   3   8    1.64    4.57
  -6   3   8    9.97    5.63
   5  -3  -8   24.43    5.93
   5  -3  -8   40.37    5.67
   5  -3  -8   25.87    6.61
  -5   3   8   26.66    6.12
  -5   3   8   36.05    7.29
  -5   3   8   29.62    7.02
   4  -3  -8    0.80    4.00
   4  -3  -8   -1.67    2.07
   4  -3  -8   -0.98    2.69
  -4   3   8   -0.94    3.77
  -4   3   8    3.87    4.08
   3  -3  -8    7.64    2.78
   3  -3  -8    2.36    4.56
   3  -3  -8    5.91    3.31
  -3   3   8    3.17    4.41
  -3   3   8    6.16    4.43
   2  -3  -8   15.68    3.53
   2  -3  -8   16.74    3.65
   2  -3  -8   11.37    4.15
   2  -3  -8   18.25    6.49
  -2   3   8   29.60    6.18
  -2   3   8    5.58    3.08
  -2   3   8   23.06    4.66
   1  -3  -8   48.70    5.93
   1  -3  -8   31.11    7.77
   1  -3  -8   45.47    7.46
   1  -3  -8   40.43    4.19
  -1   3   8   49.96    5.58
  -1   3   8   39.71    5.44
  -1   3   8   46.51    7.56
   0  -3  -8    8.09    3.43
   0  -3  -8    8.45    5.82
   0  -3  -8   10.76    4.54
   0   3   8    6.70    2.57
   0   3   8    5.78    4.56
   0   3   8   10.15    2.80
   0   3   8   10.93    2.32
  -1  -3  -8    2.17    3.71
  -1  -3  -8    1.48    3.32
  -1  -3  -8    1.81    4.58
   1   3   8   -2.00    3.83
   1   3   8    0.55    2.25
   1   3   8   -0.90    1.57
  -2  -3  -8    1.09    3.61
  -2  -3  -8   -0.72    3.15
  -2  -3  -8    5.77    5.46
   2   3   8    2.65    3.79
   2   3   8    0.46    1.11
   2   3   8    0.33    1.12
  -3  -3  -8   -0.19    3.43
  -3  -3  -8   -2.38    3.51
  -3  -3  -8    7.04    4.72
   3   3   8    0.10    1.11
   3   3   8    5.71    3.61
   3   3   8   -0.70    3.61
   3   3   8    0.66    1.16
  -4  -3  -8   22.22    7.36
  -4  -3  -8   23.87    6.70
   4   3   8   41.82    6.97
   4   3   8   33.13    3.63
  -5  -3  -8   -0.36    5.60
  -5  -3  -8    3.41    4.33
   5   3   8    5.34    2.49
  -6  -3  -8    8.70    5.83
  -6  -3  -8    2.85    4.69
   6   3   8    4.61    3.15
  -7  -3  -8    5.60    5.46
  -7  -3  -8    2.20    5.24
   8  -4  -8   37.84   10.14
  -8   4   8   42.23    9.13
  -8   4   8   33.29    8.51
  -8   4   8   35.47    9.20
   7  -4  -8   -1.54    3.62
   7  -4  -8   -2.61    4.41
  -7   4   8   -1.46    4.90
  -7   4   8   -0.17    4.58
  -7   4   8   -3.35    4.92
   6  -4  -8   22.36    6.70
   6  -4  -8   23.92    6.59
  -6   4   8   30.81    7.31
  -6   4   8   40.90    8.19
  -6   4   8   48.42    9.18
   5  -4  -8    5.08    4.55
   5  -4  -8   10.16    5.57
  -5   4   8   13.27    6.01
  -5   4   8   14.23    6.07
   4  -4  -8    7.40    4.01
   4  -4  -8   -0.94    4.50
   4  -4  -8    3.81    2.25
  -4   4   8   18.62    6.19
  -4   4   8    5.70    4.68
   3  -4  -8   13.24    5.02
   3  -4  -8   11.19    2.72
   3  -4  -8   12.99    5.85
   3  -4  -8    3.02    2.95
  -3   4   8    8.67    4.73
  -3   4   8   13.94    5.72
   2  -4  -8    7.94    4.73
   2  -4  -8   17.84    3.38
   2  -4  -8    7.86    3.06
   2  -4  -8   11.00    5.92
  -2   4   8    9.96    4.09
  -2   4   8   17.65    5.94
   1  -4  -8    2.63    3.31
   1  -4  -8    2.60    2.42
   1  -4  -8   -1.46    4.53
  -1   4   8    5.35    3.17
  -1   4   8    2.43    4.23
   0  -4  -8    0.07    3.32
   0  -4  -8    8.73    3.27
   0  -4  -8   -0.01    3.69
   0   4   8   11.71    3.27
   0   4   8   10.34    5.00
  -1  -4  -8   19.26    6.62
  -1  -4  -8   29.26    5.84
  -1  -4  -8   39.48    6.96
   1   4   8   39.18    7.40
   1   4   8   34.60    4.41
  -2  -4  -8   -2.59    3.17
  -2  -4  -8    4.84    4.18
  -2  -4  -8    3.34    5.08
   2   4   8    0.30    4.05
   2   4   8    1.48    1.94
  -3  -4  -8    4.16    4.92
  -3  -4  -8   11.05    5.28
   3   4   8    5.03    2.40
   3   4   8   12.99    3.65
   3   4   8    5.66    4.83
  -4  -4  -8    6.32    4.63
  -4  -4  -8    4.68    5.45
   4   4   8    5.78    4.62
   4   4   8   10.22    2.83
  -5  -4  -8   36.41   10.07
  -5  -4  -8   70.55   10.71
   5   4   8   77.18    6.95
  -6  -4  -8   23.40    7.59
  -6  -4  -8    7.80    6.39
   6   4   8   26.06    4.93
  -7  -4  -8    3.04    5.51
  -7  -4  -8   -3.74    4.49
  -8   5   8    0.20    5.31
  -8   5   8   -0.11    6.66
  -8   5   8   -1.47    6.16
   7  -5  -8    6.80    5.79
  -7   5   8    1.55    5.50
  -7   5   8    3.54    6.70
  -7   5   8    5.51    6.28
   6  -5  -8    6.96    5.25
  -6   5   8   17.50    6.03
  -6   5   8   10.21    6.30
  -6   5   8   19.19    7.80
   5  -5  -8    3.49    4.96
   5  -5  -8   -0.50    3.63
  -5   5   8    0.83    4.99
  -5   5   8    8.60    5.25
   4  -5  -8    3.64    5.32
   4  -5  -8    3.06    3.86
  -4   5   8   -3.22    4.30
  -4   5   8    2.85    5.02
   3  -5  -8   30.76    8.74
   3  -5  -8   31.08    7.19
  -3   5   8   37.76    8.22
  -3   5   8   37.84    6.87
   2  -5  -8   30.55    6.89
   2  -5  -8   28.90    8.18
  -2   5   8   34.18    6.13
  -2   5   8   47.38    8.51
   1  -5  -8    5.93    4.48
   1  -5  -8    6.13    6.27
   1  -5  -8   11.27    3.31
  -1   5   8   14.73    4.04
  -1   5   8   10.62    5.55
   0  -5  -8    0.23    3.03
   0  -5  -8   -0.92    3.01
   0  -5  -8    2.78    5.76
   0   5   8    4.72    3.21
   0   5   8   -3.43    3.58
  -1  -5  -8    1.29    5.03
  -1  -5  -8   -2.63    3.51
   1   5   8   -1.47    3.86
   1   5   8   -1.67    2.33
  -2  -5  -8   18.80    7.31
  -2  -5  -8   10.74    5.04
   2   5   8   12.58    3.40
   2   5   8   19.60    6.33
  -3  -5  -8    6.09    4.87
  -3  -5  -8    1.72    5.45
   3   5   8    0.88    2.45
   3   5   8    0.55    4.12
  -4  -5  -8   39.48    8.03
  -4  -5  -8   20.83    8.15
   4   5   8   29.80    7.71
   4   5   8   47.85    5.78
  -5  -5  -8   21.13    8.04
  -5  -5  -8   31.01    7.63
   5   5   8   12.79    5.47
   5   5   8   11.69    4.03
  -6  -5  -8   -0.61    5.97
  -6  -5  -8    2.60    6.13
   7  -6  -8    0.91    5.07
  -7   6   8    0.01    6.70
  -7   6   8    1.75    6.38
  -7   6   8   -6.78    5.00
   6  -6  -8    5.42    5.40
  -6   6   8   -7.94    5.31
  -6   6   8    4.65    5.73
   5  -6  -8    7.35    6.21
  -5   6   8   -9.15    4.09
  -5   6   8   -6.43    5.02
   4  -6  -8   -4.99    4.47
   4  -6  -8    6.31    5.12
  -4   6   8   -3.05    5.87
  -4   6   8   -3.95    4.57
   3  -6  -8   29.32    8.53
   3  -6  -8   48.75    8.79
  -3   6   8   46.13    7.40
  -3   6   8   49.92    9.64
   2  -6  -8   20.82    6.09
   2  -6  -8   13.40    7.02
  -2   6   8   18.36    6.74
  -2   6   8   10.95    5.02
   1  -6  -8   -3.65    4.50
   1  -6  -8    0.84    4.36
  -1   6   8    0.39    5.07
  -1   6   8    4.53    4.28
   0  -6  -8   -1.83    3.48
   0  -6  -8   -3.25    3.81
   0   6   8    5.08    5.08
   0   6   8    5.61    3.71
  -1  -6  -8    2.27    4.25
  -1  -6  -8    3.44    4.06
   1   6   8    3.46    3.15
   1   6   8   -0.44    4.80
  -2  -6  -8   -0.01    3.98
  -2  -6  -8    6.24    6.11
   2   6   8   -0.10    2.98
   2   6   8    3.13    4.61
  -3  -6  -8    3.47    6.27
  -3  -6  -8    7.43    5.34
   3   6   8    5.27    3.65
   3   6   8   11.62    5.80
  -4  -6  -8   -5.07    5.04
  -4  -6  -8   -3.33    4.54
   4   6   8    0.08    3.50
   4   6   8    4.45    5.16
  -5  -6  -8    1.26    5.76
  -5  -6  -8    3.97    5.67
   5   6   8    7.59    4.37
   5   6   8    6.23    5.07
   7  -7  -8   -2.74    5.54
  -7   7   8    4.28    6.56
  -7   7   8    9.42    7.36
   6  -7  -8   -0.96    5.70
  -6   7   8   -1.07    7.03
  -6   7   8    6.12    6.32
   5  -7  -8    3.45    6.12
  -5   7   8    2.28    5.37
  -5   7   8   -1.58    6.09
   4  -7  -8   33.83    8.09
   4  -7  -8   25.46    8.99
  -4   7   8   48.45    8.94
  -4   7   8   52.07   10.52
   3  -7  -8   30.15    7.61
   3  -7  -8   22.58    8.68
  -3   7   8   36.96    7.29
  -3   7   8   37.00    8.92
   2  -7  -8    7.52    5.13
   2  -7  -8    6.83    6.56
  -2   7   8    8.19    6.64
  -2   7   8    9.52    5.66
   1  -7  -8    0.16    6.32
   1  -7  -8    5.14    4.69
  -1   7   8    8.89    4.99
  -1   7   8   -4.29    5.24
   0  -7  -8    3.71    4.55
   0  -7  -8    1.13    4.51
   0   7   8   -3.63    4.70
   0   7   8    2.96    3.97
  -1  -7  -8   15.35    6.08
  -1  -7  -8    3.71    5.40
   1   7   8    5.40    5.14
   1   7   8   11.95    4.34
  -2  -7  -8   -1.52    4.38
  -2  -7  -8    7.78    6.93
   2   7   8    0.98    5.49
   2   7   8    1.07    4.19
  -3  -7  -8    3.62    5.54
  -3  -7  -8   -6.70    4.51
   3   7   8    8.80    6.02
   3   7   8   -5.03    3.88
  -4  -7  -8    7.53    6.97
  -4  -7  -8    1.28    5.03
   4   7   8    6.69    5.72
   4   7   8   -0.73    3.98
   6  -8  -8   -2.40    5.84
   5  -8  -8    8.65    6.97
  -5   8   8  -14.32    6.02
  -5   8   8    1.92    6.33
   4  -8  -8    4.83    6.69
   4  -8  -8    7.32    5.85
  -4   8   8    0.23    6.82
  -4   8   8   21.47    7.52
   3  -8  -8    5.66    5.74
   3  -8  -8    4.71    6.67
  -3   8   8    2.03    6.31
  -3   8   8    4.35    5.65
   2  -8  -8   -2.66    4.00
   2  -8  -8    3.78    4.99
  -2   8   8    1.52    5.16
  -2   8   8   -8.29    4.88
   1  -8  -8    0.87    5.96
   1  -8  -8    4.32    5.01
  -1   8   8    3.27    6.74
  -1   8   8   12.71    5.46
   0  -8  -8   37.15    8.16
   0  -8  -8   14.08    8.29
   0   8   8   62.82    8.44
   0   8   8   40.66   10.06
  -1  -8  -8   -0.20    5.20
  -1  -8  -8    2.26    6.45
   1   8   8   13.82    6.64
   1   8   8    6.39    4.88
  -2  -8  -8   -1.94    5.65
  -2  -8  -8   -1.01    4.61
   2   8   8   -0.79    4.57
   2   8   8   -3.35    3.98
  -3  -8  -8   12.05    7.11
  -3  -8  -8   11.08    6.62
   3   8   8    6.40    5.97
   4  -9  -8    1.47    6.98
   4  -9  -8   10.05    6.33
   3  -9  -8   -2.82    4.83
   3  -9  -8   -1.62    6.58
  -3   9   8   -8.73    6.23
  -3   9   8   -6.35    4.92
   2  -9  -8    2.33    7.03
   2  -9  -8   16.37    6.14
  -2   9   8   -3.21    6.58
  -2   9   8   11.91    6.48
   1  -9  -8   10.78    6.19
   1  -9  -8    2.33    5.86
  -1   9   8   14.99    6.03
  -1   9   8   -0.75    7.01
   0  -9  -8   12.20    8.30
   0  -9  -8   26.84    7.96
   0   9   8   26.57    7.10
   0   9   8   32.04    9.65
  -1  -9  -8    6.12    6.10
  -1  -9  -8    2.27    6.58
   1  10  -9   -3.01    5.56
  -1 -10   9    4.69    5.63
   0  10  -9   10.82    5.47
   0 -10   9    4.19    5.41
   0 -10   9    8.39    6.66
  -1  10  -9    0.30    4.17
   1 -10   9   10.92    6.76
   1 -10   9    2.67    6.63
  -2  10  -9   18.79    6.71
   2 -10   9   21.53    7.43
   2 -10   9   28.34   10.06
  -3  10  -9    6.42    5.13
   3 -10   9    2.52    7.81
   3   9  -9    5.02    6.59
   3   9  -9    4.58    5.76
  -3  -9   9   16.66    5.70
  -3  -9   9   -0.22    6.09
  -3  -9   9   -8.55    6.78
   2   9  -9    3.80    5.36
   2   9  -9    1.55    6.51
  -2  -9   9   -1.97    7.43
  -2  -9   9   12.14    5.62
  -2  -9   9   -7.86    4.40
   1   9  -9    3.21    5.33
  -1  -9   9    9.76    6.09
  -1  -9   9    3.24    7.55
  -1  -9   9   18.95    7.63
   0   9  -9   -4.70    3.32
   0  -9   9    5.23    6.18
   0  -9   9  -10.76    6.03
   0  -9   9   -4.67    4.20
  -1   9  -9   27.62    7.24
   1  -9   9   30.81   10.02
   1  -9   9   25.04    9.27
   1  -9   9   27.61    7.46
  -2   9  -9   12.03    5.59
   2  -9   9   13.01    6.73
   2  -9   9   10.64    6.96
  -3   9  -9    9.03    5.14
   3  -9   9    7.71    5.85
   3  -9   9   10.55    7.59
  -4   9  -9    6.92    4.46
   4  -9   9   18.77    6.86
   4  -9   9    7.53    6.95
  -5   9  -9   -0.59    4.72
   5  -9   9    0.57    6.77
   4   8  -9    8.03    6.17
   4   8  -9   -1.29    5.16
  -4  -8   9    8.66    8.34
  -4  -8   9    5.95    6.53
   3   8  -9    6.48    6.05
   3   8  -9   21.72    7.43
  -3  -8   9   14.26    5.69
  -3  -8   9    6.26    7.29
  -3  -8   9    2.68    5.65
   2   8  -9   24.87    7.43
   2   8  -9   14.22    5.79
  -2  -8   9   14.54    6.05
  -2  -8   9   18.16    6.64
  -2  -8   9   12.95    8.12
   1   8  -9    4.25    5.24
   1   8  -9    1.37    4.31
  -1  -8   9    6.68    5.33
  -1  -8   9    5.75    5.82
  -1  -8   9   -0.22    5.79
   0   8  -9   14.59    5.81
   0   8  -9   13.67    6.30
   0  -8   9   17.02    5.48
   0  -8   9    5.28    5.65
   0  -8   9    4.08    7.67
  -1   8  -9    0.73    3.89
   1  -8   9    3.83    5.50
   1  -8   9    8.96    5.17
   1  -8   9    8.02    6.96
  -2   8  -9   -2.34    3.92
   2  -8   9    3.62    4.63
   2  -8   9    0.24    6.24
   2  -8   9    9.07    6.44
  -3   8  -9   -0.59    3.47
   3  -8   9    1.54    5.03
   3  -8   9   12.32    7.20
   3  -8   9    2.33    6.28
  -4   8  -9    7.47    5.13
   4  -8   9    3.49    4.91
   4  -8   9    3.49    6.65
  -5   8  -9   31.12    7.59
   5  -8   9   20.52    9.97
   5  -8   9   32.07    7.68
  -6   8  -9   11.08    6.43
   6  -8   9    1.25    5.29
   6  -8   9   11.96    8.88
   5   7  -9    7.46    6.90
   5   7  -9    4.54    4.66
  -5  -7   9    3.60    7.60
   4   7  -9    0.33    5.40
   4   7  -9   -4.31    4.84
  -4  -7   9   -0.56    4.53
  -4  -7   9   -1.27    6.28
  -4  -7   9   19.47    6.02
   3   7  -9   15.77    6.44
   3   7  -9    9.11    5.89
  -3  -7   9    6.01    5.54
  -3  -7   9   33.90    7.57
  -3  -7   9   17.53    7.88
   2   7  -9    3.83    4.38
   2   7  -9   -2.73    4.06
  -2  -7   9   -3.41    5.58
  -2  -7   9   11.56    5.96
  -2  -7   9    4.63    5.23
   1   7  -9   67.72   10.61
   1   7  -9   84.49   10.93
  -1  -7   9   63.99   12.20
  -1  -7   9   72.86   10.59
  -1  -7   9   78.46   13.28
   0   7  -9    3.74    3.84
   0   7  -9   -3.81    3.69
   0  -7   9    3.77    4.44
   0  -7   9    0.81    5.72
   0  -7   9    1.73    4.61
  -1   7  -9   -2.34    4.04
  -1   7  -9    1.63    3.94
   1  -7   9    2.25    3.73
   1  -7   9   -8.91    5.34
   1  -7   9    2.94    5.11
  -2   7  -9   10.86    5.19
   2  -7   9   -1.66    4.34
   2  -7   9    9.67    6.25
   2  -7   9    5.06    6.65
  -3   7  -9    5.13    4.49
   3  -7   9    4.22    6.45
   3  -7   9    2.86    4.22
   3  -7   9    0.34    5.43
  -4   7  -9   59.56    9.82
   4  -7   9   55.22   12.44
   4  -7   9   62.57   11.37
   4  -7   9   63.75    9.49
  -5   7  -9    1.99    4.13
   5  -7   9   -2.10    5.28
   5  -7   9   -1.22    4.28
  -6   7  -9   -2.62    4.60
   6  -7   9    2.59    5.38
   6  -7   9    4.27    7.29
  -7   7  -9    3.50    5.86
   6   6  -9   -2.95    5.06
   6   6  -9   -3.43    5.71
  -6  -6   9    1.94    6.78
  -6  -6   9   -4.54    5.55
  -6  -6   9    6.48    5.57
   5   6  -9    3.77    5.43
   5   6  -9    7.62    5.68
  -5  -6   9    5.67    6.54
  -5  -6   9    2.32    6.10
   4   6  -9    4.10    5.10
   4   6  -9    9.03    5.69
  -4  -6   9    4.36    6.35
   3   6  -9   18.06    6.33
   3   6  -9   27.99    6.97
  -3  -6   9   22.15    8.14
   2   6  -9   -0.34    3.75
   2   6  -9    4.98    4.44
  -2  -6   9   -1.54    3.44
  -2  -6   9    0.39    4.12
  -2  -6   9   14.25    6.66
   1   6  -9   13.58    4.82
   1   6  -9    6.02    4.59
  -1  -6   9   11.40    6.46
  -1  -6   9   13.67    5.92
  -1  -6   9    4.87    4.25
   0   6  -9   49.24    7.58
   0   6  -9   42.92    8.08
   0  -6   9   39.43    9.45
   0  -6   9   62.55   10.93
   0  -6   9   41.92    7.10
  -1   6  -9   -0.16    2.95
  -1   6  -9    4.99    4.24
   1  -6   9   12.48    4.26
   1  -6   9   -3.79    4.01
   1  -6   9   -2.18    5.64
  -2   6  -9   -2.90    3.39
   2  -6   9    0.39    4.99
   2  -6   9   -5.41    2.90
   2  -6   9    2.01    5.20
  -3   6  -9   55.83    9.13
   3  -6   9   68.77   12.91
   3  -6   9   67.35   11.40
   3  -6   9   82.34    9.54
  -4   6  -9    2.89    3.49
   4  -6   9   10.53    6.57
   4  -6   9    7.40    4.51
   4  -6   9    5.91    6.19
  -5   6  -9    3.17    4.90
   5  -6   9    2.83    5.77
   5  -6   9   -8.54    4.76
   5  -6   9    5.09    4.52
  -6   6  -9    4.24    4.97
   6  -6   9    3.55    6.73
   6  -6   9    1.05    4.54
  -7   6  -9    1.60    5.62
   7  -6   9    0.04    7.36
   7  -6   9   -3.92    5.45
   7   5  -9    2.24    6.34
   7   5  -9    8.10    6.70
  -7  -5   9    1.45    4.72
  -7  -5   9   -1.75    6.35
  -7  -5   9    1.39    7.11
   6   5  -9    0.61    4.86
   6   5  -9   -1.03    5.29
  -6  -5   9    1.02    6.32
  -6  -5   9   -1.60    5.82
  -6  -5   9    3.13    4.72
   5   5  -9   -4.44    4.49
   5   5  -9    5.90    5.41
  -5  -5   9   -0.27    4.07
  -5  -5   9    1.19    5.26
  -5  -5   9   -0.19    5.28
   4   5  -9   48.47    8.62
   4   5  -9   47.64    8.79
  -4  -5   9   42.58    8.81
  -4  -5   9   37.61    9.32
   3   5  -9   12.80    5.55
   3   5  -9   15.05    5.74
  -3  -5   9    7.49    6.36
   2   5  -9   22.24    5.54
   2   5  -9    9.62    4.81
  -2  -5   9   12.66    6.63
   1   5  -9   -0.88    2.89
   1   5  -9   -0.96    3.09
  -1  -5   9    4.96    5.57
  -1  -5   9   -2.54    3.13
  -1  -5   9    1.78    4.28
   0   5  -9   21.35    4.83
   0   5  -9   24.49    5.97
   0  -5   9   12.35    6.75
   0  -5   9   23.44    4.96
   0  -5   9   16.18    6.67
  -1   5  -9   73.99    7.95
  -1   5  -9   61.44    9.26
   1  -5   9   58.37    7.53
   1  -5   9   51.78   10.23
   1  -5   9   43.25    9.71
  -2   5  -9   50.52    8.75
   2  -5   9   67.37   11.15
   2  -5   9   69.18    8.19
   2  -5   9   58.67   11.38
  -3   5  -9   14.32    5.52
   3  -5   9   21.17    4.81
   3  -5   9   20.76    7.41
   3  -5   9   16.93    6.42
  -4   5  -9    6.55    4.74
   4  -5   9    9.48    6.03
   4  -5   9   14.76    6.38
   4  -5   9    7.46    4.27
  -5   5  -9   -0.36    4.12
   5  -5   9    0.66    5.24
   5  -5   9    1.15    3.75
   5  -5   9   -7.55    4.46
  -6   5  -9   -1.07    4.59
   6  -5   9    9.34    7.18
   6  -5   9   -2.32    3.71
  -7   5  -9    7.54    6.15
   7  -5   9   13.78    6.08
   7  -5   9   11.64    8.02
   7   4  -9   17.91    7.57
   7   4  -9    4.64    6.79
  -7  -4   9   10.30    5.74
  -7  -4   9    7.69    6.74
  -7  -4   9    5.68    7.19
   6   4  -9   -3.92    4.31
   6   4  -9    1.69    4.99
  -6  -4   9   -6.03    3.73
  -6  -4   9   -3.74    5.20
  -6  -4   9   -6.80    5.18
   5   4  -9   37.59    7.82
   5   4  -9   52.43    9.31
  -5  -4   9   47.49   10.54
  -5  -4   9   46.82    9.24
  -5  -4   9   50.43    7.69
   4   4  -9   21.04    6.31
   4   4  -9    7.58    4.78
  -4  -4   9    5.36    5.03
  -4  -4   9   11.73    6.05
  -4  -4   9    3.17    3.55
   3   4  -9   11.71    4.80
   3   4  -9    5.19    5.00
  -3  -4   9   10.96    5.45
  -3  -4   9    7.73    6.06
   2   4  -9   -1.04    3.34
   2   4  -9    0.41    4.04
  -2  -4   9   -4.77    3.53
   1   4  -9   -4.15    3.16
   1   4  -9    3.29    3.00
  -1  -4   9   -4.88    3.80
  -1  -4   9    1.63    3.44
   0   4  -9    5.98    3.25
   0   4  -9    9.54    3.91
   0  -4   9    5.12    5.03
   0  -4   9    5.13    5.43
   0  -4   9    9.25    3.63
  -1   4  -9    9.41    3.05
  -1   4  -9   15.94    5.01
   1  -4   9   18.00    6.43
   1  -4   9   14.27    2.12
   1  -4   9   15.49    6.07
   1  -4   9   13.46    3.63
  -2   4  -9    8.87    4.55
   2  -4   9   19.65    6.76
   2  -4   9   10.70    3.72
   2  -4   9   24.98    7.32
  -3   4  -9   22.68    6.30
   3  -4   9   45.37    9.65
   3  -4   9   50.66    6.34
   3  -4   9   52.13    9.14
  -4   4  -9   10.70    5.09
   4  -4   9   17.05    6.13
   4  -4   9    6.44    6.05
   4  -4   9    8.66    3.75
  -5   4  -9    0.58    4.45
   5  -4   9    7.81    6.01
   5  -4   9   -5.03    3.17
   5  -4   9    9.43    5.15
  -6   4  -9   24.96    7.55
   6  -4   9   50.95    7.47
   6  -4   9   56.06   11.13
  -7   4  -9   -1.06    5.51
   7  -4   9   -6.60    5.77
   7  -4   9   -4.10    4.64
  -8   4  -9    7.77    7.07
   8  -4   9    4.63    5.27
   8  -4   9    3.79    8.05
   8   3  -9   -3.37    5.67
  -8  -3   9    9.20    7.04
  -8  -3   9    1.31    5.98
  -8  -3   9    2.18    7.52
   7   3  -9    6.72    5.91
   7   3  -9   12.78    6.72
  -7  -3   9   13.70    7.36
  -7  -3   9    7.24    5.64
  -7  -3   9   11.14    7.28
   6   3  -9   52.39    9.74
   6   3  -9   29.66    7.41
  -6  -3   9   46.07    7.60
  -6  -3   9   34.50    9.32
  -6  -3   9   32.94    8.57
   5   3  -9   -1.95    4.04
   5   3  -9    1.26    4.63
  -5  -3   9   -6.03    2.98
  -5  -3   9    5.24    5.74
  -5  -3   9   -3.18    4.56
   4   3  -9   11.06    5.08
   4   3  -9   23.15    6.39
  -4  -3   9   12.14    5.66
  -4  -3   9   17.53    4.36
  -4  -3   9   12.24    5.90
   3   3  -9    9.49    4.11
   3   3  -9    2.60    3.24
  -3  -3   9    1.50    2.72
  -3  -3   9    2.75    4.29
  -3  -3   9    1.46    4.65
   2   3  -9    4.84    3.37
   2   3  -9   -1.71    2.43
  -2  -3   9    7.16    5.25
  -2  -3   9    8.87    4.38
   1   3  -9   48.47    9.38
   1   3  -9   76.12    9.50
   1   3  -9   58.27    6.91
  -1  -3   9   41.82    9.11
   0   3  -9    4.46    5.32
   0   3  -9    3.68    2.54
   0   3  -9    4.03    3.57
   0  -3   9    7.93    3.20
   0  -3   9   -1.17    2.23
   0  -3   9    2.09    1.28
   0  -3   9    1.78    4.83
  -1   3  -9    5.11    3.40
  -1   3  -9    7.52    5.48
   1  -3   9   -2.29    3.79
   1  -3   9    7.73    2.80
   1  -3   9    9.84    5.31
   1  -3   9    7.84    2.27
   1  -3   9    7.96    2.78
  -2   3  -9   47.03    4.12
  -2   3  -9   38.23    8.89
  -2   3  -9   40.64    7.38
   2  -3   9   43.42    9.09
   2  -3   9   31.58    7.78
   2  -3   9   55.94    5.90
  -3   3  -9    0.57    3.52
   3  -3   9   -1.21    2.45
   3  -3   9   -0.18    3.85
   3  -3   9    0.24    4.14
  -4   3  -9    7.98    4.81
   4  -3   9   -0.42    4.16
   4  -3   9   -1.42    4.47
   4  -3   9   -0.74    2.64
  -5   3  -9   53.29    9.45
   5  -3   9   62.83    9.41
   5  -3   9   59.80   11.37
   5  -3   9   61.44    7.32
  -6   3  -9    3.20    5.27
   6  -3   9    0.10    3.57
   6  -3   9    2.24    5.86
  -7   3  -9    3.59    5.47
   7  -3   9   12.04    8.28
   7  -3   9    2.50    4.14
  -8   3  -9   -7.46    4.55
   8  -3   9    5.31    4.90
   8  -3   9   -2.42    6.78
   8   2  -9   -1.34    5.14
  -8  -2   9   -2.02    5.06
  -8  -2   9    3.68    6.70
  -8  -2   9   -4.22    6.88
   7   2  -9   -5.28    4.47
   7   2  -9    4.67    5.42
  -7  -2   9    1.62    4.28
  -7  -2   9    4.07    5.65
  -7  -2   9    2.56    5.10
   6   2  -9    1.94    4.41
   6   2  -9   -3.13    3.94
  -6  -2   9    0.56    4.78
  -6  -2   9    6.02    5.40
  -6  -2   9   -0.27    3.97
   5   2  -9   13.06    5.09
   5   2  -9   24.19    6.17
  -5  -2   9   19.80    6.75
  -5  -2   9   18.71    4.83
  -5  -2   9   18.37    6.11
   4   2  -9    0.50    3.75
   4   2  -9    0.10    3.81
   4   2  -9   -7.49    2.92
  -4  -2   9    0.55    3.73
  -4  -2   9   -0.36    2.91
  -4  -2   9   -2.82    4.10
   3   2  -9   35.80    7.71
   3   2  -9   39.16    7.21
   3   2  -9   29.38    5.74
  -3  -2   9   30.87    6.50
  -3  -2   9   26.69    7.64
  -3  -2   9   33.53    4.63
   2   2  -9   42.60    8.47
   2   2  -9   52.91    8.10
   2   2  -9   51.29    6.61
  -2  -2   9   56.58    7.31
  -2  -2   9   42.77    4.15
  -2  -2   9   39.41    8.64
   1   2  -9    9.06    5.54
   1   2  -9   10.79    4.32
   1   2  -9   13.49    3.24
  -1  -2   9   14.03    3.58
  -1  -2   9    6.07    3.66
  -1  -2   9   13.99    2.45
  -1  -2   9   11.04    5.63
   0   2  -9    1.60    4.64
   0   2  -9   -2.28    2.90
   0  -2   9    0.32    1.95
   0  -2   9    4.25    2.32
   0  -2   9   -0.98    3.90
   0  -2   9    1.67    2.40
  -1   2  -9   16.30    6.33
  -1   2  -9   10.13    4.63
   1  -2   9   20.10    6.33
   1  -2   9   18.64    3.52
   1  -2   9   18.52    3.11
   1  -2   9   14.42    2.87
  -2   2  -9    7.72    4.46
  -2   2  -9    0.23    3.40
   2  -2   9    2.69    1.68
   2  -2   9    1.20    3.97
   2  -2   9    2.84    4.69
   2  -2   9   -2.30    1.73
  -3   2  -9    1.41    3.65
  -3   2  -9    1.18    3.72
   3  -2   9    3.66    2.09
   3  -2   9    1.84    3.87
   3  -2   9    1.32    1.84
   3  -2   9    2.68    4.51
  -4   2  -9   19.45    6.01
  -4   2  -9   17.81    6.05
   4  -2   9   28.11    7.68
   4  -2   9   16.03    5.75
   4  -2   9   24.24    3.54
  -5   2  -9    0.91    4.34
  -5   2  -9    3.01    5.36
   5  -2   9    2.73    4.31
   5  -2   9    2.08    2.57
   5  -2   9    3.53    5.24
  -6   2  -9   29.16    8.04
   6  -2   9   39.75    9.58
   6  -2   9   42.52    5.74
  -7   2  -9   -3.73    4.72
   7  -2   9   -7.90    6.04
   7  -2   9   -4.89    3.26
  -8   2  -9    1.13    5.01
   8  -2   9    7.94    4.58
   8  -2   9    3.52    7.68
   8   1  -9   -4.39    5.61
  -8  -1   9   -0.77    4.75
  -8  -1   9    5.39    6.71
  -8  -1   9    0.05    5.74
   7   1  -9    5.88    5.49
   7   1  -9   -7.82    4.29
  -7  -1   9   -4.16    4.87
  -7  -1   9   -2.81    4.64
  -7  -1   9   13.18    7.04
   6   1  -9   19.28    6.03
   6   1  -9   29.54    7.12
  -6  -1   9   22.11    7.01
  -6  -1   9   18.95    6.77
  -6  -1   9   27.17    6.30
   5   1  -9    4.46    4.46
   5   1  -9   -0.30    3.32
   5   1  -9    6.86    4.06
  -5  -1   9    6.67    5.37
  -5  -1   9   -3.76    3.26
  -5  -1   9    7.15    4.83
   4   1  -9   -5.06    3.07
   4   1  -9    4.52    3.81
   4   1  -9    4.13    4.25
  -4  -1   9    4.38    2.58
  -4  -1   9    1.11    3.91
  -4  -1   9    5.81    3.51
  -4  -1   9    3.62    4.41
   3   1  -9   46.88    6.76
   3   1  -9   54.13    9.34
   3   1  -9   51.28    7.93
  -3  -1   9   50.23    5.60
  -3  -1   9   38.17    8.69
  -3  -1   9   50.92    5.96
  -3  -1   9   58.90    8.31
   2   1  -9    9.49    4.88
   2   1  -9    7.76    3.19
   2   1  -9    6.19    3.81
  -2  -1   9    7.52    2.05
  -2  -1   9   10.74    4.03
  -2  -1   9    6.81    4.89
  -2  -1   9    9.31    2.89
  -2  -1   9    7.24    3.25
   1   1  -9   -1.57    2.67
   1   1  -9   -1.54    4.33
  -1  -1   9    3.65    2.50
  -1  -1   9   -2.47    2.14
  -1  -1   9    1.47    3.09
  -1  -1   9    0.19    3.80
   0   1  -9   10.43    4.35
   0   1  -9    5.67    4.99
   0  -1   9   10.73    5.69
   0  -1   9    5.87    2.78
   0  -1   9    7.51    2.61
  -1   1  -9   -0.05    3.01
  -1   1  -9    0.79    3.14
   1  -1   9    0.87    1.52
   1  -1   9    4.41    2.83
   1  -1   9    5.11    4.47
   1  -1   9    1.87    1.45
  -2   1  -9   14.03    5.91
  -2   1  -9   13.67    4.88
   2  -1   9    9.61    5.08
   2  -1   9   14.84    1.59
   2  -1   9   11.17    1.42
   2  -1   9   16.78    6.12
  -3   1  -9    6.44    3.17
  -3   1  -9   10.62    4.32
  -3   1  -9    8.92    5.40
   3  -1   9    8.89    4.45
   3  -1   9    1.95    4.25
  -4   1  -9    0.14    3.84
  -4   1  -9    2.79    3.00
  -4   1  -9   -2.98    3.76
   4  -1   9    3.07    1.23
   4  -1   9    9.02    5.50
   4  -1   9    6.61    4.43
  -5   1  -9  102.02   13.49
  -5   1  -9  132.47   10.08
  -5   1  -9   94.81   14.62
   5  -1   9  128.37   11.55
   5  -1   9   99.73    8.32
   5  -1   9  131.07   14.31
  -6   1  -9    4.68    4.94
  -6   1  -9    1.41    5.00
   6  -1   9   -4.75    4.77
   6  -1   9    0.93    2.47
  -7   1  -9   -3.14    5.06
   7  -1   9   -3.08    5.82
   7  -1   9   -5.22    2.81
   8  -1   9   10.82    8.19
   8   0  -9   -0.72    5.45
   8   0  -9    3.74    4.87
  -8   0   9    5.47    6.92
  -8   0   9   10.86    6.17
  -8   0   9    1.24    4.60
   7   0  -9    8.28    5.50
   7   0  -9    1.13    5.00
  -7   0   9   14.98    5.60
  -7   0   9    1.09    5.77
  -7   0   9    9.56    5.84
   6   0  -9   12.16    5.10
   6   0  -9   -0.64    3.50
   6   0  -9    3.74    4.37
  -6   0   9    9.25    5.97
  -6   0   9    5.88    4.66
  -6   0   9   -7.83    4.23
   5   0  -9    6.72    4.21
   5   0  -9   11.19    4.82
   5   0  -9    6.71    4.71
  -5   0   9    8.72    4.21
  -5   0   9   12.96    5.68
  -5   0   9    7.73    3.86
  -5   0   9   11.79    5.49
   4   0  -9   14.72    4.49
   4   0  -9   14.91    5.40
   4   0  -9   19.17    5.41
  -4   0   9   22.61    5.97
  -4   0   9   13.48    5.75
  -4   0   9   14.81    4.23
  -4   0   9   15.02    4.10
   3   0  -9   -3.29    3.46
   3   0  -9   -2.20    2.64
   3   0  -9   -2.41    2.93
  -3   0   9   -1.98    4.47
  -3   0   9    3.34    2.44
  -3   0   9    1.74    3.74
  -3   0   9   -0.20    2.80
   2   0  -9   71.35    7.06
   2   0  -9   63.62   10.70
   2   0  -9   73.03    8.95
  -2   0   9   70.58    7.26
  -2   0   9   74.87    5.89
  -2   0   9   87.17    7.88
  -2   0   9   73.45    7.67
  -2   0   9   64.87   10.69
   1   0  -9   26.36    5.24
   1   0  -9   27.50    3.19
   1   0  -9   42.25    8.29
  -1   0   9   33.37    4.87
  -1   0   9   32.95    5.24
  -1   0   9   21.17    3.87
  -1   0   9   23.82    6.79
   0   0  -9    1.57    3.09
   0   0  -9    5.17    4.13
   0   0   9    1.16    2.02
   0   0   9   -0.49    1.52
   0   0   9   -2.06    2.47
   0   0   9   -3.83    3.83
  -1   0  -9   12.19    5.74
  -1   0  -9    8.18    4.19
  -1   0  -9   36.18    5.66
   1   0   9   18.16    6.21
   1   0   9   20.86    4.55
  -2   0  -9    5.33    4.10
  -2   0  -9    0.45    3.06
  -2   0  -9    7.04    5.29
   2   0   9   -7.16    3.36
   2   0   9    0.32    2.93
   2   0   9    5.63    4.17
  -3   0  -9   13.52    4.80
  -3   0  -9   13.59    4.04
  -3   0  -9   10.43    6.01
   3   0   9    5.87    4.97
   3   0   9    4.74    3.92
  -4   0  -9   62.55    7.33
  -4   0  -9   46.77    9.17
  -4   0  -9   38.29    7.66
   4   0   9   38.96    7.29
   4   0   9   40.30    8.45
  -5   0  -9   -1.51    3.15
  -5   0  -9   -6.38    3.71
  -5   0  -9   -3.82    4.24
   5   0   9    0.90    3.37
   5   0   9    2.11    4.90
  -6   0  -9    2.09    3.71
  -6   0  -9    1.83    4.97
  -6   0  -9    0.29    4.76
   6   0   9    3.78    5.16
  -7   0  -9    1.66    5.57
   7   0   9   -1.26    6.03
   8  -1  -9   24.36    6.62
  -8   1   9   27.68    7.46
  -8   1   9   12.63    7.48
  -8   1   9   11.44    5.90
   7  -1  -9   -2.61    5.14
   7  -1  -9   -0.22    4.22
  -7   1   9   -5.23    5.20
  -7   1   9    5.56    5.08
  -7   1   9   -0.79    4.52
   6  -1  -9    8.73    4.82
   6  -1  -9    6.34    4.36
   6  -1  -9    4.77    4.98
  -6   1   9    6.08    5.54
  -6   1   9    2.28    4.09
  -6   1   9   -0.45    5.06
  -6   1   9    5.79    4.16
   5  -1  -9    6.98    4.55
   5  -1  -9    0.96    3.20
   5  -1  -9   -2.79    3.23
  -5   1   9    3.42    4.61
  -5   1   9    5.60    4.29
  -5   1   9    6.63    4.35
  -5   1   9    2.45    4.75
   4  -1  -9    9.67    5.09
   4  -1  -9    3.91    3.16
   4  -1  -9    4.22    3.33
  -4   1   9    5.06    4.44
  -4   1   9    7.70    4.79
  -4   1   9    2.33    3.78
  -4   1   9    6.02    3.50
   3  -1  -9   56.87    7.38
   3  -1  -9   36.66    8.14
   3  -1  -9   41.31    6.02
  -3   1   9   30.46    7.87
  -3   1   9   42.19    5.46
  -3   1   9   60.91    7.47
  -3   1   9   44.07    6.87
   2  -1  -9   21.71    6.56
   2  -1  -9   22.47    4.62
  -2   1   9   11.55    2.93
  -2   1   9   13.72    4.27
  -2   1   9   22.23    5.04
   1  -1  -9   21.62    2.22
   1  -1  -9   14.95    4.32
   1  -1  -9   26.57    7.22
   1  -1  -9   23.29    2.34
  -1   1   9   26.15    4.33
  -1   1   9   17.52    3.31
  -1   1   9   27.33    5.26
  -1   1   9   19.77    2.74
   0  -1  -9    7.51    4.06
   0  -1  -9    0.68    4.37
   0  -1  -9    9.32    3.66
   0   1   9    8.44    2.08
   0   1   9    4.80    3.41
   0   1   9   11.07    1.49
   0   1   9   12.02    2.44
  -1  -1  -9   -2.53    2.60
  -1  -1  -9   -0.98    4.56
  -1  -1  -9   -0.66    3.51
   1   1   9    0.70    3.15
   1   1   9   -0.85    1.03
  -2  -1  -9   -2.17    3.88
  -2  -1  -9    2.11    3.37
  -2  -1  -9   -0.68    3.13
   2   1   9    0.57    3.28
   2   1   9    2.26    3.76
  -3  -1  -9   56.96    7.72
  -3  -1  -9   44.91    7.98
  -3  -1  -9   41.61    9.22
   3   1   9   66.63   10.07
   3   1   9   60.86    8.98
  -4  -1  -9    4.87    4.39
  -4  -1  -9   -1.11    3.50
  -4  -1  -9   -4.61    3.84
   4   1   9    2.29    3.84
   4   1   9   -2.11    3.84
  -5  -1  -9   -3.34    3.86
  -5  -1  -9    0.70    3.70
  -5  -1  -9    7.69    4.47
   5   1   9    1.18    4.39
   5   1   9    3.08    3.56
  -6  -1  -9    8.09    4.68
  -6  -1  -9   10.46    6.59
  -6  -1  -9   -1.42    5.09
   6   1   9   10.32    6.14
  -7  -1  -9   14.90    6.45
  -7  -1  -9   19.90    6.12
   8  -2  -9   -1.64    4.18
  -8   2   9   13.29    6.77
  -8   2   9    5.92    5.73
  -8   2   9    0.88    6.26
   7  -2  -9    0.04    3.83
  -7   2   9   -2.61    5.11
  -7   2   9   10.85    6.01
  -7   2   9    3.52    4.74
  -7   2   9   -0.04    3.66
   6  -2  -9    6.91    3.94
   6  -2  -9    3.67    4.20
   6  -2  -9    1.75    4.13
  -6   2   9    7.61    4.98
  -6   2   9    7.93    5.41
  -6   2   9    9.08    4.56
  -6   2   9    3.22    5.34
   5  -2  -9    2.00    3.80
   5  -2  -9    0.37    3.25
   5  -2  -9    4.61    3.02
  -5   2   9    0.10    3.57
  -5   2   9    3.81    5.29
  -5   2   9    2.05    4.13
   4  -2  -9   22.63    6.58
   4  -2  -9   31.41    5.59
   4  -2  -9   25.76    5.49
  -4   2   9   36.12    6.99
  -4   2   9   32.93    5.70
  -4   2   9   43.71    7.58
   3  -2  -9    2.64    2.85
   3  -2  -9    4.92    4.71
   3  -2  -9    2.44    2.57
  -3   2   9    0.34    3.80
  -3   2   9    2.59    3.02
  -3   2   9    4.82    3.75
   2  -2  -9   -0.19    2.58
   2  -2  -9   -3.10    4.15
  -2   2   9   -0.75    2.93
  -2   2   9    0.77    3.96
   1  -2  -9   15.47    6.24
   1  -2  -9   17.09    4.45
   1  -2  -9   25.26    5.74
  -1   2   9   28.32    6.09
  -1   2   9   25.45    3.89
  -1   2   9   25.65    4.30
   0  -2  -9   -1.58    3.33
   0  -2  -9   -1.88    2.46
   0  -2  -9    1.20    3.37
   0   2   9    0.59    1.94
   0   2   9    1.62    3.03
   0   2   9    3.17    1.59
  -1  -2  -9    2.80    3.69
  -1  -2  -9    0.95    4.23
  -1  -2  -9    2.92    3.45
   1   2   9    5.14    3.96
  -2  -2  -9    8.35    5.22
  -2  -2  -9   15.12    4.93
  -2  -2  -9    5.52    3.96
   2   2   9    1.77    3.72
  -3  -2  -9    3.20    4.38
  -3  -2  -9   -1.77    3.64
  -3  -2  -9    6.64    4.28
   3   2   9    3.10    3.61
   3   2   9   -2.55    3.59
  -4  -2  -9    6.34    5.70
  -4  -2  -9    5.05    4.95
  -4  -2  -9    2.30    4.35
   4   2   9    5.02    4.29
  -5  -2  -9   -3.58    4.56
  -5  -2  -9    0.04    4.92
  -5  -2  -9   -0.12    3.96
   5   2   9    4.39    3.96
   5   2   9    8.96    4.93
  -6  -2  -9   -3.35    4.00
  -6  -2  -9    6.36    4.55
  -7  -2  -9   22.01    7.77
  -7  -2  -9   25.22    7.47
  -8   3   9   23.24    6.58
  -8   3   9    9.41    5.98
  -8   3   9   13.34    6.21
  -8   3   9    2.35    6.36
   7  -3  -9    2.26    3.80
   7  -3  -9    1.66    4.30
  -7   3   9    3.67    4.83
  -7   3   9   -0.78    5.00
  -7   3   9   11.88    6.99
  -7   3   9    4.06    4.68
   6  -3  -9    1.02    2.60
   6  -3  -9   11.06    5.58
  -6   3   9    6.93    5.65
  -6   3   9    2.14    5.31
  -6   3   9   11.24    5.11
   5  -3  -9   25.69    5.04
   5  -3  -9   17.54    6.12
  -5   3   9   33.13    7.68
  -5   3   9   32.65    6.65
  -5   3   9   32.15    7.24
   4  -3  -9   -1.36    4.19
   4  -3  -9    0.71    1.95
  -4   3   9   -2.09    3.93
  -4   3   9   -2.68    3.29
  -4   3   9   -3.61    4.15
   3  -3  -9   -5.18    3.27
   3  -3  -9   -1.86    2.15
  -3   3   9    1.19    3.69
  -3   3   9   -2.35    4.39
   2  -3  -9    7.55    5.50
   2  -3  -9   -0.89    3.74
   2  -3  -9    2.23    2.40
  -2   3   9    0.44    4.19
  -2   3   9    9.35    3.94
   1  -3  -9    2.22    4.10
   1  -3  -9    4.44    2.71
   1  -3  -9   -0.38    4.39
  -1   3   9    0.47    3.77
  -1   3   9    3.13    2.89
   0  -3  -9  130.48   12.12
   0  -3  -9   86.51   14.47
   0  -3  -9  116.62   10.73
   0   3   9  136.19   12.75
   0   3   9  129.15    9.39
  -1  -3  -9    4.93    5.19
  -1  -3  -9    5.91    3.92
  -1  -3  -9    3.80    4.44
   1   3   9    2.87    1.24
   1   3   9   13.22    4.90
   1   3   9    3.27    1.08
  -2  -3  -9   22.44    5.99
  -2  -3  -9   12.44    6.69
  -2  -3  -9   15.53    5.21
   2   3   9   20.84    6.25
  -3  -3  -9    6.42    4.82
  -3  -3  -9    4.59    5.50
  -3  -3  -9    3.08    4.16
   3   3   9   16.25    4.83
   3   3   9    5.48    4.46
  -4  -3  -9   -1.32    4.56
  -4  -3  -9   -7.10    3.33
  -4  -3  -9    0.60    5.61
   4   3   9    5.97    3.56
  -5  -3  -9   19.41    6.18
  -5  -3  -9   15.60    7.50
  -6  -3  -9   26.87    7.39
  -6  -3  -9   34.61    8.85
  -8   4   9    1.22    5.01
  -8   4   9    0.52    5.76
  -8   4   9   -2.37    5.99
   7  -4  -9    7.16    5.75
  -7   4   9   -1.43    4.02
  -7   4   9   16.00    7.54
  -7   4   9    4.85    6.18
   6  -4  -9    7.20    5.34
  -6   4   9    8.23    5.34
  -6   4   9    3.47    5.86
  -6   4   9   16.14    6.78
   5  -4  -9    1.50    4.42
  -5   4   9    8.01    4.42
  -5   4   9   -4.87    4.66
  -5   4   9   -0.81    4.96
   4  -4  -9    1.44    4.42
  -4   4   9    5.49    4.59
  -4   4   9    3.18    5.09
   3  -4  -9   -2.41    4.70
   3  -4  -9   -3.30    1.67
  -3   4   9    1.40    4.23
  -3   4   9    1.76    4.81
   2  -4  -9   14.07    6.59
   2  -4  -9    3.03    4.39
   2  -4  -9   13.86    3.42
  -2   4   9   11.76    4.38
  -2   4   9    8.51    5.88
   1  -4  -9   76.26   14.22
   1  -4  -9  104.05   12.42
  -1   4   9  121.39   12.22
  -1   4   9  114.89    9.60
   0  -4  -9    1.18    3.20
   0  -4  -9   -2.09    5.20
   0  -4  -9   -1.84    2.68
   0   4   9    4.63    2.59
   0   4   9    1.56    4.27
  -1  -4  -9    0.94    3.74
  -1  -4  -9   -2.27    3.78
  -1  -4  -9    0.40    3.67
   1   4   9   -0.03    2.04
   1   4   9   -3.92    3.67
  -2  -4  -9    4.87    4.49
  -2  -4  -9   -2.95    4.08
  -2  -4  -9    5.94    5.85
   2   4   9    1.23    1.54
   2   4   9   -4.86    3.59
  -3  -4  -9   10.85    5.27
  -3  -4  -9   -0.04    5.47
   3   4   9    8.90    3.18
   3   4   9    2.99    4.82
  -4  -4  -9    1.97    5.81
  -4  -4  -9    5.69    5.72
   4   4   9   17.36    6.21
  -5  -4  -9   14.09    7.72
  -5  -4  -9   25.02    7.48
   5   4   9   18.74    6.37
  -6  -4  -9   21.95    8.28
  -6  -4  -9   40.32    9.06
   7  -5  -9    2.90    5.33
  -7   5   9    7.04    7.42
  -7   5   9    3.23    5.24
  -7   5   9    2.41    6.16
   6  -5  -9   -0.26    4.44
  -6   5   9    4.33    6.50
  -6   5   9   -3.35    4.16
  -6   5   9   -3.43    5.20
   5  -5  -9   -4.25    4.33
  -5   5   9    1.31    5.65
  -5   5   9    5.55    5.20
   4  -5  -9    4.32    4.94
  -4   5   9    2.39    5.57
  -4   5   9    5.83    4.98
   3  -5  -9   20.97    6.23
   3  -5  -9    9.69    6.54
  -3   5   9   26.54    7.44
  -3   5   9   15.18    5.29
   2  -5  -9   75.39   10.69
   2  -5  -9   53.77   12.12
  -2   5   9   81.81    9.20
  -2   5   9  109.73   13.49
   1  -5  -9   -0.13    3.70
   1  -5  -9    2.05    4.09
  -1   5   9   -1.78    3.03
  -1   5   9   -1.61    4.39
   0  -5  -9   -1.25    2.97
   0  -5  -9    6.55    5.79
   0  -5  -9    1.99    4.24
   0   5   9    3.91    3.26
   0   5   9    1.82    4.38
  -1  -5  -9   -2.85    3.85
  -1  -5  -9   -1.18    5.17
   1   5   9   -2.92    2.42
   1   5   9    1.50    4.78
  -2  -5  -9   -0.43    4.53
  -2  -5  -9    1.99    5.93
   2   5   9   -8.36    3.87
   2   5   9    3.02    2.47
  -3  -5  -9   -0.62    3.71
  -3  -5  -9    3.27    4.74
   3   5   9    4.57    5.43
  -4  -5  -9    3.52    6.31
  -4  -5  -9    0.32    4.59
   4   5   9    1.84    4.27
  -5  -5  -9   -9.79    4.85
  -5  -5  -9    0.47    5.77
   5   5   9    4.50    4.97
   7  -6  -9    5.73    5.87
  -7   6   9    8.22    6.67
   6  -6  -9   -1.99    4.83
  -6   6   9  -12.49    5.12
  -6   6   9  -10.10    6.02
   5  -6  -9   -1.21    4.81
  -5   6   9   -0.89    4.85
  -5   6   9    1.72    6.60
   4  -6  -9   -5.86    4.54
  -4   6   9   -6.36    3.94
  -4   6   9   -4.60    4.97
   3  -6  -9   15.21    7.23
   3  -6  -9    4.06    4.98
  -3   6   9    5.73    5.95
  -3   6   9    5.25    4.72
   2  -6  -9   13.29    5.81
   2  -6  -9    5.49    6.42
  -2   6   9   16.31    5.08
  -2   6   9   12.79    6.68
   1  -6  -9   19.55    6.39
   1  -6  -9   13.59    7.86
  -1   6   9   21.35    7.39
  -1   6   9   21.35    5.07
   0  -6  -9    0.61    6.03
   0  -6  -9    2.27    4.50
   0   6   9   -4.00    3.34
   0   6   9    7.82    5.41
  -1  -6  -9   -3.17    5.27
  -1  -6  -9    4.32    4.43
   1   6   9   -5.98    4.11
   1   6   9   -4.05    3.08
  -2  -6  -9   16.30    6.22
  -2  -6  -9   18.07    8.26
   2   6   9   29.66    4.62
   2   6   9   26.90    7.65
  -3  -6  -9    4.20    5.08
  -3  -6  -9    6.61    6.76
   3   6   9    2.68    4.99
  -4  -6  -9   14.75    8.44
  -4  -6  -9   17.70    6.69
   4   6   9   25.94    7.77
   6  -7  -9    5.32    6.00
   5  -7  -9    4.26    6.42
  -5   7   9   -2.70    6.91
  -5   7   9    5.46    5.98
   4  -7  -9   -0.07    5.30
   4  -7  -9    8.59    6.89
  -4   7   9   10.01    8.11
  -4   7   9   14.92    5.93
   3  -7  -9    5.00    5.76
   3  -7  -9   -1.35    4.34
  -3   7   9    3.46    4.97
  -3   7   9    7.92    6.67
   2  -7  -9   14.81    6.30
   2  -7  -9    4.44    6.27
  -2   7   9   21.42    8.06
  -2   7   9   30.61    6.67
   1  -7  -9   -0.28    5.45
   1  -7  -9    2.81    4.92
  -1   7   9   -7.35    4.93
  -1   7   9    2.68    4.78
   0  -7  -9    6.27    5.16
   0  -7  -9   -5.97    4.90
   0   7   9    8.26    4.50
   0   7   9    0.47    5.60
  -1  -7  -9   46.45    9.12
  -1  -7  -9   12.11    7.65
   1   7   9   48.13    6.77
   1   7   9   25.74    8.30
  -2  -7  -9    5.67    5.32
  -2  -7  -9    6.76    6.62
   2   7   9    9.97    7.03
   2   7   9    5.25    3.91
  -3  -7  -9   -2.76    5.81
  -3  -7  -9   17.55    6.88
   3   7   9   13.02    7.12
   4  -8  -9    9.55    6.65
   4  -8  -9    1.77    6.62
  -4   8   9    7.35    6.09
  -4   8   9   -3.94    7.24
   3  -8  -9   -0.40    5.21
   3  -8  -9   -5.75    5.51
  -3   8   9   -3.78    6.44
  -3   8   9   -0.67    5.42
   2  -8  -9   -4.29    4.60
   2  -8  -9   -4.61    6.43
  -2   8   9    1.34    7.08
  -2   8   9    7.53    5.46
   1  -8  -9   -0.45    5.15
   1  -8  -9   -5.62    5.84
  -1   8   9   -1.14    4.78
  -1   8   9   11.58    7.85
   0  -8  -9   20.74    7.42
   0  -8  -9   17.16    9.17
   0   8   9   30.05    6.44
   0   8   9   12.54    7.25
  -1  -8  -9    4.90    6.30
  -1  -8  -9   -5.80    5.28
   1   8   9    9.33    4.82
   1   8   9   -3.12    5.33
   2   9 -10    4.32    6.04
  -2  -9  10  -10.11    7.75
  -2  -9  10   21.50    6.80
   1   9 -10   -3.32    4.72
  -1  -9  10    8.41    5.79
  -1  -9  10    3.72    5.81
  -1  -9  10   -8.04    7.48
   0   9 -10   -0.46    4.63
   0  -9  10    3.47    6.20
   0  -9  10  -14.46    6.68
   0  -9  10    5.84    6.03
  -1   9 -10   10.86    5.57
   1  -9  10   10.01    8.90
   1  -9  10    4.92    6.33
   1  -9  10   17.72    8.59
  -2   9 -10    2.00    5.13
   2  -9  10   15.41    8.59
   2  -9  10   11.09    5.88
   2  -9  10   12.41    9.18
  -3   9 -10    5.67    4.87
   3  -9  10    5.93    7.12
   3  -9  10   21.03    7.23
   3   8 -10    3.65    5.33
  -3  -8  10    0.84    6.47
  -3  -8  10   -5.55    5.03
   2   8 -10    5.32    5.39
  -2  -8  10   17.47    6.70
  -2  -8  10    1.27    5.16
  -2  -8  10   -8.75    6.40
   1   8 -10   19.24    6.80
  -1  -8  10   15.63    6.56
  -1  -8  10   30.41   10.55
  -1  -8  10   27.67    8.42
   0   8 -10    7.17    5.01
   0  -8  10   -1.02    4.39
   0  -8  10   -7.35    5.71
   0  -8  10    4.69    5.54
  -1   8 -10   15.71    5.91
   1  -8  10    6.03    6.10
   1  -8  10   18.59    6.62
   1  -8  10   14.45    8.38
  -2   8 -10    3.64    4.94
   2  -8  10   -1.47    6.96
   2  -8  10    2.38    5.21
   2  -8  10    1.25    5.63
  -3   8 -10   -3.92    3.77
   3  -8  10    3.80    6.67
   3  -8  10    2.50    5.38
   3  -8  10   -2.35    6.55
  -4   8 -10   25.34    7.41
   4  -8  10   34.19   10.96
   4  -8  10   40.97    8.22
  -5   8 -10   27.83    7.70
   5  -8  10   24.50   10.11
   5   7 -10    4.73    5.91
  -5  -7  10    2.66    6.94
   4   7 -10   -1.36    5.18
  -4  -7  10   15.97    5.02
  -4  -7  10    7.81    6.41
  -4  -7  10    4.61    7.32
   3   7 -10   25.80    7.72
  -3  -7  10   45.62    9.96
  -3  -7  10   31.98    9.57
  -3  -7  10   18.36    7.81
   2   7 -10   29.50    7.71
  -2  -7  10   19.14    6.93
  -2  -7  10   33.85   10.17
  -2  -7  10   35.82    8.72
   1   7 -10   -2.89    4.49
  -1  -7  10    1.42    7.06
  -1  -7  10    9.02    5.59
  -1  -7  10   11.59    5.79
   0   7 -10   27.85    7.14
   0  -7  10   17.42    7.14
   0  -7  10   16.26    5.47
   0  -7  10   11.70    7.78
  -1   7 -10    0.49    4.19
   1  -7  10    3.70    4.77
   1  -7  10    2.07    5.27
   1  -7  10    8.18    6.60
  -2   7 -10    5.91    5.04
   2  -7  10    5.11    6.00
   2  -7  10    8.01    6.98
   2  -7  10   13.99    5.13
  -3   7 -10    9.29    5.40
   3  -7  10   -1.69    6.22
   3  -7  10    5.24    4.94
   3  -7  10   -5.05    5.63
  -4   7 -10    4.63    4.71
   4  -7  10    9.40    7.13
   4  -7  10    3.37    6.14
   4  -7  10    1.88    4.33
  -5   7 -10   18.87    6.93
   5  -7  10   12.24    8.09
   5  -7  10   21.66    6.37
  -6   7 -10    5.99    5.97
   6  -7  10    4.70    7.37
   5   6 -10    4.34    5.97
  -5  -6  10    8.52    7.22
   4   6 -10   42.38    8.84
  -4  -6  10   35.04    9.65
   3   6 -10   28.76    7.49
  -3  -6  10   32.11    7.67
  -3  -6  10   25.17    9.02
   2   6 -10    5.62    4.96
  -2  -6  10    2.86    6.61
  -2  -6  10    7.04    5.51
  -2  -6  10   13.46    5.92
   1   6 -10    2.76    4.58
  -1  -6  10    5.29    6.20
  -1  -6  10   -4.16    3.96
  -1  -6  10    5.82    4.71
   0   6 -10   16.35    6.03
   0  -6  10    6.39    6.41
   0  -6  10   13.08    5.88
   0  -6  10   16.40    5.49
  -1   6 -10    1.44    4.20
   1  -6  10    1.00    3.40
   1  -6  10   -3.48    5.44
   1  -6  10    5.24    5.19
  -2   6 -10    4.72    4.85
   2  -6  10    4.74    4.31
   2  -6  10   20.87    7.43
   2  -6  10    4.98    6.27
  -3   6 -10   -1.84    2.85
   3  -6  10   -0.51    3.49
   3  -6  10    0.29    4.18
   3  -6  10    1.76    6.22
  -4   6 -10   22.61    7.12
   4  -6  10   38.85    9.58
   4  -6  10   48.73    7.51
   4  -6  10   30.81    9.34
  -5   6 -10   -5.55    4.12
   5  -6  10   -0.43    6.24
   5  -6  10   13.03    8.07
   5  -6  10    7.32    4.75
  -6   6 -10    8.10    5.92
   6  -6  10    5.97    7.11
   6  -6  10   -0.62    4.65
   6   5 -10   -1.21    4.84
  -6  -5  10    0.58    6.21
  -6  -5  10    7.74    7.33
   5   5 -10   -3.12    5.12
  -5  -5  10    7.24    6.70
  -5  -5  10   -5.46    6.30
   4   5 -10   16.16    6.27
  -4  -5  10   17.77    7.10
  -4  -5  10   21.20    7.87
   3   5 -10   25.91    6.99
  -3  -5  10   21.03    8.00
   2   5 -10   -5.74    3.16
  -2  -5  10    2.20    5.58
  -2  -5  10   -3.50    3.76
   1   5 -10    7.11    4.65
  -1  -5  10   -1.22    5.13
  -1  -5  10    8.48    5.48
  -1  -5  10   -1.25    3.97
   0   5 -10    0.38    4.13
   0  -5  10   -1.27    5.46
   0  -5  10    5.60    5.14
   0  -5  10    1.65    3.11
  -1   5 -10   32.08    6.75
   1  -5  10   31.88    5.46
   1  -5  10   20.26    7.35
   1  -5  10   28.41    8.85
  -2   5 -10   10.28    5.22
   2  -5  10    3.19    3.61
   2  -5  10   10.75    6.02
   2  -5  10   -3.88    4.95
  -3   5 -10   61.28   10.03
   3  -5  10   66.21   11.40
   3  -5  10   49.39   11.19
   3  -5  10   73.09    8.34
  -4   5 -10    6.23    4.98
   4  -5  10    6.02    6.00
   4  -5  10   -2.38    4.77
   4  -5  10    4.47    3.69
  -5   5 -10   13.41    6.26
   5  -5  10   24.87    7.63
   5  -5  10   20.50    5.16
   5  -5  10   13.67    7.70
  -6   5 -10    1.41    5.46
   6  -5  10   -1.17    4.31
   6  -5  10   11.59    8.25
  -7   5 -10    3.27    6.06
   7  -5  10   17.15    9.06
   7   4 -10    1.66    5.96
  -7  -4  10    4.53    7.31
  -7  -4  10   -3.45    7.68
   6   4 -10    7.47    5.87
  -6  -4  10   -1.35    5.94
  -6  -4  10    4.94    6.81
   5   4 -10    7.89    5.68
  -5  -4  10   10.09    6.42
  -5  -4  10    6.67    6.33
   4   4 -10   19.46    6.49
   4   4 -10   17.50    6.41
  -4  -4  10    8.90    6.50
  -4  -4  10   16.45    6.37
   3   4 -10   -5.25    3.60
   3   4 -10   -4.16    4.00
  -3  -4  10    5.32    5.56
  -3  -4  10   -0.26    4.42
   2   4 -10    3.32    4.70
  -2  -4  10    2.32    5.15
   1   4 -10   20.16    5.84
  -1  -4  10   15.54    4.86
  -1  -4  10   14.07    6.61
   0   4 -10   26.11    6.33
   0  -4  10   23.35    7.81
   0  -4  10   17.93    4.50
   0  -4  10   19.47    7.46
  -1   4 -10    1.44    3.92
   1  -4  10    2.58    4.44
   1  -4  10   -2.15    4.55
   1  -4  10    1.71    2.60
  -2   4 -10   13.59    5.54
   2  -4  10   26.44    4.68
   2  -4  10   10.04    5.93
   2  -4  10   11.84    6.76
  -3   4 -10   10.73    5.30
   3  -4  10   16.04    6.46
   3  -4  10   19.89    7.34
   3  -4  10   18.34    4.34
  -4   4 -10    7.71    5.09
   4  -4  10    6.22    3.80
   4  -4  10   21.39    7.21
   4  -4  10   10.08    6.21
  -5   4 -10    2.91    5.15
   5  -4  10    1.34    3.79
   5  -4  10    2.01    4.92
   5  -4  10   -4.89    4.64
  -6   4 -10    1.00    5.52
   6  -4  10   11.43    7.44
   6  -4  10   14.19    4.87
  -7   4 -10   18.43    7.80
   7  -4  10   18.96    8.83
   7  -4  10   15.94    5.42
   7   3 -10   -0.83    5.16
  -7  -3  10   -9.53    5.62
  -7  -3  10    0.99    6.12
   6   3 -10   12.37    6.38
  -6  -3  10    8.83    6.74
  -6  -3  10    5.13    6.83
   5   3 -10   44.86    9.06
   5   3 -10   23.04    6.93
  -5  -3  10   31.56    8.94
  -5  -3  10   24.83    7.33
   4   3 -10   30.94    7.50
   4   3 -10   41.24    7.82
  -4  -3  10   30.49    7.19
  -4  -3  10   34.11    8.92
   3   3 -10   16.69    6.00
   3   3 -10   23.79    5.60
  -3  -3  10   10.56    6.27
  -3  -3  10   12.05    5.37
   2   3 -10    1.04    3.40
   2   3 -10    5.92    4.42
  -2  -3  10    2.42    5.06
  -2  -3  10   -0.78    3.60
   1   3 -10   32.13    6.66
   1   3 -10   16.63    6.72
  -1  -3  10   17.46    6.97
   0   3 -10   20.40    7.37
   0   3 -10   12.48    5.13
   0  -3  10    4.07    5.49
   0  -3  10   15.29    3.91
  -1   3 -10    0.81    4.79
  -1   3 -10   -2.41    2.39
   1  -3  10    3.64    5.11
   1  -3  10    6.65    2.17
   1  -3  10   -4.58    4.08
   1  -3  10    2.65    2.43
  -2   3 -10    8.29    4.52
  -2   3 -10   12.23    6.45
   2  -3  10   14.72    6.37
   2  -3  10   15.91    6.19
   2  -3  10   15.44    3.53
  -3   3 -10   -0.96    2.91
  -3   3 -10   -2.29    3.28
   3  -3  10   -2.17    4.23
   3  -3  10    4.85    5.11
   3  -3  10    2.56    2.61
  -4   3 -10    0.54    4.41
   4  -3  10   -0.91    2.61
   4  -3  10   -4.62    3.44
   4  -3  10    1.85    4.83
  -5   3 -10   -3.60    4.28
   5  -3  10    2.69    5.18
   5  -3  10    0.24    3.08
   5  -3  10    5.68    5.14
  -6   3 -10   58.62   10.89
   6  -3  10   65.86    7.69
   6  -3  10   76.75   13.95
  -7   3 -10    8.33    6.41
   7  -3  10   10.59    8.04
   7   2 -10   -5.27    4.03
  -7  -2  10   -2.98    5.90
  -7  -2  10    0.05    6.63
   6   2 -10    6.69    5.45
  -6  -2  10    1.16    5.89
  -6  -2  10    5.78    6.09
  -6  -2  10   14.07    5.16
   5   2 -10   11.35    5.68
  -5  -2  10    8.68    6.07
  -5  -2  10   11.91    5.97
   4   2 -10    8.20    4.95
   4   2 -10   10.85    5.03
   4   2 -10    6.81    5.33
  -4  -2  10   13.46    5.45
  -4  -2  10    0.28    4.98
   3   2 -10    4.76    3.86
   3   2 -10    1.15    3.35
   3   2 -10    6.85    5.03
  -3  -2  10    7.06    4.31
  -3  -2  10    5.60    5.07
   2   2 -10    7.99    5.43
   2   2 -10    5.98    4.07
  -2  -2  10   14.50    5.09
  -2  -2  10    6.47    5.49
   1   2 -10   39.89    8.80
   1   2 -10   30.25    6.49
  -1  -2  10   32.04    8.13
   0   2 -10    5.19    5.05
   0   2 -10   10.88    4.15
   0  -2  10    7.23    2.82
   0  -2  10    6.79    5.57
   0  -2  10    2.83    2.45
  -1   2 -10    0.01    3.67
  -1   2 -10    0.02    4.54
   1  -2  10   -1.80    4.80
   1  -2  10    3.22    2.07
   1  -2  10    1.42    2.13
  -2   2 -10   -0.28    3.21
  -2   2 -10    2.65    5.47
   2  -2  10   -1.34    1.64
   2  -2  10    2.09    4.68
   2  -2  10    1.61    4.07
  -3   2 -10    1.03    4.11
  -3   2 -10   -1.29    3.12
   3  -2  10    0.85    4.61
   3  -2  10    7.88    5.05
   3  -2  10    1.24    1.74
  -4   2 -10    5.80    5.80
  -4   2 -10    8.47    4.98
   4  -2  10    5.27    2.09
   4  -2  10   16.65    5.71
   4  -2  10   17.44    6.63
  -5   2 -10   58.54   11.68
  -5   2 -10   63.22   10.72
   5  -2  10   76.66   10.47
   5  -2  10   90.22   13.91
  -6   2 -10    4.20    5.53
   6  -2  10    1.60    5.89
  -7   2 -10   11.70    6.88
   7  -2  10   18.67    8.91
   8   1 -10   -5.62    4.93
  -8  -1  10    8.98    6.97
   7   1 -10    1.91    5.20
  -7  -1  10    8.22    7.46
  -7  -1  10    2.37    5.51
  -7  -1  10    7.24    4.84
   6   1 -10   -5.74    3.70
   6   1 -10   -2.91    3.67
  -6  -1  10   -5.06    4.26
  -6  -1  10    4.27    5.80
  -6  -1  10    3.23    3.90
   5   1 -10    2.37    4.21
   5   1 -10   -5.59    3.26
  -5  -1  10    3.36    5.00
  -5  -1  10    4.46    5.17
  -5  -1  10   -1.04    3.27
   4   1 -10    5.17    4.14
   4   1 -10    4.47    4.86
  -4  -1  10    3.37    5.02
  -4  -1  10   15.86    6.41
  -4  -1  10    0.64    2.87
   3   1 -10   -3.60    3.07
   3   1 -10    1.83    4.54
  -3  -1  10    6.02    4.62
  -3  -1  10    2.93    4.98
  -3  -1  10    2.96    2.46
   2   1 -10   50.62   10.38
   2   1 -10   71.07    9.48
  -2  -1  10   71.10    8.51
  -2  -1  10   61.37   10.80
  -2  -1  10   71.64    6.90
   1   1 -10   15.66    6.58
   1   1 -10   21.40    5.48
  -1  -1  10   13.85    3.49
  -1  -1  10   17.79    6.54
  -1  -1  10   21.64    4.49
   0   1 -10    2.91    5.09
   0   1 -10    4.79    3.84
   0  -1  10    2.03    2.70
   0  -1  10    2.90    5.41
  -1   1 -10    0.55    3.19
  -1   1 -10   -1.03    4.93
   1  -1  10    1.37    1.37
   1  -1  10   -1.18    2.20
   1  -1  10   -6.96    3.58
   1  -1  10   -0.57    1.36
  -2   1 -10   10.52    6.20
  -2   1 -10    8.35    4.19
   2  -1  10    6.82    4.92
   2  -1  10    9.96    3.82
   2  -1  10    7.00    5.09
  -3   1 -10   10.50    5.90
  -3   1 -10   14.82    5.45
   3  -1  10   19.85    6.20
   3  -1  10   14.06    6.37
  -4   1 -10   21.25    7.48
  -4   1 -10   25.68    5.28
  -4   1 -10   28.05    6.85
   4  -1  10   28.78    6.69
   4  -1  10   26.77    7.63
  -5   1 -10    2.73    4.98
  -5   1 -10    1.76    5.36
   5  -1  10    7.07    4.47
   5  -1  10    8.26    5.50
  -6   1 -10   36.36    9.30
  -6   1 -10   25.49    7.87
   6  -1  10   24.29    8.28
  -7   1 -10   -5.39    5.61
   7  -1  10    6.10    6.73
   8   0 -10   -1.81    4.76
  -8   0  10   11.09    8.09
  -8   0  10   11.34    6.52
   7   0 -10   -3.51    4.26
  -7   0  10   17.39    7.24
  -7   0  10   10.56    6.24
  -7   0  10    7.82    5.02
   6   0 -10    0.87    4.29
   6   0 -10   -5.95    3.45
  -6   0  10    4.83    3.90
  -6   0  10    2.85    4.73
  -6   0  10   -4.13    4.81
   5   0 -10   -0.67    3.87
   5   0 -10    5.53    4.29
  -5   0  10    0.72    3.00
  -5   0  10   -1.50    3.21
  -5   0  10    8.09    5.33
  -5   0  10   -5.19    3.88
   4   0 -10    2.45    4.86
   4   0 -10   11.02    4.40
  -4   0  10    2.16    4.85
  -4   0  10    6.55    4.93
  -4   0  10    5.80    3.31
  -4   0  10    0.11    2.72
   3   0 -10   55.46   10.00
   3   0 -10   87.12    9.83
  -3   0  10   66.59    7.95
  -3   0  10   69.32    8.66
  -3   0  10   47.29   10.00
   2   0 -10   66.32   11.56
   2   0 -10   67.00    9.04
  -2   0  10   85.46    8.29
  -2   0  10   75.52    7.97
  -2   0  10   69.09   11.70
   1   0 -10    8.81    4.72
   1   0 -10    7.04    3.67
  -1   0  10   13.03    4.15
  -1   0  10   13.00    6.08
  -1   0  10   19.95    4.11
   0   0 -10   22.28    7.20
   0   0 -10   15.58    4.95
   0   0  10   16.73    6.22
   0   0  10   15.29    4.08
  -1   0 -10   -0.05    3.16
  -1   0 -10    5.85    4.96
   1   0  10    1.08    3.11
   1   0  10    5.70    4.73
  -2   0 -10   19.17    6.82
  -2   0 -10   35.39    6.30
  -2   0 -10   29.84    6.35
   2   0  10   27.63    7.28
   2   0  10   20.78    6.60
   2   0  10   28.08    5.80
  -3   0 -10   -3.01    3.52
  -3   0 -10   -3.66    3.71
  -3   0 -10    0.13    4.61
   3   0  10   -3.70    3.09
   3   0  10   -0.02    4.25
  -4   0 -10    9.71    5.40
  -4   0 -10    0.27    4.98
  -4   0 -10    0.37    3.52
   4   0  10    1.35    4.22
   4   0  10    8.00    4.30
  -5   0 -10   24.04    7.04
  -5   0 -10   30.45    5.84
  -5   0 -10   19.66    7.94
   5   0  10   25.86    7.14
  -6   0 -10   -8.50    4.46
  -6   0 -10    7.28    6.96
   6   0  10   -8.88    4.63
  -7   0 -10    0.11    5.79
  -7   0 -10    1.70    4.59
   8  -1 -10   -4.67    3.97
  -8   1  10    1.17    4.65
  -8   1  10    7.20    5.55
  -8   1  10    3.67    6.24
   7  -1 -10    2.78    4.65
  -7   1  10    2.30    4.90
  -7   1  10    2.17    6.50
  -7   1  10   10.19    5.18
   6  -1 -10   22.96    6.70
   6  -1 -10   29.05    6.64
  -6   1  10   21.65    7.21
  -6   1  10   25.62    7.29
  -6   1  10   14.61    5.28
  -6   1  10   22.38    5.63
   5  -1 -10    9.09    5.47
   5  -1 -10   11.55    4.30
  -5   1  10    6.49    3.98
  -5   1  10    6.80    4.50
  -5   1  10    9.84    5.71
  -5   1  10   18.32    6.31
   4  -1 -10   11.87    4.28
   4  -1 -10   13.21    6.22
  -4   1  10   16.50    6.18
  -4   1  10   18.10    4.35
  -4   1  10   15.85    5.49
  -4   1  10   13.49    4.92
   3  -1 -10    1.11    4.84
   3  -1 -10    2.62    3.20
  -3   1  10    8.37    4.61
  -3   1  10    3.48    3.61
  -3   1  10    6.00    4.83
  -3   1  10    5.91    2.74
   2  -1 -10   46.24    6.92
   2  -1 -10   36.65    8.78
  -2   1  10   26.26    7.99
  -2   1  10   53.63    7.19
  -2   1  10   44.01    6.30
   1  -1 -10   26.52    7.70
   1  -1 -10   40.90    6.92
  -1   1  10   50.53    5.91
  -1   1  10   50.61    6.99
  -1   1  10   24.64    7.50
   0  -1 -10    5.39    3.67
   0  -1 -10    9.32    4.38
   0  -1 -10   -2.48    4.25
   0   1  10    3.99    1.83
   0   1  10    2.24    4.82
   0   1  10    4.70    3.57
  -1  -1 -10   49.51    7.65
  -1  -1 -10   29.95    6.12
  -1  -1 -10   30.69    8.20
   1   1  10   34.77    7.87
   1   1  10   39.89    6.74
  -2  -1 -10    6.75    4.80
  -2  -1 -10    4.94    3.89
  -2  -1 -10    3.63    5.15
   2   1  10   12.93    4.72
   2   1  10   11.95    5.56
  -3  -1 -10    0.94    4.12
  -3  -1 -10   -5.92    2.89
  -3  -1 -10   -6.31    3.93
   3   1  10    1.52    3.30
   3   1  10    7.02    4.68
   3   1  10    4.60    4.06
  -4  -1 -10   19.07    6.31
  -4  -1 -10   29.74    6.32
  -4  -1 -10   15.24    6.25
   4   1  10   20.31    6.20
   4   1  10   39.76    8.05
  -5  -1 -10    1.88    5.02
  -5  -1 -10    2.16    4.15
  -5  -1 -10   -3.02    4.83
   5   1  10    9.31    5.54
  -6  -1 -10    2.67    4.61
  -6  -1 -10   -8.97    4.72
  -6  -1 -10   -5.55    4.77
  -7  -1 -10   -0.89    6.06
   8  -2 -10   -0.09    4.10
  -8   2  10    6.68    5.63
   7  -2 -10    0.04    3.85
  -7   2  10    8.44    5.81
  -7   2  10    3.59    4.76
  -7   2  10    8.22    4.87
  -7   2  10    4.93    6.08
   6  -2 -10   13.40    4.39
   6  -2 -10    7.16    5.46
  -6   2  10    5.93    5.26
  -6   2  10    2.63    5.70
  -6   2  10    6.21    4.77
  -6   2  10   12.09    4.75
   5  -2 -10    1.47    4.44
   5  -2 -10    6.28    3.87
  -5   2  10   -2.98    3.72
  -5   2  10    9.16    5.78
  -5   2  10    1.08    3.39
  -5   2  10    6.73    4.77
   4  -2 -10    5.71    3.26
   4  -2 -10    1.18    4.77
  -4   2  10   -0.23    4.42
  -4   2  10    4.14    3.68
  -4   2  10   -2.00    3.86
   3  -2 -10   19.93    7.05
   3  -2 -10   19.35    4.68
  -3   2  10   24.04    6.21
  -3   2  10   17.29    3.97
  -3   2  10   18.90    5.21
   2  -2 -10    2.42    4.81
   2  -2 -10   10.09    3.55
  -2   2  10    8.53    3.09
  -2   2  10    7.95    4.11
  -2   2  10   10.73    5.03
   1  -2 -10    6.20    4.55
   1  -2 -10   10.61    5.81
   1  -2 -10    3.76    3.17
  -1   2  10    4.65    4.41
  -1   2  10    5.92    3.14
   0  -2 -10  131.82   11.78
   0  -2 -10  134.52   12.48
   0  -2 -10  101.58   15.95
   0   2  10  143.57   12.76
   0   2  10  120.83    8.96
  -1  -2 -10   20.92    5.22
  -1  -2 -10   15.86    7.20
  -1  -2 -10   27.49    5.97
   1   2  10   19.76    5.77
  -2  -2 -10    4.19    3.89
  -2  -2 -10   -3.44    3.65
  -2  -2 -10   -1.09    3.85
   2   2  10    7.96    4.40
  -3  -2 -10   16.86    5.58
  -3  -2 -10   19.34    6.11
  -3  -2 -10    4.00    5.85
   3   2  10   12.40    5.44
   3   2  10   24.82    6.15
  -4  -2 -10   13.62    5.59
  -4  -2 -10   -0.28    5.36
  -4  -2 -10   -3.28    4.05
   4   2  10   10.46    4.87
   4   2  10   14.62    5.69
  -5  -2 -10    3.06    5.86
  -5  -2 -10   16.86    5.90
  -5  -2 -10    8.89    6.81
  -6  -2 -10    0.72    4.81
  -6  -2 -10    9.75    7.08
   7  -3 -10    2.77    5.14
  -7   3  10   11.87    6.02
  -7   3  10    8.00    4.86
  -7   3  10   17.20    6.18
  -7   3  10    5.42    7.19
   6  -3 -10    8.60    5.80
   6  -3 -10   12.06    4.14
  -6   3  10   16.70    7.29
  -6   3  10   11.13    5.38
  -6   3  10   10.57    6.03
   5  -3 -10    4.70    5.06
   5  -3 -10    2.56    2.60
  -5   3  10    1.10    3.94
  -5   3  10    2.69    5.43
  -5   3  10   -0.46    5.14
   4  -3 -10   10.46    6.15
   4  -3 -10   21.48    4.53
  -4   3  10   20.37    5.07
  -4   3  10   24.81    6.18
  -4   3  10   25.53    7.11
   3  -3 -10    6.68    5.64
   3  -3 -10    4.57    3.06
  -3   3  10    4.33    4.17
  -3   3  10   -4.91    2.90
  -3   3  10   -2.73    3.69
   2  -3 -10   -1.78    4.42
   2  -3 -10    3.68    2.75
  -2   3  10    4.43    3.73
  -2   3  10   -2.08    4.16
   1  -3 -10   18.14    5.84
   1  -3 -10   16.90    4.42
   1  -3 -10   10.79    6.56
  -1   3  10   17.54    4.05
  -1   3  10   23.13    6.28
   0  -3 -10   -0.65    2.68
   0  -3 -10    6.43    4.81
   0  -3 -10    7.20    5.66
   0   3  10   -1.19    3.42
   0   3  10   -1.57    2.02
  -1  -3 -10   26.89    6.82
  -1  -3 -10   24.71    5.77
  -1  -3 -10   26.89    7.64
   1   3  10   24.93    6.29
  -2  -3 -10   -3.02    4.35
  -2  -3 -10   -8.70    3.39
  -2  -3 -10    2.83    4.30
   2   3  10    0.37    3.72
  -3  -3 -10   -0.48    4.39
  -3  -3 -10    1.29    4.20
  -3  -3 -10   -5.94    4.33
   3   3  10    7.81    3.72
   3   3  10    6.62    4.92
  -4  -3 -10    2.81    6.10
  -4  -3 -10   11.32    5.96
  -4  -3 -10   -1.65    4.55
   4   3  10    9.83    5.01
  -5  -3 -10    6.07    6.16
  -5  -3 -10   -0.57    5.40
   5   3  10    1.92    4.47
  -6  -3 -10    3.81    5.91
  -6  -3 -10    2.96    5.93
   7  -4 -10    9.20    6.18
  -7   4  10    6.33    6.82
  -7   4  10   18.65    7.35
  -7   4  10   10.62    6.07
   6  -4 -10    8.24    5.95
  -6   4  10    0.82    5.51
  -6   4  10    6.32    5.03
  -6   4  10   15.18    6.40
   5  -4 -10   13.62    6.35
  -5   4  10    9.77    5.01
  -5   4  10    0.31    4.69
  -5   4  10   -0.89    5.25
   4  -4 -10    3.40    5.09
  -4   4  10    8.12    6.06
  -4   4  10    9.15    5.35
   3  -4 -10   -0.39    4.99
  -3   4  10    6.68    4.55
  -3   4  10  -12.52    3.56
   2  -4 -10    1.50    2.82
   2  -4 -10    6.41    4.98
   2  -4 -10    4.19    5.52
  -2   4  10    1.43    4.68
  -2   4  10    3.17    3.89
   1  -4 -10    4.12    4.80
   1  -4 -10   -2.39    4.88
   1  -4 -10    0.22    2.76
  -1   4  10   -5.83    3.86
  -1   4  10    2.78    3.24
   0  -4 -10   34.58    5.97
   0  -4 -10   14.98    7.63
   0  -4 -10   28.89    6.83
   0   4  10   26.92    7.30
   0   4  10   31.66    4.40
  -1  -4 -10   10.13    5.28
  -1  -4 -10   18.89    5.80
  -1  -4 -10    3.77    3.98
   1   4  10    4.19    4.51
  -2  -4 -10   -5.06    3.24
  -2  -4 -10    4.64    4.61
  -2  -4 -10    1.23    4.41
   2   4  10    6.91    4.91
  -3  -4 -10   22.08    8.53
  -3  -4 -10   11.51    6.31
   3   4  10   15.74    6.22
  -4  -4 -10    2.40    5.96
  -4  -4 -10    8.87    5.63
   4   4  10    5.91    5.22
  -5  -4 -10    1.97    5.42
  -5  -4 -10   -6.02    5.07
   5   4  10   11.73    6.03
   6  -5 -10    2.54    5.82
  -6   5  10   -3.20    5.32
  -6   5  10    0.94    4.65
  -6   5  10  -14.08    5.25
   5  -5 -10   -0.98    5.08
  -5   5  10  -11.51    4.80
  -5   5  10    1.63    4.25
  -5   5  10   -3.26    5.49
   4  -5 -10    9.97    6.82
  -4   5  10   26.22    8.46
  -4   5  10   11.87    5.55
   3  -5 -10    9.77    6.86
   3  -5 -10   -4.52    3.99
  -3   5  10   -9.43    4.95
  -3   5  10  -12.13    3.58
   2  -5 -10   -1.76    5.25
   2  -5 -10    7.25    5.70
  -2   5  10   -2.95    4.75
  -2   5  10    8.22    4.47
   1  -5 -10   58.92    9.63
   1  -5 -10   40.34   10.17
  -1   5  10   64.10    7.52
  -1   5  10   73.53   11.48
   0  -5 -10    2.52    4.43
   0  -5 -10    1.74    5.77
   0  -5 -10    2.24    3.77
   0   5  10   -0.60    4.23
   0   5  10    3.32    2.92
  -1  -5 -10   10.43    5.49
  -1  -5 -10   -5.17    5.61
  -1  -5 -10    3.42    4.21
   1   5  10   12.69    5.76
  -2  -5 -10   20.55    6.88
  -2  -5 -10   22.79    8.70
   2   5  10   27.67    7.42
  -3  -5 -10    4.74    6.45
  -3  -5 -10    4.72    5.57
   3   5  10    2.32    5.55
  -4  -5 -10   10.96    7.73
  -4  -5 -10    8.61    6.39
   4   5  10   11.41    6.16
   5  -6 -10    7.08    6.83
  -5   6  10    3.56    7.58
  -5   6  10   11.94    6.73
   4  -6 -10    4.14    6.63
  -4   6  10    3.44    6.67
  -4   6  10    1.75    5.25
   3  -6 -10   -7.19    4.84
   3  -6 -10    5.54    5.34
  -3   6  10   -8.37    5.38
  -3   6  10    3.98    5.05
   2  -6 -10   27.92    9.60
   2  -6 -10   37.60    8.48
  -2   6  10   47.87   10.32
  -2   6  10   43.64    7.26
   1  -6 -10    3.37    5.77
   1  -6 -10   -0.94    3.45
  -1   6  10   -6.07    5.03
  -1   6  10    1.18    3.90
   0  -6 -10    4.88    5.22
   0  -6 -10    8.47    6.58
   0   6  10    8.35    3.92
   0   6  10    7.54    6.00
  -1  -6 -10    0.13    6.02
  -1  -6 -10    0.37    4.31
   1   6  10    3.88    6.18
  -2  -6 -10    6.36    5.52
  -2  -6 -10    7.17    7.20
   2   6  10    7.95    6.37
  -3  -6 -10   19.04    8.96
  -3  -6 -10   27.53    7.91
   3   6  10   21.34    7.55
   4  -7 -10    2.82    6.74
  -4   7  10    0.37    6.68
  -4   7  10   -7.55    4.80
   3  -7 -10   -2.62    4.77
   3  -7 -10   -4.40    5.69
  -3   7  10    8.02    5.78
  -3   7  10    1.86    6.50
   2  -7 -10   -0.17    6.53
   2  -7 -10    4.07    5.35
  -2   7  10   -2.09    4.46
  -2   7  10   -1.38    5.71
   1  -7 -10   12.02    8.32
   1  -7 -10    3.66    5.02
  -1   7  10    3.51    6.97
  -1   7  10    5.97    4.91
   0  -7 -10   -0.90    5.10
   0  -7 -10   -5.75    6.61
   0   7  10   -5.89    5.47
   0   7  10    0.41    3.83
  -1  -7 -10    4.07    5.34
  -1  -7 -10   -6.45    5.50
   1   7  10   -3.72    5.28
   2   8 -11    1.99    5.61
  -2  -8  11   15.98    6.85
  -2  -8  11    6.18    6.32
  -2  -8  11   -0.74    8.18
   1   8 -11    1.62    5.12
  -1  -8  11   -4.49    4.60
  -1  -8  11   -2.09    6.96
  -1  -8  11    8.81    6.21
   0   8 -11   17.74    6.78
   0  -8  11   20.45    7.72
   0  -8  11   21.61    6.46
   0  -8  11    7.81    8.04
  -1   8 -11   10.87    5.98
   1  -8  11    9.97    6.70
   1  -8  11    5.24    5.55
   1  -8  11   11.40    8.81
  -2   8 -11    3.17    5.38
   2  -8  11    1.03    4.53
   2  -8  11    8.76    7.46
   2  -8  11    0.01    6.67
  -3   8 -11    7.32    5.77
   3  -8  11   19.92    6.40
   3  -8  11   20.73    8.55
   3  -8  11   -8.09    6.95
   3   7 -11   17.45    6.92
  -3  -7  11   -5.96    6.64
  -3  -7  11   11.74    7.18
  -3  -7  11   31.98    7.91
   2   7 -11   -3.54    4.62
  -2  -7  11    2.84    5.75
  -2  -7  11   14.03    6.17
  -2  -7  11  -18.11    5.57
   1   7 -11    2.20    4.84
  -1  -7  11   15.02    6.51
  -1  -7  11    4.11    7.36
  -1  -7  11   -0.83    5.14
   0   7 -11    4.21    5.14
   0  -7  11    9.79    4.91
   0  -7  11   20.53    7.46
   0  -7  11    4.91    7.48
  -1   7 -11   -2.55    4.40
   1  -7  11    1.47    4.84
   1  -7  11   -1.10    6.25
   1  -7  11   -6.50    3.85
  -2   7 -11    3.21    4.72
   2  -7  11   10.22    7.99
   2  -7  11    0.05    4.55
   2  -7  11    8.60    6.82
  -3   7 -11    4.63    5.30
   3  -7  11   -6.45    6.57
   3  -7  11    6.92    4.77
   3  -7  11    4.68    6.40
  -4   7 -11   -0.26    4.17
   4  -7  11    7.96    7.76
   4  -7  11   -1.73    4.47
   4  -7  11   -6.12    5.46
   5   6 -11    0.95    5.59
   4   6 -11   -6.00    4.79
  -4  -6  11   -4.69    5.48
   3   6 -11    9.83    5.99
  -3  -6  11    6.51    6.06
  -3  -6  11    9.83    7.99
   2   6 -11   85.44   12.90
  -2  -6  11   73.14   13.18
  -2  -6  11   90.03   12.24
  -2  -6  11   83.10   14.45
   1   6 -11    3.47    4.54
  -1  -6  11   -9.91    5.43
  -1  -6  11   -1.26    4.48
  -1  -6  11   13.92    6.16
   0   6 -11   17.42    6.35
   0  -6  11    5.89    7.49
   0  -6  11    7.24    4.98
   0  -6  11   35.74    9.49
  -1   6 -11    8.04    5.68
   1  -6  11    6.50    6.64
   1  -6  11    3.69    4.85
   1  -6  11    2.56    3.95
  -2   6 -11    3.34    4.59
   2  -6  11    1.73    3.77
   2  -6  11    0.55    6.10
   2  -6  11    8.53    6.59
  -3   6 -11    9.28    5.49
   3  -6  11    9.47    6.29
   3  -6  11   10.99    4.54
   3  -6  11    8.89    7.06
  -4   6 -11   19.01    7.08
   4  -6  11   20.30    8.59
   4  -6  11   16.49    5.46
   4  -6  11   19.08    8.22
  -5   6 -11    0.10    4.99
   5  -6  11   -1.31    4.26
   5  -6  11    5.52    7.42
   5   5 -11    5.11    5.82
  -5  -5  11   11.85    7.30
  -5  -5  11    6.48    7.42
   4   5 -11    3.17    5.46
  -4  -5  11   -1.99    5.74
   3   5 -11   33.39    8.39
  -3  -5  11   37.88   10.21
   2   5 -11    1.33    4.49
  -2  -5  11    0.39    5.95
  -2  -5  11    2.02    5.08
   1   5 -11    0.33    4.03
  -1  -5  11    3.39    6.19
  -1  -5  11    4.39    4.50
  -1  -5  11    4.77    4.51
   0   5 -11   12.85    5.64
   0  -5  11   18.72    7.13
   0  -5  11   10.04    7.45
   0  -5  11    6.93    4.32
  -1   5 -11   -3.03    3.62
   1  -5  11   -3.71    2.82
   1  -5  11   -4.82    4.75
   1  -5  11    7.13    5.97
  -2   5 -11   18.47    6.20
   2  -5  11   12.47    4.31
   2  -5  11   10.41    6.02
   2  -5  11   14.25    7.60
  -3   5 -11    1.62    4.73
   3  -5  11    0.46    5.32
   3  -5  11   -6.93    4.64
   3  -5  11   -0.57    3.38
  -4   5 -11    9.26    5.63
   4  -5  11   19.06    4.99
   4  -5  11   17.24    7.32
   4  -5  11    7.83    6.62
  -5   5 -11  -10.65    4.37
   5  -5  11   13.17    7.67
   5  -5  11   -0.53    4.07
  -6   5 -11    7.16    6.48
   6  -5  11    5.67    6.92
   6   4 -11    8.49    6.57
  -6  -4  11    0.83    6.70
  -6  -4  11    7.80    7.42
   5   4 -11    1.09    5.13
  -5  -4  11   -4.75    5.77
  -5  -4  11   -0.85    5.50
   4   4 -11   12.59    6.12
  -4  -4  11   16.53    7.51
  -4  -4  11    8.79    6.01
   3   4 -11    0.50    4.51
  -3  -4  11    3.54    6.06
   2   4 -11    1.54    4.19
  -2  -4  11   -2.10    5.13
   1   4 -11    2.99    3.56
  -1  -4  11    2.88    6.09
  -1  -4  11   11.87    4.71
   0   4 -11   21.97    6.37
   0  -4  11   18.15    7.42
   0  -4  11   24.32    7.33
   0  -4  11   22.10    5.07
  -1   4 -11   37.49    7.78
   1  -4  11   38.87    9.30
   1  -4  11   32.10    8.96
   1  -4  11   54.66    6.46
  -2   4 -11    2.25    4.34
   2  -4  11    3.99    3.26
   2  -4  11    3.62    4.91
   2  -4  11    3.72    6.10
  -3   4 -11   17.01    6.02
   3  -4  11   22.54    4.55
   3  -4  11   21.22    7.27
   3  -4  11    6.30    5.89
  -4   4 -11   -1.92    4.61
   4  -4  11    8.82    6.43
   4  -4  11    0.23    3.08
   4  -4  11    7.19    6.23
  -5   4 -11   -0.50    5.05
   5  -4  11   -1.59    4.99
   5  -4  11    4.24    3.69
  -6   4 -11    6.80    6.20
   6  -4  11    7.56    7.03
   6   3 -11   -1.92    4.95
  -6  -3  11   -3.03    5.83
  -6  -3  11   -2.73    5.94
   5   3 -11   -0.91    4.74
  -5  -3  11    3.02    5.84
  -5  -3  11    7.06    6.37
   4   3 -11   36.63    7.90
  -4  -3  11   16.81    6.95
  -4  -3  11   11.14    6.86
   3   3 -11    1.12    4.73
  -3  -3  11   -5.57    4.88
  -3  -3  11    3.00    5.07
   2   3 -11   -1.09    2.86
  -2  -3  11    4.47    5.30
   1   3 -11   11.19    6.72
   1   3 -11    7.00    4.48
  -1  -3  11   14.68    6.81
  -1  -3  11   14.38    4.53
   0   3 -11  128.76   18.12
   0   3 -11  120.01   12.49
   0  -3  11  142.69   11.21
   0  -3  11  146.50   17.86
  -1   3 -11    6.16    5.49
  -1   3 -11    3.44    3.99
   1  -3  11    6.03    4.70
   1  -3  11   -3.68    4.27
   1  -3  11   -3.00    2.09
  -2   3 -11   18.22    6.01
  -2   3 -11   16.82    7.37
   2  -3  11   26.81    8.08
   2  -3  11   19.85    7.19
   2  -3  11   27.82    4.09
  -3   3 -11   -7.76    3.48
   3  -3  11    1.23    4.89
   3  -3  11   -2.86    2.17
   3  -3  11    2.42    4.65
  -4   3 -11   17.90    6.31
   4  -3  11   19.68    7.46
   4  -3  11   17.83    6.59
  -5   3 -11    3.19    5.57
   5  -3  11   11.28    6.69
  -6   3 -11   -1.50    5.17
   6  -3  11    4.61    6.81
   7   2 -11   23.82    7.76
  -7  -2  11   23.57    9.61
   6   2 -11   -1.74    5.07
  -6  -2  11    2.58    5.77
  -6  -2  11    2.55    6.02
   5   2 -11    9.18    5.11
  -5  -2  11    6.55    6.08
  -5  -2  11    2.00    6.29
   4   2 -11   -2.29    4.51
   4   2 -11    1.06    3.78
  -4  -2  11    8.92    5.87
  -4  -2  11    0.68    5.14
   3   2 -11   -3.82    3.38
   3   2 -11   -0.86    4.63
  -3  -2  11   -0.11    4.80
  -3  -2  11    0.23    4.86
   2   2 -11    4.67    5.44
   2   2 -11    3.06    3.81
  -2  -2  11    3.09    5.40
  -2  -2  11   -0.99    4.15
   1   2 -11   59.21    9.01
   1   2 -11   40.72    9.79
  -1  -2  11   52.37   10.36
   0   2 -11    7.39    5.87
   0   2 -11   11.07    4.98
   0  -2  11    8.33    5.91
   0  -2  11    5.69    2.78
  -1   2 -11    6.17    5.83
  -1   2 -11    9.21    5.19
   1  -2  11   13.02    6.28
   1  -2  11    8.16    2.53
   1  -2  11   13.63    5.79
  -2   2 -11   -2.10    3.24
  -2   2 -11   -0.81    4.76
   2  -2  11   11.02    5.61
   2  -2  11    2.82    1.77
   2  -2  11    5.86    2.96
   2  -2  11   12.80    5.81
  -3   2 -11    1.97    4.91
  -3   2 -11   -3.89    3.44
   3  -2  11   11.85    6.55
   3  -2  11    2.94    5.08
  -4   2 -11    5.36    6.57
  -4   2 -11    6.64    5.57
   4  -2  11    3.52    4.96
   4  -2  11    2.24    4.71
  -5   2 -11    3.41    5.48
  -5   2 -11    8.76    6.49
   5  -2  11    8.36    5.76
  -6   2 -11    9.79    6.41
   6  -2  11   37.40   10.48
   7   1 -11    6.64    5.67
  -7  -1  11    8.14    7.14
  -7  -1  11    2.69    6.50
   6   1 -11   -5.30    4.76
   6   1 -11    5.56    4.94
  -6  -1  11   -4.03    4.75
  -6  -1  11   -2.69    5.44
   5   1 -11    1.16    4.13
   5   1 -11    4.12    5.33
  -5  -1  11    0.89    6.11
  -5  -1  11   11.57    6.41
   4   1 -11   -0.61    3.92
   4   1 -11   -1.83    4.45
  -4  -1  11   12.67    5.70
  -4  -1  11    2.58    5.21
   3   1 -11   -4.66    3.15
   3   1 -11    1.37    4.85
  -3  -1  11    1.80    4.79
  -3  -1  11    8.98    5.68
   2   1 -11   14.00    4.95
   2   1 -11   11.42    6.38
  -2  -1  11   17.65    5.34
  -2  -1  11   15.94    6.52
   1   1 -11    9.39    6.44
   1   1 -11   14.37    4.87
  -1  -1  11   13.30    6.58
   0   1 -11    6.60    4.54
   0   1 -11   11.12    4.73
   0  -1  11   11.80    3.69
   0  -1  11   18.48    6.97
   0  -1  11   12.42    2.80
  -1   1 -11    0.30    3.80
  -1   1 -11   -0.56    5.02
   1  -1  11    3.65    2.66
   1  -1  11    1.08    1.22
   1  -1  11    4.02    4.66
  -2   1 -11   -2.15    4.03
  -2   1 -11    2.47    4.01
   2  -1  11   14.50    5.66
   2  -1  11    3.62    4.31
   2  -1  11    5.41    3.18
  -3   1 -11   34.50    9.54
  -3   1 -11   41.51    8.25
   3  -1  11   57.81    9.41
   3  -1  11   42.80    7.23
   3  -1  11   44.80    9.29
  -4   1 -11   -4.66    4.05
  -4   1 -11   -5.17    4.56
   4  -1  11    1.32    4.18
   4  -1  11    0.74    4.36
  -5   1 -11   24.18    8.46
  -5   1 -11   21.10    7.02
   5  -1  11   46.83   10.31
  -6   1 -11    4.96    6.46
  -6   1 -11    0.93    5.66
   6  -1  11    5.98    6.55
   7   0 -11    2.74    4.94
  -7   0  11   14.70    6.81
  -7   0  11    4.25    7.00
   6   0 -11   -1.12    4.00
   6   0 -11    2.65    4.50
  -6   0  11    1.82    5.24
  -6   0  11    4.89    6.54
   5   0 -11    5.55    4.05
   5   0 -11    4.35    4.91
  -5   0  11   11.09    5.93
  -5   0  11   -0.30    5.65
   4   0 -11   17.15    5.34
   4   0 -11   11.47    6.08
  -4   0  11   17.93    6.00
  -4   0  11    8.32    5.10
   3   0 -11    8.26    4.02
   3   0 -11    6.28    5.26
  -3   0  11    9.13    5.73
  -3   0  11    3.87    4.50
   2   0 -11   72.94   12.76
   2   0 -11   88.49   10.82
  -2   0  11   75.42   12.92
  -2   0  11  101.18    9.29
  -2   0  11   83.12    9.57
   1   0 -11   -1.29    4.37
   1   0 -11    8.22    4.24
  -1   0  11    4.77    3.30
  -1   0  11    3.64    3.22
  -1   0  11    0.33    4.78
   0   0 -11    1.47    4.94
   0   0 -11   -2.86    2.91
   0   0  11   -6.23    4.35
   0   0  11    2.22    3.01
  -1   0 -11   13.95    4.97
  -1   0 -11   10.58    6.84
   1   0  11   12.68    5.84
   1   0  11    8.91    4.08
  -2   0 -11    0.90    4.07
  -2   0 -11    8.77    6.45
   2   0  11    7.68    5.32
   2   0  11   13.36    5.38
   2   0  11    6.77    3.79
  -3   0 -11    6.65    4.48
  -3   0 -11    7.29    4.95
  -3   0 -11    5.50    5.71
   3   0  11    3.08    3.60
   3   0  11   -0.32    3.94
   3   0  11   20.87    6.79
  -4   0 -11    4.94    6.08
  -4   0 -11   11.99    5.56
  -4   0 -11   10.08    4.75
   4   0  11   18.60    5.98
   4   0  11    8.20    4.21
  -5   0 -11   -0.05    5.24
  -5   0 -11   -2.39    5.30
  -5   0 -11    1.28    4.33
   5   0  11    9.07    6.35
  -6   0 -11    4.53    6.16
  -6   0 -11    5.89    6.65
   6   0  11   12.54    6.96
   7  -1 -11    5.19    4.76
  -7   1  11   -2.21    5.81
  -7   1  11    0.98    5.67
   6  -1 -11    2.34    5.28
   6  -1 -11   11.49    4.88
  -6   1  11   19.60    7.10
  -6   1  11   -2.27    6.03
   5  -1 -11   26.08    7.96
   5  -1 -11   30.53    6.60
  -5   1  11   15.30    6.84
  -5   1  11   32.44    7.69
   4  -1 -11   -0.57    4.60
   4  -1 -11    1.91    3.31
  -4   1  11    4.77    4.99
  -4   1  11   -1.65    3.43
  -4   1  11    5.75    5.37
   3  -1 -11    9.60    4.00
   3  -1 -11   13.88    6.53
  -3   1  11    9.94    4.77
  -3   1  11    9.81    4.97
  -3   1  11    1.10    4.93
   2  -1 -11   13.02    4.98
   2  -1 -11    8.63    6.51
  -2   1  11    9.45    4.30
  -2   1  11   21.56    6.91
  -2   1  11   20.38    5.03
   1  -1 -11    6.95    5.87
   1  -1 -11    2.66    3.46
  -1   1  11    5.68    4.43
  -1   1  11    4.82    3.13
  -1   1  11    9.79    5.64
   0  -1 -11    5.95    3.82
   0  -1 -11    0.74    4.93
   0   1  11   10.59    4.32
   0   1  11    0.61    4.75
  -1  -1 -11   19.83    5.83
  -1  -1 -11   16.53    5.44
  -1  -1 -11    5.55    4.52
   1   1  11    6.68    4.92
   1   1  11   24.36    5.56
  -2  -1 -11   25.11    6.42
  -2  -1 -11   10.37    7.01
  -2  -1 -11   37.46    7.43
   2   1  11   30.82    7.49
   2   1  11   30.09    6.49
   2   1  11   21.47    6.72
  -3  -1 -11   -1.31    4.27
  -3  -1 -11   -1.37    4.96
  -3  -1 -11   -0.87    4.73
   3   1  11    4.66    4.48
   3   1  11    1.83    3.50
   3   1  11    7.66    4.27
  -4  -1 -11    2.29    4.52
  -4  -1 -11   -3.02    4.46
  -4  -1 -11    1.92    3.87
   4   1  11   12.14    5.90
   4   1  11    4.41    3.97
   4   1  11   11.04    4.60
  -5  -1 -11    0.00    6.22
  -5  -1 -11   -2.25    5.12
  -5  -1 -11    4.62    4.66
   5   1  11    4.14    5.00
  -6  -1 -11    3.03    6.04
  -6  -1 -11   -2.66    5.40
   7  -2 -11    1.29    3.21
  -7   2  11    2.04    5.62
   6  -2 -11    8.72    5.55
   6  -2 -11   22.52    5.67
  -6   2  11   17.91    7.15
  -6   2  11   18.47    6.94
   5  -2 -11    2.88    3.12
   5  -2 -11   -2.52    5.16
  -5   2  11   13.50    6.23
  -5   2  11   10.02    5.35
  -5   2  11   -4.47    4.19
   4  -2 -11    4.65    3.28
   4  -2 -11    2.07    5.04
  -4   2  11    4.35    4.47
  -4   2  11   10.08    6.00
  -4   2  11    5.05    5.44
   3  -2 -11    9.15    3.67
   3  -2 -11    0.88    5.26
  -3   2  11   14.71    5.49
  -3   2  11    2.66    4.89
  -3   2  11    8.96    4.80
   2  -2 -11    3.44    3.28
   2  -2 -11   -5.04    4.04
  -2   2  11    3.68    3.80
  -2   2  11   -1.72    4.11
   1  -2 -11    0.81    4.88
   1  -2 -11    1.03    3.21
  -1   2  11    7.64    4.93
  -1   2  11    2.67    2.87
   0  -2 -11    5.41    4.62
   0  -2 -11    7.82    3.94
   0  -2 -11   13.22    6.14
   0   2  11   13.74    4.88
  -1  -2 -11   46.62    8.59
  -1  -2 -11   17.85    7.46
  -1  -2 -11   42.06    7.84
   1   2  11   52.51    8.18
  -2  -2 -11   20.67    7.84
  -2  -2 -11   17.67    6.17
  -2  -2 -11   20.58    6.17
   2   2  11   18.75    6.18
   2   2  11    8.09    4.75
  -3  -2 -11   19.75    6.48
  -3  -2 -11    7.80    6.17
  -3  -2 -11   16.21    5.97
   3   2  11   14.74    5.37
   3   2  11   20.31    5.75
   3   2  11   19.65    6.30
  -4  -2 -11    7.08    6.03
  -4  -2 -11    1.03    5.65
  -4  -2 -11    3.79    4.84
   4   2  11   11.07    6.03
   4   2  11   13.75    4.83
   4   2  11   10.48    5.54
  -5  -2 -11   11.22    6.91
  -5  -2 -11   -8.54    4.67
  -5  -2 -11    1.70    6.15
   5   2  11    9.29    5.00
   6  -3 -11    6.03    5.79
  -6   3  11    7.38    6.02
  -6   3  11   13.15    5.97
  -6   3  11   -1.33    6.10
   5  -3 -11    3.28    5.32
  -5   3  11    9.31    5.98
  -5   3  11   -6.89    4.31
   4  -3 -11   -2.61    5.20
   4  -3 -11    3.78    3.10
  -4   3  11    5.99    5.18
  -4   3  11   -2.14    4.42
   3  -3 -11    9.78    6.14
   3  -3 -11    7.38    3.38
  -3   3  11    0.49    4.79
  -3   3  11    3.06    4.25
   2  -3 -11    4.80    3.19
   2  -3 -11    6.08    5.88
  -2   3  11    0.16    3.58
  -2   3  11   11.12    5.74
   1  -3 -11    5.40    4.88
   1  -3 -11    2.22    5.77
   1  -3 -11   10.01    3.96
  -1   3  11    3.48    2.94
  -1   3  11    0.95    4.09
   0  -3 -11   38.45    7.31
   0  -3 -11   59.98    9.53
   0  -3 -11   55.40   11.73
   0   3  11   69.55   10.12
  -1  -3 -11   18.41    7.92
  -1  -3 -11   25.32    6.83
  -1  -3 -11   24.95    6.26
   1   3  11   23.98    6.55
  -2  -3 -11   -1.83    4.21
  -2  -3 -11    7.45    6.80
  -2  -3 -11   -2.06    4.82
   2   3  11    6.74    4.69
  -3  -3 -11    6.34    5.17
  -3  -3 -11    9.90    5.62
  -3  -3 -11   11.75    7.97
   3   3  11   12.41    5.53
  -4  -3 -11    0.43    6.06
  -4  -3 -11   -4.29    5.22
  -4  -3 -11   -4.53    3.94
   4   3  11    6.71    5.07
   4   3  11   11.11    4.06
  -5  -3 -11   -3.29    5.83
   6  -4 -11    5.18    6.17
  -6   4  11    5.45    6.09
  -6   4  11   26.28    8.29
   5  -4 -11   -0.02    5.89
  -5   4  11   -0.37    6.45
  -5   4  11    3.50    5.46
   4  -4 -11   -2.19    5.05
  -4   4  11   -0.68    4.75
  -4   4  11   -0.79    5.72
   3  -4 -11   -3.89    5.24
  -3   4  11   -1.70    4.35
  -3   4  11   -7.48    4.97
   2  -4 -11   11.00    6.96
   2  -4 -11   -3.86    3.11
  -2   4  11    1.70    3.71
  -2   4  11    3.36    5.18
   1  -4 -11   11.82    5.66
   1  -4 -11    7.04    6.15
   1  -4 -11    7.19    3.62
  -1   4  11   14.29    6.04
  -1   4  11    7.77    3.62
   0  -4 -11   14.56    4.74
   0  -4 -11   16.40    6.58
   0  -4 -11    4.60    5.22
   0   4  11   11.57    6.12
  -1  -4 -11    4.59    7.05
  -1  -4 -11    1.35    4.05
  -1  -4 -11   -2.47    3.90
   1   4  11    5.33    5.49
  -2  -4 -11   -1.56    3.86
  -2  -4 -11    1.83    4.68
  -2  -4 -11   -0.37    5.08
   2   4  11    5.71    5.53
  -3  -4 -11    1.22    5.43
  -3  -4 -11   16.78    6.46
  -3  -4 -11    2.38    5.61
   3   4  11    9.26    6.18
  -4  -4 -11   30.37   10.47
  -4  -4 -11   69.84   11.21
   4   4  11   53.25   10.29
   5  -5 -11   -5.21    5.86
  -5   5  11   -3.03    5.45
  -5   5  11    9.27    7.56
   4  -5 -11   25.03    8.87
  -4   5  11   16.87    7.63
  -4   5  11   11.89    6.00
   3  -5 -11    7.10    6.85
  -3   5  11   10.46    5.39
  -3   5  11   14.30    7.49
   2  -5 -11    9.46    5.97
   2  -5 -11   12.35    7.13
  -2   5  11    7.44    4.69
  -2   5  11   -1.12    5.31
   1  -5 -11    2.18    6.25
   1  -5 -11   -1.39    4.85
  -1   5  11   -1.10    3.39
  -1   5  11   -1.90    5.31
   0  -5 -11   -1.00    6.08
   0  -5 -11    6.16    5.36
   0   5  11   -4.76    5.49
  -1  -5 -11    3.15    4.91
  -1  -5 -11   -0.69    4.43
  -1  -5 -11   -2.91    5.39
   1   5  11   10.20    6.59
  -2  -5 -11   13.88    8.04
  -2  -5 -11   13.12    6.03
   2   5  11   12.81    6.27
  -3  -5 -11   16.47    8.55
  -3  -5 -11   35.91    8.76
   4  -6 -11    4.59    6.73
   3  -6 -11    6.88    5.22
   3  -6 -11   13.86    8.38
  -3   6  11    6.21    5.54
  -3   6  11   -0.79    6.31
   2  -6 -11    6.10    5.70
   2  -6 -11   11.63    7.63
  -2   6  11   -2.96    4.50
  -2   6  11   -1.48    6.23
   1  -6 -11   14.56    6.97
   1  -6 -11    6.96    7.31
  -1   6  11   13.57    5.26
  -1   6  11    7.67    6.98
   0  -6 -11   -6.32    4.12
   0  -6 -11    3.12    7.27
   0   6  11    8.08    6.48
  -1  -6 -11    3.36    6.11
  -1  -6 -11    5.29    5.39
   1   6  11    5.53    6.97
   2   7 -12   50.20   10.33
  -2  -7  12   55.21   14.11
   1   7 -12   -1.03    4.37
  -1  -7  12    1.73    5.68
  -1  -7  12    1.66    7.33
  -1  -7  12   13.12    6.31
   0   7 -12    0.55    4.93
   0  -7  12   -1.93    7.35
   0  -7  12   -1.41    4.40
   0  -7  12   16.39    7.38
  -1   7 -12   -6.71    4.14
   1  -7  12   -2.67    4.38
   1  -7  12   13.80    6.45
   1  -7  12    0.38    7.00
  -2   7 -12   -1.97    4.64
   2  -7  12   -8.64    6.58
   2  -7  12    6.11    5.00
   2  -7  12   11.02    6.85
  -3   7 -12   15.80    6.16
   3   6 -12   -3.13    3.55
  -3  -6  12    7.74    7.86
  -3  -6  12    3.19    5.86
   2   6 -12   -4.08    4.42
  -2  -6  12   -3.88    5.38
  -2  -6  12   21.47    6.89
  -2  -6  12   -1.99    6.59
   1   6 -12   28.30    8.05
  -1  -6  12   23.25    7.05
  -1  -6  12   23.90    9.78
  -1  -6  12   33.92    9.06
   0   6 -12   10.38    5.29
   0  -6  12    0.61    4.03
   0  -6  12    1.75    6.52
   0  -6  12    8.12    5.86
  -1   6 -12   -3.14    4.34
   1  -6  12   15.07    6.99
   1  -6  12    3.27    6.94
   1  -6  12   -2.34    3.91
  -2   6 -12   36.91    8.68
   2  -6  12   38.82   10.33
   2  -6  12   43.89    7.20
   2  -6  12   31.51    9.54
  -3   6 -12   -1.49    4.69
   3  -6  12    8.82    4.22
   3  -6  12    1.69    5.19
   3  -6  12   -1.05    6.41
  -4   6 -12    1.19    5.51
   4  -6  12   -9.94    5.68
   4  -6  12   -0.36    5.16
   4   5 -12    9.28    5.94
  -4  -5  12    1.20    6.54
   3   5 -12    0.31    5.18
  -3  -5  12   -0.73    7.01
  -3  -5  12   -3.23    4.57
   2   5 -12   15.04    6.64
  -2  -5  12    9.88    7.72
  -2  -5  12   18.42    6.62
   1   5 -12   -1.63    3.80
  -1  -5  12   -4.93    3.75
  -1  -5  12   -7.34    5.30
  -1  -5  12   17.55    6.42
   0   5 -12   -1.21    4.24
   0  -5  12   -7.61    5.98
   0  -5  12    3.95    5.48
   0  -5  12   -0.58    3.50
  -1   5 -12   29.33    8.07
   1  -5  12   51.70   11.24
   1  -5  12   36.68    6.35
   1  -5  12   35.34    9.46
  -2   5 -12    0.34    4.51
   2  -5  12    3.00    3.77
   2  -5  12   -2.83    5.98
   2  -5  12    8.19    5.76
  -3   5 -12    5.63    5.59
   3  -5  12   -1.22    6.37
   3  -5  12    2.78    3.84
   3  -5  12    7.42    6.54
  -4   5 -12   19.54    6.83
   4  -5  12    1.65    4.37
   4  -5  12    2.62    6.76
   4  -5  12    7.20    6.29
   5   4 -12   -4.02    4.73
  -5  -4  12   -2.01    5.69
   4   4 -12    6.53    5.36
  -4  -4  12    2.61    6.82
  -4  -4  12  -10.52    5.86
   3   4 -12    3.55    5.45
  -3  -4  12    3.19    6.27
   2   4 -12   -0.53    3.16
  -2  -4  12   -1.47    4.54
  -2  -4  12    3.97    5.92
   1   4 -12   -1.12    4.24
  -1  -4  12    0.64    5.88
  -1  -4  12   -0.60    3.87
   0   4 -12   39.82    8.57
   0  -4  12   40.67   10.11
   0  -4  12   43.37    6.35
   0  -4  12   30.64    8.77
  -1   4 -12   14.98    6.12
   1  -4  12   26.01    7.80
   1  -4  12    8.36    7.05
   1  -4  12   16.00    4.09
  -2   4 -12    0.30    4.28
   2  -4  12    3.65    6.33
   2  -4  12    3.67    3.17
   2  -4  12   11.10    6.07
  -3   4 -12   -3.85    3.95
   3  -4  12    5.95    5.81
   3  -4  12    1.07    5.62
  -4   4 -12   -3.97    4.01
   4  -4  12    8.24    5.87
   4  -4  12    3.01    5.84
  -5   4 -12    0.00    5.16
   5  -4  12    2.88    5.84
   5   3 -12   -7.44    3.80
  -5  -3  12    7.10    6.67
  -5  -3  12    1.59    6.82
   4   3 -12   18.25    6.61
  -4  -3  12   16.45    6.69
  -4  -3  12   14.09    7.54
   3   3 -12    2.45    5.02
  -3  -3  12    9.74    6.49
  -3  -3  12    0.81    5.34
   2   3 -12    9.21    5.25
  -2  -3  12    9.74    6.62
   1   3 -12   14.39    7.16
   1   3 -12    8.56    4.89
  -1  -3  12    0.53    5.84
  -1  -3  12    8.47    4.14
   0   3 -12   11.61    5.53
   0   3 -12    6.49    6.72
   0  -3  12    9.76    6.42
   0  -3  12    9.48    3.51
  -1   3 -12   59.61    9.73
  -1   3 -12   45.76   11.53
   1  -3  12   56.57    6.21
   1  -3  12   54.98   11.18
   1  -3  12   46.95   10.60
  -2   3 -12    3.96    4.92
  -2   3 -12   -1.27    5.24
   2  -3  12   -1.54    5.57
   2  -3  12    2.30    4.26
  -3   3 -12   -2.64    4.55
   3  -3  12    6.57    5.77
   3  -3  12    0.23    4.72
  -4   3 -12    4.09    5.31
   4  -3  12    3.36    5.87
   4  -3  12    5.77    5.72
  -5   3 -12    6.17    6.14
   5  -3  12    9.25    6.99
   6   2 -12   32.31    8.65
   5   2 -12    7.27    5.44
  -5  -2  12   -1.98    5.29
  -5  -2  12   -1.32    5.76
   4   2 -12   -1.75    4.32
   4   2 -12    5.44    5.67
  -4  -2  12   16.83    7.46
  -4  -2  12   -4.21    5.78
   3   2 -12    0.25    5.12
   3   2 -12   11.27    5.41
  -3  -2  12   12.62    5.78
  -3  -2  12    7.97    6.04
   2   2 -12   -1.17    3.55
   2   2 -12   -3.15    4.99
  -2  -2  12    5.45    5.67
   1   2 -12    4.90    4.65
   1   2 -12    6.20    5.96
  -1  -2  12    5.34    3.63
  -1  -2  12   15.66    6.80
   0   2 -12   50.21   11.42
   0   2 -12   50.12    8.72
   0  -2  12   45.17   10.19
   0  -2  12   50.44    5.83
  -1   2 -12    0.54    5.24
  -1   2 -12   -3.31    3.75
   1  -2  12   10.16    4.76
   1  -2  12    7.57    5.67
  -2   2 -12   10.02    5.42
  -2   2 -12    0.12    6.04
   2  -2  12   11.22    6.38
   2  -2  12    8.65    5.10
  -3   2 -12    0.98    4.73
  -3   2 -12    8.05    6.71
   3  -2  12   17.80    7.31
   3  -2  12   12.15    5.76
  -4   2 -12   -3.27    4.77
  -4   2 -12   -1.11    5.39
   4  -2  12    0.04    4.61
   4  -2  12   10.56    6.11
  -5   2 -12   -1.19    5.22
  -5   2 -12    0.50    5.31
   5  -2  12    3.84    5.97
   6   1 -12    1.82    4.53
  -6  -1  12   -1.29    5.88
   5   1 -12    3.40    4.98
   5   1 -12    2.02    5.10
  -5  -1  12   13.62    7.18
  -5  -1  12    5.11    5.97
   4   1 -12   14.40    6.82
   4   1 -12    9.43    5.31
  -4  -1  12    3.61    5.39
  -4  -1  12    5.58    5.87
   3   1 -12   10.33    6.62
   3   1 -12   12.58    4.86
  -3  -1  12   -0.26    4.98
  -3  -1  12    0.23    4.94
   2   1 -12   12.60    4.99
   2   1 -12    1.84    5.55
  -2  -1  12    8.37    4.57
  -2  -1  12    5.55    5.83
   1   1 -12   12.14    5.12
   1   1 -12    2.36    4.30
  -1  -1  12    4.23    5.13
   0   1 -12   -2.64    4.35
   0   1 -12   -1.96    3.36
   0  -1  12    0.57    1.81
   0  -1  12    3.03    5.27
  -1   1 -12    3.68    4.37
  -1   1 -12   -1.11    4.92
   1  -1  12   10.63    5.48
  -2   1 -12    8.03    4.79
  -2   1 -12    7.94    6.37
   2  -1  12    8.23    5.58
   2  -1  12   16.73    6.20
  -3   1 -12   -0.42    5.38
  -3   1 -12    3.22    5.07
   3  -1  12   11.23    5.50
   3  -1  12    3.74    3.61
   3  -1  12    4.32    4.32
  -4   1 -12   22.21    8.66
  -4   1 -12   10.24    6.25
   4  -1  12   14.96    6.08
   4  -1  12   18.89    6.30
  -5   1 -12    5.13    5.94
  -5   1 -12   12.11    7.39
   5  -1  12    8.58    6.35
   6   0 -12   -3.55    4.64
   6   0 -12   -4.79    3.69
  -6   0  12    0.82    5.75
  -6   0  12    7.24    6.30
   5   0 -12    1.91    5.05
   5   0 -12    7.73    4.87
  -5   0  12    8.10    6.34
  -5   0  12   14.12    7.14
   4   0 -12    0.71    3.63
   4   0 -12    2.15    5.74
  -4   0  12   12.59    5.86
  -4   0  12   -7.16    3.93
   3   0 -12    3.39    5.90
   3   0 -12    3.73    3.95
  -3   0  12    1.46    4.65
  -3   0  12    4.07    5.96
   2   0 -12   29.07    9.05
   2   0 -12   48.09    8.04
  -2   0  12   53.00    7.07
  -2   0  12   29.85    8.85
   1   0 -12    7.38    6.53
   1   0 -12    5.45    4.12
  -1   0  12    7.25    5.55
   0   0 -12    2.60    5.71
   0   0 -12    5.07    4.51
   0   0  12    5.06    5.42
  -1   0 -12    4.68    6.37
  -1   0 -12    8.94    4.71
   1   0  12    1.90    4.88
   1   0  12    3.68    3.42
  -2   0 -12   -1.66    5.06
  -2   0 -12   11.49    5.42
   2   0  12   10.95    5.41
   2   0  12    5.49    3.78
   2   0  12    7.16    5.04
  -3   0 -12    9.26    5.60
  -3   0 -12   11.98    6.14
   3   0  12   29.25    7.72
   3   0  12   14.00    4.91
   3   0  12   10.47    5.01
  -4   0 -12    4.74    5.60
  -4   0 -12   21.36    5.86
  -4   0 -12    6.75    6.90
   4   0  12   18.05    5.90
   4   0  12   17.52    6.34
   4   0  12   12.76    5.01
  -5   0 -12   -2.99    5.21
  -5   0 -12   -3.42    5.51
   5   0  12   13.23    6.14
   6  -1 -12    4.64    4.24
   6  -1 -12    5.74    6.35
  -6   1  12   10.95    6.32
   5  -1 -12    2.61    5.08
   5  -1 -12    6.99    4.04
  -5   1  12    0.96    5.35
  -5   1  12    7.15    5.85
   4  -1 -12   60.63    8.58
   4  -1 -12   24.52    8.56
  -4   1  12   27.38    9.26
  -4   1  12   40.31    8.11
   3  -1 -12   16.76    5.20
   3  -1 -12    9.83    6.44
  -3   1  12    3.32    5.75
  -3   1  12   16.12    5.69
   2  -1 -12   18.68    5.38
   2  -1 -12    8.48    6.64
  -2   1  12   18.56    4.97
  -2   1  12    5.96    5.56
   1  -1 -12    7.20    4.03
   1  -1 -12   10.75    6.99
  -1   1  12    3.53    4.08
  -1   1  12    8.78    6.21
  -1   1  12   16.16    3.45
   0  -1 -12    0.05    5.74
   0  -1 -12    8.35    4.36
   0   1  12   14.23    6.51
   0   1  12    9.91    4.58
  -1  -1 -12    9.34    7.20
  -1  -1 -12    3.28    4.02
   1   1  12    5.81    4.14
   1   1  12    5.48    5.62
  -2  -1 -12   33.67    7.70
  -2  -1 -12   29.32    9.42
  -2  -1 -12   57.52    9.06
   2   1  12   30.98    8.20
   2   1  12   46.99    8.92
   2   1  12   40.62    7.38
  -3  -1 -12   -3.97    4.23
  -3  -1 -12   -0.24    5.04
  -3  -1 -12    2.07    4.41
   3   1  12   18.58    5.51
   3   1  12    8.82    5.27
   3   1  12    0.51    4.20
  -4  -1 -12   -5.52    4.72
  -4  -1 -12    8.22    6.13
  -4  -1 -12   11.98    6.88
   4   1  12   14.26    5.03
   4   1  12    7.62    5.06
   4   1  12   12.19    5.36
   5  -2 -12   21.03    5.38
   5  -2 -12   25.44    8.36
  -5   2  12   12.36    6.06
  -5   2  12   12.78    7.18
   4  -2 -12   -1.71    3.01
   4  -2 -12    8.64    6.87
  -4   2  12   11.91    5.71
  -4   2  12    7.86    5.95
   3  -2 -12    9.32    4.61
   3  -2 -12    1.54    5.39
  -3   2  12    9.31    5.66
  -3   2  12    0.05    4.46
   2  -2 -12   13.10    7.01
   2  -2 -12   17.47    4.74
  -2   2  12   14.10    4.39
  -2   2  12    9.37    5.10
  -2   2  12   16.82    7.33
   1  -2 -12    0.72    5.55
   1  -2 -12    6.37    3.84
  -1   2  12   11.11    5.26
  -1   2  12   16.89    6.77
   0  -2 -12    2.04    3.65
   0  -2 -12    0.03    5.32
   0   2  12   -9.39    3.48
   0   2  12   11.24    6.38
  -1  -2 -12    4.71    4.25
  -1  -2 -12   10.29    5.44
  -1  -2 -12    3.67    4.88
   1   2  12    7.00    4.68
   1   2  12   11.43    5.44
  -2  -2 -12   -3.95    5.10
  -2  -2 -12    3.38    4.81
  -2  -2 -12   -3.21    5.55
   2   2  12    7.77    5.40
   2   2  12   14.39    5.26
   2   2  12    8.25    4.98
  -3  -2 -12   -2.85    5.66
  -3  -2 -12    0.15    5.10
  -3  -2 -12    4.35    6.05
   3   2  12    2.77    4.59
   3   2  12    4.92    4.89
   3   2  12   16.26    5.18
  -4  -2 -12    2.00    6.95
  -4  -2 -12   21.79    7.60
  -4  -2 -12    8.44    6.64
   4   2  12   20.87    6.69
   5  -3 -12   -0.63    5.77
  -5   3  12    1.54    5.76
  -5   3  12   13.50    6.87
   4  -3 -12    7.91    6.53
  -4   3  12    8.97    5.77
  -4   3  12    1.37    5.41
   3  -3 -12   -4.99    4.96
   3  -3 -12    6.87    3.56
  -3   3  12   15.12    7.15
  -3   3  12   10.24    5.33
   2  -3 -12    6.27    3.61
   2  -3 -12   -0.65    5.73
  -2   3  12    2.84    3.88
  -2   3  12    5.36    5.83
   1  -3 -12    3.55    3.88
   1  -3 -12    2.50    5.72
  -1   3  12    9.65    6.10
   0  -3 -12    5.90    6.57
   0  -3 -12   13.02    5.11
   0  -3 -12   17.49    6.66
   0   3  12   13.12    6.51
  -1  -3 -12   12.99    6.09
  -1  -3 -12   19.51    5.69
  -1  -3 -12    4.61    6.47
   1   3  12   22.12    7.00
  -2  -3 -12   -1.35    4.93
  -2  -3 -12    5.50    5.77
  -2  -3 -12   -2.93    4.36
   2   3  12   28.05    5.64
   2   3  12    2.36    4.89
  -3  -3 -12   16.27    6.60
  -3  -3 -12   13.50    6.48
  -3  -3 -12   14.46    7.24
   3   3  12   15.81    6.16
   3   3  12   19.15    5.89
   4  -4 -12    1.49    6.25
  -4   4  12   -0.95    4.84
  -4   4  12   -3.94    6.31
   3  -4 -12    1.04    6.30
  -3   4  12   -0.55    4.69
  -3   4  12   -2.83    5.85
   2  -4 -12    8.87    7.43
  -2   4  12   39.88    9.20
  -2   4  12   15.27    5.01
   1  -4 -12   -0.70    4.79
   1  -4 -12    9.83    7.26
  -1   4  12   -7.61    5.09
   0  -4 -12    8.55    4.47
   0  -4 -12    2.20    5.92
   0  -4 -12   16.78    6.38
   0   4  12   11.91    6.53
  -1  -4 -12    9.11    5.69
  -1  -4 -12   19.31    9.24
  -1  -4 -12   23.30    7.64
   1   4  12   28.61    7.42
  -2  -4 -12   12.72    8.42
  -2  -4 -12   26.60    7.58
  -2  -4 -12   10.92    6.12
   2   4  12   13.90    7.17
   3  -5 -12   10.93    6.96
   2  -5 -12    3.02    6.38
  -2   5  12    6.46    6.98
   1  -5 -12    4.66    5.77
   1  -5 -12    9.11    6.29
  -1   5  12   -3.68    5.95
   0  -5 -12   -0.31    6.23
   0  -5 -12    2.00    5.34
   0   5  12   -5.48    5.69
   0   6 -13   -4.84    4.63
   0  -6  13   -0.18    7.30
  -1   6 -13    6.23    5.37
   2   5 -13   -2.20    4.37
  -2  -5  13    5.28    5.36
  -2  -5  13   14.15    5.72
  -2  -5  13    3.80    7.36
   1   5 -13    0.28    4.96
  -1  -5  13   13.84    6.17
  -1  -5  13   -1.12    3.97
  -1  -5  13    0.71    6.84
   0   5 -13   -3.84    4.15
   0  -5  13    9.93    5.86
   0  -5  13    4.22    6.58
   0  -5  13    9.93    4.03
  -1   5 -13   -5.44    4.37
   1  -5  13   15.60    6.92
   1  -5  13    5.69    4.03
   1  -5  13   -1.19    6.00
  -2   5 -13   51.13   10.23
   2  -5  13   29.27   10.21
   2  -5  13   31.63    9.60
   2  -5  13   55.53    7.69
   3   4 -13   -7.51    4.19
  -3  -4  13   -3.73    5.79
   2   4 -13    6.78    5.60
  -2  -4  13   13.88    7.90
  -2  -4  13    8.21    5.34
   1   4 -13    2.80    4.87
  -1  -4  13   -6.64    5.48
  -1  -4  13    9.02    6.07
  -1  -4  13    8.04    4.45
   0   4 -13    2.40    4.77
   0  -4  13   -6.91    5.42
   0  -4  13    9.23    3.64
   0  -4  13   14.50    6.93
  -1   4 -13   15.49    6.62
   1  -4  13   25.94    7.77
   1  -4  13   16.09    4.36
   1  -4  13   13.69    8.10
  -2   4 -13   18.14    6.84
   2  -4  13   15.17    7.84
   2  -4  13   10.25    6.80
  -3   4 -13    0.82    4.96
   3  -4  13   14.28    6.48
   3  -4  13    4.47    6.44
   4   3 -13    2.92    4.84
  -4  -3  13    6.09    7.17
   3   3 -13    2.44    4.96
  -3  -3  13   16.10    8.12
   2   3 -13    1.69    4.71
  -2  -3  13   14.95    7.79
  -2  -3  13    5.69    4.80
   1   3 -13    7.78    5.17
  -1  -3  13    9.00    4.27
  -1  -3  13   -5.14    5.19
   0   3 -13   24.76    8.17
   0   3 -13   20.79    7.01
   0  -3  13   24.75    8.71
   0  -3  13   46.69    9.79
   0  -3  13   31.42    4.70
  -1   3 -13    7.81    5.55
  -1   3 -13    4.73    5.55
   1  -3  13   13.46    5.98
   1  -3  13    5.38    6.06
  -2   3 -13    3.61    5.08
   2  -3  13    7.15    5.95
   2  -3  13   -7.19    4.44
  -3   3 -13   10.42    5.77
   3  -3  13    8.17    6.75
   3  -3  13   19.66    7.38
   4   2 -13    3.48    5.22
  -4  -2  13    0.31    6.23
  -4  -2  13   -1.26    5.61
   3   2 -13    5.19    5.13
   3   2 -13   -5.54    4.65
  -3  -2  13   12.91    6.99
  -3  -2  13    1.14    5.37
   2   2 -13    7.97    5.07
   2   2 -13    5.95    5.88
  -2  -2  13    7.70    6.94
   1   2 -13   -0.64    4.67
   1   2 -13    8.63    6.87
  -1  -2  13    0.17    3.11
  -1  -2  13    0.99    5.47
   0   2 -13    4.18    6.35
   0   2 -13   14.11    5.76
   0  -2  13    7.15    5.94
  -1   2 -13   -4.67    6.13
  -1   2 -13   11.87    5.64
   1  -2  13   14.61    5.82
   1  -2  13    6.37    5.76
  -2   2 -13   17.41    8.37
  -2   2 -13   40.15    8.53
   2  -2  13   12.57    6.98
   2  -2  13   50.43    9.99
  -3   2 -13   -1.96    4.93
  -3   2 -13    2.11    6.89
   3  -2  13   -2.23    4.96
   3  -2  13    9.38    5.59
  -4   2 -13   21.55    7.80
   4   1 -13    6.32    6.74
   4   1 -13    5.15    4.65
  -4  -1  13    6.13    5.89
  -4  -1  13    7.20    6.01
   3   1 -13   15.75    7.88
   3   1 -13    3.41    4.26
  -3  -1  13    4.56    5.65
  -3  -1  13   14.36    7.44
   2   1 -13   11.02    7.60
   2   1 -13    6.63    4.86
  -2  -1  13   11.17    6.60
   1   1 -13   -0.82    5.94
   1   1 -13    9.21    5.55
  -1  -1  13    5.20    5.53
   0   1 -13   -3.61    5.34
   0   1 -13    9.69    5.49
   0  -1  13    4.51    5.17
  -1   1 -13   -3.50    4.01
  -1   1 -13   -4.81    3.91
   1  -1  13   17.32    7.17
   1  -1  13    6.74    4.89
  -2   1 -13    3.75    7.26
  -2   1 -13    0.94    4.57
   2  -1  13   14.24    6.67
   2  -1  13   18.86    6.78
  -3   1 -13   13.29    7.49
  -3   1 -13   24.40    8.16
   3  -1  13   19.54    7.25
   3  -1  13   12.87    5.79
   4   0 -13   31.73    9.70
   4   0 -13   41.63    8.02
  -4   0  13   22.44    7.17
  -4   0  13   30.19    9.32
   3   0 -13    2.24    4.27
   3   0 -13   10.56    6.64
  -3   0  13    5.45    5.81
  -3   0  13   -2.47    4.78
   2   0 -13   -0.17    3.83
   2   0 -13    2.36    6.08
  -2   0  13    4.63    4.11
  -2   0  13    2.74    5.19
   1   0 -13    4.75    6.83
   1   0 -13   18.22    5.91
  -1   0  13   15.97    7.16
   0   0 -13   -2.59    4.03
   0   0 -13   -3.34    5.55
   0   0  13   10.27    6.26
  -1   0 -13   -0.98    5.62
  -1   0 -13    5.00    4.84
   1   0  13   13.53    6.35
  -2   0 -13    5.22    6.89
  -2   0 -13   10.90    6.15
   2   0  13   21.64    6.92
   2   0  13   13.76    5.93
  -3   0 -13    4.91    5.51
  -3   0 -13   -0.58    4.27
   3   0  13   14.76    5.34
   3   0  13   20.21    6.40
   4  -1 -13    5.60    6.31
   4  -1 -13    5.08    3.86
  -4   1  13   12.54    6.69
  -4   1  13    2.26    5.42
   3  -1 -13    5.51    4.47
   3  -1 -13    2.11    5.83
  -3   1  13    3.37    4.85
  -3   1  13    1.76    6.46
   2  -1 -13   -0.64    3.64
   2  -1 -13    0.58    5.83
  -2   1  13    6.99    6.30
   1  -1 -13    0.30    4.58
   1  -1 -13    5.31    4.66
  -1   1  13    9.75    6.06
   0  -1 -13    5.71    4.41
   0  -1 -13    0.37    4.21
   0   1  13   16.02    6.76
  -1  -1 -13    6.24    6.67
  -1  -1 -13    8.80    5.02
   1   1  13   13.31    6.29
  -2  -1 -13   -4.10    3.35
  -2  -1 -13    2.70    5.05
   2   1  13   10.23    4.21
   2   1  13    7.52    6.01
  -3  -1 -13    8.00    6.30
  -3  -1 -13   16.73    6.64
  -3  -1 -13   13.74    7.01
   3   1  13   12.65    6.55
   3   1  13   31.98    7.15
   4  -2 -13    1.77    3.79
  -4   2  13    1.21    6.16
   3  -2 -13    3.82    3.17
   3  -2 -13   11.09    7.29
  -3   2  13    8.48    4.73
  -3   2  13   11.13    6.62
   2  -2 -13    1.57    3.61
   2  -2 -13    6.93    6.96
  -2   2  13    3.41    5.09
   1  -2 -13    9.77    7.49
   1  -2 -13   11.80    5.08
  -1   2  13    7.00    5.70
   0  -2 -13    2.32    5.24
   0  -2 -13   -1.93    3.76
   0   2  13    4.02    5.04
  -1  -2 -13   -0.80    4.17
  -1  -2 -13   -4.40    6.50
   1   2  13    2.29    5.54
   1   2  13    1.20    5.03
  -2  -2 -13   34.82    8.37
  -2  -2 -13   21.35    7.68
  -2  -2 -13   30.45   10.44
   2   2  13   11.84    7.18
   2   2  13   43.42    7.99
   2   2  13   31.88    7.89
  -3   3  13   12.93    6.74
   2  -3 -13    6.72    6.71
   2  -3 -13    6.65    4.02
  -2   3  13   24.34    7.58
   1  -3 -13   -1.09    5.85
   1  -3 -13   -3.03    3.56
  -1   3  13    9.25    5.78
  -1   3  13   -6.77    4.74
   0  -3 -13    5.91    4.75
   0  -3 -13   -2.21    6.36
   0   3  13   12.77    5.56
   0   3  13   -7.70    4.41
  -1  -3 -13    5.20    5.12
  -1  -3 -13    3.51    7.02
  -1  -3 -13   13.36    6.85
   1   3  13   16.48    6.29
   0   3 -14   -0.38    4.74
   1   2 -14    1.24    6.68
   1   2 -14    8.98    6.12
  -1  -2  14    2.79    5.57
   0   2 -14    8.79    7.62
   0   2 -14   -0.66    4.38
   0  -2  14   -0.64    6.11
   0  -2  14   22.49    7.08
  -1   2 -14    9.10    5.73
   1  -2  14    2.16    6.00
   2   1 -14    6.49    5.64
   1   1 -14   -2.82    5.73
   1   1 -14   -0.86    3.88
  -1  -1  14   14.23    6.52
   0   1 -14   -3.57    4.29
   0   1 -14    3.92    6.86
   0  -1  14   13.83    6.70
  -1   1 -14   -0.28    4.69
   1  -1  14    4.24    6.19
   1   0 -14    4.23    5.00
   1   0 -14   -1.00    6.62
  -1   0  14   17.12    7.38
   0   0 -14   -4.12    4.41
   0   0 -14    1.56    6.52
   0   0  14    9.93    5.72
   0   0   0    0.00    0.00
;
_shelx_hkl_checksum              2632
#END Tags that were not found in dictionaries
loop_
_space_group_symop_operation_xyz
'x, y, z'
'-x, -y, -z'
loop_
_atom_site_type_symbol
_atom_site_label
_atom_site_fract_x
_atom_site_fract_y
_atom_site_fract_z
_atom_site_U_iso_or_equiv
_atom_site_adp_type
_atom_site_calc_flag
_atom_site_refinement_flags_adp
_atom_site_refinement_flags_posn
_atom_site_occupancy
C C1 0.2997(5) 0.8107(5) 0.9042(4) 0.0183(9) Uani d . . 1
H H1 0.2651 0.8772 0.976 0.022 Uiso calc U R 1
C C2 0.4409(5) 0.8990(5) 0.8408(4) 0.0196(10) Uani d . . 1
H H2 0.451 1.0049 0.8757 0.024 Uiso calc U R 1
C C3 0.5884(6) 0.8394(5) 0.8851(4) 0.0220(10) Uani d . . 1
H H3 0.6971 0.8779 0.8676 0.026 Uiso calc U R 1
C C4 0.5503(6) 0.7263(5) 0.9518(4) 0.0261(11) Uani d . . 1
H H4 0.6297 0.6764 0.9884 0.031 Uiso calc U R 1
C C5 0.3702(6) 0.6851(5) 0.9637(4) 0.0244(11) Uani d . . 1
H H5A 0.3431 0.6827 1.0545 0.029 Uiso calc U R 1
H H5B 0.3287 0.5883 0.9152 0.029 Uiso calc U R 1
C C6 0.0298(5) 0.9073(4) 0.7654(4) 0.0182(9) Uani d . . 1
C C7 -0.0769(6) 0.8978(5) 0.6582(4) 0.0218(10) Uani d . . 1
H H7 -0.0994 0.809 0.6021 0.026 Uiso calc U R 1
C C8 -0.1507(6) 1.0183(5) 0.6332(4) 0.0230(10) Uani d . . 1
H H8 -0.2209 1.0128 0.5586 0.028 Uiso calc U R 1
C C9 -0.1219(6) 1.1457(5) 0.7168(4) 0.0234(10) Uani d . . 1
H H9 -0.1742 1.2269 0.7 0.028 Uiso calc U R 1
C C10 -0.0182(6) 1.1569(5) 0.8247(4) 0.0249(11) Uani d . . 1
H H10 0.0007 1.245 0.8819 0.03 Uiso calc U R 1
C C11 0.0587(6) 1.0373(5) 0.8487(4) 0.0211(10) Uani d . . 1
H H11 0.1311 1.0445 0.9221 0.025 Uiso calc U R 1
C C12 0.3336(5) 0.5403(4) 0.6418(4) 0.0167(9) Uani d . . 1
C C13 0.2332(6) 0.4042(5) 0.6338(4) 0.0209(10) Uani d . . 1
H H13 0.1183 0.3983 0.6196 0.025 Uiso calc U R 1
C C14 0.3006(6) 0.2772(5) 0.6465(4) 0.0216(10) Uani d . . 1
H H14 0.2321 0.1847 0.6416 0.026 Uiso calc U R 1
C C15 0.4690(6) 0.2866(5) 0.6665(4) 0.0235(11) Uani d . . 1
H H15 0.5155 0.2001 0.6753 0.028 Uiso calc U R 1
C C16 0.5685(6) 0.4202(5) 0.6736(4) 0.0219(10) Uani d . . 1
H H16 0.6833 0.4257 0.6878 0.026 Uiso calc U R 1
C C17 0.5020(5) 0.5466(5) 0.6601(4) 0.0181(9) Uani d . . 1
H H17 0.5716 0.6383 0.6634 0.022 Uiso calc U R 1
P P1 0.11986(15) 0.74490(12) 0.79411(10) 0.0171(3) Uani d . . 1
P P2 0.23738(15) 0.70028(12) 0.61126(10) 0.0180(3) Uani d . . 1
S S1 0.41625(14) 0.88335(11) 0.66028(10) 0.0201(3) Uani d . . 1
S S2 -0.03384(15) 0.58607(12) 0.84765(11) 0.0242(3) Uani d . . 1
loop_
_atom_site_aniso_label
_atom_site_aniso_U_11
_atom_site_aniso_U_22
_atom_site_aniso_U_33
_atom_site_aniso_U_12
_atom_site_aniso_U_13
_atom_site_aniso_U_23
C1 0.023(3) 0.018(2) 0.014(2) 0.0066(19) -0.0043(17) -0.0001(17)
C2 0.025(3) 0.017(2) 0.018(2) 0.0065(19) -0.0020(18) 0.0001(17)
C3 0.020(3) 0.023(2) 0.022(2) 0.006(2) -0.0041(19) -0.0005(19)
C4 0.031(3) 0.024(2) 0.023(2) 0.011(2) -0.009(2) -0.0034(19)
C5 0.029(3) 0.021(2) 0.025(2) 0.008(2) -0.005(2) 0.0070(19)
C6 0.020(2) 0.015(2) 0.020(2) 0.0051(19) 0.0013(18) 0.0047(18)
C7 0.027(3) 0.019(2) 0.021(2) 0.007(2) -0.0002(19) 0.0032(18)
C8 0.027(3) 0.024(2) 0.021(2) 0.010(2) 0.0000(19) 0.0073(19)
C9 0.025(3) 0.020(2) 0.029(2) 0.011(2) 0.005(2) 0.011(2)
C10 0.033(3) 0.017(2) 0.026(2) 0.010(2) 0.004(2) 0.0037(19)
C11 0.027(3) 0.017(2) 0.021(2) 0.007(2) 0.0011(19) 0.0056(18)
C12 0.025(3) 0.0111(19) 0.0124(19) 0.0004(18) -0.0027(17) -0.0002(16)
C13 0.023(3) 0.018(2) 0.023(2) 0.0060(19) 0.0039(19) 0.0019(18)
C14 0.028(3) 0.011(2) 0.025(2) 0.0012(19) 0.003(2) 0.0018(18)
C15 0.038(3) 0.011(2) 0.025(2) 0.013(2) 0.001(2) 0.0037(18)
C16 0.029(3) 0.017(2) 0.021(2) 0.009(2) -0.0020(19) 0.0029(18)
C17 0.023(3) 0.013(2) 0.019(2) 0.0041(19) -0.0016(18) 0.0020(17)
P1 0.0226(7) 0.0137(5) 0.0161(5) 0.0059(5) -0.0014(5) 0.0038(4)
P2 0.0244(7) 0.0140(5) 0.0169(6) 0.0068(5) -0.0006(5) 0.0032(4)
S1 0.0267(7) 0.0134(5) 0.0211(6) 0.0042(5) 0.0001(5) 0.0052(4)
S2 0.0293(7) 0.0173(6) 0.0269(6) 0.0032(5) 0.0018(5) 0.0068(5)
loop_
_atom_type_symbol
_atom_type_description
_atom_type_scat_dispersion_real
_atom_type_scat_dispersion_imag
_atom_type_scat_source
C C 0.0033 0.0016 'International Tables Vol C Tables 4.2.6.8 and 6.1.1.4'
H H 0.0000 0.0000 'International Tables Vol C Tables 4.2.6.8 and 6.1.1.4'
P P 0.1023 0.0942 'International Tables Vol C Tables 4.2.6.8 and 6.1.1.4'
S S 0.1246 0.1234 'International Tables Vol C Tables 4.2.6.8 and 6.1.1.4'
loop_
_geom_angle_atom_site_label_1
_geom_angle_atom_site_label_2
_geom_angle_atom_site_label_3
_geom_angle
C2 C1 C5 107.1(4)
C2 C1 P1 113.1(3)
C5 C1 P1 113.3(3)
C2 C1 H1 107.7
C5 C1 H1 107.7
P1 C1 H1 107.7
C3 C2 C1 103.8(3)
C3 C2 S1 112.0(3)
C1 C2 S1 114.1(3)
C3 C2 H2 108.9
C1 C2 H2 108.9
S1 C2 H2 108.9
C4 C3 C2 112.2(4)
C4 C3 H3 123.9
C2 C3 H3 123.9
C3 C4 C5 113.5(4)
C3 C4 H4 123.3
C5 C4 H4 123.3
C4 C5 C1 102.4(4)
C4 C5 H5A 111.3
C1 C5 H5A 111.3
C4 C5 H5B 111.3
C1 C5 H5B 111.3
H5A C5 H5B 109.2
C7 C6 C11 119.3(4)
C7 C6 P1 117.9(3)
C11 C6 P1 122.7(3)
C6 C7 C8 120.1(4)
C6 C7 H7 120.0
C8 C7 H7 120.0
C9 C8 C7 119.9(4)
C9 C8 H8 120.0
C7 C8 H8 120.0
C8 C9 C10 121.0(4)
C8 C9 H9 119.5
C10 C9 H9 119.5
C9 C10 C11 119.3(4)
C9 C10 H10 120.4
C11 C10 H10 120.4
C6 C11 C10 120.4(4)
C6 C11 H11 119.8
C10 C11 H11 119.8
C17 C12 C13 119.1(4)
C17 C12 P2 123.0(3)
C13 C12 P2 117.6(3)
C14 C13 C12 120.3(4)
C14 C13 H13 119.8
C12 C13 H13 119.8
C13 C14 C15 119.5(4)
C13 C14 H14 120.2
C15 C14 H14 120.2
C16 C15 C14 120.4(4)
C16 C15 H15 119.8
C14 C15 H15 119.8
C15 C16 C17 120.2(4)
C15 C16 H16 119.9
C17 C16 H16 119.9
C16 C17 C12 120.4(4)
C16 C17 H17 119.8
C12 C17 H17 119.8
C6 P1 C1 106.00(19)
C6 P1 S2 114.13(16)
C1 P1 S2 115.44(14)
C6 P1 P2 101.12(14)
C1 P1 P2 101.08(15)
S2 P1 P2 117.19(7)
C12 P2 S1 105.96(15)
C12 P2 P1 101.24(14)
S1 P2 P1 90.67(6)
C2 S1 P2 104.47(15)
loop_
_geom_bond_atom_site_label_1
_geom_bond_atom_site_label_2
_geom_bond_distance
C1 C2 1.540(6)
C1 C5 1.553(6)
C1 P1 1.838(4)
C1 H1 1.0
C2 C3 1.491(6)
C2 S1 1.888(4)
C2 H2 1.0
C3 C4 1.327(6)
C3 H3 0.95
C4 C5 1.498(7)
C4 H4 0.95
C5 H5A 0.99
C5 H5B 0.99
C6 C7 1.391(6)
C6 C11 1.396(6)
C6 P1 1.822(4)
C7 C8 1.393(6)
C7 H7 0.95
C8 C9 1.379(6)
C8 H8 0.95
C9 C10 1.382(6)
C9 H9 0.95
C10 C11 1.396(6)
C10 H10 0.95
C11 H11 0.95
C12 C17 1.392(6)
C12 C13 1.396(6)
C12 P2 1.834(4)
C13 C14 1.390(6)
C13 H13 0.95
C14 C15 1.391(6)
C14 H14 0.95
C15 C16 1.375(6)
C15 H15 0.95
C16 C17 1.383(6)
C16 H16 0.95
C17 H17 0.95
P1 S2 1.9431(16)
P1 P2 2.2137(16)
P2 S1 2.0852(16)
