#------------------------------------------------------------------------------
#$Date: 2015-09-06 03:32:03 +0300 (Sun, 06 Sep 2015) $
#$Revision: 154748 $
#$URL: svn://www.crystallography.net/cod/cif/4/08/62/4086204.cif $
#------------------------------------------------------------------------------
#
# This file is available in the Crystallography Open Database (COD),
# http://www.crystallography.net/
#
# All data on this site have been placed in the public domain by the
# contributors.
#
data_4086204
loop_
_publ_author_name
'Song, Li-Cheng'
'Gu, Zhen-Chao'
'Zhang, Wei-Wei'
'Li, Qian-Li'
'Wang, Yong-Xiang'
'Wang, Hong-Fa'
_publ_section_title
;
 Synthesis, Structure, and Electrocatalysis of Butterfly [Fe2SP] Cluster
 Complexes Relevant to [FeFe]-Hydrogenases
;
_journal_issue                   16
_journal_name_full               Organometallics
_journal_page_first              4147
_journal_paper_doi               10.1021/acs.organomet.5b00560
_journal_volume                  34
_journal_year                    2015
_chemical_formula_moiety         'C13 H7 Fe2 O8 P S'
_chemical_formula_sum            'C13 H7 Fe2 O8 P S'
_chemical_formula_weight         465.92
_chemical_name_systematic
; 
 ? 
;
_space_group_crystal_system      triclinic
_space_group_IT_number           2
_space_group_name_Hall           '-P 1'
_space_group_name_H-M_alt        'P -1'
_symmetry_space_group_name_Hall  '-P 1'
_symmetry_space_group_name_H-M   'P -1'
_atom_sites_solution_hydrogens   geom
_atom_sites_solution_primary     direct
_atom_sites_solution_secondary   difmap
_audit_creation_method           SHELXL-2013
_cell_angle_alpha                72.272(10)
_cell_angle_beta                 84.076(16)
_cell_angle_gamma                83.405(17)
_cell_formula_units_Z            2
_cell_length_a                   7.9950(13)
_cell_length_b                   8.0320(13)
_cell_length_c                   13.723(2)
_cell_measurement_reflns_used    2965
_cell_measurement_temperature    113(2)
_cell_measurement_theta_max      27.90
_cell_measurement_theta_min      1.60
_cell_volume                     831.7(2)
_computing_cell_refinement       'CrystalClear-SM Expert 2.0 r4'
_computing_data_collection
'CrystalClear-SM Expert 2.0 r4 (Rigaku, 2009)'
_computing_data_reduction        'CrystalClear-SM Expert 2.0 r4'
_computing_molecular_graphics    'CrystalStructure 4.0'
_computing_publication_material  'CrystalStructure 4.0 (Rigaku, 2009)'
_computing_structure_refinement  'SHELXL-2013 (Sheldrick, 2013)'
_computing_structure_solution    'DIRDIF99-PATTY (Gould, et al., 1999)'
_diffrn_ambient_temperature      113(2)
_diffrn_detector_area_resol_mean 14.222
_diffrn_measured_fraction_theta_full 0.995
_diffrn_measured_fraction_theta_max 0.984
_diffrn_measurement_device_type  'Rigaku Saturn724 CCD'
_diffrn_measurement_method       \w
_diffrn_radiation_type           MoK\a
_diffrn_radiation_wavelength     0.71075
_diffrn_reflns_av_R_equivalents  0.0381
_diffrn_reflns_av_unetI/netI     0.0829
_diffrn_reflns_laue_measured_fraction_full 0.995
_diffrn_reflns_laue_measured_fraction_max 0.984
_diffrn_reflns_limit_h_max       7
_diffrn_reflns_limit_h_min       -10
_diffrn_reflns_limit_k_max       10
_diffrn_reflns_limit_k_min       -10
_diffrn_reflns_limit_l_max       18
_diffrn_reflns_limit_l_min       -18
_diffrn_reflns_number            7643
_diffrn_reflns_point_group_measured_fraction_full 0.995
_diffrn_reflns_point_group_measured_fraction_max 0.984
_diffrn_reflns_theta_full        25.242
_diffrn_reflns_theta_max         27.894
_diffrn_reflns_theta_min         1.562
_exptl_absorpt_coefficient_mu    2.005
_exptl_absorpt_correction_T_max  0.697
_exptl_absorpt_correction_T_min  0.541
_exptl_absorpt_correction_type   multi-scan
_exptl_absorpt_process_details   'Jacobson, R. (1998) Private communication'
_exptl_crystal_colour            red
_exptl_crystal_density_diffrn    1.861
_exptl_crystal_density_method    'not measured'
_exptl_crystal_description       prism
_exptl_crystal_F_000             464
_exptl_crystal_size_max          0.240
_exptl_crystal_size_mid          0.220
_exptl_crystal_size_min          0.180
_refine_diff_density_max         0.625
_refine_diff_density_min         -0.495
_refine_diff_density_rms         0.092
_refine_ls_extinction_method     none
_refine_ls_goodness_of_fit_ref   0.919
_refine_ls_hydrogen_treatment    constr
_refine_ls_matrix_type           full
_refine_ls_number_parameters     227
_refine_ls_number_reflns         3916
_refine_ls_number_restraints     0
_refine_ls_restrained_S_all      0.919
_refine_ls_R_factor_all          0.0511
_refine_ls_R_factor_gt           0.0324
_refine_ls_shift/su_max          0.000
_refine_ls_shift/su_mean         0.000
_refine_ls_structure_factor_coef Fsqd
_refine_ls_weighting_details
; 
 w=1/[\s^2^(Fo^2^)+(0.0158P)^2^] 
 where P=(Fo^2^+2Fc^2^)/3 
;
_refine_ls_weighting_scheme      calc
_refine_ls_wR_factor_gt          0.0586
_refine_ls_wR_factor_ref         0.0627
_reflns_Friedel_coverage         0.000
_reflns_number_gt                2696
_reflns_number_total             3916
_reflns_threshold_expression     'I > 2\s(I)'
_cod_data_source_file            om5b00560_si_002.cif
_cod_data_source_block           7
_cod_depositor_comments
'Adding full bibliography for 4086199--4086206.cif.'
_cod_database_code               4086204
_shelx_space_group_comment
; 
The symmetry employed for this shelxl refinement is uniquely defined 
by the following loop, which should always be used as a source of 
symmetry information in preference to the above space-group names. 
They are only intended as comments. 
;
_shelx_estimated_absorpt_t_min   0.645
_shelx_estimated_absorpt_t_max   0.714
_shelxl_version_number           2013-2
_shelx_res_file
; 
TITL  _m130511c 
CELL  0.71075 7.99500 8.03200 13.72300 72.272 84.076 83.405 
ZERR  2 0.00130 0.00130 0.00200 0.010 0.016 0.017 
LATT 1 
SFAC C H O P S FE 
UNIT 26 14 16 2 2 4 
SHEL 99999.000000 0.000000 
L.S. 5 
FMAP 2 
PLAN -5 
WPDB -2 
HTAB 
BOND $H 
CONF 
LIST 4 
TEMP -160.0 
ACTA 
SIZE 0.240 0.220 0.180 
WGHT    0.015800 
FVAR       0.60849 
FE1   6    0.189915    0.111891    0.156101    11.00000    0.01796    0.01607 = 
         0.01596   -0.00716   -0.00022   -0.00103 
FE2   6    0.349650    0.233088    0.273655    11.00000    0.01510    0.01702 = 
         0.02061   -0.00866   -0.00107   -0.00131 
S1    5    0.165829    0.394808    0.157619    11.00000    0.01761    0.01607 = 
         0.01855   -0.00675    0.00038   -0.00133 
P1    4    0.135885    0.082273    0.316505    11.00000    0.01606    0.01660 = 
         0.01566   -0.00593   -0.00156   -0.00089 
O1    3    0.307568   -0.261382    0.210731    11.00000    0.03209    0.01747 = 
         0.03296   -0.00691    0.00034   -0.00057 
O2    3    0.437457    0.199678   -0.024992    11.00000    0.03097    0.03407 = 
         0.02404   -0.00792    0.01163    0.00035 
O3    3   -0.131945    0.091240    0.076604    11.00000    0.02693    0.03584 = 
         0.03617   -0.01521   -0.00956   -0.00181 
O4    3    0.564701   -0.061673    0.394187    11.00000    0.03271    0.03205 = 
         0.04497   -0.01404   -0.01456    0.01160 
O5    3    0.625204    0.392940    0.122693    11.00000    0.02275    0.03541 = 
         0.03287   -0.01305    0.00781   -0.00930 
O6    3    0.304387    0.433041    0.422275    11.00000    0.03180    0.02746 = 
         0.02405   -0.01439    0.00451   -0.00840 
O7    3   -0.042881    0.171090    0.355617    11.00000    0.01766    0.01832 = 
         0.01879   -0.00557    0.00145    0.00002 
O8    3    0.142838   -0.102500    0.404963    11.00000    0.02124    0.01582 = 
         0.01603   -0.00321    0.00402   -0.00920 
C1    1    0.263118   -0.115214    0.187335    11.00000    0.01421    0.02592 = 
         0.01832   -0.00941    0.00156   -0.00597 
C2    1    0.339202    0.168402    0.041993    11.00000    0.02742    0.01643 = 
         0.02256   -0.00718   -0.00442    0.00170 
C3    1   -0.005637    0.099940    0.106844    11.00000    0.02784    0.01910 = 
         0.01725   -0.00754    0.00212   -0.00018 
C4    1    0.481075    0.054469    0.345541    11.00000    0.02192    0.02189 = 
         0.03100   -0.01416   -0.00198   -0.00314 
C5    1    0.521973    0.332654    0.181467    11.00000    0.02157    0.02273 = 
         0.02776   -0.01474   -0.00692    0.00277 
C6    1    0.325529    0.357413    0.363237    11.00000    0.01285    0.01902 = 
         0.02623   -0.00420   -0.00227   -0.00526 
C7    1   -0.023817    0.453217    0.223420    11.00000    0.01273    0.01958 = 
         0.02069   -0.01000   -0.00299   -0.00075 
C8    1   -0.102296    0.343228    0.311229    11.00000    0.01485    0.01734 = 
         0.01866   -0.00823   -0.00461   -0.00048 
C9    1   -0.245765    0.404184    0.360421    11.00000    0.01366    0.02502 = 
         0.02164   -0.01038    0.00131   -0.00604 
AFIX  43 
H9    2   -0.296959    0.328078    0.420541    11.00000   -1.20000 
AFIX   0 
C10   1   -0.314520    0.574969    0.322412    11.00000    0.01330    0.02578 = 
         0.02859   -0.01590   -0.00373   -0.00039 
AFIX  43 
H10   2   -0.411761    0.616885    0.356883    11.00000   -1.20000 
AFIX   0 
C11   1   -0.241051    0.685343    0.233589    11.00000    0.01838    0.02039 = 
         0.02972   -0.01214   -0.00895    0.00319 
AFIX  43 
H11   2   -0.289832    0.801940    0.206177    11.00000   -1.20000 
AFIX   0 
C12   1   -0.097195    0.625521    0.185210    11.00000    0.01801    0.01798 = 
         0.02068   -0.00829   -0.00305   -0.00365 
AFIX  43 
H12   2   -0.046960    0.702303    0.124995    11.00000   -1.20000 
AFIX   0 
C13   1    0.003103   -0.213762    0.419084    11.00000    0.02327    0.02260 = 
         0.02270   -0.00309   -0.00063   -0.00974 
AFIX 137 
H13A  2   -0.101369   -0.153689    0.440545    11.00000   -1.20000 
H13B  2    0.028285   -0.325244    0.471845    11.00000   -1.20000 
H13C  2   -0.010709   -0.236486    0.354269    11.00000   -1.20000 
AFIX   0 
HKLF 4 
  
REM   _m130511c 
REM R1 =  0.0324 for    2696 Fo > 4sig(Fo)  and  0.0511 for all    3916 data 
REM    227 parameters refined using      0 restraints 
  
END 
  
WGHT      0.0158      0.0000 
  
REM Instructions for potential hydrogen bonds 
  
REM No hydrogen bonds found for HTAB generation 
  
REM Highest difference peak  0.625,  deepest hole -0.495,  1-sigma level  0.092 
Q1    1   0.2153 -0.1417  0.4363  11.00000  0.05    0.62 
Q2    1   0.0812 -0.1288  0.4180  11.00000  0.05    0.47 
Q3    1  -0.2647  0.6197  0.2799  11.00000  0.05    0.45 
Q4    1  -0.0261 -0.0450  0.2029  11.00000  0.05    0.45 
Q5    1   0.1793 -0.0680  0.3657  11.00000  0.05    0.43 
;
_shelx_res_checksum              77768
_shelx_hkl_file
; 
   0   0  -1   52.88    2.92 
  -1   0   0  271.39    7.26 
   1   0   0  261.69    6.10 
  -1   0   0  257.40    7.33 
   1   0   0  259.77    7.07 
   0   1   1 3257.24   35.54 
   0  -1  -1 3207.71   34.83 
   0   1   0  633.02   10.94 
   0  -1   0  665.63   11.42 
   0  -1   0  642.83    7.66 
   1   0   1 3583.70   36.69 
   1   0   1 3515.50   38.83 
  -1   0  -1 3421.14   35.29 
  -1   0  -1 3508.27   39.17 
  -1   0   1 3736.91   40.66 
   1   0  -1 3849.98   43.78 
   1   0  -1 3600.55   38.72 
  -1   0   1 3854.11   44.80 
   0   0  -2 4910.33   52.00 
   0   0  -2 4974.47   53.19 
   0   0   2 5124.94   54.92 
  -1  -1  -1 1899.00   19.56 
   1   1   1 1939.79   24.97 
   1   1   1 1834.96   18.81 
   1   1   1 1984.89   26.06 
  -1  -1  -1 1848.19   24.31 
  -1  -1  -1 1425.00   21.50 
   0   1   2    1.49    2.46 
   0  -1  -2    1.47    2.03 
   0   1  -1 4360.61   47.90 
   0   1  -1 4467.44   43.50 
   0  -1   1 4418.38   43.20 
   0  -1   1 4366.95   47.51 
  -1  -1   0 1430.13   16.88 
  -1  -1   0 1398.56   17.99 
   1   1   0 1424.96   17.95 
  -1  -1   0 1576.70   22.98 
   1   1   0 1499.02   21.46 
   1   1   0 1447.60   17.05 
  -1   1   0 4072.38   45.74 
  -1   1   0 4024.00   44.87 
   1  -1   0 3985.20   44.75 
   1  -1   0 4147.27   46.04 
   1   0   2  456.80   11.24 
  -1   0  -2  456.40   11.70 
   1   0   2  452.12    9.73 
  -1   0  -2  456.73   11.28 
  -1   1   1 2125.43   28.12 
  -1   1   1 2221.84   31.24 
   1  -1  -1 2358.21   31.50 
   1  -1  -1 2152.61   29.29 
   1   1   2  348.85    7.57 
   1   1   2  360.10   10.16 
  -1  -1  -2  359.84    7.42 
  -1  -1  -2  370.19   11.27 
   1   1   2  347.82   14.10 
  -1  -1  -2  351.58   13.49 
   1   0  -2  135.42    7.25 
  -1   0   2  133.41    7.25 
   1   0  -2  127.40    7.14 
   1   1  -1  675.08   12.57 
   1   1  -1  662.41   14.26 
  -1  -1   1  697.44   13.48 
   1   1  -1  686.86   12.30 
  -1  -1   1  675.13   13.07 
   1   1  -1  648.58   12.52 
  -1   1  -1  610.99   13.95 
   1  -1   1  619.23   13.21 
  -1   1  -1  610.18   13.35 
   1  -1   1  611.64   13.99 
   1  -1  -2  838.20   17.91 
  -1   1   2  841.10   17.37 
   1  -1  -2  863.75   16.93 
   0  -1  -3  505.79   13.13 
   0   1   3  534.64   13.66 
   0  -1   2  382.41   10.85 
   0  -1   2  352.33   10.84 
   0   1  -2  380.69    9.08 
   0   1  -2  383.29   15.55 
   0   0  -3    8.30    4.47 
   0   0   3    4.56    4.90 
   0   0  -3    6.72    3.26 
  -1  -1  -3   21.83   11.42 
   1   1   3   13.19    3.60 
   1   1   3   16.89    5.40 
  -1  -1  -3   14.99    7.01 
   1   1   3   16.51    5.94 
  -1  -1  -3   17.65    7.93 
   0  -2  -1  440.91   13.78 
   0   2   1  429.62   12.77 
   2   0   0  873.17   16.30 
   2   0   0  890.91   18.25 
  -2   0   0  873.49   14.26 
  -2   0   0  867.23   19.89 
   1   0   3  103.49    9.02 
   1   0   3  107.74    7.11 
  -1   0  -3   92.82    6.96 
  -1   0  -3  101.23    8.97 
  -1   0  -3   97.65    7.16 
   2   0   1  126.83    6.53 
  -2   0  -1  138.31    8.42 
   2   0   1  124.25    8.03 
  -2   0  -1   79.55    7.15 
  -1  -1   2 2088.48   26.26 
   1   1  -2 2108.44   30.39 
   1   1  -2 2100.13   25.88 
  -1  -1   2 2125.02   31.52 
   1   1  -2 2069.91   28.80 
   0   2   2    5.78    2.89 
   0  -2  -2    3.48    2.61 
   1  -1   2  229.32    9.93 
  -1   1  -2  229.65    9.84 
   1  -1   2  229.48   11.38 
  -1   1  -2  250.17   11.24 
   0   2   0  265.31   10.25 
   0  -2   0  262.27   11.11 
  -1  -2  -1   67.54    7.48 
   1   2   1   59.77    6.32 
   1   2   1   64.80    6.31 
   1   2   1   60.09    4.12 
  -1  -2  -1   61.40    7.52 
  -1  -2  -1   55.79    4.08 
  -2  -1  -1 3114.93   40.98 
  -2  -1  -1 3175.44   43.90 
   2   1   1 2968.76   40.15 
   2   1   1 3033.84   39.35 
   2   0  -1   70.62    5.78 
  -2   0   1   74.87    8.28 
   2   0  -1   74.65    5.50 
  -2   0   1   74.23    9.29 
   1   0  -3 1225.35   22.01 
  -1   0   3 1226.50   23.24 
   2   1   0  855.75   12.38 
   2   1   0  802.28   17.17 
  -2  -1   0  795.52   17.78 
  -2  -1   0  809.76   18.25 
  -2  -1   0  829.52   12.74 
   2   1   0  835.29   18.23 
   1  -1  -3  500.82   14.11 
  -1   1   3  537.61   19.98 
   1   2   2  950.05   15.93 
  -1  -2  -2  977.03   17.80 
   1   2   2  918.86   18.97 
  -1  -2  -2  933.47   26.00 
  -1  -2  -2  956.04   18.48 
  -1  -2   0   85.73    7.64 
   1   2   0   78.34    6.18 
   1   2   0   83.44    3.32 
  -1  -2   0   89.78    3.85 
  -1  -2   0   89.55    7.62 
   1   2   0   92.85    9.36 
   2   1   2 2002.13   30.64 
  -2  -1  -2 1929.89   32.56 
  -2  -1  -2 1918.97   20.63 
  -2  -1  -2 1924.12   21.02 
  -2  -1  -2 2041.28   31.73 
   2   1   2 1822.38   27.84 
  -2   0  -2   51.90    6.60 
   2   0   2   58.56    6.50 
   2   0   2   55.29    6.21 
  -2   0  -2   56.13    5.61 
   1  -2  -1   15.27   12.99 
   1  -2  -1   27.33    5.83 
  -1   2   1   23.34   13.40 
  -1   2   1   25.50   12.49 
   0   2   3  103.84    8.23 
   0  -2  -3  114.73    9.60 
   0   2  -1   50.07    3.38 
   0   2  -1   54.78    6.48 
   0  -2   1   47.66    7.58 
   0  -2   1   56.92    3.75 
   2  -1   0   95.02    7.00 
  -2   1   0  104.41    8.75 
   2  -1   0   97.65    6.15 
  -2   1   0   97.37    7.92 
   0  -1  -4 2203.93   32.79 
   0  -1  -4 2211.04   27.15 
   0  -1  -4 2233.79   35.99 
   0   1   4 2275.07   34.23 
   0   1  -3  117.53    8.87 
   0   1  -3  110.22   12.21 
   0   1  -3  110.11    9.12 
   2  -1  -1  351.15   14.71 
  -2   1   1  335.71   14.86 
  -2   1   1  377.76   19.58 
   2  -1  -1  321.52   11.37 
  -2  -1   1 1137.24   18.79 
   2   1  -1 1113.21   20.50 
   2   1  -1 1139.45   18.30 
  -2  -1   1 1072.20   27.13 
   2   1  -1 1080.78   21.92 
  -2  -1   1 1296.90   27.85 
   1  -2   0  942.40   19.79 
  -1   2   0  921.40   20.29 
  -1   2   0  992.17   18.35 
   1  -2   0  939.79   17.20 
   1   2   3 2080.97   30.54 
   1   2   3 2060.36   31.09 
  -1  -2  -3 2079.65   32.36 
  -1  -2  -3 2019.65   27.59 
   1   2   3 2146.73   29.07 
   2   0  -2 2358.63   32.53 
  -2   0   2 2416.71   35.57 
  -2   0   2 2439.64   38.14 
   1  -2  -2 1718.76   28.66 
   1  -2  -2 1753.81   28.45 
  -1   2   2 1781.11   29.96 
   0   0  -4 1818.64   29.66 
   0   0   4 1852.50   31.95 
   0   0  -4 1774.86   30.17 
  -1  -1  -4 2067.19   34.17 
  -1  -1  -4 1964.36   27.39 
   1   1   4 1972.97   27.41 
  -1  -1  -4 1979.52   29.41 
   1   1   4 1972.78   29.69 
   1   1   4 1814.45   30.37 
  -2   1  -1  516.05   19.39 
   2  -1   1  534.67   14.70 
   2  -1   1  547.01   18.45 
  -2   1  -1  532.32   18.31 
   1   2  -1  220.64   10.46 
  -1  -2   1  199.07   11.06 
  -1  -2   1  202.66   13.83 
   1   2  -1  198.06    8.26 
   1   2  -1  200.44    5.08 
   2   1   310418.97  108.64 
  -2  -1  -310350.51  112.70 
  -2  -1  -310475.06  267.07 
  -2  -1  -310268.56  100.00 
   2   1   310469.49  270.16 
  -2  -1  -310760.77  278.94 
   1  -1   3  459.85   15.67 
   1  -1   3  467.28   13.67 
  -1   1  -3  476.74   15.88 
  -1   1  -3  480.83   18.85 
  -2   1   2  266.83   12.84 
   2  -1  -2  281.31   12.42 
   2  -1  -2  275.81   18.15 
  -2   1   2  278.95   13.15 
   1   0   4    0.53    1.99 
   1   0   4    3.22    6.16 
  -1   0  -4    0.80    3.48 
  -1   0  -4    1.04    2.61 
   1   1  -3   16.17    9.60 
  -1  -1   3   16.15    4.79 
  -1  -1   3   17.39    9.11 
   1   1  -3   14.48    2.93 
   1  -2   1 3100.90   43.01 
  -1   2  -1 4103.69   46.49 
  -1   2  -1 4251.36   54.19 
   1  -2   1 4115.10   46.19 
   2   0   3   41.47   14.41 
  -2   0  -3   38.87    7.45 
   2   0   3   30.20    5.32 
  -2   0  -3   34.22    8.06 
   1  -1  -4  196.77   10.63 
  -1   1   4  189.43   10.95 
   1  -2  -3    7.74    4.90 
  -1   2   3    9.28    6.55 
   1  -2  -3    9.10    4.57 
   2   2   1  278.45    7.37 
  -2  -2  -1  287.68   11.21 
   2   2   1  276.89    9.23 
  -2  -2  -1  263.72    6.02 
  -2  -2  -2  868.86   21.79 
   2   2   2  838.20   17.54 
  -2  -2  -2  841.47   19.10 
   2   2   2  835.03   19.82 
  -2  -2  -2  853.95   11.65 
   2   2   2  837.09   11.86 
   0   2   4 6409.51   74.65 
   0  -2  -4 6458.24   74.08 
  -1   0   4 3303.36   46.65 
   1   0  -4 3222.67   44.59 
   2   1  -2   83.63    6.53 
  -2  -1   2   80.56    7.59 
   2   1  -2   76.48    6.37 
  -2  -1   2   77.86    8.62 
  -2  -1   2   79.06    7.72 
   2   1  -2   79.17    8.82 
   0  -2   2 1546.99   20.19 
   0  -2   2 1398.78   25.38 
   0   2  -2 1554.74   28.25 
   0   2  -2 1465.14   19.12 
  -2   1  -2 1141.05   23.76 
   2  -1   2 1092.93   24.79 
   2  -1   2 1132.11   21.91 
  -2   1  -2 1148.19   22.63 
   1   2   4 2178.57   31.59 
   1   2   4 2110.68   31.85 
  -1  -2  -4 2137.10   34.25 
  -1  -2  -4 2136.01   33.15 
  -1  -2  -4 2126.02   31.12 
   1   2   4 2148.43   33.98 
  -2  -2   0  188.95   12.72 
   2   2   0  172.84    7.23 
   2   2   0  183.41    8.10 
   2   2   0  178.88   10.37 
  -2  -2   0  177.18    9.43 
   2   2   0  181.04   10.20 
   2   0  -3 3197.70   43.43 
  -2   0   3 3264.74   47.30 
   1   2  -2   79.88    8.93 
   1   2  -2   71.97   11.42 
  -1  -2   2   79.46    6.39 
   2   2   3    8.52    3.68 
   2   2   3    6.76    3.47 
  -2  -2  -3    4.04    2.82 
   2   2   3    6.63    3.05 
  -2  -2  -3    5.51    3.88 
  -2  -2  -3    6.11    2.58 
   2  -1  -3   47.76    6.55 
   2  -1  -3   49.96    8.24 
  -2   1   3   55.84    8.02 
  -2   1   3   38.81   12.07 
   2   1   4  610.46   18.77 
   2   1   4  598.19   24.18 
  -2  -1  -4  622.51   14.23 
  -2  -1  -4  600.17   15.95 
  -2  -1  -4  628.43   33.57 
   2   1   4  631.18   19.70 
   0  -1  -5  418.79   14.74 
   0   1   5  435.17   20.90 
   0  -1  -5  429.51   12.20 
   0  -1  -5  426.41   24.58 
   1  -2   2  206.64    9.70 
   0   1  -4  277.02   13.02 
   1  -2   2  200.76   12.17 
   0   1  -4  255.78   10.70 
   0   1  -4  258.20   23.53 
  -1   2  -2  211.90    8.72 
  -1   2  -2  210.97   12.08 
   1   1   5 1386.19   22.14 
   1   1   5 1347.53   26.25 
  -1  -1  -5 1351.67   22.16 
  -1  -1  -5 1354.54   28.18 
   1   1   5 1348.58   27.14 
  -1  -1  -5 1438.03   28.99 
  -2   2   1 1114.94   30.27 
  -2   2   1 1064.40   24.21 
   2  -2  -1 1015.96   21.56 
   2  -2  -1 1104.11   23.65 
   2   2  -1 3037.70   84.98 
   2   2  -1 2959.96   36.53 
  -2  -2   1 3225.21   47.96 
   2   2  -1 3209.57   40.21 
  -2  -2   1 1812.63   50.87 
   2   2  -1 3107.78   83.13 
   0  -3  -2 2814.36   77.48 
  -1   2   4   67.18    7.68 
   0   3   2 3039.13   83.63 
   1  -2  -4   73.29    7.92 
   0  -3  -1 1720.66   46.67 
   0  -3  -1 1686.61   49.37 
   0   3   1 1670.20   49.28 
  -3   0   0    4.52    7.42 
  -3   0   0    5.36    4.38 
   3   0   0    2.42    3.75 
   3   0   0    0.80    1.86 
   2  -2   0  124.19   16.56 
  -2   2   0  118.60   15.52 
   2  -2   0  109.72    8.61 
  -2   2   0  118.12    9.39 
   3   0   1   24.31    8.68 
  -3   0  -1   23.38    5.06 
  -3   0  -1   32.25   15.58 
   3   0   1   21.83    3.96 
  -2   0  -4  767.81   33.13 
  -2   0  -4  755.75   25.15 
   2   0   4  727.15   28.13 
   2   0   4  753.38   25.85 
  -2   0  -4  692.69   23.39 
   0   0  -5  190.07   17.36 
   0   0   5  203.17   16.91 
  -1  -3  -2  210.85   10.56 
   1   3   2  222.22   13.34 
  -1  -3  -2  227.79   14.98 
  -1  -3  -2  218.08   11.37 
   0   0  -5  192.23   13.01 
  -3  -1  -1  173.71   11.63 
   3   1   1  189.81    7.91 
   3   1   1  190.61   21.78 
  -3  -1  -1  185.74    7.73 
   3   1   1  176.17   11.45 
   1  -1   4   18.32    4.67 
  -1   1  -4   30.63   15.50 
  -1   1  -4   22.31    5.49 
  -1   1  -4   21.15    7.78 
  -1  -3  -1   21.80    5.14 
  -1  -3  -1   32.25   11.77 
   1   3   1   21.14    5.43 
  -1  -3  -1   25.27    8.14 
  -2   1  -3 1493.83   44.72 
  -2   1  -3 1542.38   46.06 
   2  -1   3 1478.59   43.61 
   2  -1   3 1507.88   44.38 
   2  -2  -2  770.01   30.49 
   2  -2  -2  851.69   29.98 
  -2   2   2  806.51   29.20 
  -2   2   2  833.98   31.35 
   3   1   0 1393.79   46.74 
   3   1   0 1320.04   42.13 
  -3  -1   0 1411.07   43.83 
   3   1   0 1442.60   39.48 
  -3  -1   0 1417.86   39.23 
  -3   0   1 1651.74   51.67 
   3   0  -1 1457.52   41.47 
  -3   0   1 1533.42   44.30 
   3   0  -1 1297.05   40.45 
  -1  -1   4  165.41   13.03 
  -1  -1   4  180.63    7.38 
   1   1  -4  180.66    6.88 
   1   1  -4  174.25   15.40 
   0   3   3 1739.56   51.49 
   2   1  -3 3251.97   88.85 
   2   1  -3 3443.28   91.54 
   2   1  -3 3301.78   91.00 
  -2  -1   3 3510.99   95.77 
   0  -3  -3 1703.70   50.08 
   0  -3   0  220.40    7.34 
   0   3   0  225.49   13.03 
   0  -3   0  226.53   13.05 
   3   1   2 1587.06   47.62 
  -3  -1  -2 1589.21   48.11 
   3   1   2 1616.90   48.27 
   3   1   2 1646.45   43.30 
   1   0   5  100.82   27.17 
   1   0   5   81.25    5.58 
   1   0   5   90.59   15.80 
  -1   0  -5   82.29    9.06 
  -1   0  -5   94.24   12.05 
   2   2   4   10.47    4.76 
  -2  -2  -4   16.69    9.10 
   2   2   4   10.90    3.76 
  -2  -2  -4   13.66    5.78 
   2   2   4   14.79    5.67 
  -2  -2  -4   14.71    7.33 
   0  -2  -5  117.64    9.59 
   0  -2  -5  125.57   10.95 
   0   2   5  129.29   18.63 
   0  -2  -5  122.16    8.43 
   1   3   3 1528.41   44.50 
  -1  -3  -3 1163.63   35.17 
  -1  -3  -3 1498.78   43.95 
  -1  -3  -3 1532.71   46.75 
   0   2  -3  735.84   22.69 
   0  -2   3  676.71   24.28 
   0   2  -3  709.79   29.14 
  -3   0  -2  367.57   18.04 
   3   0   2  383.34   16.21 
  -3   0  -2  379.82   17.39 
   3   0   2  375.71   18.17 
   2  -2   1 3734.13   85.93 
   2  -2   1 3613.84   98.99 
  -2   2  -1 3758.56   88.23 
  -2   2  -1 3592.55   97.08 
  -1  -2  -5 2070.52   61.23 
  -1  -2  -5 1992.10   56.75 
   1   2   5 1975.68   56.35 
  -1  -2  -5 2014.14   57.03 
   1   2   5 1926.63   56.59 
   1   2   5 1972.81   56.76 
  -1   1   5  707.10   26.33 
   1  -1  -5  547.49   22.45 
  -1  -3   0  518.61   20.79 
  -1  -3   0  746.91   24.70 
   1   3   0  742.50   24.90 
   3   1  -1   52.34    5.96 
  -3  -1   1   53.69    6.60 
  -3  -1   1   51.79    7.13 
   3   1  -1   55.65    7.01 
   3   1  -1   50.34    6.11 
  -2   1   4 2753.35   78.15 
   2  -1  -4 2526.32   71.59 
   2  -1  -4 2605.46   77.91 
  -2   0   4  525.95   28.33 
   1  -3  -1 1343.48   41.27 
  -1   3   1 1397.15   46.79 
  -1   3   1 1361.93   39.66 
   1  -3  -1 1498.43   43.32 
   2   0  -4  493.56   21.59 
   2   0  -4  510.98   21.59 
  -3   1   0 1016.77   35.17 
   3  -1   0  954.61   32.12 
   3  -1   0  993.88   33.51 
  -3   1   0  962.34   33.42 
  -2   2   3  662.78   25.48 
   2  -2  -3  717.23   26.88 
   2  -2  -3  715.90   30.54 
   1   0  -5  270.37   17.30 
  -1   0   5  267.15   22.60 
  -1   3   2  275.03   29.95 
   1  -3  -2  239.59   12.25 
   1  -3  -2  224.09   17.96 
   1   2  -3  713.05   27.90 
  -1  -2   3  826.16   25.76 
   1   2  -3  813.01   31.12 
   3  -1  -1  134.69   13.33 
   3  -1  -1  143.36   11.01 
  -3   1   1  144.84   16.84 
  -3   1   1  131.90   11.49 
  -2  -2   2 1067.21   33.68 
   2   2  -2 1004.06   31.56 
   2   2  -2 1052.33   31.55 
  -2  -2   2 1090.33   33.40 
   2   2  -2 1095.38   33.92 
   2   2  -2 1025.39   31.51 
   3   1   3   11.85    6.40 
  -3  -1  -3    6.03    3.09 
  -3  -1  -3    7.09    4.05 
  -3  -1  -3    6.20    5.35 
   3   1   3    5.09    3.12 
  -1   2  -3   17.60    9.37 
   1  -2   3   14.37    7.46 
   1  -2   3   14.32    5.15 
  -1   2  -3   16.76    6.11 
   3   0  -2  935.21   31.53 
  -3   0   2 1181.40   40.55 
  -3   0   2 1084.34   33.89 
   3   0  -2 1057.48   35.46 
  -3   1  -1  132.97   13.83 
   3  -1   1  125.17   10.57 
   3  -1   1  130.86    8.71 
  -3   1  -1  129.04   10.98 
   0   3   4   93.74    8.79 
   0  -3  -4  104.37    8.62 
   2   1   5   60.37    6.70 
   2   1   5   53.82    6.47 
  -2  -1  -5   64.62    7.70 
  -2  -1  -5   66.69   11.79 
  -2  -1  -5   48.36   12.37 
   2   1   5   62.68   11.27 
   0  -3   1  650.51   17.51 
   0  -3   1  572.01   21.68 
   0   3  -1  597.91   24.33 
  -1  -3  -4 1250.76   39.25 
   1   3   4 1214.51   37.04 
  -1  -3  -4 1272.20   40.49 
  -1   3   0   31.57    6.08 
   1  -3   0   35.83    7.13 
   1  -3   0   32.21    5.34 
  -1   3   0   38.44    6.39 
   1  -3  -3   93.84   12.16 
  -1   3   3  121.55   11.57 
   1  -3  -3  101.91   10.06 
  -2  -3  -2 2196.27   59.28 
  -2  -3  -2 2169.60   60.10 
   2   3   2 2258.42   62.31 
   2   3   2 2284.56   61.66 
   3   0   3 2479.41   70.74 
  -3   0  -3 2575.41   74.51 
  -3   0  -3 2496.45   68.05 
   3   0   3 2566.34   69.68 
   3   2   1  613.37   23.30 
  -3  -2  -1  610.47   22.71 
   3   2   1  635.17   17.04 
   3   2   1  613.62   16.56 
  -1   2   5  729.15   28.11 
   1  -2  -5  709.77   30.29 
  -2   2  -2 1225.12   42.48 
  -2   2  -2 1266.76   40.07 
  -3  -2  -2 1640.58   50.85 
   2  -2   2 1237.74   38.61 
   2  -2   2 1227.18   38.44 
  -3  -2  -2 1682.66   54.45 
   3   2   2 1614.85   50.71 
   3   2   2 1418.93   44.12 
  -2  -3  -1   41.07   10.43 
   2   3   1   30.14    5.46 
   2   3   1   38.49    5.77 
  -2  -3  -1   41.94    8.00 
  -2  -3  -1   40.77    5.50 
   2   3   1   38.70    7.43 
   1   3  -1  332.96   15.14 
  -1  -3   1  296.71   16.71 
  -1  -3   1  332.57   16.17 
  -3   1   2  613.46   30.43 
   3  -1  -2  532.50   24.89 
   3  -1  -2  578.36   21.44 
  -3   1   2  586.59   24.28 
   2   3   3  110.59    7.90 
   2   3   3  103.61    9.01 
  -2  -3  -3  123.26   16.99 
  -2  -3  -3  123.38   12.39 
  -2  -3  -3   99.20    6.52 
   0  -1  -6 1916.26   51.61 
   0   1   6 1880.58   56.97 
   0  -1  -6 1944.96   59.06 
   0  -1  -6 1862.28   56.58 
  -2   1  -4  585.73   26.71 
   2  -1   4  573.92   22.74 
   2  -1   4  563.93   22.93 
  -2   1  -4  602.58   24.22 
   0   1  -5  754.21   36.17 
   0   1  -5  968.29   31.95 
   0  -1   5  916.15   24.57 
   0   1  -5  694.88   26.78 
  -2  -2  -5  264.17   19.29 
  -2  -2  -5  274.27   18.04 
  -2  -2  -5  265.29   13.44 
   2   2   5  257.30   12.45 
   2   2   5  249.67   13.71 
  -3  -2   0 2181.68   63.60 
   3   2   0 2258.57   59.91 
   3   2   0 2097.13   61.08 
  -3  -2   0 2185.08   62.59 
   3   2   0 2085.64   59.48 
   3   2   0 2198.20   59.52 
   3   1  -2  753.74   27.32 
   3   1  -2  812.19   27.72 
  -3  -1   2  863.84   34.78 
   3   1  -2  802.09   25.81 
  -3  -1   2  821.12   27.08 
  -3   1  -2  319.82   17.64 
  -3   1  -2  319.47   20.37 
   3  -1   2  331.08   17.43 
   3  -1   2  313.45   16.18 
   2   0   5 2415.79   69.35 
  -2   0  -5 2544.52   73.67 
   2   0   5 2401.55   69.10 
  -2   0  -5 2453.81   69.42 
  -2   0  -5 2280.68   64.95 
   1   1   6  160.65   18.42 
  -1  -1  -6  147.08   18.27 
   1   1   6  146.38   21.90 
   1   1   6  161.61   10.60 
  -1  -1  -6  158.93   11.21 
  -1  -1  -6  156.59   11.56 
   3   2   3  512.76   21.14 
   3   2   3  523.83   21.22 
  -3  -2  -3  546.64   28.67 
  -2  -3   0 1105.12   32.16 
  -2  -3   0 1062.26   39.12 
   2   3   0 1056.40   30.15 
   2   3   0  971.17   31.61 
  -2  -3   0 1042.33   31.24 
   2   3   0 1081.29   32.65 
   1  -3   1 4015.58   89.15 
  -2   2   4  642.31   26.06 
  -1   3  -1 3849.38   85.97 
   2  -2  -4  598.79   24.08 
  -1   3  -1 4143.10   97.71 
   2   1  -4   27.15    7.79 
  -2  -1   4   29.65   18.43 
   2   1  -4   23.64    8.65 
   2   1  -4   17.92   10.64 
  -3  -1  -4  972.35   34.27 
  -3  -1  -4  972.89   29.33 
   3   1   4  964.87   33.80 
  -3  -1  -4  940.45   28.21 
   1  -1   5  581.42   21.81 
  -1   1  -5  606.12   23.05 
  -1   1  -5  592.55   24.28 
   1  -3  -4   78.91    7.68 
  -1   3   4   74.46   18.50 
   3   0  -3   61.48    6.97 
  -3   0   3   70.51   16.68 
   3   0  -3   67.55   21.39 
  -3   0   3   71.76    9.32 
   0  -2  -6  908.90   40.16 
   0  -2  -6  962.89   37.30 
   0   2   6  907.08   32.19 
   0  -2  -6  927.58   31.90 
   1   2   6  683.96   22.81 
   0   2  -4   81.91    6.55 
   0   2  -4   89.79   13.85 
  -1  -2  -6  754.35   24.56 
  -1  -2  -6  763.90   27.86 
  -1  -2  -6  722.27   22.27 
   1   2   6  742.43   25.07 
   0   0  -6  554.28   24.73 
   0   0   6  358.26   16.87 
  -2  -3  -4 1613.68   44.70 
   0   3   5 1491.14   41.63 
  -2  -3  -4 1675.85   40.58 
   2   3   4 1731.62   42.30 
   0  -3  -5 1494.71   41.51 
  -1  -3  -5  425.93   21.33 
   1   3   5  448.63   23.85 
  -1  -3  -5  438.23   20.43 
  -1  -1   5 1694.36   48.48 
   0   3  -2  854.48   28.91 
   0   3  -2  787.25   19.02 
   3   2  -1    2.62    2.51 
   3   2  -1    4.28    3.62 
   3   2  -1    3.51    2.24 
  -3  -2   1    4.18    5.09 
   3   2  -1    2.68    2.21 
  -3  -2   1    5.11    7.39 
  -3   1   3   13.81    8.10 
   3  -1  -3    7.28    3.32 
  -3   1   3   10.29    7.83 
   2   2  -3  330.05   17.05 
  -2  -2   3  350.87   13.98 
  -2   1   5    3.90    5.56 
   2   2  -3  344.59   13.55 
   2   2  -3  360.12   18.60 
   2   2  -3  364.84   14.44 
   1   0   6 1216.94   29.22 
   1   0   6 1313.09   40.25 
   1   0   6 1241.76   48.21 
  -1   0  -6 1296.17   38.29 
  -1   1   6   60.89   12.12 
  -3   0  -4  258.72   13.19 
   3   0   4  261.59   16.74 
  -3   0  -4  249.72   16.36 
   3   0   4  258.24   13.08 
   1   3  -2   14.05    3.09 
  -1  -3   2   14.83    3.56 
   1   3  -2   23.20   12.40 
   1   3  -2   15.21    4.44 
  -1  -3   2   12.61    4.35 
  -3  -2  -4 1051.23   25.70 
  -2   2  -3 1396.60   40.40 
  -2   2  -3 1418.44   38.65 
   2  -2   3 1363.97   36.36 
  -3  -2  -4 1030.47   32.47 
  -3  -2  -4 1009.67   24.53 
   2   0  -5 2520.51   71.77 
  -2   0   5 2585.00   66.26 
   1   2  -4  156.31   16.73 
  -1  -2   4  175.89    8.60 
  -1   2  -4 1361.91   40.44 
  -1   2  -4 1353.39   36.09 
   1  -2   4 1361.05   35.79 
  -2   3   1 1239.02   36.81 
  -2   3   1 1309.05   46.17 
   2  -3  -1 1295.42   36.51 
   3  -1   3    3.94    1.99 
  -3   1  -3    7.17    4.69 
   2   3  -1  454.89   13.60 
   2   3  -1  502.80   17.85 
  -2  -3   1  472.05   26.30 
  -2  -3   1  535.68   16.40 
  -2  -3   1  447.47   15.93 
   3  -1   3    5.59    3.10 
  -3   1  -3    5.32    7.64 
   2   3  -1  433.09   19.61 
  -3   2   1   82.64   11.09 
   3  -2  -1   80.31    9.42 
   3  -2  -1   85.43    8.12 
  -3   2   1  100.80   18.84 
  -2   3   2  897.85   29.15 
   2  -3  -2  917.84   28.74 
  -2   3   2  932.87   38.49 
  -3   2   0  949.24   30.67 
   3  -2   0  904.29   31.92 
   3  -2   0  955.39   32.79 
  -3   2   0  997.54   35.45 
  -2  -1  -6 3542.65   34.40 
  -2  -1  -6 3445.56   81.69 
   2   1   6 3409.69   79.00 
  -2  -1  -6 3728.56   47.34 
   2   1   6 3648.14   40.64 
   3   1  -3  918.93   29.07 
  -3  -1   3 1030.49   34.76 
  -3  -1   3  978.21   29.78 
   3   1  -3  958.67   27.94 
   3   1  -3  933.02   27.75 
  -2   3   0 1289.71   36.03 
  -1   3  -2   77.16   21.81 
   1   0  -6   44.15    3.00 
  -2   3   0 1289.05   40.53 
   1  -3   2   60.76    6.31 
  -1   0   6   46.83    9.18 
   2  -3   0 1286.86   35.47 
  -1   3  -2   59.55    6.10 
  -3   2   2  537.50   23.03 
  -3   2   2  515.55   28.34 
  -1   2   6  372.85   18.62 
  -3   2  -1   10.91    5.03 
   3  -2   1   11.03    4.36 
  -3   2  -1   11.02    5.23 
   3  -2   1    7.25    3.98 
  -2   3   3  207.51   14.40 
   2  -3  -3  228.68   14.59 
  -1   3   5   37.20   18.95 
   2   2   6  645.30   24.50 
   2   2   6  612.46   21.04 
  -2  -2  -6  592.88   24.47 
  -2  -2  -6  639.37   21.16 
  -2  -2  -6  657.23   22.92 
   2   3   5   79.75    8.04 
   2   3   5   75.76    9.58 
  -2  -3  -5   81.44   12.75 
  -2  -3  -5   85.30    8.69 
  -2  -3  -5   69.63   16.52 
  -2   2   5   82.16   12.33 
  -3  -1  -5 1822.38   45.23 
  -3  -1  -5 1661.15   47.93 
  -3  -1  -5 1690.14   42.72 
   3   1   5 1761.56   51.91 
  -2   1  -5  372.73   20.08 
  -2   1  -5  377.55   25.29 
   2  -1   5  354.26   16.42 
   3   2  -2  230.08   14.95 
  -3  -2   2  230.55   14.85 
  -3  -2   2  221.28   10.90 
  -3  -2   2  264.41   14.43 
   3   2  -2  223.68   10.96 
   3   2  -2  229.94   12.47 
  -3  -3  -2  607.78   21.97 
   0   4   2  118.86   18.88 
   0  -4  -2  104.80    6.97 
   3   3   2  654.66   21.81 
  -3  -3  -2  624.89   15.90 
  -1  -4  -2 2205.96   55.31 
   1   4   2 2292.39   60.58 
  -1  -4  -2 2269.13   52.75 
   3   0  -4 2723.00   67.53 
  -3   0   4 2854.39   73.17 
  -3   0   4 2879.78   71.96 
  -4  -1  -1 3296.51   73.23 
   4   1   1 3438.28   75.86 
  -4  -1  -1 3286.20   81.77 
  -4   0   0  653.26   21.46 
  -4   0   0  666.26   25.84 
   4   0   0  671.16   24.21 
   4   0   1   84.18    6.56 
  -4   0  -1   80.88    7.32 
  -4   0  -1   77.36    9.86 
  -3  -3  -1 2782.93   66.83 
   3   3   1 2764.91   65.65 
  -3  -3  -1 2730.43   72.25 
   3   3   1 2682.19   61.41 
   3   3   1 2731.39   61.11 
  -3   1   4   56.18    9.78 
  -3   1   4   47.93    7.51 
   0   4   3  775.87   27.62 
   1   4   3  476.22   28.91 
  -1  -4  -3  436.28   17.29 
  -1  -4  -3  498.88   18.10 
   2  -3   1  121.97   13.07 
  -2   3  -1  109.65   11.70 
  -2   3  -1  116.93   11.48 
   0  -4  -1  134.41    6.72 
   0   4   1   96.19    8.17 
  -1  -3  -6  920.76   36.25 
   1   3   6  968.84   29.86 
  -1  -3  -6  884.20   30.31 
  -1  -3  -6  953.82   30.59 
  -3  -3  -3 2280.61   60.51 
  -2   0  -6    3.22    2.35 
   3   3   3 2048.00   56.92 
  -2   0  -6    9.49    7.01 
  -2   0  -6    5.17    4.47 
  -3  -3  -3 2172.05   48.12 
   3   3   3 2281.40   50.64 
  -3  -3  -3 2195.57   56.80 
   2   0   6    4.39    2.26 
  -3   2   3   36.71    8.35 
   0   3   6   40.27    8.35 
   0  -3  -6   59.55   22.35 
   0  -3  -6   46.65   11.40 
  -3   2   3   31.90   16.89 
  -1  -4  -1   12.94    3.88 
   1   4   1   18.66    8.38 
  -1  -4  -1   19.19   10.79 
  -4  -1   0   80.23   17.60 
  -1  -4  -1   19.51    8.34 
  -4  -1   0   78.89    5.77 
  -4  -1  -2    3.23    6.72 
   4   1   2    1.52    1.08 
  -4  -1  -2    3.83    1.92 
   3   2   5  219.00   11.73 
  -3  -2  -5  232.76   14.77 
  -3  -2  -5  223.55   11.27 
  -3  -2  -5  195.28   13.65 
   0   3  -3  420.43   27.32 
   0   3  -3  455.22   13.59 
   0   1   7    3.10    4.01 
   0  -1  -7    0.86    1.56 
   0  -1  -7   -2.53    6.04 
   0   1  -6  909.12   33.73 
   0   1  -6  922.52   29.22 
  -2  -1   5  264.25   22.02 
   2   1  -5  259.98   10.97 
   2   1  -5  257.78   13.75 
   2   3  -2  297.64   20.17 
   2   3  -2  242.80   18.67 
   2   3  -2  267.62   10.10 
   2   3  -2  260.60   12.36 
  -2  -3   2  276.25   14.47 
  -4   0   1  325.70   19.81 
  -4   0   1  313.05   15.80 
   4   0  -1  308.84   16.92 
   1   1   7 3473.06   79.21 
  -1  -1  -7 3457.79   85.79 
  -1  -1  -7 3564.45   31.69 
   1   1   7 3524.43   45.75 
  -4   0  -2 1415.47   36.92 
   4   0   2 1320.48   33.89 
  -4   0  -2 1341.84   44.18 
  -3   2  -2  204.86   13.09 
  -3   2  -2  208.39   13.41 
   3  -2   2  214.82   12.36 
   3   0   5  498.19   19.79 
  -3   0  -5  539.86   25.70 
  -3   0  -5  453.62   21.03 
  -3   0  -5  546.58   22.60 
  -2   3   4  221.48   17.74 
  -3   1  -4 2224.91   57.04 
   3  -1   4 2126.70   56.57 
  -3   1  -4 2216.60   58.46 
   3   3   0    4.63    2.34 
  -3  -3   0    1.85    5.15 
   3   3   0    2.60    1.96 
   3   3   0    2.40    1.92 
  -3  -3   0    3.01    3.50 
  -1  -4  -4  608.51   29.73 
   1   3  -3  527.79   21.24 
   1   3  -3  535.01   16.49 
   1   3  -3  513.52   14.57 
  -1  -3   3  524.90   19.69 
  -1  -4  -4  605.36   22.56 
   1   4   4  579.11   21.25 
  -1  -4  -4  576.03   27.09 
   0  -2  -7  750.92   22.44 
   0  -2  -7  736.73   27.97 
   0   2   7  696.58   26.52 
  -1  -2  -7  634.18   25.63 
   1   2   7  619.56   29.10 
   2   2  -4  846.80   26.73 
  -1  -2  -7  643.09   20.75 
  -2  -2   4  787.61   23.20 
   2   2  -4  806.90   23.22 
   2   2  -4  830.01   28.22 
   0   4   4 1331.82   39.18 
   2  -2   4   52.10    8.47 
  -2   2  -4   48.41    6.79 
  -2   2  -4   45.61    8.63 
  -1   1  -6  665.32   25.54 
  -1   1  -6  710.01   28.84 
   1  -1   6  706.57   27.16 
   0   2  -5   33.11    5.83 
   0   4   0 1653.43   48.99 
   0   2  -5   45.72   20.48 
   0  -4   0 1659.28   36.69 
   4   1  -1   54.50    5.06 
  -3  -3  -4  396.24   18.22 
   3   3   4  398.55   13.96 
  -3  -3  -4  413.53   13.59 
  -3  -3  -4  401.01   19.02 
  -4  -1   1   49.32    6.00 
  -4  -1   1   50.56   12.23 
  -4  -1  -3 1941.09   54.07 
  -4  -1  -3 1217.73   29.67 
   4   1   3 1930.90   44.53 
  -2   1   6  147.99   23.64 
  -1  -4   0  599.48   21.27 
   1   4   0  606.53   27.59 
  -1  -4   0  413.09   19.42 
   1  -4  -2   29.65    7.49 
  -1   4   2   31.61   15.26 
  -1   3  -3  795.11   23.04 
   1  -3   3  837.07   26.78 
  -1   3  -3  845.47   29.84 
  -4   1   0  473.29   23.90 
  -4   1   0  445.19   26.75 
   4  -1   0  425.72   24.05 
  -1  -1   6   80.54   11.91 
  -2  -4  -2  653.54   20.44 
   2   4   2  659.64   27.02 
  -2  -4  -2  689.42   22.32 
   2   4   2  561.14   18.60 
   1  -4  -1  267.74   12.35 
  -1   4   1  274.95   31.86 
  -3  -1   4  833.08   36.97 
   3   1  -4  822.60   29.07 
   3   1  -4  802.16   29.08 
   0   0   7  878.97   31.66 
   0   0  -7  799.60   28.07 
  -2  -4  -3 1863.37   48.19 
   4   2   1  386.12    9.31 
  -1   4   3  601.28   27.28 
  -4  -2  -1  616.95   26.75 
   2   4   3 1865.73   46.80 
  -2  -4  -3 1881.60   49.12 
   1  -4  -3  572.15   20.94 
  -4  -2  -2  149.73   24.12 
   2   3   6  176.43   19.03 
  -2  -3  -6  161.00   20.15 
  -2  -3  -6  154.77   23.08 
  -2  -3  -6  170.82   12.14 
  -4  -2  -2  153.75   13.19 
  -4   1   1  258.25   23.47 
  -4   1   1  236.38   15.21 
   4  -1  -1  193.81   13.87 
  -4   0   2  149.33   11.78 
   4   0  -2  130.28   10.78 
  -4   0   2  154.64   27.22 
  -2   3  -2 1927.03   52.59 
  -2   3  -2 1943.13   43.04 
   2  -3   2 1931.02   45.01 
  -4   1  -1  555.19   24.00 
   4  -1   1  516.73   18.43 
  -4   1  -1  502.79   23.50 
  -1   2  -5  378.36   19.97 
  -1   2  -5  388.22   20.97 
   1  -2   5  387.09   15.28 
  -4   0  -3   85.65    7.84 
  -4   0  -3   74.45   10.56 
   4   0   3   84.47    9.10 
  -2   0   6  369.37   21.61 
   2   0  -6  355.36   11.37 
  -1   1   7 1211.66   35.48 
  -1   3   6 4543.77  486.83 
   1   2  -5  406.88   17.02 
   1   2  -5  384.57   20.89 
  -1  -2   5  404.39   14.04 
  -3   2   4  112.11   21.80 
  -3   2   4  102.41   10.07 
   1   0   7  370.18   21.31 
  -1   0  -7  345.71   17.89 
  -2  -4  -1 1536.93   34.97 
  -2  -4  -1 1433.22   39.72 
   2   4   1 1584.07   32.56 
   2   4   1 1591.79   36.19 
  -2  -4  -1 1509.06   31.06 
  -3  -2   3  458.88   20.85 
   3   2  -3  427.90   21.67 
  -3  -2   3  432.13   22.80 
   3   2  -3  433.20   16.64 
  -3  -2   3  470.19   19.75 
   3   2  -3  431.06   16.28 
   3   3  -1  224.41   14.38 
   3   3  -1  228.59   15.96 
  -3  -3   1  229.48   18.19 
  -3  -3   1  271.14   14.77 
   3   3  -1  237.75   11.12 
  -4  -2   0  846.14   26.68 
  -4  -2   0  948.07   33.77 
  -1  -4  -5  649.07   23.22 
   1   4   5 1154.40   31.51 
   4   2   0  628.91   17.74 
  -1  -4  -5 1200.72   35.57 
  -1  -4  -5 1080.19   33.41 
  -4  -2  -3  661.10   33.13 
  -2   2   6  221.26   19.20 
   2   1   7   75.85   12.18 
  -2  -1  -7   79.45   12.96 
   2   1   7   80.08    7.92 
  -3  -1  -6   67.38   19.39 
  -3  -1  -6   82.45   17.85 
   3   1   6   84.63   11.98 
  -3  -1  -6   78.75    9.08 
   0   4   5   37.74   17.88 
   1  -4   0 1464.01   30.94 
  -1   4   0 1527.38   46.17 
   0  -4  -5   44.24    7.90 
  -1   4   0 1525.15   33.25 
  -2  -4  -4 1749.17   38.68 
  -2  -4  -4 1801.52   42.28 
   2   4   4 1648.86   38.31 
   2   4   4 1833.66   41.11 
  -1   2   7 1142.25   34.50 
   0   4  -1  455.34   19.83 
  -3   2  -3   15.45    6.96 
  -3   2  -3   14.60    4.81 
   2   2   7    8.42    4.47 
  -2  -2  -7   12.16    6.21 
  -2  -2  -7    7.03    4.45 
  -2  -2  -7    7.45    4.16 
   2   2   7    9.63    5.47 
  -4   1   2    5.00    3.79 
   4  -1  -2    2.82    3.66 
  -4   1   2    9.78    6.42 
   4   1  -2    2.98    2.56 
  -4  -1   2    3.88    3.51 
   1  -4  -4   80.34   16.91 
  -1   4   4  106.76   20.83 
  -3   1   5  555.06   22.32 
  -2   3   5 1356.66   37.92 
  -4   1  -2    1.70    4.85 
   4  -1   2    1.36    4.96 
  -4   1  -2    3.63    4.00 
  -4  -1  -4  361.81   14.00 
  -4  -1  -4  381.70   31.07 
  -4  -1  -4  333.86   11.46 
   3   3   5  552.45   15.89 
  -3  -3  -5  563.80   23.24 
  -3  -3  -5  546.69   14.76 
  -3  -2  -6   16.05    9.10 
  -3  -2  -6   26.19   10.05 
   3   2   6   23.01   11.34 
  -3  -2  -6   24.92   14.83 
   1   4  -1    2.22    4.35 
  -3   0   5    3.44    6.93 
  -1   0   7  125.55   11.10 
  -1  -3  -7    4.36    5.17 
   1   3   7    1.31    3.55 
  -1  -3  -7    1.37    3.67 
   2   4   0    0.62    3.14 
  -2  -4   0    1.18    3.03 
   2   4   0    1.08    1.40 
  -2  -4   0    0.63    1.50 
  -2  -4   0    0.38    5.20 
  -2  -3   3   90.42    9.76 
   2   3  -3   90.80    6.07 
   2   3  -3   92.42    7.30 
   2   3  -3   95.43   15.88 
  -3   3   1  902.32   28.95 
  -3   3   1  887.93   31.62 
  -2   1  -6 1015.98   35.94 
  -2   1  -6  992.66   35.51 
   0  -3  -7 1566.72   38.78 
   0  -3  -7 1684.84   45.69 
   0   3   7 1616.44   42.50 
  -3   3   2  501.70   25.88 
   0   3  -4  289.66   10.20 
   0   3  -4  313.93   20.31 
  -3   3   2  456.60   22.59 
  -4  -2   1  631.77   17.94 
  -4  -2   1  672.27   27.20 
   4   2  -1  662.63   17.72 
  -4  -2  -4  106.71    9.94 
  -4  -2  -4  109.98    3.42 
  -3   3   0  534.73   26.84 
  -3   3   0  533.81   25.55 
  -4  -2  -4  112.86    4.56 
  -4  -2  -4  107.68    9.47 
   4   0  -3  375.88   16.91 
  -4   0   3  431.83   21.27 
  -4   0   3  398.44   23.58 
  -3   1  -5  875.23   28.33 
  -3   1  -5  922.67   33.02 
  -4   0  -4  420.02   21.69 
   4   0   4  387.86   14.93 
  -4   0  -4  384.89   19.71 
  -2  -4  -5   15.93    9.05 
  -2  -4  -5   16.13    5.88 
   2   4   5   11.50    4.55 
  -2  -4  -5   19.89    9.56 
   2   4   5   18.82    6.86 
  -3   0  -6 1195.78   39.22 
   3   0   6 1112.88   31.90 
  -3   0  -6 1236.60   41.55 
  -1   4  -1    4.13    3.22 
   1  -4   1    4.02    1.88 
  -1   4  -1    4.57    7.04 
  -2   0  -7 1449.93   40.49 
   2   0   7 1463.44   33.19 
  -2   0  -7 1631.16   44.10 
   1   3  -4 3040.49   58.29 
   1   3  -4 3097.08   68.84 
   1   3  -4 3053.40   62.46 
  -1  -3   4 3023.23   63.32 
  -2   3  -3  764.59   26.93 
  -2   3  -3  778.47   25.20 
   2  -3   3  750.40   24.02 
  -4   1   3  450.91   21.55 
  -4   1   3  439.83   21.87 
  -3   3   3  296.40   22.57 
  -3   3   3  309.84   21.43 
   2  -2   5  323.48   15.44 
  -2   2  -5  331.85   22.75 
  -2   2  -5  363.11   18.11 
  -1   4   5  935.58   41.55 
  -4   1  -3  503.77   21.82 
  -4   1  -3  494.15   20.01 
   4  -1   3  469.07   17.93 
  -3   2   5  253.93   20.66 
  -2  -1   6  502.23   27.36 
  -1   3  -4   28.11   14.93 
   1  -3   4   26.41    9.62 
  -3  -3   2    1.42    2.23 
   3   3  -2    3.16    2.08 
   3   3  -2    2.44    2.02 
   3   3  -2    0.91    2.69 
  -3  -3   2    1.70    3.31 
  -1   3  -4   21.22    6.23 
  -1  -4  -6    3.58    4.42 
  -1  -4  -6    3.81    6.22 
   1   4   6    1.07    3.39 
   2   2  -5   14.55    4.62 
  -2  -2   5   15.60    7.10 
   2   2  -5   11.80    7.70 
   2   2  -5    6.56    4.62 
  -2   4   2  658.82   29.93 
   2  -4  -2  596.70   22.39 
  -2   4   2  592.98   21.30 
   0  -4  -6  581.03   22.59 
  -3   3  -1 1976.42   48.72 
  -3   3  -1 2067.46   48.89 
   0  -4  -6 1007.87   30.50 
   0   4   6 1107.63   42.07 
  -2  -3  -7  104.25   15.59 
  -2  -3  -7  113.05    9.43 
  -2  -3  -7  105.61   13.09 
   2   3   7  122.14   15.33 
   0   1   8  898.59   35.84 
   0  -1  -8  913.54   20.29 
   0  -1  -8  929.34   32.00 
  -4   2   1  296.10   17.68 
  -4   2   1  304.57   25.32 
   0   4  -2    5.68    4.53 
  -4   2   0  334.45   18.50 
  -4   2   0  295.51   22.23 
   2  -4  -1 1338.06   34.13 
  -2   4   1 1367.61   35.53 
   0   1  -7  106.87   10.34 
  -2   4   1 1033.04   35.36 
   0   1  -7  108.59   13.50 
   1   1   8   21.01    6.35 
  -1  -1  -8   26.79    8.16 
   1   1   8   24.58    6.91 
  -1  -1  -8   19.98    7.05 
  -4  -1   3  673.25   28.72 
   4   1  -3  626.96   23.55 
  -4  -1   3  626.07   26.53 
  -2  -4   1  631.11   23.06 
   2   4  -1  647.09   21.74 
  -2  -4   1  584.30   19.54 
   2   4  -1  593.65   12.74 
   1   2   8    6.04    5.18 
  -1  -2  -8    5.91    6.00 
  -1  -2  -8    3.28    2.54 
  -3  -1   5  999.20   31.53 
   3   1  -5 1030.39   26.65 
   0  -2  -8    9.59    3.39 
   0   2   8    8.85    5.62 
   0  -2  -8    9.62    6.39 
  -4  -1  -5  320.90   26.09 
  -4  -1  -5  306.58   13.10 
  -4  -1  -5  335.22   17.66 
   3   4   2 1809.09   40.84 
   3   4   2 2047.02   42.00 
  -3  -4  -2 1844.02   37.68 
  -3  -4  -2 1883.23   42.27 
  -3  -3  -6 1503.20   33.70 
   3   3   6 1513.52   34.19 
  -4  -3  -2   30.92   16.74 
  -3  -3  -6 1536.67   42.08 
  -4  -3  -2   33.28   13.65 
   0   2  -6    8.22    7.54 
   0   2  -6    0.06    3.80 
   0  -2   6    2.26    3.15 
  -1   3   7  375.55   23.03 
  -2   4   3  172.00   17.26 
  -3  -4  -3  919.58   27.22 
   3   4   3  908.31   21.89 
   3   4   3  892.81   25.06 
  -3  -4  -3  897.50   31.80 
  -2   1   7    4.23    4.43 
  -3  -2   4   54.04   22.28 
   3   2  -4   50.72   13.65 
   3   2  -4   39.27   19.50 
  -1  -4   2    4.92    3.97 
   1   4  -2    6.53    4.14 
  -3   2  -4    9.00    4.52 
  -3   2  -4    9.76    5.16 
  -1   1  -7 1196.58   44.99 
   1  -1   7 1108.73   23.63 
  -1   1  -7 1123.27   33.10 
  -4  -3  -1   45.33   14.08 
  -4  -3  -1   28.67   12.31 
  -2   3   6 1111.79   34.74 
   4   3   1   31.37    5.06 
   4   3   1   22.89    7.53 
   4   3   1   24.91    4.05 
  -4  -3  -3   59.09   22.93 
  -4  -3  -3   53.68   21.43 
  -4   2   2  525.45   29.79 
  -4   2   2  522.58   24.74 
  -4  -2   2  392.48   19.53 
  -4  -2   2  372.06   14.77 
   4   2  -2  342.22   15.27 
  -4   2  -1  287.46   24.65 
  -4   2  -1  287.49   15.02 
  -4  -2  -5  232.61   11.65 
  -4  -2  -5  244.69    8.23 
  -4  -2  -5  229.97   14.77 
  -4  -2  -5  245.97   14.32 
   3   4   1  512.39   15.56 
  -3  -4  -1  542.51   17.25 
   3   4   1  532.30   16.49 
  -3  -4  -1  532.11   22.18 
  -3  -4  -1  538.70   17.62 
  -2   4   0  974.98   32.23 
  -2   4   0 1005.18   28.41 
   2  -4   0  900.97   24.67 
  -3   3   4   37.14    9.24 
   1  -2   6  135.34   10.20 
  -1   2  -6  131.57   15.55 
  -1   2  -6  130.26   12.99 
  -3  -4  -4  894.97   39.10 
  -3  -4  -4  898.45   25.26 
  -3  -4  -4  837.45   31.24 
   3   4   4  902.40   25.55 
   2   4   6  292.53   16.75 
  -2  -4  -6  288.98   15.54 
  -2  -4  -6  276.85   36.18 
  -2  -4  -6  272.98   20.58 
  -2   2   7    2.29    2.94 
   3   1   7  427.24   25.08 
  -3  -1  -7  441.11   20.20 
  -3  -1  -7  474.46   24.46 
   1   1  -7    7.20    3.93 
  -1  -1   7    5.81    4.15 
  -3  -2  -7  583.48   24.52 
   3   2   7  588.39   27.12 
  -3  -2  -7  575.01   19.17 
  -3  -2  -7  571.40   27.99 
   1   2  -6  213.49   11.30 
  -3   1   6   94.14   26.19 
   1   2  -6  204.80   17.16 
  -1  -2   6  205.85    8.41 
   2   0  -7    6.36    2.76 
  -4   0   4   82.82   15.51 
  -1   4  -2  583.15   35.47 
  -2   0   7    5.62    6.20 
  -1   4  -2  540.05   15.55 
  -4   0   4   78.56   11.12 
   1  -4   2  584.23   18.56 
  -2   4   4   56.08   12.41 
  -4   0  -5  326.09   16.16 
  -4   0  -5  332.15   17.95 
   4   0   5  292.48   11.91 
  -4  -3   0  511.76   24.30 
   4   3   0  455.76   19.50 
   4   3   0  500.71   15.80 
  -4  -3   0  501.92   21.52 
   4   3   0  520.11   14.30 
  -4  -3  -4  246.39   14.46 
  -4  -3  -4  274.68   15.92 
  -3   3  -2   77.10    9.88 
  -3   3  -2   76.77   13.42 
  -1   1   8  203.15   16.80 
   1  -1  -8  209.18    7.91 
   0   0   8   67.41   22.81 
  -4   1   4  771.63   35.20 
  -4   1   4  710.53   27.36 
   0   0  -8   53.93   10.50 
  -2  -3   4  206.48   10.52 
   2   3  -4  232.16   10.67 
   2   3  -4  219.17   14.47 
  -4   1  -4  180.08   14.81 
  -4   1  -4  175.63   10.96 
   2   2   8  354.94   28.80 
  -2  -2  -8  369.88   23.81 
   2   2   8  353.06   15.45 
  -2  -2  -8  384.60   17.81 
  -1   4   6  398.10   33.02 
  -3   0   6 2822.10   65.95 
   3   0  -6 2666.19   53.96 
  -4   2   3  247.05   15.28 
  -4   2   3  252.26   17.53 
   1   0   8 3542.95  382.24 
   1   0   8 3462.15   62.52 
  -1   0  -8 3492.62   76.72 
  -2  -1  -8 1423.90   58.98 
   2   1   8 1397.37   54.09 
   2   1   8 1536.07   62.58 
  -1   2   8   32.56   14.23 
  -4   2  -2   29.97    8.70 
  -4   2  -2   27.04    6.28 
   3   4   0 2090.45   76.80 
  -3  -4   0 2152.52  222.30 
   3   4   0 2052.03   74.50 
  -3  -4   0 2128.55  221.72 
  -1  -3  -8  217.06   13.42 
   1   3   8  214.27   17.41 
  -1  -3  -8  246.65   40.25 
   0  -3  -8   41.20    7.50 
   0  -3  -8   38.45   10.23 
   0   3   8   44.54   12.72 
  -2   4  -1 1794.51   71.81 
  -2   4  -1 1910.01   72.11 
   2  -4   1 1751.14   65.28 
  -2   3  -4  247.23   22.93 
  -3  -4  -5  137.41   19.68 
   2  -3   4  223.57   19.31 
  -2   3  -4  209.18   15.95 
   3   4   5  141.03   17.48 
  -3  -4  -5  112.69   24.60 
  -3  -4  -5  124.96   18.58 
  -1  -5  -3  703.26   42.40 
   1   5   3  653.60   36.93 
  -1  -5  -3  687.69   28.77 
   3   3  -3   30.19    7.35 
   0   3  -5 1336.53   64.56 
  -3  -3   3   43.19   18.14 
   3   3  -3   44.24   15.08 
   0  -3   5 1284.88   50.67 
   0   3  -5 1295.26   49.25 
  -1  -4  -7  643.80   30.53 
   1   4   7  653.85   37.01 
  -1  -4  -7  685.10   33.96 
  -3   1  -6    5.11    4.94 
  -3   1  -6    4.04    5.09 
   2   4  -2   14.33    5.28 
  -2  -4   2   19.15    8.45 
   2   4  -2   18.61    8.70 
  -1  -5  -2   25.29    4.67 
   1   5   2   26.73   12.94 
  -1  -5  -2   32.17   13.16 
  -5  -1  -1  187.20   25.21 
   0  -5  -3 1166.79   45.91 
   5   1   1  148.72   17.55 
   0   5   3 1243.20   53.15 
  -5  -1  -1  163.22   20.65 
   0  -5  -2  192.35   22.49 
   0  -5  -2  200.48   22.35 
   0   5   2  213.01   19.18 
  -3   2   6    1.86    6.14 
   0   4   7 1203.28   51.31 
   0  -4  -7 1165.55   48.42 
   0  -4  -7 1263.25   56.21 
  -5   0  -1 4282.23  442.85 
  -2   1  -7  300.24   26.00 
   5   0   1 4551.54  468.35 
  -5   0  -1 4472.22  460.32 
  -2   1  -7  301.29   20.13 
  -5   0   0  198.94   33.82 
   5   0   0  150.50   24.91 
  -5   0   0  155.61   22.14 
   5   1   2 4300.77  441.88 
  -5  -1  -2 4393.60  451.73 
  -5  -1  -2 4088.71  422.83 
   0   4  -3  734.68   37.19 
   0   4  -3  655.08   24.37 
  -5  -1   0 1720.36   63.43 
  -4  -1   4  960.88   41.68 
  -1  -5  -4  121.96   16.56 
   5   1   0 1755.38   64.74 
  -1  -5  -4  126.24   22.99 
   1   5   4  100.09   23.69 
  -5  -1   0 1673.34   68.93 
  -4  -1   4  945.46   42.96 
  -3   0  -7    8.01    4.91 
  -3   0  -7    6.63    5.17 
   3   0   7    0.61    2.65 
  -4  -1  -6  137.23   17.16 
  -4  -1  -6  132.75   19.82 
  -3   3   5  164.98   24.29 
  -4  -1  -6  116.12   15.52 
   1   0  -8  907.69   41.06 
  -1   0   8  956.49   44.74 
  -4  -3   1  655.44   32.34 
   4   3  -1  655.72   27.24 
   4   3  -1  623.12   27.00 
  -2   4   5   28.39   12.99 
  -4  -3   1  691.90   32.60 
   4   3  -1  558.43   25.84 
  -4  -3  -5  124.60   18.59 
  -4  -3  -5  113.58   13.38 
  -4  -3  -5  118.16   22.89 
   0   5   4   38.83   12.82 
   1   3  -5  461.29   20.90 
  -1  -3   5  468.53   24.37 
   1   3  -5  479.57   30.17 
  -3  -3  -7 1730.49   68.62 
   4   2  -3  762.59   34.83 
  -3  -3  -7 1606.40   65.39 
   3   3   7 1661.56   65.30 
  -4  -2   3  879.09   37.51 
  -3  -3  -7 1666.34   62.95 
  -4  -2   3  857.49   39.57 
   0  -5  -1   99.84   12.01 
   0  -5  -1   84.25    9.96 
   1   5   1  469.68   26.03 
   0   5   1   98.63   16.32 
  -4  -2  -6  157.65   21.72 
  -4  -2  -6  153.84   18.21 
  -4  -2  -6  153.31   19.39 
  -4  -2  -6  170.31   23.84 
  -5   0  -2  129.03   18.74 
  -5   0  -2  129.74   29.59 
   5   0   2  108.15   14.01 
   1   4  -3  243.99   20.17 
  -1  -4   3  234.35   17.36 
  -1   3  -5   15.07   13.16 
   1  -3   5   18.61    8.19 
  -1   3  -5   16.68    9.22 
  -2   2  -6  663.31   30.97 
  -2   2  -6  691.78   36.19 
  -5   0   1  918.75   40.42 
   5   0  -1  913.79   42.16 
  -5   0   1  993.40   47.06 
  -2  -3  -8    9.85    5.46 
  -2  -3  -8    2.51    2.76 
   2   3   8    9.99    8.07 
  -5  -1  -3    7.26    6.59 
   5   1   3    8.61    3.54 
  -5  -1  -3    5.79    4.91 
  -3   2  -5  495.84   27.37 
  -3   2  -5  531.43   28.23 
  -4   2   4 1132.83   57.76 
  -4   2   4 1155.12   51.01 
   3   4  -1  106.09   14.28 
  -2  -4  -7   -0.35    5.00 
   3   4  -1  128.91   27.42 
  -2  -4  -7    2.07    5.96 
   3   4  -1   93.84   12.92 
   2   4   7    2.03    2.07 
  -3  -4   1  112.04   13.83 
  -2   0  -8  131.64   27.30 
  -3  -4   1  105.00   15.78 
  -2   0  -8  116.93   18.10 
  -2  -4  -7    2.75    3.80 
   2   0   8  118.79   20.08 
  -3   3  -3  291.01   26.55 
  -2   3   7 1796.69   72.84 
  -3   3  -3  328.63   19.20 
  -4   2  -3    7.71    5.85 
  -4   2  -3    4.78    4.60 
   5   1  -1    5.22    3.57 
  -5  -1   1    5.23    3.29 
  -5  -1   1    3.63    5.65 
  -2  -5  -3  662.27   28.01 
  -2  -5  -3  667.89   31.94 
   2   5   3  730.51   37.90 
   2   2  -6 1356.28   57.11 
   3   2  -5  277.02   14.69 
  -3  -2   5  271.73   19.82 
  -1  -5  -5   38.15    9.99 
   1   5   5   48.99   22.44 
  -1  -5  -5   30.42    6.77 
  -1   4  -3  423.17   20.00 
  -2  -5  -2 1682.84   61.79 
  -2  -5  -2 1542.43   64.66 
  -1   4  -3  450.88   33.78 
   2   5   2 1806.93   73.31 
   1  -4   3  474.09   20.85 
  -5  -2  -2  693.62   44.59 
  -1   3   8 2703.74  281.52 
  -3  -1   6  195.31   32.25 
  -2  -1   7    7.48    6.14 
   3   1  -6  207.94   14.07 
   2   1  -7    2.29    1.09 
   5   2   1  112.93   12.94 
  -5  -2  -1  106.94   16.01 
   3   4   6  164.40   20.55 
  -3  -4  -6  152.52   21.15 
  -3  -4  -6  143.94   19.89 
  -3  -4  -6  190.02   45.69 
   1  -5  -2  233.71   16.69 
  -1   5   2  276.29   29.04 
   2  -4   2    5.08    3.22 
  -2   4  -2    9.87    5.05 
  -2   4  -2    3.52    2.06 
   0   5   5  579.62   37.57 
   0  -5  -5  564.39   31.49 
   0  -5  -5  586.15   29.84 
   2   5   4  102.46   32.01 
  -2  -5  -4   75.27   17.81 
   1  -5  -3   12.84    4.53 
  -2  -5  -4   95.27   20.66 
  -1   5   3   37.33   13.36 
  -4   1   5  142.96   26.22 
  -4   1   5  142.44   20.82 
  -4   0   5 4951.94  511.04 
   5   0   3 1243.07   47.69 
  -5   1   0  326.00   30.18 
  -5   0  -3 1264.39   56.82 
  -5   1   0  343.63   26.64 
  -5   0  -3 1386.03   58.68 
   0   5   0   19.89   11.46 
   1   5   0  651.81   37.63 
  -1  -5   0  734.76   35.84 
  -4   1  -5 1032.97   46.68 
  -4   1  -5 1106.13   48.52 
  -4   0  -6  130.91   27.47 
  -4   0  -6  124.73   20.09 
  -1   4   7 1386.62   58.37 
  -5  -2  -3   10.65    6.99 
  -5   1  -1  360.78   25.58 
  -5   1  -1  379.89   23.13 
   1   2   9    9.79    5.92 
  -1  -2  -9    5.38    3.04 
  -1  -2  -9    5.16    7.16 
  -5   0   2  224.33   22.01 
   5   0  -2  192.23   25.84 
  -5   0   2  212.89   19.79 
  -5   1   1   98.06   17.04 
  -5   1   1  107.02   22.12 
  -3   4   2  493.92   35.22 
  -5  -2   0   12.07    6.90 
   0  -2  -9   60.60   13.38 
   0  -2  -9   80.06   15.04 
  -2   1   8 1198.33   53.12 
  -3   4   2  387.01   30.87 
  -5  -2   0    7.94    3.81 
   0   2   9   75.38   22.56 
   5   2   0    8.81    3.41 
  -4   3   1  147.83   26.36 
  -1   5   1  753.93   38.43 
  -2  -5  -1  573.96   33.46 
   2   5   1  555.70   31.53 
  -4   3   1  141.31   24.39 
   1  -5  -1  686.97   27.81 
   0  -1  -9  776.44   28.84 
   0   1   9  795.42   44.79 
  -3   4   1  863.25   60.43 
  -3   4   1  786.55   43.24 
   0  -1  -9  803.78   39.34 
   0   2  -7   61.98   16.30 
  -1  -1  -9  602.03   32.63 
   0   2  -7   61.37   13.50 
   0  -2   7   56.32    7.69 
   1   1   9  607.01   31.63 
   0   1  -8  329.62   20.39 
   0   1  -8  324.32   24.12 
  -1   5   4  485.61   43.73 
  -3  -2  -8   29.11    8.32 
  -3  -2  -8   39.10   15.41 
   3   2   8   38.08   21.08 
  -5  -1  -4  324.31   15.26 
  -5  -1  -4  380.38   23.66 
  -4   3   2  975.91   44.97 
  -4   3   2  902.97   44.69 
  -4   3   0  661.90   43.75 
  -4   3   0  685.21   36.94 
  -4  -3   2 1235.74   52.20 
   4   3  -2 1160.69   45.82 
   4   3  -2 1046.74   46.18 
  -3   1   7  566.42   33.00 
  -4  -3   2 1104.82   48.66 
  -4  -3  -6    5.29    7.32 
  -4  -3  -6    4.54    4.05 
  -4  -3  -6    3.99    3.78 
  -4  -3  -6    0.66    1.15 
  -3  -1  -8   61.53   23.44 
  -3  -1  -8   60.01   11.97 
  -2   2   8  676.92   41.15 
  -3   4   3  300.28   30.24 
  -2   4   6 2372.89  247.52 
  -3   4   3  512.72   32.74 
  -4  -4  -3   15.38    8.20 
   4   4   3    8.16    2.99 
   4   4   2  399.27   18.73 
  -4  -4  -2  457.84   27.24 
  -4  -4  -2  440.44   31.10 
   2   4  -3   97.11   11.28 
   2   4  -3  132.83   31.27 
  -2  -4   3  114.74   17.31 
  -1   1  -8  222.54   24.28 
  -1   1  -8  219.79   16.54 
   1  -1   8  199.48   21.30 
  -2  -5  -5  210.58   14.36 
  -2  -5  -5  184.11   28.30 
  -2  -5  -5  209.68   20.39 
   2   5   5  229.49   27.45 
  -5  -1   2   69.27   10.02 
  -5  -1   2   65.17   20.82 
   5   1  -2   61.49   19.98 
  -5   1  -2 1136.20   56.06 
   2   3  -5 1861.66   74.53 
  -5   1  -2 1052.29   54.74 
  -2  -3   5 1833.28   69.46 
   2   3  -5 1839.48   69.43 
  -1   2  -7  190.76   23.18 
  -1   2  -7  185.52   28.44 
  -3   4   0 1744.24   72.25 
  -3   4   0 1794.48   71.58 
  -1  -4  -8   28.87   11.18 
  -3   3   6   70.93   33.50 
  -1  -4  -8   31.31   11.36 
   1   4   8   34.15   15.06 
   3   3  -4  505.80   25.24 
  -3  -3   4  523.09   25.17 
   3   3  -4  531.02   33.34 
  -5   1   2  235.00   26.58 
  -5   1   2  220.18   19.75 
   1   5   6   10.22    9.07 
  -1  -5  -6    5.85    6.36 
  -1  -5  -6    8.08    4.29 
  -5  -2  -4  112.09   17.74 
  -2   3  -5  102.81   22.98 
   2  -3   5   98.25   16.28 
  -2   3  -5  104.01   21.19 
   4   4   1 1248.94   47.59 
   4   4   1 1153.77   45.78 
  -4  -4  -4   42.00   12.76 
  -4  -4  -4   53.71   21.96 
  -4  -4  -4   32.98    5.33 
  -4  -4  -1 1304.02   52.21 
   4   4   4   31.82    4.57 
   4   4   1 1333.21   49.05 
  -4  -4  -1 1224.49   53.47 
   1   2  -7  134.95   37.61 
   1   2  -7   98.06   24.10 
   1  -5   0   83.33   12.71 
  -1   5   0   90.49   14.84 
  -4   3   3  938.25   46.96 
   0   4   8  391.43   24.96 
   3   0  -7  239.36   12.60 
   0  -4  -8  407.73   26.10 
  -4   3   3  898.23   44.11 
   0  -4  -8  386.79   32.07 
  -3   0   7  293.23   21.56 
  -4   2   5  139.53   27.03 
  -4   2   5  129.40   20.30 
  -5  -2   1  953.63   37.67 
  -2   0   8  383.70   28.36 
   2   0  -8  389.78   15.86 
  -5  -2   1  999.55   45.48 
   5   2  -1  968.05   42.50 
  -4   3  -1   52.32   12.04 
  -4   3  -1   70.55   27.37 
   0  -5  -6   93.39   15.22 
   3   4  -2  146.54   27.09 
   0   5   6   84.19   13.56 
  -3  -4   2  136.76   22.20 
   3   4  -2  135.03   22.80 
   0  -5  -6  107.87   29.09 
  -3   2   7  135.89   21.79 
   5   0   4   97.80   22.88 
  -4  -2   4  237.69   24.74 
  -4  -2   4  239.18   19.65 
  -5   0  -4  102.21   17.49 
  -5   0  -4  106.94   14.51 
  -1  -3  -9   33.43   13.19 
   0   4  -4 3270.43   27.88 
   2   5   0  481.65   26.28 
  -2  -5   0  452.04   26.73 
  -1  -3  -9   28.52   13.58 
   2   2   9   85.95   17.03 
   1   3   9   24.69   11.23 
  -2  -2  -9   97.70   37.12 
   2   2   9   98.66   23.91 
  -2  -2  -9  113.60   20.55 
   0  -4   4 3435.17   49.16 
   0   4  -4 3549.14   53.89 
  -4  -1   5  149.57   28.26 
   1   1  -8  114.47   15.93 
  -1  -1   8  117.17   21.60 
   0   5  -1    1.36    5.18 
  -1   5   5  556.68   29.14 
  -4  -2  -7  976.89   35.06 
  -4  -2  -7  944.38   31.38 
  -4  -2  -7  955.14   40.81 
  -4   2  -4  677.72   33.94 
  -4   2  -4  688.40   34.16 
  -4  -1  -7   44.69   18.12 
  -4  -1  -7   25.47   11.97 
  -4  -1  -7   43.54   18.85 
   1   5  -1   68.78   26.40 
  -1  -5   1   48.50    9.63 
  -3   4   4    4.68    7.81 
  -3   1  -7  900.83   38.62 
  -3   1  -7  838.30   33.51 
   0  -3  -9    2.05    5.32 
   0  -3  -9    5.87    8.00 
   0   3   9    5.73    5.31 
  -1   1   9  519.39   26.58 
   1  -1  -9  528.67   27.16 
   1  -1  -9  504.14   15.36 
   3   3   8 1647.80   53.47 
  -5   0   3  203.74   16.54 
  -3  -3  -8 1668.56   54.19 
  -5   0   3  210.24   21.51 
  -3  -3  -8 1604.40   53.97 
  -1   2   9  251.32   26.75 
   1  -2  -9  261.00   12.57 
   2   1   9  286.34   24.35 
  -2  -1  -9  286.74   21.86 
   2   1   9  280.44   17.52 
  -3   3  -4  501.84   25.87 
  -3   3  -4  556.44   26.35 
   0   3  -6    3.61    3.36 
   0   3  -6    0.36    2.86 
   0  -3   6    4.02    3.17 
   1   4  -4 1333.44   37.83 
   1   4  -4 1162.37   32.33 
   1   4  -4 1304.99   46.73 
  -1  -4   4 1260.28   41.29 
  -3  -4  -7 1505.50   51.90 
  -3  -4  -7 1411.31   48.71 
  -3  -4  -7 1441.99   43.31 
   3   4   7 1559.31   47.45 
   0   0   9  548.63   34.04 
   0   0  -9  555.93   35.65 
  -2   4  -3  101.89   21.43 
  -2   4  -3  103.55   21.34 
   2  -4   3  107.53   22.46 
  -2  -4  -8 1009.49   37.38 
   2   4   8 1026.26   47.20 
  -3   4  -1 1147.87   43.35 
  -3   4  -1 1190.07   41.53 
   1   0   9    9.72    5.61 
  -1   0  -9   14.42    9.11 
  -5   1  -3  222.49   18.38 
  -5   1  -3  189.06   14.57 
   3   5   3  187.77   14.83 
  -3  -5  -3  201.63   24.28 
  -3  -5  -3  224.47   12.58 
   3   5   3  238.11   21.91 
  -2  -5  -6  198.76   14.84 
  -3  -5  -3  225.47   18.28 
   2   5   6  211.25   15.34 
  -2  -5  -6  182.96   24.39 
  -5  -1  -5   68.54    9.16 
  -5  -1  -5   86.99   29.56 
  -5  -3  -2  198.38   32.23 
  -5  -3  -2  193.33   28.03 
  -5  -1  -5   49.97   12.37 
   4   4   0  204.97   12.03 
   4   4   5  168.40   18.79 
  -4  -4  -5  170.35   18.70 
  -4  -4   0  220.29   25.17 
   4   4   0  202.11   11.98 
   4   4   0  219.72   14.10 
  -4  -4  -5  177.82   23.27 
  -4  -4  -5  173.17   24.02 
  -4  -4   0  220.14   17.40 
   3   5   2  325.26   18.55 
  -3  -5  -2  299.52   14.70 
   3   5   2  281.99   16.06 
  -3  -5  -2  270.90   16.28 
  -3  -5  -2  313.09   21.97 
  -3   0  -8  497.14   27.68 
   3   0   8  433.74   20.51 
  -5   1   3  201.72   17.65 
  -3   0  -8  468.00   26.01 
  -5   1   3  193.67   20.72 
   1  -4   4  482.46   18.30 
  -1   4  -4  453.19   17.47 
  -1   4  -4  464.52   30.93 
  -5  -3  -3  122.22   18.40 
  -5  -3  -3  122.44   17.75 
  -3   2  -6    2.14    4.77 
  -3   2  -6    0.56    6.79 
   3   5   4   73.81   22.38 
  -3  -5  -4  118.52   24.45 
  -3  -5  -4  108.40   14.36 
   3   5   4  121.89   17.15 
  -3  -5  -4   99.63   16.23 
   2  -1   8 1170.92   38.69 
  -2   1  -8 1309.39   59.09 
  -2   1  -8 1334.89   46.62 
   1   3  -6 1825.74   58.81 
   1   3  -6 1925.12   62.76 
  -4   3   4  180.91   20.94 
  -4   3   4  190.26   22.20 
  -1   3  -6  120.43   19.35 
   1  -3   6  118.48   16.37 
  -1   3  -6  137.26   30.46 
  -5  -2  -5  268.49   21.27 
  -5  -2  -5  268.94   10.46 
  -5  -2  -5  269.02    9.77 
  -5  -3  -1  121.38   16.69 
  -5  -3  -1  141.24   42.12 
  -2  -3  -9  155.04   23.70 
  -2  -3  -9  143.29   20.79 
   2   3   9  156.80   30.38 
  -2   3   8   25.77   13.17 
  -2   5   2  188.43   24.05 
   2  -5  -2  149.88   21.60 
  -5  -1   3  113.64   17.94 
  -5  -1   3  103.28   22.23 
  -4   3  -2   47.66    9.51 
  -4   3  -2   54.04   10.37 
  -4   1   6  720.00   37.49 
  -2   5   3  104.60   18.15 
   1  -5   1  212.20   10.85 
  -1   5  -1  218.10   18.97 
  -1   5  -1  215.74   12.18 
  -2   2  -7   44.08   11.97 
  -5   2   0    1.23    5.85 
  -2   2  -7   62.07   25.94 
  -5   2   0    3.00    6.40 
  -5   2   1  183.68   19.26 
  -5   2   1  181.62   15.83 
  -4   1  -6   14.14    5.63 
  -4   1  -6    8.90    4.75 
   4   3  -3  247.97   34.95 
  -4  -3   3  223.22   14.89 
  -4  -3   3  204.79   17.42 
  -4  -3  -7 2172.97   68.24 
  -4  -3  -7 2223.15   28.90 
  -4  -3  -7 2214.33   52.40 
  -5  -2   2  106.00   16.20 
   5   2  -2  108.84   13.75 
  -5  -2   2  113.82   14.25 
  -1   4   8  305.65   21.20 
  -4   0   6  189.51   26.01 
  -1  -5  -7  177.55   26.15 
   1   5   7  173.89   29.32 
  -1  -5  -7  164.09   28.54 
  -2   5   1  131.28   21.57 
   3   5   1  259.32   15.06 
   3   5   1  240.62   10.95 
  -3  -5  -1  254.19   18.69 
  -3  -5  -1  210.33   22.48 
   2  -5  -1   92.47   19.73 
  -2   5   1  109.74   16.80 
  -1   5   6  429.03   41.98 
  -3   4   5    6.85    5.47 
  -3  -2   6  311.71   20.16 
   3   2  -6  290.81   13.41 
  -2  -5   1   92.50   14.88 
   2   5  -1  106.57   29.35 
  -2   4   7  281.61   20.96 
  -5  -3  -4    6.81    5.14 
  -4   0  -7    7.06    7.11 
  -4   0  -7    2.91    3.22 
  -5  -3  -4    2.40    2.86 
  -1   0   9   74.41   17.61 
   1   0  -9   78.16   14.01 
  -3  -5  -5   44.42   12.35 
  -3  -5  -5   46.81   16.62 
  -3  -5  -5   55.01   15.62 
  -5   2  -1    4.85    6.91 
   3   5   5   52.67   18.55 
  -5   2  -1    1.98    7.76 
  -1   3   9    8.52    6.02 
  -2   5   4   36.23   23.35 
   5   3   0  134.95   15.32 
   5   3   0  131.49   18.77 
  -5  -3   0  134.55   19.49 
  -5  -3   0  126.73   17.70 
  -5   2   2   17.37   12.31 
   0   5   7  219.15   26.29 
   0  -5  -7  215.03   16.34 
  -5   2   2   14.68    9.84 
   0  -5  -7  216.77   16.47 
   5   0   5    2.02    2.78 
  -5   0  -5    1.50    9.03 
  -5   0  -5    1.25    5.63 
   3   1  -7  819.70   28.63 
  -3  -1   7  813.45   43.94 
   2   2  -7  329.64   39.70 
   0   5  -2   19.16    7.49 
   2   0   9  181.49   14.57 
  -2   0  -9  197.75   22.19 
  -2   0  -9  204.50   17.15 
  -2  -4   4  458.41   28.12 
  -3   4  -2 1384.08   46.37 
  -3   4  -2 1307.90   47.53 
   2   4  -4  495.09   17.50 
   2   4  -4  495.32   26.33 
   2   4  -4  474.10   16.46 
  -3   3   7  243.83   38.08 
   1   5  -2  188.31   41.14 
  -1  -5   2  168.53   22.73 
  -4  -4  -6  472.05   15.78 
   4   4  -1  588.01   24.30 
  -4  -4   1  594.74   24.17 
  -4  -4  -6  478.64   25.31 
   4   4  -1  488.74   19.28 
   4   4  -1  496.31   21.67 
  -4  -4   1  556.20   27.17 
  -4  -4  -6  478.08   26.46 
   4   4   6  489.65   18.33 
  -5   1  -4  253.76   15.17 
  -5   1  -4  234.17   19.06 
  -5   0   4  344.29   20.01 
  -5   0   4  335.62   22.43 
  -3  -4   3  163.13   21.10 
   3   4  -3  159.77   18.18 
  -4   2   6  254.82   33.42 
   3   4  -3  174.70   22.60 
  -2  -1   8   11.80    8.82 
  -2   5   0   49.75   10.40 
  -2   5   0   54.85   12.25 
   2  -5   0   40.66    8.67 
  -2  -5  -7  330.61   19.91 
  -2  -5  -7  326.92   24.11 
   2   5   7  352.12   27.54 
  -4   2  -5  251.96   23.32 
  -4   2  -5  242.63   17.98 
   3   2   9   37.19   18.53 
  -3  -2  -9   47.39   18.84 
  -3  -2  -9   36.59   17.09 
  -5   1   4   48.75   18.28 
  -5   1   4   63.72   20.68 
   1   4   9  661.50   41.69 
  -1  -4  -9  651.66   27.51 
  -5   2  -2  133.26   19.30 
  -5   2  -2  140.00   25.07 
   3   3  -5  199.13   17.30 
   3   3  -5  168.70   21.66 
   3   3  -5  161.97   19.17 
  -3  -3   5  174.50   25.49 
   3   5   0  251.16   16.60 
  -3  -5   0  263.92   10.97 
   3   5   0  254.59   12.30 
  -3  -5   0  253.16   18.17 
  -4   3   5  509.06   29.04 
  -3   1   8    7.94    6.89 
  -5  -3  -5  281.02   19.93 
  -5  -3  -5  292.46   36.85 
   1   2  10   23.06   10.82 
  -1  -2 -10   31.11   10.54 
  -1  -2 -10   21.70    8.79 
  -5   2   3 1017.43   42.07 
  -5   2   3  983.13   40.76 
  -2   1   9  369.92   27.93 
  -4   3  -3   57.39   25.35 
  -4   3  -3   43.92    9.05 
  -2   5   5  391.72   29.58 
  -5  -1  -6   69.32   14.82 
  -4  -2   5  191.72   18.73 
  -5  -1  -6  105.17   17.50 
  -5  -1  -6   90.34   13.32 
  -3  -4  -8  108.69   25.09 
  -3  -4  -8  147.32   40.07 
  -5  -2  -6  310.22   13.93 
  -3  -4  -8  117.33   26.64 
  -5  -2  -6  323.25   22.34 
  -5  -2  -6  312.81   12.29 
   3   4   8  130.40   18.57 
  -4  -2  -8  129.81   18.19 
  -4  -2  -8  179.40   15.30 
  -2  -3   6  401.15   17.90 
   2   3  -6  372.36   23.11 
   2   3  -6  436.63   20.23 
  -4  -2  -8  163.83   20.22 
   2   3  -6  421.34   24.82 
  -3  -1  -9    3.42    7.20 
  -3  -1  -9    1.12    2.80 
   0   4   9  327.39   28.81 
   0  -4  -9  354.78   19.43 
   0  -4  -9  360.84   31.32 
   0   2  10   27.26   10.23 
   3   5   6  174.78   23.46 
  -3  -5  -6  149.96   17.67 
   0  -2 -10   32.38   13.37 
  -3  -5  -6  178.82   14.44 
   0  -2 -10   29.80    9.76 
  -3  -5  -6  191.47   34.78 
  -2   3  -6  732.87   38.32 
  -2   3  -6  664.34   26.49 
  -2   2   9  174.83   24.98 
  -3   3  -5  391.45   36.35 
  -3   3  -5  378.43   20.46 
   5   3  -1  423.47   16.96 
  -5  -3   1  416.65   48.15 
  -5  -3   1  448.50   38.00 
   5   3  -1  428.46   16.28 
  -2   4  -4  125.14   22.19 
   0   2  -8  156.86   24.11 
   0   2  -8  148.90   24.34 
   2  -4   4  122.41   20.90 
  -2   4  -4  128.30   24.12 
  -1   5  -2    2.02    5.19 
  -1   5  -2    1.20    2.02 
   1  -5   2    1.02    1.20 
  -4  -1   6 2541.11   46.68 
   0   4  -5  378.93   24.04 
   0  -4   5  364.14   18.69 
   0   4  -5  349.71   14.14 
  -3   2   8  235.82   24.33 
  -4  -1  -8  481.58   44.77 
  -4  -1  -8  466.49   23.26 
  -1  -1 -10   29.46    7.83 
   1   1  10   32.53   11.72 
   0  -1 -10  603.31   29.77 
   0   1  10  611.57   39.21 
  -5  -1   4  725.29   29.48 
  -5  -1   4  796.00   37.43 
   0   1  -9   30.74   13.89 
   0   1  -9   28.87    7.49 
  -5  -2   3  269.64   43.03 
  -5  -2   3  266.69   21.82 
  -3   4   6    3.78    5.99 
  -3  -3  -9   10.14    6.21 
  -3  -3  -9    3.68    7.93 
   3   3   9    7.97    4.75 
  -1   5   7  194.52   34.43 
  -1   2  -8    2.21    4.90 
  -1   2  -8    6.72    6.91 
  -2  -4  -9    6.42    7.04 
   2   4   9    0.90    8.31 
  -2  -4  -9    3.44    9.90 
  -1  -4   5 1666.64   35.67 
   1   4  -5 1657.59   38.57 
   1   4  -5 1580.54   35.75 
   1   4  -5 1673.94   40.60 
   3   0  -8   85.98   16.70 
  -3   0   8  118.35   42.03 
  -1   1  -9  209.92   22.90 
  -2  -5   2  157.27   15.15 
   2   5  -2  177.97   26.36 
  -1   1  -9  207.19   16.93 
   2  -5   1  258.68   16.61 
  -2   5  -1  272.90   25.63 
  -2   5  -1  293.82   24.86 
  -1  -3 -10  558.49   27.52 
  -1  -3 -10  541.51   20.66 
   1   3  10  514.58   33.27 
   1   5   8   96.30   18.22 
  -1  -5  -8   87.85   11.26 
  -1  -5  -8  106.24   13.92 
  -1  -6  -3  519.93   27.72 
  -1  -6  -3  391.97   13.94 
  -1  -6  -3  465.72   16.27 
   1   6   3  451.67   24.22 
  -3   1  -8  130.58   36.62 
  -3   1  -8  125.85   28.96 
   1   2  -8   87.25   30.25 
   1   2  -8   73.69   19.26 
  -1   4  -5  311.64   13.64 
   2   2  10  342.02   14.26 
  -1   4  -5  321.20   21.97 
  -2  -2 -10  388.70   23.34 
  -2  -2 -10  398.88   16.91 
   2   2  10  394.42   26.07 
   1  -4   5  298.79   15.06 
   4   3  -4  142.26   25.46 
  -4  -3   4  122.44   17.31 
   1   6   4  188.93   16.43 
  -4  -3  -8   23.61    9.73 
  -4  -3  -8   24.61   14.85 
  -1  -6  -4  186.41   17.89 
  -4  -3  -8   25.96    5.36 
  -1  -6  -4  173.66    9.84 
  -5   2  -3    9.49    5.36 
  -5   2  -3   12.00    8.27 
  -4   4   2  658.76   31.02 
  -4   4   2  591.25   27.39 
   0  -3 -10  228.25   13.50 
   0   3  10  237.20   31.32 
   0  -3 -10  218.09   32.61 
  -4   4   1 1610.62   51.41 
  -4   4   1 1565.68   48.10 
  -6  -1  -1 1177.10   32.60 
  -6  -1  -1 1301.91   44.77 
   6   1   1 1317.17   33.20 
  -2   0   9  438.12   24.70 
   0  -6  -3  336.67   24.23 
   0  -6  -3  273.67   12.54 
   0   6   3  365.94   26.98 
   0  -6  -3  319.15   13.33 
  -3   4  -3   14.65    5.27 
  -3   4  -3   22.07   10.11 
   4   4  -2  565.20   19.20 
   4   4  -2  700.52   23.99 
  -4  -4  -7    6.17    4.57 
  -4  -4   2  680.90   26.06 
  -4  -4  -7   16.65   12.86 
   4   4   7    8.53    3.33 
  -4  -4   2  675.47   29.10 
  -4  -4  -7   12.85    7.21 
  -1  -6  -2   24.63    4.84 
  -1  -6  -2   44.39   12.52 
  -1  -6  -2   32.48    4.36 
   1   6   2   23.22   14.18 
   6   1   2  433.99   16.96 
   0  -5  -8   97.89   12.79 
  -6  -1  -2  453.87   15.82 
   0   3  -7  164.55   11.61 
   0  -3   7  162.84    8.47 
   0   5   8  114.81   34.83 
   0   3  -7  168.56   14.71 
  -5   0  -6    5.06    3.74 
   0  -5  -8  113.80   39.85 
  -5   0  -6    6.53    7.66 
  -6  -1  -2  435.47   24.65 
  -4   1   7    3.81    3.76 
   3   5  -1   84.61   18.61 
  -3  -5   1   98.78   32.32 
   3   5  -1   78.36    8.83 
   0  -6  -4   31.95   13.42 
  -5   2   4  318.98   21.45 
  -5   2   4  315.47   21.33 
   0   6   4   94.32   14.41 
  -2   4   8 1831.68   43.70 
   0  -6  -4   54.76   27.94 
   0   6   2 1067.90   43.33 
   0  -6  -2 1126.17   44.10 
   0  -6  -2 1079.62   27.44 
  -5   1  -5   20.57    9.95 
  -5  -3  -6 1084.82   37.45 
  -3   2  -7  668.77   27.48 
  -5   1  -5   24.54   14.22 
  -3   2  -7  648.49   33.18 
  -1  -1   9  877.58   45.30 
   0   5  -3   42.90   17.22 
   1   1  -9  904.46   34.64 
  -2   5   6  447.43   45.13 
   0  -5   3   50.54   21.95 
  -6  -1   0   31.12    8.87 
  -6  -1   0   22.09   10.29 
   6   1   0   11.84    9.87 
  -4  -5  -3   54.23   15.90 
   4   5   3   63.19    6.87 
   6   0   0 1194.00   31.65 
  -6   0   0 1448.53   51.16 
  -4  -5  -3   58.28    7.57 
   1  -2 -10   71.62    6.04 
  -4  -5  -3   72.43   22.56 
  -1   2  10   91.06   35.67 
   1  -2 -10   81.07   22.16 
  -6   0   0 1503.31   48.71 
  -4   1  -7   55.06   24.31 
  -4   1  -7   41.90   10.49 
  -4   4   3  269.68   72.64 
  -4   4   3  320.92   24.96 
   2   1  10   73.86   11.46 
  -5  -4  -3   19.09    7.80 
   2   1  10   92.20   37.81 
  -2  -1 -10   85.85   14.31 
  -5  -4  -3   16.10    7.22 
  -2   3   9  540.41   58.30 
  -4   4   0   87.44   30.40 
  -5  -4  -2   17.48    9.45 
  -5  -4  -2   23.45    9.28 
  -4   4   0   76.96   29.55 
  -1   4   9  822.75   44.34 
  -1  -5   3  630.32   29.75 
   1   5  -3  620.12   38.32 
   1  -1 -10  463.71   28.41 
  -1   1  10  439.26   44.92 
   1   6   5   78.31   30.23 
  -1  -6  -5   53.48   11.94 
  -1  -6  -5   49.84    8.79 
  -4  -5  -4    4.78    8.17 
  -4  -5  -4    6.18    7.70 
  -4  -5  -2  101.07   41.59 
   4   5   4    3.69    2.86 
  -4  -5  -4    3.20    2.36 
   4   5   2   54.98   18.97 
  -4  -5  -2   74.08   19.18 
  -6   0  -2 1256.21   44.24 
  -5   0   5   30.79   12.07 
   6   0   2 1058.26   28.33 
  -3  -5  -7  319.32   20.72 
  -3  -5  -7  313.05   16.57 
  -3  -5  -7  350.39   21.96 
   3   5   7  368.58   38.09 
  -5   0   5   31.04   15.71 
  -6   0  -2 1167.28   42.18 
  -2  -5  -8  678.48   29.52 
   2   5   8  643.87   27.67 
  -2  -5  -8  653.22   30.63 
  -3   0  -9  131.54   16.51 
  -4   0   7 1623.14   51.87 
  -3   0  -9  116.88   28.29 
   3   0   9  119.76   20.56 
  -5   1   5 1000.37   41.16 
  -5   1   5 1018.33   40.08 
   2   3  10  257.32   23.88 
  -2  -3 -10  263.79   19.94 
  -2  -3 -10  278.99   15.93 
  -5  -3   2  594.94   26.48 
   5   3  -2  552.03   19.11 
   5   3  -2  625.03   20.65 
  -4   3   6  365.96   21.87 
  -6  -1  -3  290.37   13.86 
  -1   3  -7  280.61   25.50 
   6   1   3  266.26   11.10 
  -6  -1  -3  295.24   23.50 
  -1   3  -7  263.34   14.83 
  -1  -3   7    1.63    2.52 
   1   3  -7    1.72    2.98 
   1   3  -7    2.64    7.03 
   2   6   3  134.39   18.10 
  -2  -6  -3  118.80   44.61 
  -2  -6  -3  104.80   13.02 
  -5  -4  -4 1275.22   41.53 
  -4   0  -8  137.32   34.44 
  -4   0  -8  141.11   22.36 
   1   6   1 1083.44   41.52 
  -1  -6  -1 1166.49   51.73 
  -6   0   1   95.26   13.93 
   0  -6  -5   57.37   21.39 
  -4   3  -4  370.87   37.06 
   0  -6  -5   44.58   11.22 
  -6   0   1   82.85   28.45 
   0   6   5   55.72   11.60 
  -4   3  -4  391.36   26.93 
  -2  -6  -4   12.46   10.16 
   2   6   4   21.16    9.67 
   0   0 -10  170.18   43.48 
  -2  -6  -4   18.88    7.29 
   0   0  10  154.40   50.06 
  -3   5   2  338.28   43.50 
   0  -6  -1    4.96    0.79 
  -3   5   2  413.27   48.08 
   0   6   1   32.32   17.00 
   0  -6  -1   42.76   14.12 
   3   4  -4   43.47    8.18 
  -1   0 -10  133.69   17.52 
  -3  -4   4   54.74   15.34 
   3   4  -4   58.79   20.26 
  -5  -4  -1    3.16    4.93 
   5   4   1    3.28    1.74 
  -6  -2  -2    1.82    4.48 
  -5  -4  -1    4.40    6.11 
   5   4   1    1.78    1.32 
  -4   2   7   84.94   12.86 
  -2   1  -9  302.29   19.90 
  -3   3   8  622.23   39.35 
   2  -1   9  261.32   11.12 
  -2   1  -9  295.91   22.42 
  -5   3   1  287.89   32.34 
  -5   3   1  311.35   22.52 
  -6  -2  -1    9.60    5.44 
  -6  -2  -1    7.66    4.42 
  -6  -1   1  548.94   34.52 
   6   1  -1  517.49   19.33 
  -3   5   3  684.86   32.72 
  -6  -1   1  526.90   31.35 
  -5  -2  -7   50.93   14.14 
  -2   2  -8  902.58   38.01 
  -5  -2  -7   34.19   15.13 
  -2   2  -8  904.75   36.87 
  -5  -2  -7   45.13    8.06 
  -2  -6  -2  558.75   28.66 
   2   6   2  654.91   25.60 
  -2  -6  -2  585.56   14.82 
   3   2  -7   65.72   19.92 
  -3  -2   7   82.62   32.36 
   2   4  -5  956.64   47.67 
   2   4  -5  931.75   25.27 
  -2  -4   5  918.32   29.81 
   2   4  -5  959.53   26.62 
  -4   2  -6  876.10   39.11 
  -4   2  -6  907.25   35.13 
  -5   3   0  228.52   21.17 
  -4  -5  -5  207.31   14.89 
   4   5   5  247.45   11.87 
  -5   3   0  224.68   18.32 
  -4  -5  -5  206.47   12.95 
  -4  -5  -5  219.40   19.92 
   4   5   1  101.47    8.48 
  -4  -5  -1  124.95   15.09 
   4   5   1  106.32   19.69 
  -4  -5  -1  131.69   18.44 
   4   5   1  138.86    9.00 
  -3   5   1  270.68   38.20 
  -3   5   1  281.90   36.47 
  -4   4   4  212.39   39.35 
  -4   4   4  250.53   19.43 
  -5  -1  -7  504.81   26.79 
  -5  -1  -7  474.75   30.35 
  -5   3   2  375.23   34.41 
  -1   5  -3  337.55   12.16 
  -1   5  -3  320.15   24.89 
  -5   3   2  360.84   43.52 
   1  -5   3  317.95   15.78 
  -6  -2  -3   65.77    9.92 
  -2   5  -2   16.33    4.92 
   2  -5   2   12.93    4.68 
  -2   5  -2   21.21   12.80 
  -4   4  -1  551.29   25.81 
  -4   4  -1  531.88   47.57 
  -6   0  -3   13.61    6.47 
   6   0   3   10.79    5.71 
  -6   0  -3   19.70    9.43 
   2   6   5  356.68   19.80 
  -2  -6  -5  337.30   16.97 
  -2  -6  -5  374.50   46.42 
   1  -3 -10    6.24    3.09 
   1  -6  -3  532.41   19.59 
   1  -3 -10   -0.18    7.37 
  -1   3  10    9.86    6.85 
  -1   6   3  637.54   60.71 
  -3   4   7 1297.49   53.68 
   1   6   6  409.01   23.06 
  -1  -6  -6  409.97   21.17 
  -1  -6  -6  446.72   28.29 
  -6  -2   0  315.55   11.52 
  -6  -2   0  314.51   20.37 
   6   2   0  310.73   11.32 
  -5  -2   4   58.84   19.36 
  -5  -2   4   53.44   25.34 
   1  -6  -2   20.17   12.44 
  -3  -4  -9 1429.08   45.89 
  -1   6   2   51.77   23.22 
   3   4   9 1462.03   41.27 
  -3  -4  -9 1476.19   50.05 
  -5  -4  -5  159.00   25.67 
  -5  -4  -5  158.02   20.72 
  -6   1   0  328.37   24.28 
  -6   1   0  300.21   30.59 
  -3   5   4   40.36   26.70 
  -3  -1   8   41.49   24.97 
  -6  -1  -4   21.27    6.31 
  -6  -1  -4   14.01    5.44 
  -1   5   8   25.67   11.66 
  -1   6   4  720.59   50.86 
   6   1   4   10.10    5.08 
  -5   2  -4  822.27   35.10 
  -5   2  -4  876.13   34.72 
  -6   1  -1  902.16   60.65 
  -6   1  -1  960.25   47.69 
  -5  -1   5  316.10   42.66 
  -5  -1   5  345.58   24.79 
  -6   0   2    0.47    4.40 
  -5   3  -1    0.66    6.66 
  -5   3  -1    2.39    6.38 
  -2   4  -5    2.94    1.91 
  -2   4  -5    6.05    6.83 
   2  -4   5    2.97    3.63 
   2   2  -8  202.95   18.54 
   2   2  -8  209.66   18.28 
  -5  -4   0  512.78   23.04 
   5   4   0  482.01   15.26 
   5   4   0  501.89   14.73 
   1   4  10   94.42   11.58 
  -1  -4 -10   97.73   13.33 
  -1  -4 -10   91.84   15.94 
  -5  -4   0  509.85   45.06 
   2   5  -3   87.37   14.02 
  -2  -6  -1  193.54   20.12 
   2   6   1  184.56   13.82 
  -2  -5   3   84.07   12.11 
   3   3  -6  589.91   30.77 
   3   3  -6  505.48   17.49 
  -3  -3   6  550.09   20.53 
  -6   1   1  274.76   18.62 
  -6   1   1  266.85   31.54 
   0  -6  -6   24.89    9.67 
   0  -6  -6   34.83   22.72 
   0   6   6   22.67   10.92 
  -5   3   3  114.43   21.80 
  -4  -2   6   51.11   28.28 
  -5   3   3  108.18   21.95 
  -3   5   0 1505.66   58.91 
  -3   5   0 1708.47   60.15 
  -1  -6   0   48.86   24.31 
   1   0 -10  269.27   22.01 
  -1   0  10  267.63   20.56 
   1   6   0   45.86    9.53 
  -3   3  -6  715.10   31.01 
  -3   3  -6  687.87   33.27 
  -5   2   5 1561.17   66.32 
  -5   2   5 1545.52   62.07 
  -4  -2  -9  443.67   23.51 
  -4  -2  -9  475.39   34.15 
   0   6   0 1510.54   58.44 
  -6  -2  -4   43.16   23.12 
   3   5  -2  174.32    8.22 
  -3  -5   2  197.78   16.89 
   3   5  -2  200.98   23.37 
   3   2  10   65.60   29.01 
  -3  -2 -10   58.23   11.80 
  -2   5   7  550.20   46.56 
  -5  -3  -7  162.98   21.92 
  -5  -3  -7  147.14    8.34 
  -5  -3  -7  154.36   27.41 
  -5  -3  -7  147.92    8.29 
  -2   0 -10   20.07    7.31 
   2   0  10   19.85    6.86 
  -2   0 -10   26.03   14.50 
   4   4   8 3250.52   38.22 
  -1   6   1  841.49   47.09 
   1  -6  -1  715.16   24.85 
  -4  -4  -8 3135.38   35.42 
  -4  -4  -8 3430.56   56.16 
   0  -4 -10   19.49   13.53 
   4   4  -3    8.84    5.47 
   0   4  10   23.86   14.60 
  -4  -4   3   15.80    6.36 
   4   4  -3   14.56    8.15 
   0  -4 -10   22.27    7.02 
  -6  -1   2 1533.48   56.83 
  -6  -1   2 1562.40   72.27 
   6   1  -2 1293.89   43.48 
  -4  -5  -6   20.73   13.96 
   4   5   6   17.87    7.87 
  -4  -5  -6   18.70    9.33 
  -4  -5  -6   15.94    5.98 
  -3   4  -4  144.58   15.85 
  -3   4  -4  144.90   22.34 
  -4  -5   0  199.43   12.83 
   4   5   0  133.97   11.35 
   4   5   0  170.41   10.84 
  -6   1  -2  323.14   21.15 
  -4  -5   0  197.31   24.70 
   4   5   0  150.47    9.88 
  -6   1  -2  332.73   24.20 
  -1  -5  -9   85.04   25.75 
   1   5   9   81.92   31.04 
  -1  -5  -9   86.49   14.30 
  -2  -6  -6  489.04   26.64 
   2   6   6  481.87   33.21 
  -2  -6  -6  432.77   28.06 
  -4  -1   7    8.86    6.82 
   4   1  -7   12.02    4.82 
  -2   3  -7 1218.66   53.69 
  -3   1   9  537.68   39.47 
  -2   3  -7 1189.49   44.44 
   0   4  -6 1454.14   47.66 
  -2  -1   9  290.97   40.24 
   0   4  -6 1603.22   65.74 
   0  -4   6 1489.10   51.15 
  -4  -1  -9   26.81   11.23 
  -4  -1  -9   17.25    8.26 
  -4   4   5   42.90   23.49 
  -6  -2   1   81.24   18.58 
  -6  -2   1   84.86   33.75 
   6   2  -1   71.75    8.09 
   2   3  -7 1079.60   42.22 
  -6   0  -4   15.20    8.23 
  -6   0  -4   15.84    8.77 
  -2  -3   7 1006.94   34.44 
   2   3  -7 1058.50   54.08 
  -3  -5  -8 1477.69   58.37 
   3   5   8 1502.33   52.06 
  -3  -5  -8 1267.47   50.16 
  -5   1  -6  140.24   22.68 
  -5   1  -6  117.83   14.78 
  -3   5   5  613.88   34.26 
  -6   1   2   70.43   26.06 
  -3   2   9  607.39   41.25 
  -6   1   2   74.28   21.31 
  -4   4  -2   20.57    6.92 
  -4   4  -2   24.84    9.96 
  -5  -3   3    3.08    3.78 
   5   3  -3    2.40    5.40 
  -5   0  -7  378.84   25.60 
  -2  -4 -10  551.69   34.12 
   2   4  10  512.38   31.12 
  -5   0  -7  365.22   22.15 
  -2  -4 -10  528.87   26.25 
  -3  -1 -10   63.38   12.10 
   0  -5  -9    7.86    5.79 
   0  -5  -9   10.54   11.42 
  -3  -1 -10   58.26   10.72 
   0   5   9    4.79    3.19 
   4   3  -5   53.35   16.21 
   3   3  10  975.49   45.19 
  -3  -3 -10  589.85   31.10 
  -3  -3 -10 1006.63   39.97 
  -4  -3  -9 1897.40   63.71 
  -4  -3  -9 1856.90   67.06 
  -2   2  10   47.43   20.12 
  -5   3  -2  853.51   51.51 
  -5   3  -2  957.57   57.90 
  -5  -4  -6   47.21   15.94 
  -5  -4  -6   44.29   10.41 
   1   4  -6  744.93   26.83 
  -1  -4   6  762.06   31.01 
   1   4  -6  786.59   47.62 
   1   4  -6  678.86   25.63 
  -2   1  10    2.63    3.61 
   0   5  -4  371.03   32.66 
  -3  -6  -3    2.62    4.82 
  -3  -6  -3    6.49    6.77 
   3   6   3    3.70    7.19 
   0  -5   4  362.11   29.60 
   1   2  11  296.06   25.85 
  -1  -2 -11  298.74   25.13 
  -1  -2 -11  323.26   15.83 
  -3  -6  -4  123.72   10.95 
  -3  -6  -4  120.13   22.38 
   3   6   4  136.67   15.33 
   1   6   7   64.01   12.06 
  -1  -6  -7   60.20   10.70 
  -1  -6  -7   59.14   13.47 
  -6  -3  -2  361.82   22.96 
  -4   3   7   43.99   19.73 
  -5   3   4 1425.05   56.75 
  -5   3   4 1460.50   60.65 
  -2  -5  -9  931.38   43.07 
  -2  -5  -9  954.23   43.28 
   2   5   9  972.29   44.54 
  -5   1   6   89.12   32.38 
   2   6   0  725.74   41.45 
  -2  -6   0  763.37   37.02 
  -6  -1  -5   53.44   10.89 
  -6  -1  -5   59.02   15.71 
  -6  -1  -5   27.99   15.67 
  -3   5  -1   10.81    7.22 
  -3   5  -1   11.67    7.28 
   0  -2 -11   33.45    9.70 
   0   2  11   45.85   15.77 
   0  -2 -11   44.99   26.31 
  -1   4  -6   46.23   10.10 
  -2   4   9  179.26   20.05 
  -1   4  -6   50.40   19.64 
  -6  -3  -3    2.53    7.80 
   1   5  -4  116.87   41.10 
  -1  -5   4  110.01   41.31 
  -6   0   3  144.71   39.72 
  -5   0   6  151.02   46.13 
  -6   0   3  142.66   15.22 
   5   4  -1  196.71   10.79 
  -5  -4   1  261.94   17.93 
   5   4  -1  233.31   14.73 
  -5  -4   1  226.60   37.62 
   0   2  -9  178.09   18.15 
   0   2  -9  175.47   20.99 
  -6  -2  -5   58.71    6.71 
  -6  -2  -5   70.60   11.89 
  -6  -2  -5   61.42    5.45 
  -4   3  -5  890.61   40.32 
  -1   6   0    5.79    6.28 
   1  -6   0    2.36    1.88 
  -4   3  -5  935.73   46.61 
   3   6   2  131.82   24.48 
  -3  -6  -2  137.48   30.61 
  -3  -6  -2  134.96    8.35 
  -6   1  -3  500.02   29.51 
  -6   1  -3  488.14   30.14 
  -6  -3  -1  263.05   19.51 
  -2   5  -3   24.80    9.43 
   2  -5   3   19.04    4.88 
  -2   5  -3   29.20   14.66 
  -4   1   8  270.17   19.44 
   3   0  -9   90.50   17.06 
   0  -6  -7  251.65   36.30 
   0   6   7  243.17   22.40 
  -3   0   9  123.02   41.11 
   0  -6  -7  222.17   28.05 
  -3  -6  -5    6.65    5.47 
   3   6   5    3.49    4.39 
  -3  -6  -5    4.87    9.57 
  -1   6   6   99.95   19.39 
  -1  -1 -11   16.73    8.73 
   1   1  11   10.66    5.73 
   0  -6   1   48.47   13.01 
   0   6  -1   45.57   16.71 
   1   6  -1 1707.80   61.78 
  -1   2  -9   67.59   22.38 
  -1   2  -9   75.51   23.87 
   1   3  11  619.30   37.72 
  -3   1  -9   80.55   35.54 
  -3   1  -9   74.21   16.50 
   1  -2   9   45.43    3.40 
  -1  -3 -11  654.37   33.47 
  -1  -3 -11  666.79   27.21 
  -4   1  -8    3.03    9.45 
  -5  -2  -8  378.20   19.37 
  -5  -2  -8  326.12   18.25 
  -4   1  -8    0.86    5.24 
   0  -1 -11  209.97   20.06 
   0   1  11  182.96   29.45 
  -5  -2  -8  398.11   27.26 
   0   1 -10  396.82   24.62 
  -6  -3  -4  729.18   36.44 
   0   1 -10  389.59   30.96 
  -1   4  10   13.99    8.76 
  -2  -6  -7  500.66   29.10 
   1  -4 -10   11.18    6.52 
   1  -4 -10   14.52    9.10 
   2   6   7  773.82   38.31 
  -2  -6  -7  730.79   34.65 
  -4  -5  -7  849.63   38.90 
   4   5   7  785.57   31.94 
  -4  -5  -7  752.44   28.36 
  -4  -5  -7  791.96   38.93 
  -3   2  -8   11.29    4.91 
   4   5  -1  168.93   10.97 
  -4  -5   1  188.60   19.31 
  -3   2  -8   12.40    8.27 
  -5   2  -5   64.81   27.30 
   4   5  -1  183.17   13.25 
  -5   2  -5   66.92   30.07 
  -4  -5   1  186.11   28.77 
   1  -5   4   15.17    6.18 
  -1   5  -4   29.15   14.20 
  -6   1   3   65.78   34.87 
  -6   1   3   72.75   28.38 
  -6  -1   3  178.42   20.59 
  -6  -1   3  184.32   39.40 
  -1   1 -10   82.50   29.05 
   0  -3 -11  440.91   19.85 
   0   3  11  417.08   25.16 
   0  -3 -11  435.72   34.65 
  -1   1 -10   68.49   13.15 
   3   4  -5   34.09    5.73 
   2   2  11   54.83   14.45 
  -3  -4   5   45.33   20.30 
  -2  -2 -11   51.38   11.02 
  -2  -2 -11   45.01    9.38 
   3   4  -5   45.75   16.51 
   6   2  -2  151.12   10.00 
  -6  -2   2  174.67   16.63 
  -6  -2   2  172.33   33.55 
  -2   6   3  647.45   48.45 
  -4   2   8    7.00    5.75 
  -3   4   8    3.02    7.29 
  -2   3  10  499.88   32.37 
  -5  -1  -8    4.65   10.68 
  -5  -1  -8    2.95    4.82 
   0   3  -8   29.20   13.61 
   0   3  -8   25.71   13.24 
   0  -3   8   17.48    8.92 
   1   2  -9   49.57   23.79 
   1   2  -9   48.94   21.98 
  -3   5   6  257.15   20.93 
   6   3   0    7.13    3.93 
  -6  -3   0   11.14    8.23 
  -4   0   8    3.89    6.91 
  -2   6   2   27.25   13.77 
   4   0  -8    1.66    2.08 
   3   6   1   13.38    5.07 
  -3  -6  -1    7.86    4.47 
  -3  -6  -1   13.26    8.62 
  -6   2   0   41.93   36.92 
  -6   2   0   38.49   20.96 
  -3   3   9  693.25   46.78 
  -5   2   6    5.54    4.18 
  -6   0  -5  128.68   12.12 
  -6   0  -5  142.92   17.41 
  -5  -2   5   16.62   11.42 
  -4   4   6    1.81    4.18 
  -2   0  10  942.83   58.47 
  -4   2  -7   13.31    9.54 
  -6   2   1   18.26   10.05 
  -4   2  -7   16.11    7.15 
  -2   6   4   92.44   29.38 
  -4   0  -9  492.83   29.69 
  -4   0  -9  511.35   30.38 
  -1   5   9   29.20   16.38 
  -3  -6  -6  539.13   67.73 
  -5   3  -3  212.38   16.56 
  -3  -6  -6  536.47   25.57 
  -5   3  -3  238.39   31.11 
   3   6   6  575.88   28.24 
  -2   5   8  250.58   23.40 
   3   5  -3   68.13    6.21 
   3   5  -3   95.38   19.78 
  -3  -5   3   91.31   12.27 
  -4   4  -3    9.01    4.44 
  -4   4  -3   10.36    6.86 
  -2  -3 -11  323.99   23.55 
  -2  -3 -11  335.32   20.49 
   2   3  11  339.37   29.36 
   1  -2 -11  110.76    7.66 
   1  -2 -11  107.00   22.39 
  -1   2  11  105.02   13.45 
  -6   2  -1  919.42   53.87 
  -6   2  -1  979.28   51.07 
  -5  -3  -8  913.43   40.20 
  -5  -3  -8  870.48   33.91 
  -5  -3  -8  920.92   33.19 
   2   4  -6  831.07   37.80 
   2   4  -6  702.03   27.31 
  -2  -4   6  802.61   30.82 
   2   4  -6  814.69   30.22 
  -5  -4  -7  288.93   10.30 
  -1   3  -8   28.08   14.30 
  -1   3  -8   34.13   17.52 
  -5  -4  -7  287.93   21.95 
  -5  -4  -7  167.90    6.74 
  -5  -4  -7  304.08   24.04 
  -5   3   5   94.47   14.20 
  -5   3   5   80.08   42.79 
   2   5  -4    3.56    4.75 
  -2  -5   4    3.17    5.36 
  -3   0 -10   80.53   12.75 
   3   0  10   62.64   15.65 
  -3   0 -10   84.77   22.41 
  -5  -1   6  235.31   22.25 
   2   1  11   30.55   10.96 
  -2  -1 -11   35.18    8.89 
   2  -6  -1    3.09    1.78 
  -2   6   1    6.36    7.02 
  -6  -3  -5  171.00   19.39 
  -1  -1  10  882.70   42.89 
  -3  -4 -10   26.05   11.53 
  -3  -4 -10   27.27    9.99 
   1   1 -10  978.18   44.12 
   3   4  10   18.55   12.64 
  -3   5  -2  284.99   22.73 
  -3   5  -2  264.01   32.87 
  -6   1  -4  291.18   24.10 
  -6   1  -4  267.48   18.23 
   1   3  -8  135.47   34.53 
  -1  -3   8   94.40    5.05 
   1   3  -8   93.82   12.56 
   2   6  -1  176.15   35.10 
  -2  -6   1  147.50   19.67 
   1  -6   1    4.94    2.60 
  -1   6  -1    3.50    4.27 
  -6   2   2  213.52   65.17 
  -6   2   2  201.48   35.31 
  -4  -4  -9   41.08   18.84 
  -4  -4  -9   49.80   19.06 
   4   4   9   35.45   18.70 
  -4  -4   4  852.59   41.73 
   4   4  -4  925.95   40.95 
   1   6   8  866.29   55.16 
  -6  -2  -6  110.14   14.17 
  -6  -2  -6  113.11    9.11 
  -1  -6  -8  876.54   44.41 
  -6  -2  -6   93.72   15.20 
  -1  -6  -8  828.30   37.07 
   1  -1 -11    8.98    6.98 
  -1   1  11    7.04    8.29 
  -5  -5  -3  574.36   27.51 
  -5  -5  -3  450.58   27.24 
  -6  -1  -6  182.19   11.25 
  -6  -1  -6  144.36   13.33 
  -6  -1  -6  176.12   20.18 
  -3   4  -5    8.12    5.59 
  -3   4  -5    2.74    4.25 
   3   2  -8    1.08    0.96 
  -3  -2   8    0.42    4.61 
  -5  -4   2  234.85   16.81 
   3   5   9   96.42   12.75 
  -2   4  -6    4.55    3.41 
  -2   4  -6    3.48    6.72 
   5   4  -2  172.04   11.31 
  -5  -4   2  231.17   17.90 
   5   4  -2  243.07   15.06 
  -3  -5  -9   87.02   16.49 
  -3  -5  -9  100.12   15.90 
  -2   6   5 1758.26   50.80 
  -1   6   7  140.24   16.97 
  -6   0   4   88.98   14.46 
  -6   0   4  100.14   48.63 
  -5  -5  -4  368.98   27.42 
  -2   2  -9   51.22   27.85 
  -2   2  -9   43.23   25.00 
   5   3  -4  136.87   13.11 
  -5  -3   4  134.12   15.52 
  -5  -5  -2   26.18   13.14 
  -5  -5  -2   31.20   17.29 
   5   5   2   17.67    6.03 
  -2   1 -10   28.46   12.50 
  -2   1 -10   15.33    7.07 
   2  -1  10   16.01    5.75 
   1   5  10  123.79   16.24 
  -6   2  -2    1.96    4.93 
  -6   2  -2    2.34    8.94 
  -1  -5 -10  123.15   27.64 
  -1  -5 -10  132.51   16.80 
  -6  -3   1   17.74    7.87 
   6   3  -1   13.14    7.74 
   6   3  -1   19.70    3.37 
  -3   3  -7  794.11   36.52 
  -3   3  -7  832.13   43.28 
   0   6   8   87.96   39.07 
   1  -3 -11  158.34   56.80 
  -1   3  11  127.58   23.52 
   0  -6  -8   99.92   29.71 
   0  -6  -8   92.49   27.00 
   1  -3 -11  129.08   10.09 
  -3  -6   0   62.62   23.52 
   3   6   0   53.86   21.81 
  -4  -2   7   35.69   14.22 
  -5   1  -7    1.34    7.37 
  -5   1  -7    3.31    5.98 
   0   0 -11    7.67    6.29 
   0   0  11    9.92    9.11 
  -6   1   4   61.58   30.14 
  -1   0 -11   11.53    6.23 
  -6   1   4   76.88   32.15 
  -1   0 -11    7.60   10.97 
  -4  -2 -10  330.45   32.12 
  -4  -2 -10  311.32   22.23 
   1   4  11  478.96   33.05 
  -1  -4 -11  458.03   34.20 
  -1  -4 -11  479.93   27.41 
   0   6  -2   50.78   26.05 
   3   3  -7   24.17    9.79 
   0  -6   2   52.32   19.93 
  -1  -6   2   35.50   11.17 
   1   6  -2   32.19   14.97 
  -2  -6  -8    6.43    6.46 
  -2  -6  -8    7.51    6.55 
   2   6   8   12.91    8.58 
  -4   5   2    5.13    5.82 
  -4   5   2    0.25    4.99 
  -2   6   0   35.82   10.06 
   2  -6   0   21.58    6.70 
  -5  -5  -5  354.08   24.71 
  -5  -5  -5  324.50   29.78 
   3   6   7   26.79   14.95 
  -3  -6  -7   24.38    9.35 
  -5   0  -8 1629.73   69.40 
  -3  -6  -7   21.75    8.49 
  -5   0  -8 1650.75   51.54 
  -6   2   3  238.70   21.87 
  -3  -1   9   21.24   10.32 
  -6   2   3  272.83   21.50 
   3   1  -9    8.52    3.92 
  -4  -5  -8  226.52   14.97 
  -4  -5  -8  282.82   21.92 
  -4  -5  -8  273.83   26.79 
   4   5   8  273.60   20.76 
   0  -5 -10    9.67    6.00 
   0   5  10   13.83    8.77 
   0  -5 -10    7.53    9.27 
  -5   4   1   71.65   12.75 
  -5   4   1   85.87   33.40 
   4   5  -2  341.69   17.98 
  -6  -2   3  436.69   27.12 
  -6  -2   3  443.90   31.99 
  -4  -5   2  391.06   42.56 
   4   5  -2  413.83   23.30 
  -5   4   2   24.32   11.76 
  -5   4   2   15.74    8.67 
  -4   3   8  221.02   47.76 
  -4   5   3   91.41   31.44 
  -4   5   3   86.14   40.37 
  -6  -1   4  381.89   23.60 
  -6  -1   4  363.58   27.17 
   5   5   1    0.81    1.76 
   0  -4 -11  201.24   15.73 
   0   4  11  196.03   18.80 
   5   5   1    4.41    2.05 
   0  -4 -11  227.63   34.02 
  -5  -5  -1    6.48    4.61 
  -5  -5  -1    5.84    9.64 
  -4   5   1   30.86   18.92 
  -2   5  -4   44.26    9.96 
  -5   1   7   53.66   19.97 
   2  -5   4   18.03    7.48 
  -4   5   1   24.72   14.73 
  -2   5  -4   22.98    5.23 
   0   5  -5  342.52   39.37 
  -3   5   7  373.64   26.55 
   0  -5   5  326.84   21.99 
   0   5  -5  264.98   11.26 
   4   3  -6  125.91   23.37 
  -2  -5 -10  315.30   32.41 
  -2  -5 -10  329.68   22.63 
   2   5  10  329.12   27.32 
  -4  -3 -10   35.37   20.50 
  -4  -3 -10   27.05   13.32 
   4   1  -8   75.99    7.01 
  -4  -1   8   94.56   38.26 
   3   2  11  128.40   38.08 
  -3  -2 -11  152.44   16.59 
   2   2  -9   63.89   20.71 
   2   2  -9   54.51   15.79 
  -6  -3  -6   64.26   36.22 
  -4   3  -6  322.88   51.19 
   0   4  -7  128.74    9.75 
  -4   3  -6  344.74   23.37 
   0   4  -7  148.78   24.93 
   0  -4   7  141.26   15.89 
  -5   4   0    8.76    8.17 
  -5   4   0    4.23    6.89 
  -2   6   6  289.08   24.70 
  -4  -6  -3   49.98   10.00 
  -4  -6  -3   80.49   14.95 
   4   6   3   64.08   11.01 
  -4  -1 -10  295.59   32.02 
  -2   3  -8  244.52   27.08 
  -4  -6  -3   66.13   15.01 
   4   6   4   82.01   14.68 
  -4  -6  -4   71.13   15.25 
  -2   3  -8  229.34   16.45 
  -4  -6  -4   71.49   15.07 
  -4  -6  -4   44.05   14.56 
  -4  -1 -10  300.71   23.14 
   2   4  11  188.24   40.95 
  -2  -4 -11  180.89   19.89 
   1   5  -5 1094.41   36.14 
  -5   3  -4   17.48    7.02 
  -2  -4 -11  189.03   21.64 
  -5   4   3  777.38   40.81 
   1   5  -5 1201.49   40.01 
  -1  -5   5 1581.62   61.13 
  -5   4   3  820.62   56.51 
   1   5  -5 1640.37   56.72 
  -5   3  -4   21.95    9.75 
  -6   0  -6  150.57   31.61 
  -6   0  -6  153.57   21.18 
  -6  -4  -3  552.52   32.03 
  -5   0   7  152.97   26.73 
  -4   4   7   25.79   12.80 
  -5   2  -6    1.34    5.05 
  -5   2  -6    1.98    6.34 
  -6  -4  -2   56.50   25.52 
  -6  -4  -2   62.47   27.97 
  -3   1  10  480.16   50.00 
  -2   4  10   97.07   28.12 
  -3   2  10  709.13   47.02 
  -3  -3 -11  365.09   21.32 
  -6   2  -3  835.16   56.25 
  -4   5   4   16.11   10.44 
  -6   2  -3  865.92   47.69 
   3   3  11  362.38   24.27 
  -3  -3 -11  365.67   30.52 
   1   0 -11  871.69   51.14 
  -1   0  11  779.36   43.98 
   2   3  -8  199.26   33.03 
   2   3  -8  176.33   20.83 
  -6   1  -5  100.68   15.53 
  -5   3   6  924.73   51.66 
  -6   1  -5   88.70   10.54 
  -4   5   0    8.40    5.95 
  -4   5   0    2.05    8.85 
  -4   4  -4   92.26   29.29 
  -6  -4  -4  187.11   44.84 
  -5  -2  -9  104.74   10.31 
  -4   4  -4   78.22   17.03 
  -6  -4  -4  190.15   21.57 
  -5  -2  -9  127.94   20.03 
   1   4  -7  544.49   23.84 
  -2   0 -11  118.10   15.24 
   1   4  -7  604.66   35.27 
  -2   0 -11  125.79   47.74 
  -4  -6  -5  114.58   25.35 
  -4  -6  -5  142.69   13.27 
   4   6   5  135.64   15.30 
  -5  -4  -8  694.62   43.55 
  -4  -6  -2  176.47   14.58 
   4   6   2  191.87   14.32 
  -4  -6  -2  176.10   17.51 
  -5  -4  -8  701.38   40.05 
  -5  -4  -8  674.09   26.13 
  -1   6  -2  110.61   19.54 
  -5  -5  -6  294.49   21.70 
  -5  -5  -6  317.97   32.00 
  -3   5  -3   13.54    6.05 
  -3   5  -3   12.26    7.75 
  -1   4  -7    8.66    6.83 
  -1   4  -7    7.14    4.96 
   2   6  -2  134.89   48.08 
  -2  -6   2  129.45   15.54 
  -5   2   7  133.30   37.63 
  -1   5  -5  334.77   27.08 
  -1   5  -5  308.51   14.82 
  -2  -1  10  293.04   26.92 
   2   1 -10  310.46   22.45 
  -3  -1 -11  171.95   42.25 
  -3  -1 -11  147.75   22.33 
   6   3  -2   -0.27    2.60 
  -6  -3   2    6.67    7.34 
  -6  -4  -1  331.71   22.79 
  -6  -4  -1  312.83   26.27 
  -6  -2  -7  465.57   37.57 
  -6  -2  -7  459.81   19.54 
  -3   4   9  355.35   38.80 
  -1   6   8  129.93   21.13 
  -5   4  -1  364.97   26.21 
  -5   4  -1  386.67   28.65 
   2  -2 -11   92.14    9.16 
  -2   2  11  112.37   43.12 
  -5  -5   0   11.43    4.74 
  -5  -5   0   12.73    8.55 
   5   5   0   11.05    6.31 
  -3  -6   1   32.51   12.71 
   3   6  -1   45.81   20.49 
  -4   1   9   50.87   28.98 
  -2   5   9  169.43   22.30 
  -2   6  -1   11.35    7.28 
  -2   6  -1   10.15    6.53 
  -6   2   4 1264.92   58.73 
  -6   2   4 1270.31   61.11 
  -5   4   4   92.41   30.95 
  -5   4   4   74.28   27.94 
   3   5  -4  181.83    9.28 
   1   6   9   13.72   10.27 
  -3  -5   4  185.81   17.21 
  -1  -6  -9   11.27   10.60 
  -1  -6  -9   14.47    8.81 
   3   5  -4  206.24   42.29 
   1   7   4   69.71   22.50 
  -5  -4   3 1360.36   66.31 
  -5  -1  -9 1314.99   59.22 
  -5  -4   3 1422.55   56.44 
  -1  -7  -4   50.90   15.88 
  -5  -1  -9 1297.04   55.94 
  -1  -7  -4   54.10   12.59 
   5   4  -3 1478.09   56.51 
  -6  -1  -7   29.76   12.70 
  -6  -1  -7   20.30   10.01 
  -5  -3  -9    1.70    4.13 
  -1  -7  -3  228.02   10.56 
  -6   0   5   13.20    7.69 
  -6   0   5   13.31    6.11 
  -1  -7  -3  271.33   27.37 
   1   7   3  243.90   28.64 
  -5  -2   6    5.40    4.70 
  -4   1  -9    2.94    4.22 
  -3  -4   6   10.54    8.43 
  -4   1  -9    4.66    9.27 
   3   4  -6   14.35    7.57 
  -2   1  11  376.11   31.11 
   1  -5 -10  104.21   17.67 
  -6  -4  -5  213.52   18.98 
   1  -5 -10  101.07   15.83 
  -1   5  10  100.26   16.72 
   1   2  12  109.32   25.73 
  -1  -2 -12  137.81   49.49 
  -1  -2 -12  112.66    7.79 
  -4   2   9  547.10   37.57 
  -3  -6  -8  428.18   26.31 
  -6   1   5   17.99    9.07 
  -3  -6  -8  396.61   26.48 
  -6   1   5   17.10   13.74 
   3   6   8  434.06   33.21 
  -7  -1  -1   67.43   15.12 
   1  -4 -11   27.09   13.44 
  -1   4  11   36.90   16.94 
   1  -4 -11   47.14   19.81 
  -7  -1  -1   60.67   28.99 
  -4  -6  -6  275.85   24.39 
   4   6   6  301.06   22.39 
  -4  -6  -6  279.26   19.28 
   4   6   1    3.33    2.49 
  -4  -6  -1    1.53    3.31 
  -4  -6  -1    5.36    5.94 
  -7  -1  -2   23.92   14.83 
  -4   5   5   23.92   12.45 
  -7  -1  -2   21.86    8.30 
   0  -7  -4   23.22   21.10 
  -1  -7  -5  264.14   22.27 
   1   7   5  301.80   25.99 
  -1  -7  -5  329.58   28.60 
   0   7   4   43.41   21.40 
   0  -7  -4   13.56   12.75 
   0  -7  -3  280.77   13.89 
   0  -7  -3  298.00   24.63 
   0   7   3  294.24   29.42 
   0  -2 -12  346.87   28.78 
   0  -2 -12  318.25   13.89 
   0   2  12  325.70   27.49 
  -3   0  10  146.88   29.86 
  -4   5  -1  712.05   42.92 
  -4   5  -1  644.80   52.21 
  -3   6   3   84.83   13.03 
  -4   2  -8  322.55   22.45 
   0  -6  -9   86.29   42.38 
   0   6   9   88.20   12.36 
   0  -6  -9   93.41   13.62 
  -4   2  -8  316.30   22.54 
   2   5  -5    4.06    5.28 
  -3   1 -10  107.42   16.24 
  -2  -5   5    2.96    4.81 
   2   5  -5    0.76    1.21 
  -3   1 -10  126.86   44.67 
  -3   2  -9  588.87   39.32 
  -3   2  -9  574.64   30.92 
  -3   3  10  187.15   23.07 
  -3   6   2  112.50   39.43 
  -2   6   7  439.62   35.53 
   1   7   2  314.70   44.99 
   0   2 -10    4.66    6.97 
   0   2 -10    3.03    4.29 
  -1  -7  -2  330.92   28.38 
  -7   0  -1  605.00   35.27 
  -7   0  -1  605.39   28.17 
  -6   3   1   27.11   12.79 
   4   4  10  529.12   29.67 
  -7  -1   0  150.03   19.70 
   1   3  12  191.85   20.44 
  -7  -1   0  153.17   11.63 
  -1  -3 -12  181.06   20.38 
  -4  -4 -10  561.58   33.02 
  -1  -3 -12  199.50   13.14 
   2   6   9  536.83   38.81 
   4   4  -5   91.16   35.17 
  -2  -6  -9  524.94   31.14 
  -4  -4   5   77.05   22.45 
  -3  -5 -10  736.37   39.17 
   3   5  10  761.38   39.93 
  -3  -5 -10  744.16   37.97 
  -6  -4   0  108.50   18.69 
   6   4   0   92.14    4.40 
  -6  -4   0  121.15   22.19 
  -5  -1   7  504.89   31.33 
   0   6  -3   42.89   12.37 
   0  -6   3   59.02   23.09 
  -6  -3  -7  315.57   27.88 
   5   3  -5   30.70   12.94 
  -6   3   0  381.93   30.31 
  -6   3   0  345.90   25.96 
  -7   0   0   16.05   11.73 
  -2   3  11   21.60   12.47 
  -4   0   9   63.14   13.62 
   0  -7  -5   11.49    7.78 
   0  -7  -5    5.62    3.93 
   0   7   5    5.46   14.16 
  -6  -2   4   22.11   11.40 
  -6  -2   4   18.07   11.27 
  -2  -7  -4   51.66   27.17 
  -2  -7  -4   56.21   12.03 
   1   6  -3  231.93   38.71 
   2   7   4   75.75   13.56 
  -1  -6   3  229.75   21.24 
  -3   4  -6  281.87   45.98 
  -7  -1  -3   79.79   42.65 
  -3   6   4 1328.84   62.59 
  -7  -1  -3   76.29    5.88 
  -3   4  -6  267.81   18.98 
   0   7   2  705.14   48.94 
   0  -7  -2  723.83   47.07 
   0  -7  -2  560.19   19.96 
  -1   2 -10  297.12   22.38 
  -1   2 -10  279.87   40.48 
  -7   0  -2    6.93    6.11 
  -7   0  -2    5.62    6.96 
  -4  -5  -9   52.17   12.15 
  -4  -5  -9   59.76   22.84 
   4   5   9   50.07   11.01 
  -6   3   2   83.03   26.49 
  -6   3   2   43.09   21.17 
  -2  -7  -3    0.47    1.51 
  -2  -7  -3    4.38    8.03 
  -6   2  -4   12.82   13.80 
   2   7   3    3.46    5.84 
  -6   2  -4   13.23    9.31 
   4   5  -3  665.67   43.40 
  -4  -5   3  632.87   43.86 
  -5  -5  -7   63.25   11.25 
  -5  -5  -7   69.90   25.57 
   3   4  11  102.60   32.44 
  -4   0 -10    2.30    5.82 
  -3  -4 -11  126.67   40.39 
  -3  -4 -11  103.68   28.80 
  -4   0 -10    8.66    8.79 
   0  -3 -12  513.07   28.96 
   0   3  12  535.65   56.74 
   0  -3 -12  503.58   37.90 
  -7  -2  -2  104.20   16.08 
  -3   5   8  338.53   29.49 
   1   1  12  278.69   25.06 
  -5   4  -2   16.96   11.25 
  -1  -1 -12  255.77   44.08 
  -5   4  -2   14.80    9.12 
  -3   6   1   79.82   14.86 
  -3   6   1   92.74   35.77 
  -2  -4   7    2.32    2.06 
   2   4  -7    1.54    4.37 
   2   4  -7    2.53    7.22 
   2   7   5  159.16   38.10 
  -2  -7  -5  141.12   11.67 
  -2  -7  -5  138.19   17.98 
   2   2  12  810.66   54.49 
  -2  -2 -12  805.30   65.34 
   1   7   6   58.97   23.65 
  -6  -1   5   35.11   18.23 
  -1  -7  -6   39.60   12.20 
  -6  -1   5   31.78   14.85 
  -1  -7  -6   50.71   14.87 
   0   3  -9  119.92   11.35 
   0   3  -9  145.99   34.99 
   0  -3   9   97.33    4.38 
   0  -1 -12   18.95   12.01 
  -7  -2  -1   11.54    8.93 
   0   1  12   11.34   11.26 
  -7  -2  -1    5.42    3.21 
   0   1 -11  389.04   36.09 
   0   1 -11  387.52   27.97 
  -5   4   5  537.74   39.85 
  -7   0   1  258.60   26.57 
  -7   0   1  238.74   18.53 
  -6   3  -1  506.65   34.09 
  -6   3  -1  517.03   49.65 
  -7  -2  -3  205.28   23.19 
  -6  -4  -6  169.73   18.41 
  -6  -4  -6  139.38   17.07 
  -1   1 -11    2.95    8.36 
  -2   4  -7  148.76   20.27 
  -2   4  -7  152.30   19.04 
  -1   1 -11    3.26    6.59 
  -5   1  -8  113.64   47.73 
  -5   1  -8   84.08   14.76 
  -5  -5   1  200.76   18.93 
  -5  -5   1  183.31   14.97 
   5   5  -1  197.62   14.75 
  -5   3  -5  629.26   42.53 
  -5   3  -5  577.77   41.75 
  -7  -1   1  706.63   46.89 
  -7  -1   1  690.41   44.49 
  -2  -3 -12  372.33   53.71 
  -2  -3 -12  421.90   25.74 
   2   3  12  428.76   30.90 
  -1  -5 -11   51.93   22.49 
   1   2 -10  351.30   24.92 
   1   5  11   36.35   27.71 
   1   2 -10  382.96   30.48 
  -1  -5 -11   38.06   12.29 
   2   7   2  230.05   30.70 
  -2  -7  -2  225.86   39.69 
  -1  -7  -1  284.86   55.94 
   1   7   1  220.63   22.87 
  -4  -6  -7  232.96   20.30 
   4   6   7  245.06   18.45 
  -6   0  -7  305.89   21.74 
  -4  -6  -7  219.64   24.61 
  -6   0  -7  317.12   53.15 
  -7   0  -3    3.04    7.47 
  -7   0  -3    1.79    5.01 
  -4  -6   0   61.38   13.44 
   4   6   0   71.42   18.63 
  -1   3  -9   16.18    7.37 
   1  -3   9   15.11    6.50 
  -4  -6   0   75.40   27.64 
  -1   3  -9   17.01    8.94 
   0   7   6  566.64   47.76 
   0  -7  -6  513.81   30.96 
  -3   6   5  227.65   34.23 
   0  -7  -6  580.35   39.81 
  -6   1  -6   89.59   33.31 
  -6   3   3  747.16   52.81 
  -6   1  -6  105.32   23.80 
  -2   5  -5   -0.26    2.29 
  -2   5  -5    5.34    8.52 
  -6   3   3  688.43   50.13 
   2   0 -11   74.62   34.62 
  -2   0  11   55.37   11.37 
  -6   2   5   -0.42    6.45 
  -6   2   5    9.69    4.85 
   0   7   1  690.07   49.21 
  -4   4   8   57.84   13.89 
  -6  -3   3  657.08   40.22 
  -2   6  -2    6.56    7.71 
   6   3  -3  595.97   32.87 
  -2   6  -2    3.78    2.73 
  -5   3   7    6.36    7.78 
  -7  -2   0  225.46   13.56 
  -7  -2   0  220.63   28.06 
  -7  -1  -4   50.58   11.96 
  -7  -1  -4   56.13   13.36 
  -1   6  -3   64.35   25.26 
  -3   0 -11  222.11   25.52 
  -3   0 -11  218.94   20.85 
  -4   5   6  228.53   55.05 
  -3   3  -8  465.77   30.84 
  -3   3  -8  452.01   32.05 
  -4   3   9  231.69   36.56 
  -1   2  12  464.03   48.38 
   1  -2 -12  405.50   20.97 
  -2  -7  -6 1189.56   61.18 
   1  -2 -12  465.79   35.89 
   2   7   6 1278.91   80.57 
  -1   7   3  706.20   69.47 
   1   3  -9   30.68   15.42 
  -5   0  -9   -0.35    8.68 
   1   3  -9   35.98   14.41 
  -5   0  -9    2.27    3.86 
  -1   7   4  197.12   30.20 
   0  -5 -11  174.82   23.67 
   0   5  11  155.15   32.75 
  -3   5  -4   33.47   19.38 
   0  -5 -11  159.40   14.52 
  -3   5  -4   30.01   19.21 
   3   6  -2  703.19   46.46 
  -3  -6   2  679.87   48.05 
  -5  -4  -9  139.74   39.14 
  -5   1   8   94.62   32.65 
  -5  -4  -9  138.79   13.73 
  -5  -4  -9  152.64   26.92 
  -4   5  -2   11.87    7.32 
  -3   6   0  326.99   32.16 
  -4   4  -5  424.54   33.31 
  -4   5  -2    5.33    9.39 
  -4   4  -5  443.34   29.16 
  -3   6   0  304.80   27.06 
  -7  -2  -4  102.17   23.10 
  -6  -4   1  104.38   34.01 
  -4  -2   8    2.79    4.61 
  -6  -4   1  121.37   13.99 
  -2  -1 -12    3.97    6.17 
   2   6  -3   40.69   17.51 
  -2  -6   3   33.65   14.44 
  -2  -1 -12    8.52   11.16 
   6   4  -1   99.08    8.99 
   2   5  11   56.20   30.28 
  -2  -5 -11   85.10   26.57 
  -2  -5 -11   62.46   18.21 
  -7   1   0  323.90   24.57 
  -7   1   0  357.27   32.06 
  -5   2  -7    4.65    5.29 
  -4   3  -7 1044.19   67.21 
  -4   3  -7 1061.82   58.42 
  -5   2  -7   11.37   13.00 
  -4  -2 -11  198.64   40.46 
  -4  -2 -11  231.84   25.71 
   1  -6  -9    7.75    6.92 
  -7   1  -1  120.47   18.87 
  -1   6   9    5.73    6.03 
  -7   1  -1  123.52   15.86 
   1  -6  -9    9.37    7.37 
   0  -5   6  243.76   31.77 
   0   5  -6  227.13   13.47 
   0   5  -6  278.41   53.30 
  -6  -2  -8    3.53    2.89 
  -6  -2  -8    7.30    7.66 
  -1   7   2 1347.98   75.60 
   1   1 -11   90.03   41.65 
  -6   3  -2 1519.75   68.90 
  -6   3  -2 1472.52   80.63 
  -7   0   2  712.91   48.06 
  -2   2 -10   41.07   20.67 
   1   4  12  450.56   33.17 
  -7   0   2  678.26   41.67 
  -1  -4 -12  438.08   29.02 
  -1  -4 -12  473.17   35.19 
  -2   2 -10   47.51   23.64 
   3   3  -8  213.60   32.01 
  -1   7   5   51.24   20.81 
   1   7   7 1327.25   82.75 
  -1  -7  -7 1257.90   65.45 
  -1  -7  -7  913.47   58.66 
   4   3  -7    0.15    5.86 
   2   7   1  100.72   16.85 
  -3  -6  -9   45.15   14.67 
  -3  -6  -9   30.60   13.40 
  -2  -7  -1   98.60   16.94 
   3   6   9   20.98   18.10 
  -7   1   1  179.13   23.85 
  -7   1   1  206.03   25.22 
  -4  -3 -11   97.90   30.10 
  -4  -3 -11   99.63   33.49 
   1  -1 -12  300.51   29.44 
  -4  -3 -11   94.27   10.65 
  -1   1  12  286.34   27.59 
  -1   3  12  489.14   38.46 
   1  -3 -12  504.15   36.51 
   1  -3 -12  484.83   26.92 
  -5   0   8   80.73   34.57 
  -1  -5   6  254.81   20.08 
   1   5  -6  241.51   37.15 
   1   5  -6  219.58   12.52 
  -2   6   8  223.98   35.67 
  -7  -1   2  186.64   27.14 
  -7  -1   2  164.45   19.49 
   5   4  -4   66.69   14.88 
  -5  -4   4   50.92   15.21 
  -2   1 -11   14.29    8.29 
  -5   2   8   25.15   12.83 
  -2   1 -11   20.60   10.58 
  -7   1  -2   28.70   13.31 
  -6   1   6    8.74    6.18 
  -7   1  -2   20.37   22.39 
  -6   1   6    6.99    5.66 
  -1  -6 -10  253.16   32.47 
  -6  -1  -8  723.96   45.37 
  -6  -1  -8  775.88   48.30 
  -1  -6 -10  256.59   24.11 
   1   6  10  275.73   25.01 
  -5   4  -3   52.30   10.08 
  -7   0  -4    2.34    3.90 
  -7   0  -4    4.27    7.72 
  -6   0   6    8.57    5.39 
  -5   4  -3   68.00   34.42 
  -3  -7  -4  312.64   19.12 
   0  -4 -12  106.36   39.46 
  -7  -2   1  678.14   35.35 
   0   4  12  101.46   35.86 
   0  -4 -12   95.25   10.43 
   3   7   4  343.58   26.87 
  -3  -7  -4  294.62   28.66 
  -7  -2   1  657.08   43.01 
  -6   3   4   23.45   10.77 
  -6   3   4   25.86   10.46 
  -5  -2 -10  355.62   28.83 
  -5  -2 -10  340.21   33.46 
  -5  -5  -8  163.26   18.75 
  -5  -5  -8  160.27   20.21 
  -3   6   6  892.07   61.02 
  -1  -7   0  366.01   32.00 
   1   7   0  309.66   36.97 
   0  -7  -7   26.11   18.76 
   0   7   7   35.23   17.51 
   0  -7  -7   42.45   16.19 
  -3  -7  -3    6.35   11.27 
  -4  -1   9    7.54    5.62 
  -3  -7  -3    1.67    1.87 
  -2   5  10    6.51    8.96 
  -3  -1  10   14.37   15.01 
  -6  -4  -7   31.77   30.76 
  -6  -4  -7   42.65   23.35 
  -6   2  -5  122.32   14.50 
  -6   2  -5  139.51   26.16 
  -5   4   6  150.29   52.14 
  -7  -3  -2   84.04   13.06 
   0  -4   8    4.86    5.10 
   0   4  -8   10.59    9.88 
  -6  -3  -8   30.96   14.91 
  -2   4  11    3.02    4.59 
   0   4  -8    6.27    4.58 
  -6  -3  -8   10.42    6.77 
  -1   5  -6   12.95    9.59 
  -2  -7  -7    1.49    8.13 
  -1   5  -6    4.08    3.44 
  -2  -7  -7    2.01    3.87 
   2   7   7    4.34    7.64 
   2   4  12   19.34   10.62 
   3   7   5  524.65   38.25 
  -3  -7  -5  497.03   28.77 
   0  -7   0  244.42   24.38 
  -2  -4 -12   18.26    9.22 
  -3  -7  -5  496.04   38.58 
  -2  -4 -12   13.19    5.95 
   0   7   0  223.23   20.44 
  -7  -3  -3  802.37   49.59 
  -4  -1 -11  165.31   45.23 
  -4  -1 -11  158.49   33.81 
  -3   4  10  226.10   47.86 
  -1   7   1   91.10   16.93 
  -7  -1  -5   45.15   16.59 
  -7  -1  -5   35.25   12.12 
  -1   0 -12  293.40   42.20 
  -1   0 -12  310.37   24.47 
  -3  -5   5    3.93    4.87 
   0   0 -12  186.92   19.71 
   0   0  12  166.48   34.21 
  -7  -2  -5  137.02   41.58 
   3   5  -5    3.00    2.31 
   3   5  -5    3.42    4.88 
  -2   3  -9 1003.73   58.31 
  -2   3  -9  932.85   51.65 
  -3  -2 -12   28.95    9.76 
  -5  -3 -10    0.76    2.84 
  -5  -3 -10    4.01    8.16 
  -7   1   2    8.93   11.67 
  -7   1   2    8.44    5.25 
  -1   7   6  203.75   23.56 
   0   6  10   40.94   10.86 
   0  -6 -10   42.72    9.74 
  -4  -6  -8   -0.33    7.71 
   4   6   8    3.40    2.50 
  -4  -6  -8    3.80    6.29 
   0  -6 -10   47.28   25.55 
   2   6  10   30.43   14.10 
  -2  -6 -10   22.79   14.41 
  -2  -6 -10   24.52   18.06 
   4   6  -1  148.09   18.13 
  -4  -6   1  134.26   17.52 
  -5  -5   2  200.55   26.18 
  -7  -3  -1  630.40   50.11 
   5   5  -2  253.38   18.75 
  -5  -5   2  233.68   21.81 
  -3   6  -1  289.81   38.08 
  -3   6  -1  325.29   34.16 
  -5  -6  -4   35.54   18.55 
  -5  -6  -4   33.66   13.47 
   3   3  12   11.20    7.91 
  -3  -3 -12   12.75    8.26 
  -3  -3 -12    9.92    6.39 
  -6  -5  -3  277.92   27.30 
  -6  -5  -3  285.22   60.90 
  -5  -6  -3  688.10   52.04 
  -5  -6  -3  745.76   41.70 
   2   2 -10   79.68   36.06 
  -6  -2   5  101.41   31.68 
  -6  -2   5  102.64   24.66 
   2   2 -10   59.27   21.38 
  -3   2  11  458.75   38.49 
   0   6  -4  246.12   53.03 
   0  -6   4  251.71   25.54 
   3   7   2  619.33   42.15 
  -3  -7  -2  641.65   46.01 
   1   4  -8   42.71   11.14 
  -6  -5  -4  442.31   30.63 
  -6  -5  -4  428.45   44.87 
  -7  -3  -4    6.99    7.00 
  -1  -4   8   54.66    5.73 
   1   4  -8   59.41   28.97 
  -5  -2   7   21.94   17.83 
  -1   4  -8  471.31   28.17 
  -1   4  -8  495.38   37.30 
  -5  -1 -10    1.72    4.07 
  -5  -1 -10    9.11   11.19 
  -7   1  -3  208.09   27.18 
   1  -5 -11    6.82    4.81 
  -1   5  11    7.36    4.61 
  -7   1  -3  207.17   18.51 
   1  -5 -11    4.94    8.40 
   1   6  -4    9.15    7.73 
  -1  -6   4   12.36    6.09 
  -4  -5 -10   12.32    9.05 
  -4  -5 -10    6.65    6.74 
   4   5  10    6.28    7.28 
  -3   1  11   88.51   41.33 
  -3  -7  -6   22.76   10.87 
  -3  -7  -6   19.42   14.71 
   3   7   6   19.63   15.96 
  -4   5   7   76.75   17.83 
  -6   3  -3   18.93    9.40 
   4   5  -4   76.48   17.02 
  -4  -5   4   77.22   26.07 
  -6   3  -3   14.41    9.77 
  -7   0   3   46.90   25.25 
  -7   0   3   39.37   19.85 
  -3   5   9  156.09   41.37 
  -6  -5  -2  450.15   32.40 
  -6  -5  -2  445.49   32.84 
   2   3  -9   15.15    8.89 
   2   3  -9   14.03    7.10 
  -5  -6  -5  178.13   30.14 
  -5  -6  -5  193.46   17.45 
   2   7   0   37.31    7.71 
  -2  -7   0   37.24   11.99 
  -6  -4   2  776.90   47.26 
   6   4  -2  844.56   43.94 
  -6   2   6  437.12   32.87 
   3   5  11   26.24   17.33 
  -6   2   6  413.90   32.33 
  -3  -5 -11   30.10   12.50 
  -3  -5 -11   20.05    7.97 
   3   4  -7  392.73   29.71 
  -3  -4   7  341.41   20.99 
  -4   1  10    4.29    7.84 
   3   4  -7  363.70   32.09 
   5   6   2    4.33    4.01 
  -5  -6  -2   14.65    7.98 
  -5  -6  -2    7.07    6.42 
  -4   5  -3  321.98   26.29 
  -4   5  -3  326.56   29.99 
  -2   6  -3   20.01   11.91 
  -1  -7  -8   92.80   30.49 
   5   3  -6   87.50   20.57 
   1   7   8  100.57   40.28 
  -1  -7  -8   92.01   30.70 
  -2   6  -3   15.92    6.65 
  -6  -1   6   15.59    8.71 
  -4  -4 -11   99.38   25.82 
   4   4  11   89.60   23.01 
  -4  -4 -11  106.35   14.89 
  -2  -5   6   34.58   16.17 
  -4   2  10   16.28    8.19 
   2   5  -6   56.08   19.49 
  -4  -4   6   91.06   10.32 
   4   4  -6   92.17   28.90 
  -6  -5  -5  314.78   44.86 
  -6  -5  -5  322.07   25.29 
  -7  -3   0  269.26   24.60 
  -5   3  -6 1249.24   72.47 
  -5   3  -6 1352.32   75.41 
  -6  -3   4  119.30   51.10 
   6   3  -4  134.51   20.21 
  -7  -2   2  159.53   18.96 
  -4   1 -10   34.14   13.64 
  -7  -2   2  159.97   16.94 
  -4   1 -10   36.32   16.85 
  -3  -1 -12  542.35   37.16 
  -3  -1 -12  493.13   35.93 
  -2   0 -12  475.71   34.56 
  -2   0 -12  459.28   41.50 
  -7  -1   3  280.96   23.07 
  -7  -1   3  235.49   22.82 
  -7   0  -5  274.80   27.27 
  -7   0  -5  287.74   27.91 
  -1   0  12   36.38   16.09 
  -3   4  -7  105.36   31.25 
  -3   4  -7   82.30   33.24 
  -6   1  -7  380.38   32.80 
  -6   1  -7  350.68   25.27 
  -5   5   2  122.07   19.23 
  -5   5   2  114.59   18.67 
   1   0 -12   51.75   23.43 
  -1   7   0  176.10   33.32 
  -6   3   5 1112.28   67.66 
  -6   3   5 1079.92   63.78 
  -4   2  -9   75.39   20.18 
  -5  -1   8    5.71    8.54 
  -4   2  -9   81.29   24.84 
   1  -4 -12  400.92   25.51 
   1  -4 -12  370.48   32.27 
  -1   4  12  382.03   34.55 
   2  -2 -12  157.63   10.69 
   2  -2 -12  162.98   20.04 
  -2   2  12  151.37   20.53 
  -7   1   3    5.82    4.79 
  -7   1   3    7.90    8.14 
  -3   6   7   36.46   22.90 
  -6   0  -8  427.39   28.27 
  -2  -1  11  552.50   40.54 
   2   1 -11  547.76   44.14 
  -7  -3  -5  406.53   33.46 
  -6   0  -8  494.76   38.36 
   3   6  -3   13.99   11.21 
  -3  -6   3   15.14    7.81 
  -6  -5  -1   56.19   23.69 
  -2   7   3  190.38   30.50 
  -6  -5  -1   52.07   21.88 
  -5   5   1    5.99    4.83 
  -1   6  -4   99.67   45.33 
  -5   5   1    7.43    8.13 
  -3   3  11  748.27   49.88 
  -1   7   7   95.97   42.60 
   3   7   1  138.32   23.73 
  -3  -7  -1  160.41   22.21 
   1  -7  -7   88.35   18.87 
  -5  -6  -6   10.48    8.25 
   0   7   8  782.93   54.82 
   0  -7  -8  756.05   52.35 
   0  -7  -8  703.72   43.20 
  -5   5   3  115.62   45.34 
  -5  -6  -6    8.30    6.35 
  -5   5   3  109.60   15.26 
  -5   3   8    8.84    9.87 
  -2   7   4  797.75   54.23 
   2   7   8  278.79   35.81 
  -2  -7  -8  267.50   22.07 
  -2  -7  -8  259.11   64.33 
   1   7  -1    5.97    4.53 
  -1  -7   1    7.03    9.95 
  -4   4   9  156.09   22.41 
  -7  -2  -6   12.59    8.16 
  -7   2   0  355.16   38.77 
  -7   2   0  367.34   30.61 
   0  -7   1  223.26   22.02 
   0   7  -1  213.50   48.84 
  -3   5  -5    1.87    4.53 
  -3  -7  -7 1327.68   69.91 
  -3   5  -5    0.33    4.91 
   3   7   7 1403.10   40.87 
  -3  -7  -7 1354.78   80.22 
  -5   4  -4   92.00   12.63 
  -5   4  -4   79.79   12.20 
  -5  -6  -1  295.89   31.25 
  -2   7   2    7.71   11.68 
   5   6   1  284.99   17.98 
  -5  -6  -1  305.30   21.37 
   3   4  12  155.16   39.00 
  -3  -4 -12  152.73   24.92 
  -3  -4 -12  172.42   25.03 
  -7   2   1   63.62   23.32 
  -7   2   1   56.54   34.99 
  -7  -1  -6  170.72   37.66 
  -5  -4 -10  159.20   14.63 
  -3   2 -10    9.30   10.84 
  -3   2 -10    7.17    5.40 
  -5  -4 -10  156.41   26.59 
  -5  -4 -10  161.81   34.19 
  -2   1  12   19.01   10.96 
   2  -1 -12   18.78   11.12 
  -2  -6   4    7.46    6.15 
  -2   5  -6   96.71   11.42 
  -2   5  -6   96.74   21.79 
   2   6  -4   10.01    6.39 
  -5   1  -9  103.88   32.11 
  -7   1  -4   57.59   28.53 
  -7   1  -4   67.48   21.23 
  -5   1  -9  123.18   47.43 
   1  -6 -10   55.80   19.40 
   1  -6 -10   49.99   22.38 
  -6  -4  -8   91.17   37.97 
  -1   6  10   55.70   33.21 
  -6  -4  -8   75.87   30.11 
  -4   4  -6  277.79   27.98 
  -7   2  -1   14.70    5.31 
  -7   2  -1    9.43    8.78 
  -4   4  -6  299.11   39.96 
  -2   6   9    3.78    9.29 
  -4   0  10   13.86    8.13 
  -6  -5  -6  128.70   22.75 
  -3  -6 -10   36.08   17.24 
   3   6  10   41.81   20.78 
  -3  -6 -10   48.96   12.39 
  -6  -5  -6  115.66   47.99 
   1   2  13  359.42   43.49 
  -1  -2 -13  406.54   33.84 
  -3   1 -11  642.05   48.23 
  -3   1 -11  652.27   42.60 
  -2   7   5   28.43   18.85 
  -3   0  11  215.80   48.25 
  -6  -2  -9  436.64   27.73 
  -5  -5  -9  201.59   34.01 
  -5  -5  -9  212.90   44.01 
   5   5   9  173.84   12.74 
  -6  -2  -9  470.73   37.69 
  -5   5   0   60.05   18.52 
  -5   5   0   76.98   21.64 
  -5   4   7   12.24    8.71 
  -3   6  -2    1.83    5.65 
   2  -3 -12    5.38    4.45 
  -3   6  -2    5.19    7.45 
  -2   3  12    2.53    8.75 
  -1  -5 -12    3.43    7.25 
  -5   5   4  211.89   28.49 
  -5   5   4  255.90   69.49 
  -1  -5 -12    5.05    5.96 
   1   5  12    1.74    4.95 
   2   4  -8  221.05   41.57 
  -2  -4   8  175.20   11.75 
  -4   0 -11  331.39   34.13 
  -4   0 -11  328.23   32.46 
   2   4  -8  189.41   14.36 
  -1  -3 -13  715.21   43.70 
   1   3  13  740.30   57.32 
  -1  -3 -13  733.97   48.18 
  -4   6   3    7.36   14.26 
  -2   4  -8  269.65   19.44 
  -2   4  -8  290.75   37.82 
  -7  -3   1  222.89   20.92 
   0   2  13  209.47   46.74 
   0  -2 -13  249.02   57.84 
  -4   6   2  121.18   30.24 
  -4   6   2  116.92   17.52 
  -4  -6  -9   11.13   11.15 
  -4  -6  -9   13.39   12.09 
   4   6   9    9.85    9.95 
  -6   4   1   28.63   10.33 
  -6   4   1   29.42   13.69 
  -7   2   2   42.35   19.66 
  -7   2   2   50.73   12.83 
  -4   3  10  368.27   32.15 
  -6   2  -6    6.06    6.71 
  -6   2  -6   11.45    6.95 
   4   6  -2   73.27   37.66 
  -4  -6   2   94.83   14.37 
  -6   4   2  147.11   26.11 
  -6   4   2  186.74   34.92 
   0   2 -11  524.47   34.51 
   0   2 -11  469.82   37.40 
  -5   2  -8   54.97   34.82 
  -5   2  -8   65.48   25.62 
  -6   3  -4  649.37   51.74 
  -6   3  -4  716.74   47.31 
  -6   1   7    4.07    6.81 
  -7   0   4  339.02   30.94 
  -7   0   4  362.32   32.05 
  -2   7   1  408.26   42.25 
  -5   1   9   39.61   21.10 
  -6  -5   0   25.87   15.32 
  -6  -3  -9  410.45   31.61 
  -6  -5   0   19.30   13.68 
  -6  -3  -9  316.19   18.10 
  -5   0 -10  556.92   39.55 
   0  -3 -13    6.52   10.04 
   0   3  13    3.41    6.13 
  -5   0 -10  539.51   42.94 
  -2  -7   1  955.28   56.54 
   2   7  -1  927.58   57.92 
   0  -3 -13    0.00    1.95 
   5   4  -5  319.43   29.01 
  -4   6   4    4.52   11.35 
  -7   2  -2  513.95   39.39 
  -1   2 -11   22.76   16.15 
  -1   2 -11   24.32   16.62 
  -7   2  -2  520.47   34.49 
   5   5  -3  131.23   19.36 
  -5  -5   3  106.91   32.82 
  -6   4   0    4.74    8.79 
  -6   4   0    8.76    8.22 
  -5  -6  -7    3.95    5.42 
  -5  -6  -7    4.22    7.81 
   0   5  12  444.83   35.19 
   0  -5 -12  439.58   29.50 
  -4   3  -8   41.52   27.69 
  -4   3  -8   59.59   36.74 
   0  -5 -12  473.96   36.04 
  -4   6   1  172.21   27.31 
  -6   0   7  479.63   41.64 
  -7  -3  -6   29.06   18.91 
  -4   6   1  167.91   35.06 
   2   5  12  249.11   27.97 
  -6  -1  -9    4.98    4.52 
  -2  -5 -12  221.11   48.29 
  -2  -5 -12  254.65   22.10 
  -6  -1  -9    9.81    8.10 
  -1  -6 -11  179.47   22.10 
  -1  -6 -11  171.23   20.49 
   1   6  11  163.32   25.48 
  -4  -7  -4  343.93   22.22 
   4   7   4  379.24   26.37 
  -4  -7  -4  370.35   36.88 
   0   3 -10  376.03   36.36 
   0   3 -10  420.96   72.72 
   2   2  13   47.01   27.06 
  -2  -2 -13   61.24   26.45 
  -3   3  -9   86.22   12.83 
  -3   3  -9   77.85   25.43 
  -3  -7   0   24.99   17.40 
   3   7   0   15.71    9.58 
  -6   4   3   17.07    8.41 
  -6   4   3   14.55   10.63 
  -2   7   6  915.27   58.04 
  -1   7  -1    2.57    6.26 
   2   3  13    4.69    5.97 
  -4   5   8  223.21   33.73 
  -2  -3 -13    3.76    6.54 
  -2  -3 -13    0.14    1.88 
  -7  -4  -3   18.22   17.67 
  -7  -2   3  615.73   59.88 
  -7  -2   3  684.47   49.44 
   1   7   9  819.98   54.12 
   4   7   5  272.63   27.70 
  -4  -7  -5  263.08   25.69 
  -1  -7  -9  733.85   46.03 
  -1  -7  -9  661.24   42.14 
   0   5  -7    6.62    4.41 
  -4  -7  -5  269.75   20.18 
   0  -5   7   12.43    7.52 
   0   5  -7   17.00    9.31 
  -7   1   4   46.20   19.99 
   4   7   3 1368.39   29.86 
  -7   1   4   38.34   30.84 
  -4  -7  -3 1344.60   74.82 
  -4  -7  -3 1228.92   61.10 
  -5   2   9   29.94   11.66 
  -6  -4   3  381.68   31.95 
  -1  -1 -13  126.87   35.68 
   6   4  -3  422.81   27.27 
   1   1  13  107.43   22.97 
  -5  -6   0    1.62    5.81 
  -5  -6   0    3.94    3.19 
  -5   5  -1    3.44    8.28 
  -5   5  -1    2.95    4.92 
   5   6   0    3.83    5.41 
  -7  -4  -2  636.24   49.27 
  -1   3 -10  201.40   28.37 
  -1   3 -10  184.59   23.06 
  -7   0  -6   51.48   15.75 
  -7   0  -6   52.23    9.01 
   1  -7  -8  222.82   26.35 
   0   1  13   97.78   53.75 
   1  -7  -8  209.67   19.87 
   0  -1 -13  128.87   19.18 
  -1   7   8  206.56   54.32 
  -7  -4  -4  917.00   55.14 
  -7  -1   4   12.26    8.08 
  -5   5   5   -0.58    8.02 
  -4   5  -4   87.95   19.63 
  -7  -1   4   13.02    9.23 
  -4   5  -4   80.32   14.99 
  -4  -2   9   16.77   10.48 
   3   7   8  423.98   29.79 
  -3  -7  -8  418.44   30.23 
  -3  -7  -8  395.51   65.42 
   0   1 -12   64.05   12.69 
  -6   3   6  164.91   29.82 
   0   1 -12   73.91   14.83 
   2   6  11  273.79   26.06 
  -2  -6 -11  255.11   23.37 
  -2  -6 -11  261.63   27.25 
  -7   2   3   25.80   13.91 
  -7   2   3   28.45   24.27 
   1   2 -11   29.85   18.56 
  -4  -2 -12   37.43   14.56 
   1   2 -11   35.21   10.28 
  -4  -2 -12   32.27   21.64 
  -6  -5  -7  183.76   22.78 
  -5   0   9  379.79   28.72 
  -6  -5  -7  191.33   29.55 
  -2   5  11  152.79   40.69 
   0  -6 -11   13.96    8.68 
   0   6  11   10.83    7.83 
  -1   1 -12   23.16   22.94 
  -1   1 -12   30.05   19.94 
   0  -6 -11   17.26    9.34 
   1   5  -7  460.90   32.69 
  -1  -5   7  402.38   17.86 
   4   3  -8   62.42   17.95 
  -3   6   8  154.42   22.18 
  -3   0 -12  412.53   26.27 
  -6   4  -1    4.14    7.43 
  -4  -3 -12   20.57   10.05 
  -3   0 -12  410.12   27.96 
  -4  -3 -12   21.15    7.17 
  -6   4  -1    9.88    7.94 
  -4   6   5  442.95   53.34 
  -6   2   7    0.77    4.66 
  -6  -2   6  193.85   29.79 
  -5  -2 -11   15.44    6.72 
  -5  -2 -11   24.60   18.60 
  -2  -7  -9  323.36   19.52 
   2   7   9  354.96   23.62 
  -2  -7  -9  292.70   23.78 
   1   3 -10   40.02   12.56 
   1   3 -10   46.96   14.24 
   3   2 -10   22.13   10.20 
   0   7   9  463.95   42.79 
   0  -7  -9  474.62   26.97 
  -2   6  -4   81.69   35.48 
   2   0 -12 1233.94   41.75 
   0  -7  -9  414.86   43.08 
  -2   0  12 1173.95   46.88 
  -4   6   0  566.12   26.53 
  -4  -7  -6  155.80   18.35 
  -4  -7  -6  138.61   35.55 
   4   7   6  131.61   17.46 
  -4   6   0  550.86   32.14 
  -7  -2  -7   10.87    8.82 
   0   6  -5  133.81   39.05 
   4   7   2  140.79   16.21 
   1   4  13   13.84    9.96 
  -1  -4 -13   17.74   10.30 
   0  -6   5  150.82   15.92 
  -3  -5   6  195.09   13.50 
  -1  -4 -13   16.28   11.04 
  -4  -7  -2  149.41   22.27 
   3   5  -6  195.52   34.63 
  -7   1  -5  236.05   24.62 
  -7   1  -5  256.11   26.54 
  -7  -4  -1   70.86   10.98 
   3   3  -9   50.93   24.32 
   3   3  -9   53.11   13.44 
  -1   5  -7  207.50   23.07 
  -1   5  -7  198.97   14.21 
   1  -2 -13  123.38   52.27 
  -1   2  13  137.81   23.83 
  -5  -3 -11   78.16   14.78 
  -5  -3 -11   86.83   15.19 
  -2   7   0  389.41   41.70 
   1   7  -2  278.83   24.25 
  -1  -7   2  294.20   24.60 
  -4  -5 -11  105.35   14.45 
   4   5  11  121.65   13.36 
  -4  -5 -11  117.84   31.21 
  -3   4  11   80.09   44.13 
  -3   5  10    4.41    4.93 
  -7   2  -3  267.51   25.89 
  -7   2  -3  290.36   26.97 
   0  -7   2   53.49   28.83 
   0   7  -2   63.44   37.09 
  -1  -6   5    3.52    6.76 
  -6   4   4  635.20   32.93 
  -4  -5   5   12.33    5.43 
   1   6  -5    2.86    6.59 
   4   5  -5   15.72    9.70 
  -6   4   4  640.48   31.19 
  -7  -4  -5  160.34   20.25 
  -7  -3   2  127.65   51.30 
   6   3  -5  643.40   23.01 
  -2  -1 -13  951.32   53.08 
  -7  -1  -7  592.05   17.53 
  -2  -1 -13  753.31   32.38 
  -7  -1  -7  518.02   31.16 
  -2   2 -11   10.92   12.62 
  -2   2 -11   22.33   10.87 
   2  -4 -12   28.81   13.80 
  -2   4  12   45.39   21.48 
  -1   3  13  390.47   46.37 
   1  -3 -13  355.26   26.26 
   1  -3 -13  354.37   13.38 
   0   4  13 1236.40   63.41 
   0  -4 -13 1194.61   31.62 
   0  -4 -13 1219.23   59.32 
  -6  -5   1    2.51    6.70 
  -6  -5   1    4.44    6.06 
  -5   3  -7   40.48   14.67 
  -5   3  -7   37.66   24.23 
  -6  -1   7   78.33   21.65 
  -3   6  -3  151.51   22.54 
  -5   4  -5  619.60   29.61 
  -5   4  -5  670.64   32.68 
  -3   6  -3  137.80   16.49 
  -2  -4 -13  316.32   18.50 
   2   4  13  286.67   23.92 
  -2  -4 -13  318.56   27.34 
  -2   7   7  286.28   74.34 
  -4  -1  10   76.98   38.22 
   3   6  -4  473.44   24.01 
  -3  -6   4  448.53   21.76 
  -5  -6  -8  162.96   25.29 
  -5  -6  -8  147.76   14.41 
  -6  -4  -9   34.11   15.83 
   1   1 -12  492.82   29.72 
  -6   1  -8   41.39   11.01 
   1   1 -12  487.33   29.98 
  -6  -4  -9   33.58   14.28 
  -6   1  -8   57.63   21.14 
  -5  -2   8  180.94   18.21 
   0   4  -9    3.91    3.41 
   1  -5 -12  309.85   17.79 
  -1   5  12  330.57   27.53 
   1  -5 -12  356.38   25.42 
  -4  -1 -12   27.38   15.52 
  -4  -1 -12   26.54   16.62 
  -7  -3  -7    2.32    4.90 
  -3  -5 -12    4.40    7.16 
  -3  -5 -12    1.68    7.30 
   3   5  12    1.95    6.29 
  -5  -1 -11  590.60   25.62 
  -5  -1 -11  651.43   32.47 
  -5   5  -2  269.97   25.91 
  -1   1  13   19.80    9.65 
   1  -1 -13   30.21   14.90 
  -5   5  -2  289.63   37.05 
   5   3  -7    8.91    8.89 
  -2   1 -12  260.41   18.75 
  -2   1 -12  288.94   52.33 
  -1   6  -5   20.49   12.76 
  -4  -7  -7  184.47   25.00 
  -5   4   8   39.21   21.97 
   4   7   7  162.69   20.29 
  -6   4  -2   25.09   10.67 
  -4  -7  -7  149.23   29.39 
  -6   4  -2   21.22    9.37 
  -7  -4   0   26.80   15.40 
  -6   0  -9  436.23   27.39 
  -6   0  -9  412.90   23.93 
  -2   3 -10   13.74   11.66 
  -6   3  -5   57.42   10.78 
  -2   3 -10   15.04    8.13 
  -3  -1  11  496.07   39.98 
  -4   6   6   56.42   24.26 
  -4  -7  -1  418.89   26.40 
   4   7   1  418.94   19.48 
  -5   3   9  132.26   52.88 
  -6   3  -5   73.63   15.22 
  -7   2   4   41.73   24.56 
  -7   2   4   42.97   20.90 
  -5   5   6    5.26    3.95 
   5   5  10   35.67    8.42 
  -5  -5 -10   53.34   15.35 
  -5  -5 -10   44.51   21.11 
  -2   6  10  126.35   20.07 
  -7   0   5    7.01    5.46 
  -7   0   5    6.21    5.15 
   3   7  -1   -0.36    3.74 
  -3  -7   1    7.25    8.18 
  -4  -4 -12    9.82    5.92 
  -4  -4 -12    8.12    9.57 
   4   4  12    2.91    5.09 
   4   4  -7   30.97   16.99 
   5   6  -1   16.37    9.49 
  -2  -7   2   20.53   16.87 
   2   7  -2   24.10   17.13 
   3   3  13  179.52   39.39 
  -5  -6   1   12.37   10.29 
  -3  -3 -13  184.87   18.78 
  -5  -6   1   20.96   10.98 
   4   6  10   20.20   10.78 
  -3  -2 -13   18.19    8.55 
  -4  -6 -10   26.39   17.36 
  -3  -2 -13   24.22    8.21 
  -4  -6 -10   27.88   10.29 
  -4   6  -1   43.17   14.21 
  -4   6  -1   27.48   12.58 
  -1   4  -9  125.49   10.66 
  -2  -5   7  255.77   13.52 
   1  -4   9  132.01    8.76 
  -1   4  -9  138.51   29.11 
   2   5  -7  288.67   23.96 
   4   6  -3  290.42   33.35 
  -4  -6   3  260.01   33.08 
  -3   5  -6   42.14   11.96 
  -3   5  -6   29.53   12.73 
  -3  -6 -11   97.07   37.56 
  -4   4  10    8.13   11.23 
  -3  -6 -11   91.59   12.74 
   3   6  11   94.24   12.89 
   1   4  -9   64.10   18.24 
   1   4  -9   80.82   38.61 
  -3   2  12  154.84   25.03 
  -1   7  -2   80.87   15.82 
   3   4  -8   11.23    6.50 
  -7   1   5    3.47    6.53 
  -7  -4  -6  128.32   16.37 
   3   4  -8   19.98   17.47 
  -7   1   5    4.69    5.94 
   1  -6 -11  490.76   27.53 
  -1   6  11  471.59   57.43 
   1  -6 -11  468.26   26.95 
  -3   4  -8  183.04   26.13 
  -6  -5  -8   52.47   33.15 
  -3   4  -8  187.90   14.93 
  -6  -5  -8   52.17   30.77 
  -5  -4 -11   33.61   18.15 
  -2  -6   5   84.85   32.94 
   2   6  -5  101.31   21.30 
  -5  -4 -11   50.01   24.27 
  -5  -4 -11   51.36   30.55 
  -3   7   3    5.48    7.99 
  -6   4   5  419.69   47.65 
  -6   4   5  428.15   26.33 
  -4   2  11  124.36   26.27 
   3   7   9   80.49   22.83 
  -3  -7  -9   82.46   14.23 
  -3  -7  -9   83.89   14.79 
  -7  -2   4  129.02   61.31 
  -7  -2   4  149.22   15.55 
  -6   2  -7   36.68   23.50 
  -6   2  -7   43.05   27.71 
  -4   1  11  511.05   36.91 
  -1   0 -13  242.52   25.60 
  -1   0 -13  242.07   20.05 
   1   8   4   88.55   14.42 
  -1  -8  -4   78.97   15.15 
  -3   7   4   -1.31    7.23 
  -6  -2 -10   16.08   12.90 
  -6  -2 -10   32.11   16.25 
  -2   7  -1    3.25    7.44 
   1  -7  -9   65.18   24.58 
  -7   2  -4  824.32   52.86 
  -1   7   9   60.98   36.32 
  -4   4  -7  400.84   33.15 
  -4   4  -7  395.78   23.98 
   1  -7  -9   60.67   13.88 
  -7   2  -4  836.43   41.25 
  -5  -1   9  121.10   49.12 
   0   0  13   13.64    9.58 
   0   0 -13   15.61    8.95 
  -7   3   1   20.97   12.81 
   2   2 -11  131.56   33.89 
  -7   3   1   19.84   20.83 
   2   2 -11  166.60   18.42 
  -3   1  12 1109.50   48.87 
   1   7  10  531.00   42.50 
  -1  -7 -10  471.82   24.74 
  -1  -7 -10  506.24   44.60 
  -1  -8  -5   41.94   18.61 
   2   3 -10  120.64   27.64 
   1   8   5   26.56   12.51 
   2   3 -10  122.69   13.57 
  -3   7   2    2.98    6.07 
  -7   3   0  354.63   22.50 
  -5  -5   4  304.60   25.66 
   5   5  -4  315.00   22.75 
  -7   3   0  334.22   39.30 
  -4   2 -10   -0.07    6.94 
  -4   2 -10    2.38    5.74 
  -4   1 -11   85.74   37.04 
  -4   1 -11  110.78   21.80 
   1   8   3   48.25   14.95 
  -1  -8  -3   42.29   12.29 
  -2   5  -7    9.40   10.76 
  -7   0  -7  100.97   10.66 
  -2   5  -7    6.25    3.30 
  -7   0  -7   94.31   32.79 
  -6  -3 -10   11.08    9.55 
  -6  -3 -10    4.44    3.39 
   6   4  -4 1001.10   28.24 
  -4   5   9    2.08   12.01 
  -8  -1  -1    8.23    7.61 
  -8  -1  -2   13.65   21.34 
  -6   3   7  293.52   29.15 
  -7  -1   5   39.84   25.26 
  -7  -1   5   45.71   20.36 
  -7   3   2   80.65   31.47 
  -6   1   8   67.33   34.58 
  -7   3   2   53.65   36.88 
   1  -4 -13   20.27    8.68 
   0  -8  -4   82.22   24.35 
  -1   4  13   32.04   22.35 
   0   8   4   66.76   42.84 
   1  -4 -13   26.77   12.33 
  -6  -6  -4  391.98   21.29 
  -6  -6  -4  350.57   30.70 
  -7   1  -6   40.79   18.38 
  -7   1  -6   37.51   16.52 
  -3   7   5  394.74   35.10 
  -3   3  12   31.84   13.72 
  -5   1 -10   51.73   33.03 
  -3   6   9  195.45   43.00 
  -5   1 -10   71.17   12.97 
  -6  -6  -3   10.72   12.17 
  -6  -6  -3   24.13   11.70 
   2   7  10  145.73   18.23 
  -2  -7 -10  148.32   15.21 
  -2  -7 -10  155.18   56.12 
   0  -8  -5   17.95   12.95 
  -7  -3   3    0.71    3.84 
   0  -8  -5   16.35    4.61 
   7   3  -3    1.17    2.98 
   0   8   5   35.07   17.00 
  -7   3  -1  242.54   22.08 
  -7   3  -1  237.96   19.19 
  -2  -8  -4  151.72   20.83 
   2   8   4  112.33   16.27 
   1   8   6  132.25   34.85 
   0   8   3 1094.57   40.89 
  -4   5  -5  141.71   15.36 
  -1  -8  -6  103.01   10.47 
  -7  -2  -8  319.68   26.15 
   0  -8  -3 1087.75   39.73 
  -4   5  -5  127.24   25.45 
  -1  -8  -6  122.08   21.32 
   5   4  -6   23.42   12.89 
  -2   7   8   43.42   32.79 
  -3  -4 -13   78.45   24.67 
   3   4  13   86.72   23.59 
  -8  -1   0  173.29   19.16 
  -3  -4 -13   85.57   50.98 
  -2  -8  -5   65.17   18.81 
   2   8   5   55.99   10.63 
  -3  -1 -13   36.99   16.29 
  -7  -4   1    7.58    5.60 
  -3  -1 -13   33.27    9.80 
  -8   0  -1   13.87   12.28 
  -8   0  -1   12.78   12.42 
   0  -7 -10  387.92   25.42 
   0   7  10  391.57   38.11 
   0  -7 -10  391.64   24.11 
   4   7   8    6.50    6.48 
  -6  -6  -5  188.15   19.63 
  -4  -7  -8    9.02    8.23 
  -4  -7  -8    8.20    8.50 
  -6  -6  -5  170.44   22.72 
  -8  -1  -3  561.67   32.42 
  -6  -5   2  497.89   26.89 
  -6  -5   2  541.22   31.81 
   6   5  -2  524.98   17.54 
   4   7   0   13.43   12.82 
  -4  -7   0   13.11    8.82 
  -3   7   1   57.80   11.35 
  -5   2  -9   78.80   33.72 
  -5   2  -9   79.61   14.06 
  -6   0   8  354.93   25.59 
  -6  -1 -10  408.98   30.95 
  -6  -1 -10  412.45   20.11 
  -6   4  -3   86.22   22.93 
  -6   4  -3  118.57   14.52 
  -8  -2  -2  202.18   24.85 
   1   6  12    3.55    5.00 
  -1  -8  -2  120.84   22.57 
  -2   2  13  159.07   21.15 
  -1  -6 -12    6.18    7.37 
   2  -2 -13  173.10   52.65 
   1   8   2   93.62   21.05 
  -1  -6 -12    1.75    7.52 
  -8   0   0    4.80   10.20 
  -8   0   0    2.79    4.55 
   1   5  13   89.93   35.82 
   2   8   3   10.48    7.93 
  -1  -5 -13  101.42   17.22 
  -2  -8  -3    5.31    5.67 
  -1  -5 -13   88.20   35.85 
  -8   0  -2   82.92   16.97 
  -8   0  -2   81.44   10.95 
   1   7  -3   48.65   25.91 
  -2   0 -13  694.35   35.24 
  -4   3  11   69.67   36.95 
  -1  -7   3   39.04   11.41 
  -2   0 -13  681.87   36.93 
   0   7  -3  130.86   28.11 
  -4   6   7  370.02   34.54 
   0  -7   3  133.57   21.42 
  -5  -6  -9   43.07   21.23 
  -5  -6  -9   55.75   22.84 
  -5   5  -3   13.10    8.19 
  -5   5  -3   11.17    7.06 
  -6  -6  -2  518.43   37.16 
  -6  -6  -2  538.99   44.72 
  -8  -2  -1    0.87    6.12 
  -8  -2  -3   60.60   14.48 
  -6   2   8   38.30   24.88 
  -7   3   3   15.12    9.80 
  -7   3   3   22.55    9.83 
  -3   2 -11   56.84   25.93 
  -3   2 -11   72.60   17.84 
  -7   2   5  141.30   18.11 
  -7   2   5  121.00   20.47 
  -7  -4  -7   10.77    8.48 
   0  -8  -6   65.48   22.73 
   0   8   6   54.99   29.62 
   2   1 -12  241.44   68.89 
  -2  -1  12  211.89   37.01 
  -2  -8  -6   14.11    8.68 
  -2  -8  -6   19.22   10.64 
   2   8   6   24.93   13.30 
  -1   0  13  387.84   34.29 
  -2   4  -9    3.85    4.74 
  -2   4  -9    3.17    8.63 
  -4   0  11  521.82   47.45 
   1   0 -13  437.99   40.41 
  -7  -1  -8   50.29   18.14 
  -7  -1  -8   36.38   24.34 
  -5   1  10    2.83    5.95 
  -4   6  -2  928.14   77.91 
  -4   6  -2  995.85   76.35 
  -7  -3  -8   56.10   35.79 
   0   8   2  122.73   27.27 
   0  -8  -2  135.12   44.58 
  -5   5   7  199.85   28.88 
  -2   6  -5  470.39   38.83 
   2   4  -9  204.89   17.84 
  -4   3  -9  294.19   25.97 
  -4   3  -9  317.96   32.41 
   2   4  -9  244.43   26.78 
  -2  -6 -12  163.64   18.84 
   2   6  12  149.15   38.12 
  -2  -6 -12  167.62   22.97 
  -5   0 -11   32.51   18.49 
  -5   0 -11   44.77   18.37 
   2  -3 -13    2.65    7.57 
  -2   3  13    6.21    7.42 
  -4   0 -12  411.80   33.68 
  -3   7   6   80.82   20.26 
  -4   0 -12  411.40   36.00 
  -2  -5 -13   16.43   13.91 
  -5   2  10   44.47   18.29 
  -6  -6  -6   82.29   28.40 
  -2  -5 -13   20.59   11.57 
   2   5  13   15.85   11.60 
  -6  -6  -6   68.24   35.37 
  -3   6  -4    9.54    9.97 
  -3   6  -4   12.26    7.54 
  -8  -1   1  184.70   25.36 
  -8   0   1   90.15   22.86 
  -7   3  -2    8.35    8.44 
  -7   3  -2    3.18    7.66 
  -8   0   1   79.45   10.85 
   0   5  13  356.99   36.60 
   0  -5 -13  362.16   35.60 
   0  -5 -13  361.54   30.08 
  -3   1 -12  111.78   28.30 
   0  -6 -12  406.96   37.13 
  -6  -2   7   59.32   35.37 
  -3   1 -12   96.90   37.79 
   0   6  12  349.30   45.52 
   0  -6 -12  360.19   30.34 
  -6   4   6  465.38   42.51 
  -8  -1  -4   25.63   22.70 
  -5  -7  -4  606.74   49.67 
  -8   0  -3   42.20   26.31 
  -1  -8  -7  126.98   21.31 
   1   8   7  139.30   32.64 
  -1  -8  -7  163.62   32.51 
  -8   0  -3   41.65   13.77 
  -5  -7  -4  608.51   41.03 
   2  -1 -13  327.93   35.71 
   5   6  -2  140.53   24.22 
  -2   1  13  308.64   49.90 
  -5  -6   2  166.95   19.59 
  -3  -7   2  120.11   18.56 
  -3   0  12  461.95   46.25 
   3   7  -2  111.76   25.35 
  -2  -8  -2    7.44    7.33 
   2   8   2    6.55    5.65 
  -8  -2   0  106.39   16.49 
  -7  -5  -3  644.26   50.51 
  -5  -7  -5  257.72   28.69 
  -7  -5  -3  574.51   45.04 
  -5  -7  -5  244.51   21.49 
  -8  -2  -4  607.09   47.90 
  -7  -5  -4   26.57   24.86 
  -7  -5  -4   29.82   31.59 
  -5   4  -6  520.38   40.72 
  -6  -4 -10   96.02   17.36 
  -5   4  -6  471.74   59.90 
   0  -5   8   78.33    8.84 
   0   5  -8   71.17   46.71 
   1   3  14   70.82   25.01 
  -1  -3 -14   66.83   14.06 
  -1  -2 -14  187.64   36.28 
   6   3  -6   44.42   15.20 
   1   2  14  181.92   42.59 
   0  -6   6   21.54   12.65 
   0   6  -6   23.76   11.56 
   2  -5 -12   58.02   25.48 
  -2   5  12   64.09   40.80 
  -5  -7  -3  185.01   28.73 
  -3   5  11   33.29   19.85 
  -7   2  -5   53.73   13.81 
  -7   2  -5   53.23   17.01 
  -4  -5 -12   38.34   19.73 
  -2   7  -2    1.33    7.22 
  -4  -5 -12   40.88   11.39 
  -6  -5  -9   69.53   49.95 
   4   5  12   34.65   23.48 
  -6  -5  -9  104.03   16.28 
  -6   3  -6   36.12   25.63 
  -3   3 -10  244.11   41.81 
  -6   3  -6   68.16   14.45 
  -1   8   4  171.66   22.74 
  -3   3 -10  245.19   22.42 
  -6  -6  -1    3.79    4.66 
  -6  -6  -1    9.99    9.80 
  -7   0   6   18.20   13.36 
   1   8   1  239.09   31.39 
  -7   0   6   18.50   14.30 
  -4  -5   6    4.59    4.86 
  -1  -8  -1  262.62   26.61 
   4   5  -6    0.83    5.58 
  -2  -7   3  311.56   28.56 
   2   7  -3  334.87   32.16 
  -7   1   6    3.95    7.29 
   1   6  -6  129.16   42.48 
  -1  -6   6  129.35   13.66 
  -7   1   6    2.12    5.44 
  -7  -5  -2   17.66    8.17 
   2   8   7  175.67   24.03 
  -2  -8  -7  159.88   38.04 
  -7  -5  -2   12.29   11.33 
  -2  -8  -7  146.91   14.57 
  -1   7  -3   15.53   13.38 
  -3  -7 -10   61.20   32.32 
   0   2  14  136.63   27.58 
  -3  -7 -10   63.02   30.12 
   0  -2 -14  147.55   21.81 
   3   7  10   48.09   26.48 
   0  -8  -7  297.69   69.76 
   3   5  -7    5.74    7.89 
   0  -8  -7  294.04   23.33 
  -3  -5   7    2.64    5.11 
   0   8   7  302.25   40.41 
  -5   0  10   45.09   17.62 
  -1   8   5   63.17   35.05 
  -5   4   9    4.81   10.36 
   1  -8  -5   50.44   17.15 
   1  -8  -5   39.84    6.96 
   0   3  14 1088.43   81.36 
   0  -3 -14 1159.44   43.18 
   3   6  -5    3.19    5.07 
   1   5  -8   17.09   12.89 
  -5  -3 -12   19.34   15.53 
  -7  -5  -5  337.52   31.50 
  -5  -2 -12  522.67   43.97 
  -5  -3 -12    6.97    6.32 
  -5  -2 -12  493.79   39.92 
  -7  -5  -5  391.04   34.70 
  -7   3   4  629.93   49.54 
  -7   3   4  543.15   57.10 
  -5  -7  -6   35.65   13.88 
  -5  -7  -6   15.52   13.29 
   0   2 -12    5.72    9.15 
   0   2 -12    5.25    7.87 
  -8   1   0   98.77   50.79 
   0   8   1  545.22   41.96 
   0  -8  -1  554.60   44.86 
  -8   1   0   87.96   12.58 
  -5   3  -8  386.48   34.79 
  -5   3  -8  353.44   34.15 
  -8   1  -1    3.74    6.21 
  -8   1  -1   11.13    8.84 
   4   6  11   18.46   12.57 
  -4  -6 -11   13.02   10.50 
  -4  -6 -11   19.88   12.02 
  -3  -8  -4  168.92   22.17 
   3   8   4  155.06   23.31 
   4   3  -9  165.84   36.29 
   5   5  11   77.41   15.80 
  -6   1  -9  113.89   27.83 
  -5  -5 -11   91.15   39.24 
   3   8   5  224.29   23.96 
  -6   1  -9  137.06   21.89 
  -5  -5 -11   86.79   45.71 
  -3  -8  -5  241.98   33.57 
   0   3 -11  186.83   18.46 
   0   3 -11  205.69   44.82 
  -1   2 -12   62.12   43.91 
  -4  -3 -13  218.83   25.93 
  -1   2 -12   57.10   12.79 
  -4  -2  10    7.93    6.71 
  -4  -3 -13  209.53   39.47 
  -4  -6   4    5.62    5.36 
  -6  -1   8  558.35   58.25 
  -7  -2   5  482.69   40.00 
  -7  -2   5  510.32   37.69 
   4   6  -4    7.49    6.16 
   1  -7 -10  107.40   27.69 
  -1   5  -8   72.78   14.35 
  -1   7  10  136.62   35.47 
   1  -7 -10  101.80   52.98 
  -2  -3 -14  242.81   31.57 
   2   3  14  249.72   35.99 
  -3   4  12  332.08   46.17 
   1  -5   8   41.18   23.05 
  -7  -4   2   55.86   33.53 
  -8   0   2    9.84   12.84 
  -8   0   2    2.60    5.01 
  -5  -7  -2  842.52   59.89 
  -4  -2 -13   38.00   21.36 
  -4  -2 -13   44.58   21.89 
  -4  -7  -9  166.59   18.83 
   4   7   9  168.97   18.18 
  -4  -7  -9  172.46   22.66 
   2   2  14  242.65   28.08 
  -6  -6  -7  312.77   33.81 
  -2  -2 -14  258.37   27.91 
  -6  -6  -7  333.47   29.66 
  -2   6  11  104.86   21.20 
  -8   0  -4  367.06   33.98 
  -8   0  -4  379.94   27.78 
  -4  -7   1   59.93   32.68 
  -8  -3  -2  389.88   34.85 
   4   7  -1   55.70   26.79 
  -8  -3  -3   33.62   11.56 
  -1   6  -6  336.13   33.63 
   1  -6   6  345.55   33.49 
  -8  -2   1  125.89   19.62 
  -8   1   1   65.75   48.41 
  -5   6   2   12.78   11.87 
  -8   1   1   48.50   33.67 
  -8  -1   2  342.89   42.96 
  -5   6   2   30.72   12.98 
  -1   8   2  818.08   73.60 
  -5   6   3    4.12    5.91 
  -6   5   2   38.87   34.47 
  -3  -8  -3   97.80   18.21 
   3   8   3   82.36   17.22 
  -6   5   2   63.14   12.62 
  -1   3 -11  482.25   36.60 
  -1   3 -11  520.79   49.57 
  -8   1  -2   54.63   12.80 
  -8   1  -2   55.08   22.72 
  -8  -2  -5  179.35   23.95 
  -3   7   7  376.52   34.04 
  -7   3  -3  471.60   39.08 
   2   8   1   15.93   10.65 
  -2   7   9   47.09   29.10 
  -7   3  -3  401.00   46.90 
  -2  -8  -1   26.69   19.53 
  -6   4  -4    6.12    6.72 
   1  -8  -6    6.93    8.24 
   1  -8  -6    1.68    2.19 
  -1   8   6    5.66    6.06 
  -8  -1  -5  423.50   40.49 
  -6   4  -4    7.57    8.62 
  -7  -5  -1  150.93   18.23 
  -7  -5  -1  122.76   17.62 
  -3  -8  -6  147.91   22.59 
   3   8   6  164.42   22.32 
  -5   3  10  178.76   57.19 
  -6   5   1   17.49   12.14 
  -6   5   1   12.30    9.20 
  -1  -7 -11   45.14   15.69 
  -1  -7 -11   50.24   15.54 
   1   7  11   47.31   24.04 
  -3  -6 -12   12.45   12.37 
   1   8   8  327.32   39.14 
  -3  -6 -12   19.13    9.94 
  -6   0 -10   26.81   12.95 
  -1  -8  -8  304.81   25.69 
  -6   0 -10   53.99   15.15 
   3   6  12   10.95   11.33 
  -1  -8  -8  299.10   47.39 
  -7   0  -8  654.28   45.96 
  -7   0  -8  768.28   68.50 
  -7  -3   4  821.48   59.02 
   7   3  -4  860.94   55.94 
  -1  -4 -14  523.89   44.94 
   1   4  14  504.41   46.10 
  -1  -4 -14  491.46   35.06 
  -6   5   3   -0.19    7.05 
   1   1  14  461.32   41.06 
  -1  -1 -14  437.96   43.20 
  -4   6   8  199.55   26.81 
  -7   1  -7  134.73   28.67 
  -7   1  -7  117.83   13.58 
   3   3 -10  137.06   16.59 
   3   3 -10  132.89   23.75 
  -6   3   8   33.91   21.84 
  -8  -3  -1    3.77    5.31 
  -7  -4  -8   72.84   14.25 
   3   5  13    1.61    3.53 
  -3  -5 -13   11.79    7.29 
  -3  -5 -13    2.06    4.63 
  -6   2  -8   35.80   14.03 
  -6   2  -8   40.01   11.93 
   2  -4 -13   16.64   14.40 
   2  -4 -13   12.53   10.66 
  -8  -3  -4  625.31   48.76 
  -5   6   1  344.22   44.81 
  -2   4  13   16.85    9.36 
  -5   6   1  362.03   45.97 
  -3   0 -13  945.56   73.42 
  -7  -5  -6   95.63   19.80 
  -7  -5  -6   88.95   15.58 
  -3   0 -13  901.55   64.67 
   3   2 -11   53.14   21.87 
  -7  -1   6   62.56   33.72 
   3   2 -11   60.43   12.55 
  -6  -5   3  263.26   26.44 
   6   5  -3  259.94   20.36 
  -5  -2   9  156.62   33.00 
   5   3  -8   66.77   12.03 
  -5   6   4   23.07   13.05 
  -3   5  -7   14.79   11.43 
  -3   5  -7   25.65   14.15 
   1   2 -12   64.68   11.79 
   1   2 -12   69.62   16.59 
   1  -5 -13  391.55   36.19 
  -1   5  13  382.35   57.16 
   1  -5 -13  363.20   27.78 
   1   3 -11  101.28   41.05 
   1   3 -11  139.65   60.19 
   0  -1 -14   78.42   15.31 
   5   5  -5   94.86   18.00 
  -5  -5   5   80.69   27.56 
   0   1  14   58.89   36.06 
  -5   5  -4   11.07    9.34 
   6   4  -5  135.50   37.32 
  -5   5  -4   13.31    7.21 
  -5  -7  -7   80.21   31.61 
  -5  -7  -7   72.06   31.24 
  -4   4  11  530.13   50.58 
  -1   6  12   11.36    9.02 
  -3   6  10    8.50    7.70 
  -4   6  -3   53.81   12.40 
   1  -6 -12    4.78    7.15 
   1  -6 -12    5.33    5.61 
  -4   6  -3   42.37   27.91 
   2   7  11  108.58   17.31 
  -2  -7 -11   91.16   14.59 
  -2  -7 -11   99.00   38.23 
  -6  -6   0  102.42   18.40 
  -6  -6   0   97.16   11.82 
   0   1 -13    5.89    5.85 
   0   1 -13    3.27    8.62 
  -1   1 -13   22.50   10.53 
  -7   2   6    2.17    6.14 
  -7   2   6    0.24    8.46 
  -1   1 -13   26.47   11.51 
  -4   5  10   82.36   54.36 
  -7  -2  -9   10.71    7.77 
  -6   5   0    9.51    9.23 
  -2  -6   6   19.52   11.29 
   2   8   8  343.53   34.60 
  -6   5   0    2.11    7.54 
  -2  -8  -8  344.03   55.60 
  -2  -8  -8  334.06   26.45 
  -5  -6 -10   89.29   31.41 
  -5  -6 -10   65.50   35.38 
   2   6  -6   21.58   17.10 
  -3   7  -1  179.85   50.62 
  -5  -4 -12   43.13   19.61 
  -5  -1 -12    9.61    8.57 
  -5  -1 -12    9.83   12.61 
  -5  -4 -12   33.30   15.17 
  -5  -4 -12   28.57   27.27 
   1   8   0  123.06   25.34 
   2   0 -13   42.64   16.62 
  -2   0  13   31.67   23.76 
  -1  -8   0  128.52   20.75 
  -8   1   2   44.64   14.06 
  -8   1   2   34.84   24.12 
   0  -4 -14    7.58   14.04 
   0   4  14    4.81   10.16 
   0  -4 -14    3.21    3.93 
  -3  -8  -2   10.43    9.03 
  -4  -4 -13   89.13   49.38 
  -4  -4 -13   91.08   27.38 
   3   8   2    1.38    3.95 
   4   4  13   80.52   14.72 
   4   4  -8  327.29   47.77 
  -2  -4 -14   97.05   13.10 
   2   4  14  107.33   24.05 
  -2  -4 -14   88.82   63.20 
  -5   5   8   14.10    9.50 
   1  -2 -14   41.86   21.25 
   0  -7 -11  439.11   36.93 
   0  -7 -11  407.88   33.12 
  -1   2  14   44.96   11.96 
   0   7  11  418.60   59.20 
  -6  -2 -11  153.21   32.52 
  -6  -2 -11  170.72   21.11 
   0   8   8   35.17   28.63 
   0  -8  -8   53.28   23.48 
   0  -8  -8   37.02   22.43 
  -5  -7  -1   15.36   10.71 
  -8   1  -3    4.23    7.66 
  -8   1  -3    3.79    5.36 
  -6   4   7  184.43   21.68 
  -6  -3 -11   75.42   52.69 
  -4  -1  11   14.72    9.67 
  -4   4  -8   89.58   31.43 
  -4   4  -8  114.57   12.90 
  -6   5   4  159.09   23.02 
  -6   5   4  155.62   37.30 
  -3  -8  -7   26.37   24.73 
  -3  -8  -7   60.01   16.08 
   3   8   7   34.74   21.37 
  -1   8   1  410.80   41.45 
  -4   5  -6  155.36   20.45 
  -2   2 -12   53.05   31.09 
  -2   2 -12   43.46   23.91 
  -4   5  -6  190.38   28.39 
   0   8   0  101.43   26.03 
   1  -3 -14  105.64   48.18 
   0  -8   0   95.90   58.97 
  -7  -3  -9    5.01    9.08 
  -1   3  14  134.41   20.07 
   2   5  -8   62.17   35.25 
   0   4 -10  248.18   20.37 
   0   4 -10  279.18   30.45 
  -7   3   5   67.67   30.57 
  -7   3   5   71.16   17.82 
   0   7  -4   11.63    9.55 
   0  -7   4    9.21    8.19 
  -8  -3   0   32.85   27.59 
  -4  -1 -13   52.85   18.63 
  -4  -1 -13   66.38   23.21 
   1  -8  -7    3.78    4.12 
   1  -8  -7   16.40   11.31 
  -1   8   7    5.09   10.45 
  -2  -1 -14   16.88   12.43 
  -5   6   0   69.96   17.91 
   1   7  -4   78.32   19.80 
  -1  -7   4   63.77   41.49 
  -2  -1 -14   15.24    9.14 
  -5   6   0   83.38   36.71 
  -8   0   3  370.27   30.93 
  -8   0   3  360.83   35.88 
  -6   1   9  161.98   18.80 
  -8  -3  -5   51.62   10.48 
  -3   4  -9  227.60   28.56 
  -3   4  -9  250.51   28.81 
  -5   6   5   29.23   16.04 
  -7  -5   0   15.74    9.19 
  -8   0  -5    4.11    9.62 
  -6  -6  -8    3.31    7.34 
  -8  -2   2  127.69   63.21 
  -6  -6  -8    8.69    7.14 
   5   6  -3    8.25    5.77 
  -5  -6   3   10.81    6.02 
  -7  -1  -9  453.29   38.86 
   3   4  -9  541.10   42.20 
   3   4  -9  510.96   35.51 
  -7  -1  -9  372.12   30.15 
  -2   3 -11  168.79   36.10 
  -2   3 -11  184.96   35.85 
  -8  -2  -6  224.03   25.28 
  -7   2  -6  118.77   15.27 
  -7   2  -6   99.07   41.82 
  -1   4 -10   21.63    7.42 
  -1   4 -10   19.83   12.05 
  -2   5  -8   12.28    8.39 
  -2   5  -8    2.76    4.22 
  -3  -3 -14  183.83   23.89 
   3   3  14  173.59   19.77 
   3   7  -3  292.07   35.28 
  -3  -7   3  284.32   35.49 
  -2   7  -3  295.53   35.37 
  -8  -1   3   75.73   11.05 
  -4   2  12   91.77   53.72 
  -8  -1   3   61.02   44.44 
  -2  -8   0  430.99   39.22 
  -5  -1  10  517.34   52.23 
   2   8   0  403.74   37.57 
  -6   5  -1    1.35    3.79 
  -6   5  -1    3.98    9.87 
   5   4  -7    2.89    6.39 
   1   1 -13   29.41   13.20 
  -7  -5  -7   23.69   11.35 
  -7  -5  -7   14.40    8.98 
   1   1 -13   23.66    7.85 
  -3   6  -5    7.01    7.10 
  -3  -1  12  267.61   28.31 
   1   4 -10    4.69    5.66 
   1   4 -10    6.83    5.57 
   3   1 -12  324.61   30.41 
  -3  -2 -14   44.11   13.26 
  -2   1 -13   15.86    9.30 
  -6   2   9    7.91   11.04 
  -2   1 -13   14.41   11.85 
  -3  -2 -14   35.49   18.97 
  -8  -1  -6  156.52   23.09 
  -6  -5 -10   18.19   12.17 
  -6  -5 -10   15.41   14.00 
  -7   3  -4   26.48   18.60 
  -3   2  13   10.61    9.92 
  -7   3  -4   24.55   30.72 
  -4   7   3   20.20   17.12 
  -3   7   8  208.00   29.51 
  -1   1  14  111.28   27.37 
   1  -1 -14  136.76   51.49 
  -6   0   9   57.73   44.09 
  -4   1  12   35.59   27.70 
  -5  -7  -8    1.76    7.29 
  -5  -7  -8   11.35    9.36 
  -2   8   4    6.96    9.45 
  -6  -1 -11   19.30   12.45 
  -6  -1 -11   29.10   12.32 
  -7  -4   3  327.01   32.80 
  -2   6  -6    6.80    7.57 
  -8   1   3   28.30    9.87 
  -4   2 -11   44.47   27.64 
  -8   1   3   34.09   20.36 
  -4   2 -11   46.32   11.94 
   1   8   9  327.30   55.25 
  -1  -6 -13    5.63    9.96 
  -1  -8  -9  319.18   33.00 
  -1  -6 -13    1.92    7.28 
   3   8   1    7.39    7.96 
   1   6  13    9.67   10.13 
  -1  -8  -9  321.44   26.74 
  -3  -8  -1   10.84    6.89 
  -7   4   1   79.39   49.66 
  -7   4   1   81.81   37.98 
  -4   7   4  147.30   22.82 
  -2   8   3  236.41   30.11 
  -5   1 -11   53.91   39.68 
  -5   1 -11   70.83   14.35 
  -6   5   5    7.53   11.15 
  -4   7   2  165.74   25.23 
  -3  -7 -11   36.94   11.75 
   4   7  10  203.09   21.34 
  -4  -7 -10  164.09   45.37 
  -3  -7 -11   27.83   11.13 
   3   7  11   28.85   18.98 
  -4  -7 -10  199.66   23.43 
  -7   1   7   25.50   16.66 
  -7   4   2    4.05    9.39 
  -8   1  -4   12.74    5.14 
  -8   1  -4    8.93    7.10 
  -5   2 -10    9.09    9.90 
  -5   2 -10   10.07    7.49 
  -2   8   5  194.23   35.07 
  -8   2   0  131.51   24.26 
  -4  -7   2   34.47   26.37 
  -8   2   0  123.83   17.43 
   4   7  -2   23.50   17.40 
  -1   7  -4  471.10   48.01 
  -4   1 -12   44.35   22.50 
  -4   1 -12   52.33   28.85 
   1  -7   4  492.90   39.88 
  -6   3  -7   39.57   11.63 
  -6   3  -7   36.72   28.56 
  -3  -8  -8   14.17   10.33 
   3   8   8   13.95    8.65 
  -3  -8  -8   12.34    7.69 
  -6  -4 -11   17.01   25.11 
  -7   0   7    9.66    9.96 
  -7   4   0  137.68   52.38 
  -7   4   0  128.86   17.36 
  -5   4  -7  479.48   39.29 
   2   7  -4  151.69   32.86 
  -2  -7   4  175.52   23.25 
  -5   4  -7  469.11   39.85 
  -6  -6   1   34.62   31.06 
  -8  -3   1  109.08   31.69 
  -5  -7   0   75.99   47.09 
  -5   6  -1  593.24   49.54 
  -5   6  -1  642.44   50.75 
  -8   2   1  155.61   23.91 
   2   3 -11   36.61   23.74 
  -3   1  13   28.24   17.91 
   2   3 -11   39.75    7.99 
  -8   2   1  124.61   22.58 
  -1   8   0   55.77   31.80 
   1  -8   0   58.80   30.42 
  -2  -8  -9   67.54   42.57 
   2   8   9   76.84   12.35 
  -3   3  13  161.49   38.39 
  -2  -8  -9   88.80   26.26 
  -2  -6 -13   73.53   43.14 
   2   6  13   61.29   37.55 
  -2  -6 -13   90.69   33.02 
  -8   2  -1  203.82   25.82 
  -1   4  14  369.26   49.64 
   1  -4 -14  401.42   54.45 
  -8   2  -1  199.02   20.21 
  -8  -3  -6   52.23   30.52 
  -6   4  -5   91.29   15.22 
  -6   4  -5  110.02   14.89 
   3   4  14   81.78   43.19 
   4   8   5  221.10   28.12 
  -3  -4 -14   90.95   39.48 
  -4   3  12  728.79   56.14 
  -4  -8  -5  233.87   31.07 
  -3  -4 -14   65.45   24.90 
   4   8   4  739.04   52.26 
   2   2 -12   11.90   11.11 
  -5   6   6  193.05   26.88 
   2   2 -12    9.71    4.69 
  -2   8   2  251.74   30.39 
  -6  -2   8  163.09   28.29 
  -4   7   5    5.16    8.87 
  -3   7  -2  526.74   44.77 
  -2   7  10    6.18    8.99 
   1  -8  -8   14.85    9.95 
  -1   8   8    9.20   11.30 
   1  -8  -8    3.33    6.44 
  -1  -5 -14   49.77   19.76 
   1   5  14   42.72   30.51 
  -1  -5 -14   28.11   14.94 
  -1   7  11   18.88    9.22 
   1  -7 -11   25.06   10.97 
   1  -7 -11   20.41    8.90 
   6   3  -7   34.04   23.43 
  -7  -4  -9  330.77   33.27 
  -7   4   3  120.62   47.73 
  -7   4   3  138.29   33.59 
   0  -8  -9  730.55   55.64 
  -1   0 -14   21.03   14.35 
  -1   0 -14   20.15   13.22 
   0   6  13    2.76    4.89 
  -1  -8   1  337.08   46.96 
   0   8   9  763.15   58.94 
   0  -8  -9  693.28   49.26 
   1   8  -1  306.30   33.52 
   0  -6 -13    1.37    5.27 
  -4   6   9   58.86   13.30 
  -8  -4  -3  962.56   67.76 
  -4   7   1   40.32   32.92 
  -7  -2   6   58.59   37.41 
  -5   4  10  134.03   20.35 
   0   0 -14   21.90    9.45 
   0   0 -14   19.83   21.78 
  -5   1  11  108.68   21.66 
  -5   2  11  146.61   22.14 
  -2   8   6  232.11   79.43 
  -7  -5   1   32.25   24.95 
  -8  -4  -2   51.72   27.64 
  -4  -8  -6   27.54   14.17 
   0  -8   1   20.71    8.66 
  -4  -6 -12  238.79   64.24 
  -4  -6 -12  267.57   28.02 
   0   8  -1   14.32    7.93 
   4   6  12  253.04   23.04 
  -4   3 -10   21.49    9.93 
  -8  -4  -4  164.53   41.56 
  -4   3 -10   19.41   14.75 
   4   8   3  392.01   36.13 
  -8   2   2   50.11   35.32 
  -3   5  12    3.62    6.59 
  -8   2   2   45.11   41.43 
  -6   5  -2   13.40   14.29 
  -7   4  -1  225.78   32.77 
  -6   5  -2   18.77   10.29 
  -7   4  -1  173.48   41.57 
   4   6  -5  378.00   46.84 
  -8   0   4   16.86   16.04 
  -4  -6   5  348.70   29.38 
   0  -6   7  364.70   29.32 
  -8   0   4   12.68   13.27 
   0   6  -7  375.03   50.46 
  -4   6  -4   41.66   12.05 
  -4   6  -4   44.57   12.44 
  -7   3   6  730.58   60.73 
   7   3  -5    8.25    5.44 
  -7   3   6  698.21   53.04 
  -8   2  -2    0.93    5.11 
  -8   2  -2    5.38    8.98 
  -4  -5 -13   68.25   31.26 
   4   5  13   56.13   12.41 
  -4  -5 -13   48.66   31.61 
   2   5  14    4.62    7.83 
  -2  -5 -14    0.84    3.73 
  -2   4 -10  191.87   62.95 
  -5  -5 -12   59.56   48.54 
  -2  -5 -14    3.39    4.62 
  -5  -5 -12   90.16   24.09 
  -2   4 -10  195.96   18.41 
  -5   0 -12   14.04    5.85 
  -5   0 -12   22.03   12.15 
  -3  -6   6  118.75   11.31 
   3   6  -6  120.30   28.34 
  -3  -1 -14  466.56   37.83 
  -5   5  -5  262.55   30.36 
  -4  -5   7  149.52   13.53 
   4   5  -7  180.92   39.63 
  -5   5  -5  270.17   30.25 
  -3  -1 -14  490.29   41.47 
   6   5  -4  285.23   29.32 
  -7   2   7  137.60   20.37 
  -7   1  -8  320.13   39.79 
  -8   0  -6  204.41   27.15 
  -7   1  -8  281.81   25.08 
  -8  -2   3   70.57   13.14 
   0   5  14  312.06   31.52 
   2  -5 -13  114.21   19.75 
   0  -5 -14  342.84   32.49 
   2  -5 -13  153.31   21.43 
   0  -5 -14  313.42   25.97 
  -2   5  13  134.35   22.59 
   1   6  -7   10.56    8.80 
  -1  -6   7    6.54    6.08 
  -6  -6  -9   68.43   32.27 
  -6  -6  -9   90.24   15.13 
  -7  -5  -8   28.26   22.22 
  -1  -7 -12    8.66    6.31 
   1   7  12    6.65   10.71 
  -1  -7 -12   15.54    8.17 
  -7  -5  -8   43.23   10.94 
  -8  -2  -7   12.99    7.68 
  -7   0  -9    5.50    7.51 
  -2   2  14    4.32   10.60 
   2  -2 -14    8.47    9.10 
  -4   0  12  343.82   32.49 
  -7   0  -9    7.09    5.42 
   2  -6 -12  954.18   64.13 
  -2   6  12  991.72   75.48 
  -3   2 -12   30.16   12.89 
   2  -6 -12 1032.60   43.92 
  -3   2 -12   16.39    8.93 
   2   4 -10    3.60    6.89 
   2   4 -10    2.08    3.91 
  -6   4   8   86.27   14.06 
  -5   3  -9    7.46    8.73 
  -5   3  -9   15.30   10.30 
  -6   3   9   79.93   28.90 
  -5  -6 -11    1.07    6.07 
  -5  -6 -11    4.79    6.69 
  -6   1 -10   86.25   20.89 
  -6   1 -10   58.44   41.91 
  -8  -4  -1  336.06   39.70 
  -5   5   9    6.60    8.37 
  -2   8   1   65.10   38.27 
  -8  -4  -5   81.94   40.11 
  -6   5   6   11.73   16.42 
  -4   7   6  590.31   51.68 
   3   8   0    4.91    5.54 
  -2  -8   1   13.68    6.89 
  -8   1   4  252.56   24.95 
  -3  -8   0    5.17    7.42 
   2   8  -1   13.38    7.38 
  -8   1   4  258.00   27.44 
   0   5  -9   58.26   19.03 
  -7   4   4  177.50   31.44 
  -7   4   4  211.77   27.96 
  -7  -1   7   96.51   42.87 
  -8  -1   4  700.49   47.24 
  -8  -1   4  615.71   49.68 
  -4   0 -13   16.50   12.50 
  -4   0 -13   12.33   12.41 
  -2   0 -14  563.60   44.95 
  -2   0 -14  542.18   42.07 
  -5  -7  -9  302.68   27.59 
  -5  -7  -9  287.01   41.94 
   2  -3 -14    9.63    9.91 
  -2   3  14    9.41    9.02 
  -4  -8  -7    2.48   10.86 
   3   5  -8  152.34   19.04 
  -4  -8  -7    5.85    4.45 
  -6  -1   9  901.06   65.09 
   2   7  12    7.62   10.39 
  -2  -7 -12   10.10    8.24 
  -2  -7 -12    9.53   10.98 
  -3   6  11  152.23   46.13 
  -7  -2 -10    6.23    5.47 
  -4   7   0  354.34   44.01 
  -4   7   0  403.51   38.59 
  -5  -3 -13  190.93   24.35 
   4   8   2  671.39   46.56 
  -4  -8  -2  666.55   53.81 
  -5  -3 -13  162.08   29.20 
  -8   1  -5    1.97    9.00 
  -8   1  -5    2.64    4.23 
  -8  -1  -7   11.71    9.06 
   1  -6   7   13.42    6.31 
  -1   6  -7   20.63   11.68 
   2   1 -13  300.09   32.37 
   6   4  -6  195.13   25.98 
  -7   3  -5  179.75   21.23 
  -7   3  -5  190.15   35.04 
  -3  -8  -9  110.19   15.69 
   3   8   9   91.47   34.72 
  -3  -8  -9  102.49   29.13 
  -3  -6 -13  405.88   33.80 
   3   6  13  419.01   36.45 
  -3  -6 -13  457.22   41.74 
  -7  -3 -10   39.02   24.51 
  -8   2   3   29.21   12.15 
  -8   2   3   13.58   10.17 
  -6   2  -9    5.60    8.57 
  -6   2  -9    8.43    8.35 
  -5  -2 -13   26.99   17.47 
  -3   1 -13  525.36   32.48 
  -3   1 -13  533.07   33.76 
  -5  -2 -13   37.67   22.47 
  -2   8   7    6.09    6.68 
  -8  -3   2    1.94    3.61 
  -3   7   9    5.22    7.79 
  -5   6  -2   42.95   35.71 
  -3   3 -11  219.40   53.26 
  -3   3 -11  223.99   25.03 
  -5   0  11   10.78    8.44 
  -5   6  -2   57.85   15.90 
  -6  -7  -4  121.14   12.86 
  -1   0  14    7.27   10.85 
   1   0 -14   14.33    9.76 
  -6  -7  -4  103.89   55.36 
   5   5  -6   70.18   18.65 
  -5   3  11  429.19   32.28 
   1   5  -9    8.64    6.49 
  -4   5  11   42.25   22.33 
  -8  -3  -7  146.32   21.08 
  -7   4  -2  243.24   39.96 
  -7   4  -2  296.54   32.23 
  -7  -6  -4   15.02   12.47 
   0  -7 -12   43.70   11.84 
   0   7  12   30.18   18.33 
   0  -7 -12   34.80   23.97 
  -7  -6  -4   24.26   14.22 
  -8   2  -3  158.28   16.92 
  -8   2  -3  156.40   19.26 
  -6  -7  -5   78.43   50.61 
  -6  -7  -5   64.86   22.00 
  -1  -8 -10  267.49   27.77 
  -1  -8 -10  236.24   19.99 
  -3   0  13  965.85   48.65 
   3   0 -13  994.38   40.64 
   1   8  10  255.27   26.27 
  -5   6   7   71.62   44.31 
  -3   4  13   42.73   33.05 
  -1   5  -9   44.13   36.93 
  -6   0 -11   39.40   26.69 
  -6   0 -11   53.54   31.02 
  -1   8  -1   49.56   16.90 
   1  -8   1   46.78   13.67 
  -7   2  -7   48.51   12.40 
  -7   2  -7   42.71   24.56 
  -7  -6  -3   66.07   41.32 
  -5  -7   1   29.06   18.32 
  -7  -6  -3   61.19   35.88 
   2  -1 -14   27.50   20.14 
  -2   1  14   31.12   13.13 
  -5  -6   4  150.36   16.81 
   5   6  -4  151.38   21.76 
   1   3  15  112.43   31.80 
  -1  -3 -15  127.77   20.44 
  -7  -6  -5   16.21   12.08 
  -6  -7  -3  214.82   80.05 
  -7  -6  -5   20.67   13.88 
  -2   7  -4  112.10   47.20 
   4   3 -10  525.43   32.83 
  -3   5  -8   37.05   20.00 
  -3   5  -8   52.88   37.88 
  -4  -3 -14  129.90   19.65 
  -4  -3 -14   78.87   41.99 
   0  -7   5  346.70   24.41 
   0   7  -5  280.64   55.85 
  -6  -6   2   12.33   14.13 
   1  -8  -9   21.66   11.32 
   1  -8  -9   18.80    7.80 
  -1   6  13  691.84   64.18 
   1  -6 -13  745.93   40.90 
   1  -6 -13  701.30   32.97 
  -1   8   9    9.51   16.52 
  -4   5  -7   14.59   18.88 
  -4   5  -7   33.47   17.53 
   1   7  -5   14.07   10.03 
  -1  -7   5   14.94   12.07 
  -8  -4   0    6.09    7.46 
   2   8  10    8.88   11.48 
  -2  -8 -10   11.76    9.44 
  -2  -8 -10   13.90   13.99 
  -1  -2 -15  141.08   62.97 
   1   2  15  149.19   20.24 
  -7  -4   4  290.62   22.46 
  -3  -7   4   64.31   11.14 
  -8  -4  -6    4.26    6.39 
   3   7  -4   59.46   28.73 
  -4   4  12  150.58   57.67 
  -6  -7  -6   65.83   33.35 
  -6  -7  -6   60.22   10.30 
   2   6  -7    3.84    7.48 
  -3  -5 -14    3.94    7.15 
  -3  -5 -14    2.85    5.56 
   3   5  14    5.70    5.50 
  -4  -2 -14   14.44   13.06 
  -4  -7 -11  117.17   22.14 
  -6  -5 -11  535.48   44.28 
  -4  -2 -14   10.07    6.99 
  -6  -5 -11  528.54   36.59 
  -4  -7 -11   97.97   43.96 
  -6  -3 -12   14.32   14.98 
  -5  -4 -13   94.74   16.49 
  -6   5  -3   12.98    7.89 
  -7  -1 -10  118.19   37.80 
  -5  -4 -13   61.49   29.92 
  -6   5  -3    9.07    7.86 
   5   3  -9  397.12   48.83 
   0  -3 -15   66.67   15.10 
   0   3  15   53.31   28.81 
  -7  -6  -2   10.33   10.70 
  -7  -6  -2   10.66    6.26 
  -6  -2 -12   23.86   14.57 
  -6  -2 -12   25.64   13.78 
   4   7  -3  391.54   27.22 
  -4  -7   3  357.56   24.44 
  -7  -5   2   19.02   14.54 
  -2   8   0   28.59   14.49 
   0  -8 -10  140.57   50.39 
   0   8  10  176.19   21.22 
   0  -8 -10  144.29   17.18 
  -3   7  -3    5.31    6.85 
   0   2  15   30.28   16.42 
   0  -2 -15   27.95   11.05 
  -4  -8  -8  132.27   32.26 
  -4  -8  -8  144.49   35.31 
  -7   4   5  345.71   30.79 
   2   3  15   88.36   22.54 
  -7   4   5  370.35   27.55 
  -2  -3 -15   82.22   49.90 
  -5  -2  10  130.56   52.64 
  -4   7   7   96.77   46.82 
   1  -5 -14   38.23   22.46 
  -4  -8  -1   42.12   28.15 
  -1   5  14   36.06   28.97 
   1  -5 -14   40.12   15.61 
   4   8   1   48.14   11.41 
   1   8  -2    2.48    6.54 
  -1  -8   2    0.97    7.58 
  -7  -6  -6    9.27    8.42 
  -7  -6  -6   17.69   16.13 
   0   3 -12  394.98   41.69 
   0   3 -12  351.83   22.50 
  -3   6  -6   71.63   36.52 
  -4   4  -9   29.63   17.43 
  -4   4  -9   27.17   20.94 
   0   2 -13  238.80   87.23 
  -6  -7  -2  162.12   37.24 
   0   2 -13  225.47   29.60 
   0  -8   2  106.53   20.81 
  -6   1  10   24.16   12.09 
   2  -4 -14    6.53    6.32 
   0   8  -2   74.04   41.08 
  -2   4  14   13.08   15.25 
  -1   2 -13    5.08   11.36 
  -3  -7 -12  396.39   36.50 
  -3  -7 -12  350.38   27.06 
  -1   2 -13    0.49    4.76 
   3   7  12  374.66   23.68 
  -4   7  -1  489.70   55.21 
  -8   0   5  484.71   50.81 
  -8   0   5  488.48   42.97 
   2   2  15   70.16   28.35 
  -2  -2 -15   73.08   15.67 
  -6   4  -6   33.38   31.59 
  -6   4  -6   34.12   33.38 
  -1  -4 -15  158.64   22.59 
  -4  -4 -14   14.17   12.70 
  -4  -4 -14   19.93   16.82 
   4   4  14    9.43   11.11 
  -1   3 -12    7.19    9.00 
   1   4  15  154.41   42.40 
   4   4  -9  143.32   55.44 
   4   4  -9  133.44   30.65 
  -7   1   8  151.72   26.74 
  -8   2   4    4.58    7.48 
   3   3 -11   50.77   32.60 
   3   3 -11   55.61   31.34 
  -5  -1 -13    5.04    7.22 
  -8   2   4    2.00    5.84 
  -7  -4 -10   53.42   29.91 
  -7   3   7   40.05   12.44 
  -8  -2   4   83.44   45.75 
  -1   7  -5  316.52   54.14 
   1  -7   5  321.43   22.92 
  -7  -5  -9   16.91    7.13 
  -7  -5  -9   18.51   10.43 
  -8   0  -7  337.66   37.75 
  -2   8   8   25.32   18.41 
  -6   5   7  112.36   25.06 
  -6   2  10   97.95   48.22 
  -4   6  10    7.20    7.48 
  -2   7  11  686.74   41.96 
   2  -7 -11  693.64   40.38 
   2  -7 -11  708.27   37.61 
  -6  -7  -7    1.96    5.81 
  -6  -7  -7    4.37    8.47 
  -8   2  -4   41.15   28.17 
  -8   2  -4   36.80   24.84 
   3   8  -1  165.36   22.04 
  -7   4  -3   32.44   11.53 
  -3  -8   1  182.38   46.37 
  -7   4  -3   22.22   19.81 
  -6   3  -8   64.32   46.62 
  -8  -2  -8   29.76   12.21 
  -8   1   5   19.55   23.06 
  -6   3  -8   60.15   36.05 
  -8   1   5   17.97   19.60 
   2   5  -9   33.17   21.04 
  -3   8   4   94.47   54.64 
  -6  -6 -10   80.88   16.36 
   3   2 -12   97.35   16.39 
   3   2 -12   80.35   42.51 
  -6  -6 -10   70.94   58.58 
  -7   0   8   24.19    9.08 
   2   7  -5   77.65   32.15 
  -2  -7   5   73.30   18.94 
  -3   0 -14  101.70   18.90 
  -2   6  -7  272.14   38.19 
  -3   0 -14   95.16   19.15 
  -3   8   3   18.75   16.25 
  -7  -6  -1  179.52   19.82 
  -7  -6  -1  188.18   16.37 
   5   4  -8   19.54   11.53 
  -3   4 -10    5.29    5.83 
  -3   4 -10    5.00    6.60 
  -6  -4 -12  321.47   33.50 
   2   4  15   12.51   12.10 
  -2  -4 -15    8.84   10.07 
  -8   1  -6   21.31   11.27 
   1   3 -12  286.60   66.24 
   1   3 -12  288.11   19.54 
  -8   1  -6   13.29   10.30 
   0   4  15  571.07   38.22 
  -5  -7 -10   23.25    8.95 
   0  -4 -15  615.38   37.71 
  -5  -7 -10   10.73   12.61 
  -2   5  -9  135.47   19.06 
  -4   6  -5   12.25    8.83 
  -8  -4   1   81.99   16.98 
  -1   7  12  588.60   41.13 
   1  -7 -12  585.32   34.80 
  -2  -8   2  218.39   47.08 
   1  -7 -12  541.69   29.50 
   2   8  -2  229.44   29.63 
  -1  -1 -15   36.32   34.15 
  -8   3   1  201.20   25.40 
  -5   4  -8   38.97   31.22 
  -5   4  -8   45.17   20.53 
  -8   3   1  221.93   22.19 
  -3  -8 -10   23.53   18.80 
  -8  -3   3   33.14   32.64 
  -8   3   0  259.47   28.54 
  -3   8   5   70.21   30.32 
  -8   3   0  266.85   31.47 
   3   8  10   20.45   15.45 
  -5   6  -3  103.74   22.92 
  -3  -8 -10   27.54   11.75 
  -5   6  -3  113.89   29.93 
  -8  -4  -7   74.81   13.52 
  -6   0  10  612.99   50.09 
  -8  -1   5   10.70   14.77 
   1   2 -13    4.96    6.07 
   1   2 -13    9.49   10.30 
  -8  -1   5   10.25   11.12 
  -4  -1  12   33.82   24.47 
  -7  -6  -7    3.13    7.58 
  -7  -6  -7    3.80    7.01 
  -6  -1 -12   17.18   17.03 
  -6  -1 -12   29.44   12.14 
  -7  -2   7   34.74   31.16 
  -8  -3  -8  119.22   17.73 
   0   4 -11   69.68   15.35 
  -7   2   8  159.71   19.09 
  -5   5  -6   40.31   25.87 
  -6  -7  -1  351.99   42.60 
  -5   5  -6   42.06   11.31 
  -1  -6 -14   52.82   40.56 
   1   6  14   45.01   38.46 
  -1  -6 -14   40.39   31.93 
   0   1  15   17.12   25.97 
   0  -1 -15   20.74   16.53 
  -4  -1 -14    9.01   11.44 
  -3   8   2  122.18   27.98 
  -5   6   8   87.89   22.38 
  -4  -1 -14   17.73   10.84 
   3   4 -10  268.24   44.40 
   7   3  -6  158.05   17.66 
  -1   1 -14  113.27   41.06 
  -1   1 -14  133.64   28.64 
  -8  -1  -8   72.68   52.92 
   0   1 -14    3.72    8.45 
   0   1 -14    3.05    4.64 
   6   5  -5  279.86   28.19 
  -8   3   2   24.08   13.61 
  -8   3   2   22.93   19.99 
  -5  -1  11   10.73   12.06 
   2   0 -14  148.61   23.04 
  -1  -9  -5   15.42   15.05 
   1  -3 -15  196.92   79.48 
   1   9   5    8.26    8.21 
  -2   0  14  103.84   42.21 
  -1   3  15  186.56   41.99 
  -1   2  15   -3.01    8.00 
   1  -2 -15    5.48    8.80 
  -6   4   9   13.99   12.19 
  -8   3  -1   87.36   28.38 
  -8   3  -1  126.07   22.83 
  -1   8  -2    9.55    7.81 
  -2   2 -13   37.26   21.68 
  -7   3  -6    1.99    6.16 
  -7   3  -6    2.51    6.94 
  -5  -8  -5   23.44   14.42 
   1  -8   2    5.53    5.93 
  -2   2 -13   33.30   26.93 
  -5   4  11    4.82   11.45 
  -1  -9  -4   24.21   12.24 
   1   9   4   18.28    8.03 
  -5  -8  -4  497.65   32.63 
  -4   2  13   99.85   22.52 
  -7   1  -9  165.41   21.00 
  -7   1  -9  141.94   25.08 
  -4  -8  -9   42.32   12.57 
  -4  -8  -9   43.91   28.38 
  -5  -7   2  140.71   24.68 
  -3   7  10   -0.83    7.80 
  -4  -6 -13   57.28   25.80 
  -4  -6 -13   44.74   31.92 
   4   6  13   42.60   28.29 
  -1   4 -11  230.52   16.70 
  -5   5  10  180.24   20.98 
   2   6  14  344.02   32.41 
  -2  -6 -14  341.29   22.28 
  -2  -6 -14  397.51   31.41 
  -1   4 -11  261.67   36.67 
  -5   2 -11    1.79    9.65 
  -5   2 -11    8.45    8.86 
  -2   8  -1   25.94   15.51 
   6   3  -8   28.07    7.94 
  -4  -8   0   31.20   13.18 
  -8  -5  -3  121.97   41.16 
   4   8   0   29.06    9.35 
  -8  -5  -4   73.63   40.78 
   4   6  -6   16.51   10.47 
  -4  -6   6   15.40    7.30 
  -2   3 -12  158.19   16.48 
  -3  -3 -15    7.84   11.41 
  -2   3 -12  142.42   65.01 
   3   3  15    7.19   10.06 
  -5   1 -12   13.86   12.78 
  -5  -6 -12   13.51   11.76 
  -5   1 -12   33.50   12.14 
  -5  -6 -12    2.78    6.69 
  -7   4   6  235.80   23.01 
  -1  -9  -6   55.43   32.53 
   1   9   6   55.77   18.64 
  -3   8   6   81.77   29.79 
  -1  -8 -11  160.47   23.32 
  -1   8  10   -1.62    7.61 
   1  -8 -10    4.62    9.94 
   1  -8 -10    1.69    4.73 
   1   8  11  184.44   37.08 
  -1  -8 -11  170.70   30.14 
  -6  -2   9  433.64   31.83 
  -6   6   2  141.93   23.01 
  -6   6   2  106.62   36.93 
  -2  -1 -15  329.04   31.19 
  -5  -8  -6    4.46    6.45 
  -4   7   8  312.77   49.77 
  -2  -1 -15  297.84   39.46 
  -9  -1  -2  714.74   49.47 
   1   4 -11  189.23   39.37 
  -6   6   3  126.63   56.42 
  -9  -1  -1   19.14   33.57 
  -6   6   3  185.84   26.31 
  -2  -9  -5    5.82    6.82 
  -4   2 -12   69.44   49.86 
  -6  -7  -8  387.62   26.78 
  -6  -7  -8  374.60   39.26 
   2   9   5   11.39    9.95 
  -4   2 -12   54.09   38.57 
  -7   0 -10  371.18   32.73 
  -7   0 -10  374.89   23.55 
  -6   5  -4   95.89   17.04 
  -6   5  -4   90.86   15.06 
  -5  -5 -13  102.90   26.56 
   0  -6 -14   37.23   14.84 
  -5  -5 -13  116.27   32.34 
   0  -6 -14   35.82   23.54 
  -1  -9  -3   10.31   11.17 
   1   9   3   14.04   11.79 
   0   6  14   40.80   17.14 
  -1  -7 -13  129.99   18.21 
  -5  -8  -3   68.98   65.40 
   1   7  13  120.83   19.81 
  -1  -7 -13   78.47   46.75 
  -4   1  13  374.17   29.78 
   0   9   5  143.46   30.68 
   0  -9  -5  120.58   32.65 
   0  -9  -4   26.47   21.62 
   2   9   4  214.68   22.68 
   0   9   4   13.45   10.43 
  -6  -6   3   33.52   17.95 
  -2  -9  -4  211.13   27.45 
  -6   3  10   96.59   54.74 
   3  -2 -14   26.11   13.04 
  -3   2  14   16.77   14.25 
  -8  -5  -2  368.45   27.23 
  -2  -8 -11    4.93    8.89 
   2   8  11    4.84    8.37 
  -2  -8 -11    5.05    7.30 
  -8  -5  -5   98.80   15.20 
  -4   7  -2   88.23   51.54 
  -3  -2 -15   12.65    8.13 
  -3  -2 -15   17.15   10.95 
  -6   6   1  100.46   22.64 
  -6   6   1   97.68   21.54 
  -8   3   3   16.28   16.17 
  -3   8   1   14.77   11.70 
  -8   3   3   14.71   22.79 
  -7  -6   0   24.18   23.92 
   3   1 -13   42.40   24.20 
  -3  -1  13   37.35   31.88 
  -2  -9  -6  132.43   38.80 
   2   9   6  139.91   34.14 
  -8   2   5   30.81   34.35 
  -3   5  13    4.92   10.15 
   3   6  -7   30.44   23.26 
  -8   2   5   31.95   28.25 
  -9  -1  -3   16.98   13.38 
  -4   3  13   98.48   55.66 
  -7  -1   8  226.50   24.70 
  -7  -5   3   46.15   30.30 
   2   7  13  485.72   44.43 
  -8   3  -2  769.91   43.77 
  -9  -2  -2    5.41    8.07 
  -2  -7 -13  498.88   42.83 
  -8   3  -2  710.41   65.65 
  -2  -7 -13  488.23   40.26 
  -9  -1   0   18.61   12.79 
  -7  -2 -11    6.19   10.33 
   0   6  -8    5.41    6.73 
  -7  -3 -11    6.09    8.65 
  -4   1 -13  354.67   35.52 
  -4   1 -13  326.13   35.59 
  -6   6   4   19.15   18.50 
  -3   6  12   20.92   11.28 
  -9   0  -1   53.02   14.32 
   2  -6 -13   28.63    7.98 
  -2   1 -14   63.26   41.79 
   0   9   6   21.35   15.38 
   0  -9  -6   24.34   19.54 
  -7   2  -8  248.89   29.14 
   2  -6 -13   21.25   20.18 
  -7   2  -8  216.88   39.46 
  -2   1 -14  103.90   17.88 
  -5   2  12  214.73   45.64 
  -2   6  13   24.11   17.71 
  -4  -5 -14  175.59   22.19 
  -4  -5 -14  194.30   29.76 
   2  -8  -9   16.98    7.80 
  -2   8   9   14.18    7.36 
   4   5  14  165.61   21.11 
  -3   3  14   65.25   29.83 
   1   1 -14   91.13   16.41 
   0  -9  -3    3.58    6.31 
  -8   2  -5    3.68    6.81 
  -8   2  -5    2.90    9.66 
   0   9   3    1.69    8.52 
   1   1 -14   95.84   45.90 
  -9  -2  -3  278.09   33.33 
   4   5  -8   12.02    6.80 
  -3  -4 -15    9.19    9.30 
   3   4  15    2.90    8.66 
  -1  -9  -7   12.76   11.30 
   1   9   7   13.05   13.30 
  -1  -5 -15   15.44   11.53 
   1   5  15   16.67   16.36 
  -7   4  -4   18.23    8.79 
  -9  -2  -1   30.32   26.28 
  -7   4  -4   19.64   16.05 
   0  -8 -11  160.12   25.44 
   0   8  11  176.10   27.02 
   0  -8 -11  160.59   21.84 
   2   9   3    5.62    7.74 
  -2  -9  -3   14.32   14.42 
  -5   1  12   95.12   57.59 
  -9   0  -2  216.49   27.21 
  -5  -8  -7    1.53    3.81 
  -5  -8  -7    2.72   10.86 
   1  -4 -15   11.13    6.35 
  -2   7  -5  453.72   49.07 
  -1   4  15   11.85    7.61 
  -7  -6  -8  111.75   17.56 
  -7  -6  -8  101.05   57.65 
  -9   0   0   24.37   12.26 
   1  -1 -15   54.87   27.45 
  -5  -6   5    1.85    2.83 
  -1   1  15   40.96   36.26 
   5   6  -5    4.14    5.15 
  -4   3 -11   34.58   12.50 
   1   6  -8   18.37   11.60 
  -4   3 -11   20.70   20.57 
  -3   7  -4  235.58   27.90 
  -5   7   3   22.00   26.86 
   6   4  -7   54.42   30.51 
  -6   1 -11   18.01   12.30 
  -6   1 -11   20.77   11.91 
   1   8  -3   62.54   38.19 
  -5   3 -10    9.26    7.66 
  -1  -8   3   56.38   42.21 
  -6  -7   0   16.27   20.63 
   0   7  13   23.60   31.06 
  -8  -4   2   14.90   12.87 
   0  -7 -13   35.63   14.71 
   0  -7 -13   24.54   26.30 
  -4  -7 -12  133.51   21.91 
  -4  -7 -12  101.52   47.29 
   2   3 -12  125.03   15.41 
  -6   5   8   -1.39    6.36 
   2   3 -12  111.07   58.16 
  -7   5   2    5.31    9.68 
  -7   5   2    2.27    4.99 
   1   9   2    1.90    3.80 
  -1  -9  -2    7.80   11.19 
  -3   1  14   64.89   43.25 
   3  -1 -14   69.01   49.28 
  -5  -8  -2  332.78   33.54 
   0  -8   3    9.76    9.86 
  -2   5  14   32.96   38.69 
   2  -5 -14   29.94   11.19 
   0   8  -3   15.12   13.80 
  -5   7   2  132.53   28.59 
   2  -5 -14   25.75   15.88 
  -6   6   0  546.79   46.70 
  -8  -5  -1   18.37   15.38 
  -8   0   6   80.31   15.22 
  -8  -4  -8  360.67   34.39 
  -8   0   6   77.00   18.94 
  -6   6   0  510.08   53.58 
  -3   8   7  534.89   63.08 
  -7   5   1   30.10   32.66 
   2   9   7   52.26   34.85 
  -7   5   1   36.78   10.65 
  -5   7   4   21.29   16.52 
  -2  -9  -7   52.72   33.86 
  -2  -5 -15    2.95   10.10 
  -2  -5 -15    2.88    4.78 
  -8  -5  -6   16.40   15.24 
   4   7  -4  202.03   27.75 
  -4   5  12  146.83   41.88 
  -4  -7   4  201.41   22.79 
  -6   2 -10   33.25   24.44 
  -6   2 -10   43.80   32.38 
   5   5  -7    8.61    7.29 
  -5   0 -13  101.14   50.90 
  -5   0 -13  124.67   26.25 
  -7  -5 -10  306.41   43.38 
  -9  -1  -4  914.14   49.48 
   3   7  -5  180.59   20.26 
  -3  -7   5  173.30   18.73 
  -3  -8   2  112.59   57.49 
   3   8  -2  104.51   21.47 
  -9  -2  -4   34.85   14.60 
  -8   1   6   67.03   45.08 
  -8   1   6   74.85   47.62 
   3   6  14   28.60   22.00 
  -3  -6 -14   19.46   13.98 
  -3  -6 -14   28.08   22.53 
  -1   6  -8  266.50   43.66 
  -8  -2   5  152.24   19.85 
  -6  -1  10  111.72   32.13 
  -2   4 -11  165.16   29.32 
  -2   4 -11  152.21   17.26 
  -6  -5 -12    8.30   10.02 
  -6  -5 -12    4.50    5.62 
   0   7  -6  315.90   30.98 
   0  -7   6  353.61   30.74 
  -7   5   3  153.10   45.97 
  -9  -1   1  153.47   22.69 
   2   2 -13  260.71   35.61 
   2   2 -13  217.03   35.03 
  -9   0  -3  488.31   43.75 
  -7   5   3  143.61   53.13 
   0   5  15    5.21    9.61 
   0  -5 -15    6.41    7.70 
  -8   0  -8    3.61    6.32 
  -9  -2   0   58.03   15.75 
   0  -9  -7  536.04   47.26 
   0   9   7  538.94   47.08 
  -7   3   8  113.09   22.86 
  -6   6   5    8.18    7.42 
  -9   0   1    5.59   11.61 
  -1  -7   6  290.87   27.07 
   1   7  -6  305.19   39.79 
   0  -9  -2   27.90   13.05 
   0   9   2   22.68   15.11 
  -8  -2  -9    0.74    7.79 
  -8   3   4  104.76   16.29 
  -8   3   4   90.87   50.26 
  -8   1  -7    4.57    8.55 
   3   5  -9    3.80    7.80 
  -8   1  -7    8.12    8.37 
  -7   5   0   30.19   23.97 
  -5   3  12    1.86    6.20 
  -7   5   0   38.69   27.72 
  -4   5  -8  372.56   37.99 
  -4   5  -8  315.68   32.94 
  -6  -6 -11   67.41   49.87 
  -5  -3 -14   81.35   15.28 
  -6  -6 -11   81.81   18.27 
  -5  -3 -14   70.27   19.27 
  -5   6  -4    5.48   10.61 
  -8  -3   4   42.19   36.43 
  -5   6  -4    5.49    9.20 
  -5   7   1  584.77   47.15 
  -3   8   0    1.71    7.25 
  -6   4  -7    5.07    6.17 
  -6   4  -7    6.94    9.55 
  -5   7   1  628.96   54.37 
  -5  -7 -11  258.69   87.80 
  -5  -7 -11  259.09   28.39 
  -3  -8 -11   69.14   46.54 
  -3  -8 -11   80.45   43.61 
   2   9   2   40.25   38.45 
  -7  -1 -11    8.78    9.65 
  -7  -4 -11  514.83   49.13 
  -2  -9  -2   62.77   44.88 
   3   8  11   85.36   29.33 
   3   9   5  126.41   23.05 
  -3  -9  -5  134.90   23.80 
   0   5 -10   52.40   14.64 
  -5   7   5  309.17   43.51 
  -8   3  -3   54.12   15.68 
  -8   3  -3   40.61   28.45 
  -1   0 -15  409.53   67.79 
  -1   0 -15  456.65   40.68 
  -4  -8 -10   28.78   19.72 
  -4  -8 -10   42.70   17.45 
  -8  -3  -9  248.48   33.57 
  -6  -7  -9   20.83   13.70 
  -6  -7  -9   24.28   10.11 
  -6   0 -12   24.17    8.69 
   1   9   8  287.85   28.62 
  -1  -9  -8  324.02   33.81 
  -6   0 -12   26.53   10.68 
   2   4 -11   24.22   15.66 
  -1   9   4    3.00    9.39 
  -4   0  13   62.91   53.85 
   1  -9  -4    5.91   12.92 
   3   9   4   15.20   16.38 
  -3  -9  -4   24.69   19.30 
  -5  -8  -8  109.26   33.17 
  -4  -8   1    9.37    8.98 
   1  -9  -5   12.09    7.87 
  -5  -8  -8  132.24   24.16 
   4   8  -1    4.09    4.92 
  -1   9   5    9.55   11.59 
  -3  -7 -13    8.09    6.86 
  -5   6   9  274.19   68.01 
   2   8  -3  215.24   26.31 
  -2  -8   3  248.43   30.32 
  -3  -1 -15    2.44    7.48 
   3   7  13    2.84    3.56 
  -3  -1 -15    5.22    7.13 
   0   0 -15   38.35   14.65 
   3   9   6   20.68   11.23 
  -3  -9  -6   18.54   13.20 
   0   0 -15   21.71   12.92 
  -3   2 -13    7.03    6.48 
  -3   2 -13    7.37    5.30 
  -3   5  -9   31.32   15.25 
  -4   6  11    5.34   10.69 
  -1   6  14    4.88    7.55 
   1  -6 -14    4.22    4.73 
   1  -6 -14    4.87   11.28 
  -3   6  -7   53.53   31.07 
  -2   8  -2   95.48   21.49 
  -5  -2 -14    1.07    5.64 
  -5  -2 -14    3.65    5.65 
  -7   5   4    3.67   11.63 
  -7   5   4   -1.38    6.41 
  -2   7  12   15.70    6.61 
   2  -7 -12   17.53   14.92 
  -7   4   7  307.83   39.82 
   2  -7 -12   12.10    7.03 
  -8  -1   6  121.49   22.98 
  -9  -3  -3  241.82   52.58 
  -6  -3 -13  168.25   94.29 
  -5   0  12   24.06   16.60 
  -7  -6   1   13.40   13.60 
  -7   1   9    2.53    5.19 
  -9  -3  -2   44.99   35.63 
  -4   0 -14  395.94   38.53 
  -4   0 -14  382.69   33.90 
   2  -2 -15   16.33   11.32 
   2   9   8    3.31    7.96 
  -2  -9  -8    1.36    9.26 
  -2   2  15    5.58    7.94 
  -4   7   9  250.23   62.64 
   1   5 -10   61.72   13.69 
  -9  -2  -5  248.55   32.13 
  -3   4  14   10.73   12.27 
  -6   6  -1    6.82    9.46 
  -6   6  -1    0.95    6.28 
   1  -8   3   43.36   33.17 
  -1   9   3   15.24    8.89 
   1  -9  -3   10.99    8.68 
  -1   8  -3   38.63   16.07 
   2  -3 -15   45.77   20.94 
   2   6  -8    8.10    7.29 
  -1   7  -6  285.68   49.88 
  -1   5 -10  161.85   38.67 
  -9   1  -1    8.09    8.95 
  -2   3  15   43.97   30.99 
  -8  -5   0   20.88   19.90 
  -9   1   0    7.21    9.72 
  -4   4  13  180.16   47.94 
  -9   0  -4   25.84   32.32 
  -5  -8  -1   64.62   16.20 
  -1  -9  -1    9.84   10.01 
   1  -9  -6  281.22   35.68 
  -1   9   6  280.79   34.21 
  -8  -5  -7   61.39   18.19 
  -8  -1  -9   84.15   16.08 
  -9  -1  -5   17.23   13.03 
  -3   3 -12    8.70   16.46 
  -3   3 -12    9.65    5.94 
  -5  -4 -14  667.20   55.94 
  -5  -4 -14  531.48   44.76 
  -6  -2 -13   58.29   36.25 
  -6  -2 -13   53.26   51.21 
  -4   6  -6   82.06   14.91 
  -9  -2   1   44.50   35.91 
  -3  -9  -3  354.35   39.23 
   3   9   3  277.81   37.69 
   5   7  -3   20.43   17.32 
  -7   5  -1   17.08   11.60 
  -9  -3  -4   14.77    8.84 
  -7   5  -1   12.25   11.53 
  -5  -7   3   30.52   20.99 
  -9   0   2  293.02   31.44 
  -7   3  -7   94.48   17.80 
  -7   3  -7   76.26   16.63 
  -4   7  -3  276.47   43.18 
   0  -9  -8   46.84   35.23 
   0   9   8   60.14   33.40 
  -9  -3  -1   82.80   15.35 
   3   9   7   33.24   32.82 
  -9  -1   2   33.97   37.93 
  -3  -9  -7   62.48   18.18 
  -8   2   6   44.09   36.35 
  -8   2   6   46.93   31.90 
  -6   3  -9    7.31    7.30 
  -6   3  -9    9.82    7.18 
  -5   7   0  250.17   35.53 
  -5   7   0  277.60   43.95 
   1  -8 -11  134.96   20.89 
  -3  -5 -15   81.41   64.64 
   1  -8 -11  100.88   30.89 
  -3  -5 -15   89.15   12.36 
  -3   8   8   40.55   33.18 
   3   5  15   82.68   27.16 
  -1   8  11  124.58   36.50 
  -9   1  -2    8.43   10.47 
  -7  -6  -9   41.41   31.95 
   4   3 -11    6.83    7.04 
   4   3 -11    6.84    6.13 
  -7  -6  -9   40.71   24.62 
   2   7  -6  109.22   17.28 
  -7   0   9  417.16   43.85 
  -2   0 -15   20.23    8.79 
  -2   0 -15   23.62   10.79 
  -2  -7   6   60.70   39.27 
  -6   5  -5    7.27    6.61 
  -6   6   6   68.95   58.13 
  -6   5  -5    3.37    6.69 
  -4  -3 -15  185.27   27.52 
  -9   1   1    6.00    7.44 
   5   3 -10   23.59   18.83 
  -4  -3 -15  128.77   37.02 
  -3   1 -14  153.71   19.59 
   0   9   1   -0.12    6.54 
  -3   7  11    2.82    5.70 
  -6   1  11   15.03    8.61 
  -3   1 -14  184.71   24.61 
  -7   2   9   14.98   14.91 
  -5   7   6    4.00   10.71 
  -4   4 -10    5.36    6.05 
  -4   4 -10    0.98    3.33 
  -5   5  -7  125.65   16.64 
  -5   5  -7  115.28   52.24 
   1  -7 -13   68.84   27.64 
  -1   7  13   85.00   18.84 
   1  -7 -13  101.56   19.04 
  -6   2  11  164.33   39.66 
   2   1 -14   30.89   13.38 
  -6  -7   1   30.92   31.48 
   2   1 -14   20.45   14.95 
   2  -8 -10  106.69   18.11 
  -8   2  -6   63.39   13.05 
  -8   2  -6   66.03   14.07 
   2  -8 -10  108.12   50.26 
  -2   8  10   94.32   31.74 
  -6   4  10   20.67   10.87 
  -1  -8 -12    7.77    8.41 
   1   8  12    6.07    8.22 
  -1  -8 -12    7.23    9.52 
  -6  -4 -13  399.03   39.23 
   2   9   1   10.32   10.00 
  -3   0  14   11.34   14.86 
  -7   4  -5    7.29    6.96 
   3   0 -14   15.58    9.15 
  -2  -9  -1   10.31    8.95 
  -7   4  -5    4.31    7.07 
   1  -9  -2   10.56   11.39 
  -1   9   2   14.85    8.86 
   7   3  -7    2.16    2.83 
   6   5  -6   10.89   12.92 
   4   2 -12   15.33    7.01 
   4   2 -12   26.67   11.19 
  -1   5  15  303.56   30.59 
   1  -5 -15  336.12   43.30 
  -8   3   5   82.63   47.85 
  -8   3   5   83.20   39.20 
  -7  -2   8   94.16   20.75 
  -6  -6   4    8.52   10.15 
   1  -9  -7    1.38    7.44 
  -1   9   7   11.41   10.13 
  -2   6  -8    7.69    8.10 
  -1  -3 -16    4.98    7.60 
   1   3  16    3.64    9.77 
  -2  -8 -12   54.24   47.60 
  -2  -8 -12   71.29   51.34 
   2   8  12   78.74   26.83 
  -7   5   5  204.32   23.96 
  -8  -4   3   12.00   10.35 
  -5   4  -9    4.50    7.00 
  -5   4  -9    6.89    6.52 
   1   0 -15   13.05   12.73 
  -4  -2 -15    2.81    7.04 
  -4  -2 -15    1.34    6.76 
  -9  -3  -5   36.40   40.18 
  -5   5  11   31.71   12.59 
  -8  -4  -9   12.31    9.14 
   2  -1 -15   17.80   14.30 
  -2   1  15    9.09    7.30 
  -3   8  -1   18.29   10.61 
  -1  -9  -9  111.54   34.19 
   1   9   9  122.24   30.99 
  -8   3  -4  269.49   40.66 
  -4  -4 -15  314.43   35.69 
  -8   3  -4  273.88   27.64 
   4   4 -10   79.57   53.53 
  -9  -3   0  279.54   30.85 
  -3  -9  -2   10.94   11.60 
  -9   1  -3   13.21   12.82 
   3   9   2   14.26   12.59 
  -5  -8  -9   31.06   14.20 
  -5  -8  -9   22.00   13.45 
  -7   1 -10  120.63   25.78 
  -7   1 -10  107.45   35.23 
  -5  -6 -13   36.16   20.36 
  -5  -6 -13   58.79   13.59 
   5   4  -9  191.02   27.83 
  -7  -7  -4   19.76   27.10 
   2  -4 -15  328.91   33.40 
  -2   4  15  369.59   35.76 
  -7  -7  -5    5.54    5.13 
  -9   1   2  114.11   22.32 
  -1  -2 -16   21.57    8.86 
   1   2  16   13.66   16.85 
  -9  -2  -6    7.02    8.64 
  -3  -9  -8    5.19    8.05 
  -5  -1 -14   16.63    8.98 
   3   9   8    3.48    5.16 
  -2  -9  -9   35.11   18.13 
   2   9   9   14.83   19.34 
   0   3  16  303.73   55.17 
   0  -3 -16  329.13   27.82 
  -6   5   9  178.09   21.72 
  -9   0  -5  153.34   18.58 
  -4   8   4   35.38   13.74 
  -2  -3 -16   32.29   25.54 
   2   3  16   19.42   14.88 
  -7   5  -2   82.98   23.30 
  -4   8   3    3.55    7.45 
   0  -8 -12    3.55   10.15 
   0   8  12    4.63    6.23 
  -6   6  -2   77.02   13.76 
  -5   4  12  395.03   32.42 
   0  -8 -12    0.36    3.59 
  -6   6  -2   63.58   27.72 
  -7   5  -2   60.36   42.56 
  -6   0  11   30.97   21.39 
   4   6  14  294.65   22.78 
  -4  -6 -14  316.16   21.91 
  -4  -6 -14  344.20   30.06 
   2   5 -10    4.58   10.95 
  -9  -2   2  186.17   19.99 
  -7  -7  -3   87.08   43.98 
  -8  -5   1   62.33   36.75 
  -6  -1 -13   10.31   15.62 
  -6  -1 -13    6.30    7.82 
   0   3 -13   28.24   20.48 
  -9   0   3   16.22   25.63 
   0   3 -13   42.35   30.57 
   1   4  16   16.88    9.70 
  -1  -4 -16   15.16   12.14 
  -3   4 -11   10.49   10.69 
  -8   4   1  194.90   21.76 
  -2   5 -10   -0.61    5.66 
  -3   4 -11    1.57    4.95 
  -6  -7 -10  561.26   30.04 
  -8   4   1  188.68   30.00 
  -6  -7 -10  570.00   34.78 
  -8  -5  -8   62.34   12.85 
   4   6  -7  307.35   22.07 
  -9  -1  -6   50.19   16.56 
  -3   7  -5  136.76   33.68 
  -5  -8   0    8.18    6.29 
   3   3 -12   45.74   15.14 
  -7  -7  -6   61.10   30.83 
  -7  -7  -6   49.16   45.56 
  -3  -8   3  487.13   48.35 
   0  -2 -16    6.81   10.22 
   3   3 -12   29.02   11.12 
   0   2  16    9.60   11.84 
   3   8  -3  524.29   29.51 
   1   9   0    3.54    8.90 
  -1  -9   0    8.98    7.08 
  -5   7  -1  321.05   57.40 
  -1  -6 -15  102.37   20.43 
   1   6  15   59.57   55.03 
  -1  -6 -15   55.24   33.29 
   1   8  -4  228.24   23.93 
  -8   1   7   27.09   22.66 
  -7   0 -11    6.07    5.39 
  -1  -8   4  245.47   23.32 
  -7   0 -11   11.32   13.02 
  -7  -5 -11  155.90   23.50 
  -7   2  -9  492.96   36.08 
  -7   2  -9  489.48   40.78 
  -8   0   7   10.14   15.54 
  -4   8   5   22.02   17.69 
  -8   4   2   22.50   17.85 
   0   8  -4  102.98   41.90 
  -8   4   2   16.08   22.17 
   0  -8   4  117.93   41.45 
  -6   3  11  252.53   30.07 
  -1  -7 -14  198.24   28.18 
  -1   3 -13  413.63   22.49 
   1   7  14  195.40   41.60 
   0  -9  -9  283.40   25.54 
  -1   3 -13  411.05   53.85 
   0   9   9  252.86   28.06 
  -1  -7 -14  271.79   26.80 
   6   3  -9    5.61    6.44 
  -8   4   0  106.44   17.19 
   0   2 -14    7.51    7.27 
  -8   4   0  109.13   18.41 
   0   2 -14    6.76    7.34 
  -4  -8 -11    8.93   11.58 
  -5   7   7  325.52   44.83 
  -4  -8 -11   14.68    9.87 
  -4   8   2   67.47   40.42 
  -7  -3 -12  224.60   29.23 
   1  -9  -1  244.33   24.01 
  -9  -1   3  409.37   29.60 
  -1   9   1  258.22   42.10 
  -1   2 -14   41.53   28.55 
  -1   2 -14   42.04   18.03 
  -2  -2 -16   79.30   14.17 
  -2  -2 -16   87.43   32.10 
  -7  -6   2    1.55    4.15 
  -2  -6 -15   88.82   66.16 
  -2  -6 -15   96.45   22.72 
  -2   7  -6  308.51   30.80 
   2   6  15  107.19   24.98 
   4   8  -2  393.88   23.67 
  -4  -8   2  379.17   33.34 
  -5  -5 -14    3.10    7.25 
  -5  -5 -14   10.23   12.44 
   0  -9   0  145.77   19.00 
   0   9   0  127.98   26.50 
  -6   6   7   37.05   14.81 
  -1   9   8  470.89   37.43 
  -8   1  -8  204.48   21.40 
  -2  -4 -16   13.03   18.86 
  -4  -9  -5   36.33   27.44 
  -8   0  -9  329.02   26.66 
  -7  -1   9  154.63   19.25 
  -7  -2 -12   21.95   17.28 
   2   4  16   20.86   14.08 
  -4  -7 -13   93.59   63.33 
  -4  -7 -13   91.36   60.32 
   2   7  14   37.83   19.76 
  -2  -7 -14   27.94   20.80 
  -9  -3  -6   71.30   15.33 
  -2  -7 -14   23.77   15.77 
  -5   6  -5   65.01   13.81 
   3   2 -13   56.39   40.71 
   3   2 -13   86.90   16.93 
  -6  -2  10   17.40   22.51 
   5   6  -6  326.69   20.91 
  -3   6  13  445.04   34.06 
  -8  -2 -10    2.97    6.84 
  -3  -8 -12   27.02   20.44 
  -3  -8 -12   35.25   24.45 
   3   8  12   18.45   25.33 
   0   4  16   13.47   15.55 
  -2   8  -3   32.81   10.79 
   0  -4 -16   13.21    9.73 
  -3   8   9   47.38   26.65 
   4   7  -5  108.51   27.00 
  -7   3   9   24.29   24.85 
  -4  -7   5  108.90   15.02 
  -4  -9  -6   23.12   13.44 
  -2   9   4    4.07    3.95 
  -4  -9  -4   87.23   61.73 
  -9   1  -4  270.09   27.98 
  -7  -7  -2  204.93   33.88 
  -7   4   8   36.82   34.42 
  -6  -8  -5   18.53   19.13 
  -5  -7 -12  108.34   27.18 
  -8  -3 -10   81.85   54.60 
  -5  -7 -12  102.36   29.03 
  -5   2 -12  201.18   22.61 
  -5   2 -12  167.10   52.07 
  -9  -3   1   40.74   30.37 
  -8   4   3   14.50   17.96 
  -8   4   3   18.45   19.22 
  -2   9   5   12.01   11.23 
  -5  -1  12   20.66   30.16 
   3   4 -11    3.33    9.01 
  -3   0 -15  106.13   19.29 
  -3   0 -15  112.04   21.82 
  -4  -1  13  135.43   24.72 
   4   1 -13  130.83   16.97 
  -7   5   6    3.11    6.15 
  -6  -8  -4   -0.23    6.59 
  -9  -4  -3  376.77   28.74 
  -2  -9   0    2.94    6.80 
   2   9   0    0.31    4.93 
  -6  -6 -12   12.35    9.48 
  -6  -6 -12    4.67    7.57 
  -8  -6  -4   18.77   10.46 
  -5   6  10    5.77   15.37 
  -8  -6  -4   11.40   14.72 
   0  -6 -15    7.80    7.83 
   3   6  -8    2.53    6.23 
   0   6  15    7.48    7.05 
   0  -6 -15    5.28    5.57 
  -9   1   3  117.32   19.36 
  -8   4  -1  238.07   23.80 
  -3  -9  -1  227.12   28.88 
   1   3 -13  258.19   48.61 
  -8   4  -1  235.50   23.72 
   1   3 -13  221.79   32.15 
  -4   7  10    8.46   10.01 
   3   9   1  164.12   24.07 
   0   4 -12  240.56   27.71 
  -7  -7  -7  252.81   25.56 
  -7  -7  -7  247.69   22.95 
  -4   8   6  190.79   28.86 
  -9  -4  -4    5.66   10.22 
   2  -6 -14  200.81   15.41 
  -2   6  14  205.41   46.80 
   2  -6 -14  238.93   25.80 
  -2   9   3    6.09    7.30 
  -5   1 -13   93.14   15.10 
  -6  -8  -6    2.05    6.63 
  -4  -1 -15   10.56    8.30 
  -7  -6 -10  184.53   24.82 
  -7  -6 -10  209.81   32.24 
  -4  -1 -15   10.16   10.86 
  -5   1 -13   96.79   22.60 
  -4   2  14    6.38    7.74 
  -8  -6  -5   -1.16    7.09 
  -9  -4  -2  120.44   18.03 
  -3   5  14   14.68   15.34 
  -9   2   0   81.15   15.53 
  -8  -6  -5    4.97    8.43 
  -9   2   0   69.24   27.97 
  -8  -6  -3   23.61   10.02 
   0  -7 -14  292.22   24.56 
   0  -7 -14  273.27   21.77 
   0   7  14  288.93   52.81 
   3   7  -6  126.12   25.06 
   6   4  -8   42.27   32.00 
  -6  -5 -13    4.55   10.51 
  -4   8   1   22.57   11.85 
   2   8  -4   38.21   27.36 
  -2  -8   4   39.34   12.96 
   3   9   9    4.45    6.78 
  -3  -9  -9   16.14   10.86 
  -8   3   6   11.76   14.38 
  -8   3   6   11.18   18.34 
  -2   9   6    6.69    9.01 
  -9   2  -1    1.72    4.39 
  -9   2  -1   16.12   10.20 
   1   2 -14  120.48   24.84 
  -4  -9  -7   48.53   30.69 
  -1  -1 -16  169.95   24.00 
   0   6  -9   53.42   27.96 
   1   2 -14  107.58   35.58 
  -8   2   7  127.93   21.75 
  -6  -7   2   92.87   23.90 
  -1  -1 -16  178.55   26.49 
  -7  -4 -12  111.19   19.01 
  -9   2   1  224.24   19.38 
  -9   2   1  229.28   27.13 
  -4   7  -4    7.58    8.77 
  -6   4  -8   11.22   13.25 
  -1   4 -12  418.06   38.70 
  -6   4  -8   14.94    8.71 
  -4  -5 -15   11.59   16.68 
  -4  -9  -3  118.01   24.64 
  -4  -5 -15   20.13   23.21 
   4   5  15   20.12   12.19 
  -1   8  -4   42.28   30.02 
   1  -8   4   46.59   15.65 
  -6  -8  -3  142.97   26.05 
   1  -3 -16   22.71   14.03 
  -1   3  16   14.42   18.68 
   4   5  -9  252.56   40.81 
  -1  -9 -10   85.82   15.60 
   1   9  10  105.04   24.46 
  -8  -1   7   12.49   14.60 
  -4   5  13   34.70   19.50 
  -4   2 -13  131.13   18.12 
  -4   2 -13   90.29   48.41 
  -9  -2  -7  102.59   19.25 
   0   7  -7   27.37   18.59 
  -3  -3 -16    8.54    8.72 
  -3  -3 -16    6.86    7.23 
  -5  -8 -10  631.81   29.12 
  -8   3  -5   18.60   22.24 
  -2   2 -14   -0.06    4.43 
  -8   3  -5   10.65   13.40 
  -5  -8 -10  629.52   40.98 
  -2   2 -14    4.92    9.14 
  -4   3  14   72.72   23.32 
  -3   8  -2   14.38   12.71 
  -5   2  13    4.38    6.17 
  -7   5  -3    5.65   11.15 
  -7   5  -3    1.80    5.05 
  -6   1 -12   47.81   17.15 
  -9  -4  -5  112.09   16.15 
  -6   1 -12   39.74   15.47 
  -2   3 -13   33.41   29.93 
  -2   3 -13   16.40   14.47 
   5   5  -8  119.68   42.68 
  -9   0  -6    6.66   15.70 
   0  -1 -16   20.23   11.50 
   0   1  16   23.83   17.42 
   1  -2 -16   92.29   49.22 
  -1   2  16  114.47   24.13 
  -6   2 -11    9.41    7.62 
  -1   1 -15    7.68    8.47 
  -1   1 -15    1.13    3.94 
  -6   2 -11    6.02    7.27 
  -5   3 -11    6.16    9.92 
  -5   3 -11    2.65    3.61 
  -8   2  -7  127.59   21.41 
  -5  -7   4  114.18   23.91 
   5   7  -4  128.66   21.28 
  -8   2  -7  171.78   23.15 
   2   0 -15    0.44    6.78 
  -8  -6  -2   26.83   25.32 
  -4   6  12   35.41   31.29 
   1   7  -7   99.37   20.15 
  -2  -9 -10   10.01    9.90 
   1   6  -9    9.56   14.24 
  -2   0  15    1.85    8.09 
   2   9  10    2.18    6.47 
  -8  -6  -6   53.90   13.61 
   0   1 -15   85.29   36.12 
  -8  -6  -6   32.06   31.72 
   2  -8 -11    2.18    7.60 
   1   4 -12   16.09   27.65 
   2  -8 -11   -0.51    6.81 
   0   1 -15   49.61   48.27 
  -9  -4  -1    3.53    7.92 
  -8  -1 -10    2.25   13.19 
  -6  -8  -7   73.83   59.23 
  -4   1  14   22.93   12.11 
  -6   5  -6  239.87   22.69 
  -6   5  -6  236.03   24.31 
  -8   4   4    1.65    8.31 
  -2   9   2  212.73   54.23 
   1  -8 -12    2.11   10.38 
  -1   8  12    7.12   12.35 
   1  -8 -12    3.91    7.70 
  -6   6  -3   15.17   17.58 
  -9  -2   3   73.68   51.88 
  -6   6  -3    9.88   12.20 
  -7   4  -6    3.91    6.94 
  -9   2  -2  184.08   23.83 
  -7   4  -6    3.95    9.38 
  -3  -6 -15  152.78   24.27 
   3   6  15  120.72   24.29 
  -3  -6 -15  122.05   32.34 
  -9   0   4  602.85   37.42 
  -3  -7 -14  877.59   34.58 
  -7  -7  -1    5.04   14.21 
  -7  -1 -12   52.69   25.12 
   3   7  14  951.49   50.31 
   2  -7 -13  268.05   22.60 
   2  -7 -13  283.80   24.87 
  -8  -4   4   19.98   18.49 
  -2   7  13  275.00   30.61 
  -5   7  -2  346.65   35.86 
   1  -9   0    4.07    7.60 
  -1   9   0    3.11   10.11 
  -9   2   2   56.59   46.07 
  -9   2   2   76.86   29.16 
  -3   2  15   22.30   23.09 
  -8   4  -2  168.35   21.87 
   3  -2 -15   29.10   21.83 
  -8   4  -2  166.56   22.40 
  -5   1  13    3.86    6.70 
  -4   5  -9    2.57    4.66 
  -7   3  -8  125.54   19.46 
  -1  -5 -16   10.44    9.59 
  -7   3  -8   95.67   24.63 
   1   5  16    2.69    5.77 
  -1   6  -9   33.89   21.37 
  -4   3 -12   29.76   26.18 
  -4   3 -12   28.58   33.20 
  -9  -1  -7   55.74   26.87 
  -8  -4 -10  668.02   38.63 
  -2  -1 -16    2.09    6.53 
  -2  -1 -16   10.33   11.47 
  -3  -4 -16  309.74   28.76 
   3   4  16  291.07   26.42 
  -8  -5  -9  301.20   37.57 
   2  -5 -15   91.48   18.44 
  -2   5  15   65.74   27.27 
  -9  -3  -7    9.06   12.80 
  -4   1 -14   22.25   12.20 
  -4   1 -14   19.38   12.17 
  -3   3  15   86.25   33.57 
  -5   7   8  274.78   36.28 
  -2   9   7   41.54   21.21 
  -6  -1  11  193.01   21.26 
  -1   9   9    6.18    8.94 
   3  -3 -15   98.55   48.76 
  -3  -2 -16    5.80    8.30 
   1  -9  -9    5.15    8.76 
  -3  -2 -16    5.41    8.76 
  -4   8   7   51.61   41.54 
  -5  -8   1   14.97   11.55 
  -4   6  -7   11.00   13.28 
  -1  -9   1    7.12    9.15 
  -3   6  -8    6.77    7.07 
   1   9  -1   12.94   10.75 
  -7   1  10   20.15   18.96 
  -3   7  12  549.90   35.61 
  -7  -7  -8    5.20   10.18 
  -7  -7  -8    7.52    9.32 
   0  -9 -10   39.63   10.02 
   0   9  10   27.55   31.83 
   0  -9 -10   23.58   10.21 
  -6  -8  -2   61.85   22.25 
   3   1 -14  221.88   32.30 
  -4  -9  -8    1.10    8.76 
  -9   1  -5   35.42   15.08 
  -2  -5 -16  115.52   23.44 
   2   5  16   79.58   56.82 
  -5   3  13  568.08   38.67 
  -4  -9  -2   67.30   53.29 
  -1   4  16  176.39   30.06 
  -9  -1   4    6.78    9.03 
   1  -4 -16  161.13   19.27 
  -1  -8 -13   10.63   12.48 
   1   8  13   19.40    9.40 
  -1  -8 -13   14.09   10.63 
  -4   8   0   39.95   36.91 
  -1   7  -7  536.49   44.39 
  -9  -3   2  111.94   19.54 
  -5   0 -14   68.28   28.86 
  -5   0 -14   60.69   42.31 
   0  -9   1    6.73    8.37 
   0   9  -1    0.94    4.13 
  -9   1   4   35.78   37.71 
  -9  -4  -6   45.21   13.39 
  -6  -7 -11   50.79   57.97 
  -6  -7 -11   61.63   13.27 
  -6   6   8   39.70   50.30 
   2   8  13   10.65   14.42 
  -2  -8 -13   12.77    9.98 
  -2  -8 -13   20.33   14.93 
  -7   2  10   61.85   14.28 
  -2   1 -15   75.90   47.44 
  -2   1 -15  108.94   42.16 
   3   5 -10  259.20   24.76 
  -8  -6  -1   39.56   35.82 
  -6   0 -13    1.71    7.47 
  -6   0 -13    3.52    7.30 
  -8  -6  -7   39.39   45.34 
  -3  -9   0    1.87    7.94 
   0   5  16   47.32   26.14 
   3   9   0   13.44   10.14 
  -8  -6  -7   40.97   38.96 
   0  -5 -16   55.52   15.53 
  -5  -3 -15  318.82   23.50 
  -5  -3 -15  348.32   30.93 
  -5   5  -8    9.03    7.68 
  -6   4  11  306.98   29.80 
  -9  -4   0   39.05   13.07 
  -1   6  15   42.48   39.21 
  -6  -3 -14  175.50   21.16 
  -7   5   7   27.00   13.76 
   1  -6 -15   65.88   42.39 
  -2   4 -12   34.40   23.96 
  -3   5 -10   17.03   10.47 
  -9   2  -3   31.24   12.10 
  -6  -8  -8    9.35    6.44 
  -6  -8  -8   10.42   20.90 
   1   1 -15    7.94   11.67 
   2   3 -13   30.15   14.05 
  -6   3 -10   12.89    8.96 
   1   1 -15    6.73    8.04 
   2   3 -13   28.80   20.31 
  -6   3 -10   15.55   12.20 
  -6   5  10   17.04   13.59 
  -2   9   1    4.04    9.05 
   2   7  -7    0.78    5.71 
   3  -1 -15    6.06    8.09 
  -3   1  15   10.74   10.11 
  -9   2   3  213.70   19.17 
  -7   0  10    4.84    8.17 
  -9   2   3  217.20   24.82 
  -2  -9   1   34.12   29.38 
   2   9  -1   41.66   11.47 
  -3   8  10    1.20    6.83 
  -1   7  14  120.19   20.40 
   1  -7 -14   79.18   45.25 
   1  -7 -14  103.31   63.94 
   1  -1 -16   19.16   22.70 
  -1   1  16   22.04   25.16 
  -3  -9 -10   44.70   29.12 
   0   5 -11  120.10   17.14 
  -4  -8 -12  175.60   18.01 
  -4  -8 -12  173.17   30.61 
  -8   4   5    4.83    7.09 
  -8   4   5   11.05    6.91 
   2   6  -9   35.38   30.10 
   7   3  -8    4.50    5.40 
  -4   4  14  117.78   20.78 
  -5   5  12  191.78   28.11 
   0  -8 -13    8.38    8.91 
  -4  -8   3   53.59   46.30 
   0  -8 -13    1.80    5.08 
   0   8  13    2.46    8.66 
   4   8  -3   71.13   27.95 
  -6  -2 -14  193.58   23.03 
  -5  -4 -15    8.86   11.94 
   3   8  -4  210.67   29.91 
  -3  -8   4  246.57   22.59 
  -5  -2 -15  117.27   19.66 
  -5  -2 -15   89.02   47.07 
  -8   1   8  115.41   20.37 
   2   2 -14   39.82   13.55 
  -8   4  -3   32.60   11.99 
  -8   4  -3   20.89   17.34 
   2   2 -14   25.12   22.94 
   2  -9  -8   33.63   18.86 
  -2   9   8   16.96   18.06 
  -7  -2   9    7.97   13.78 
  -6  -4 -14   20.96   18.34 
  -7  -5 -12   35.84   11.95 
  -7  -7   0  197.00   28.38 
  -6   2  12    3.78    7.22 
   3  -4 -15   18.76   25.65 
   2   4 -12  262.76   39.25 
  -3   4  15   18.94   21.98 
  -5   0  13   41.22   24.64 
  -6   1  12   10.00   14.19 
  -5  -6 -14   59.51   60.64 
  -3   7  -6   14.71   14.88 
  -6  -8  -1   13.14    8.63 
  -5  -6 -14   79.75   20.21 
  -1   5 -11   82.36   20.89 
  -8   0   8    2.50    6.61 
  -2   8  -4  279.16   49.70 
  -4   0  14  110.87   28.67 
  -8   3   7  354.77   43.47 
   4   0 -14  120.17   22.71 
   1   8  -5    3.98    7.21 
  -1  -8   5    9.39    6.32 
   1   5 -11   16.68    9.18 
   0   8  -5    7.11   12.56 
  -7   5  -4   10.20    7.64 
  -7   5  -4   10.34   13.05 
  -7   4   9    2.98    5.91 
  -4  -9  -9  216.96   32.55 
  -9  -2  -8   52.78   15.80 
  -7   1 -11    4.87   11.53 
  -7   1 -11    4.26    6.15 
  -7  -6 -11   35.65   48.45 
  -7  -6 -11   54.83   38.07 
  -5   4 -10    4.26    7.82 
  -5   4 -10    8.84    7.92 
  -5   6  -6   80.98   19.94 
  -8   1  -9   96.83   31.38 
  -4   4 -11    4.45    5.96 
  -4   8   8  484.82   58.82 
  -4   4 -11    2.54    3.79 
   1   9  11  354.80   48.67 
  -1  -9 -11  286.18   36.96 
  -1  -9 -11  340.49   43.48 
  -4  -9  -1   19.21    9.58 
  -9   0  -7   10.00    9.89 
  -3   2 -14  303.14   72.49 
  -3   2 -14  261.47   32.89 
  -2   6  -9    8.88   10.11 
   3   5  16   12.82   15.72 
  -3  -5 -16   22.18   18.00 
  -6   7   3    9.71    6.18 
  -5  -8 -11  220.95   30.02 
  -5  -8 -11  210.76   42.76 
  -9  -4  -7  228.79   33.65 
  -4   7  11    5.28    8.84 
  -7  -7  -9  288.91   51.86 
  -7  -7  -9  341.72   40.76 
  -3  -8 -13  259.90   42.26 
   5   3 -11  199.53   36.80 
   3   8  13  268.58   37.71 
  -4   0 -15   14.14   10.13 
  -4   0 -15    2.68    9.35 
  -7   6   2  322.13   50.00 
  -7   6   2  248.07   46.69 
  -1   9  -1  214.25   36.55 
  -3  -8 -13  276.60   50.83 
   1  -9   1  199.97   29.37 
  -3  -1 -16    5.78    7.55 
  -3  -1 -16    6.19   10.64 
  -2  -9 -11    4.93    8.27 
  -2  -9 -11    1.81    3.83 
   2   9  11    4.54    6.72 
  -8   0 -10   16.28    8.37 
  -6   7   2  274.98   37.19 
  -6   7   2  224.10   29.62 
  -8   3  -6   24.64   24.60 
  -8  -3 -11  129.33   25.54 
  -8   3  -6   57.97   16.52 
  -3   3 -13    7.40   11.79 
  -3   3 -13   10.07   10.59 
  -6  -7   3    8.44   11.32 
  -4   8  -1  137.88   29.06 
  -7   6   3    4.81    4.42 
  -7   6   3    3.98    5.55 
  -3   8  -3   93.38   33.41 
  -9  -2   4  112.47   38.12 
  -1   0 -16   11.18   11.99 
  -1   0 -16   11.89    8.46 
  -8  -2 -11   16.52   12.86 
  -9  -3  -8  229.49   39.17 
  -6   7   4    2.27    8.41 
  -7   2 -10   34.33   32.31 
  -7   2 -10   38.01   26.98 
  -9   0   5    9.82   12.91 
  -2   3  16   46.62   47.31 
   2  -3 -16   56.57   36.40 
  -5  -7 -13    8.78    6.41 
  -5  -7 -13    9.86   14.86 
  -5   6  11  162.20   28.08 
  -8  -6  -8   47.77   54.47 
  -5   7  -3    1.53   11.24 
  -6   6  -4   58.08   43.76 
  -6   6  -4   87.73   17.47 
   1  -9 -10  135.28   43.10 
  -1   9  10  117.69   29.50 
   1  -9 -10  113.45   20.31 
  -7   6   1   13.46   14.40 
  -7   6   1   17.96   24.78 
   4   3 -12  169.16   34.77 
  -9   2  -4    4.77    7.25 
  -9  -4   1  298.85   48.21 
   4   3 -12  173.01   24.93 
   2  -2 -16  116.52   68.86 
  -2   2  16  142.23   45.44 
  -7   3  10   72.29   52.81 
  -4  -3 -16  120.94   22.14 
  -4  -3 -16  129.58   23.60 
   0   0 -16  182.91   26.23 
   0   0 -16  242.66   34.32 
  -5  -9  -5   55.79   27.32 
  -8   2   8  160.03   49.61 
  -9   1  -6  223.58   32.78 
  -5   4  13   30.25   15.37 
  -6  -8  -9  344.42   39.65 
  -4  -7 -14    1.93    6.15 
  -6  -8  -9  398.75   48.16 
  -4  -7 -14   12.63   11.69 
  -5   7   9   88.09   25.54 
  -4   7  -5   20.58   13.34 
  -4  -6 -15  189.28   29.43 
  -4  -6 -15  158.29   22.68 
   2  -7   7   13.42    7.92 
  -6  -6 -13    8.65   11.66 
  -9   2   4    4.05    6.83 
  -2   7  -7   19.27   18.64 
  -6  -6 -13    4.93    5.88 
  -9   2   4    7.22   11.84 
  -7  -3 -13   21.85   12.49 
  -5  -9  -6  197.31   41.65 
  -9  -1  -8   12.85   21.55 
  -7   0 -12   39.13   42.28 
  -7   0 -12   24.35   32.32 
  -2   9   0  126.63   27.33 
  -9  -3   3    0.07    5.43 
  -6   7   1   66.77   52.36 
   4   6  -8   31.39   19.85 
   1  -5 -16   13.80   15.95 
  -1   5  16   14.26   13.03 
  -8  -5 -10   21.76   19.30 
   5   2 -12   23.87   10.14 
  -6   7   1  107.07   30.38 
   5   4 -10  269.66   52.21 
   4   7  -6  201.21   45.13 
  -3   9   4    7.85   11.50 
  -5  -9  -4   48.34   29.97 
  -7   6   4  639.83   75.93 
  -9   1   5  153.20   40.97 
  -9  -5  -4  108.28   19.66 
  -6   3  12  300.37   40.03 
  -9  -5  -3  143.56   22.17 
  -1  -7 -15   36.81   14.75 
   0  -9 -11    2.60    7.65 
   0   9  11    3.88    6.23 
   0  -9 -11    2.33    9.19 
   1   7  15   16.48    8.87 
  -1  -7 -15   16.76   10.64 
  -3   9   5   10.58   11.49 
  -5  -8   2    4.84    9.87 
   1   9  -2   16.73    8.17 
  -1  -9   2   12.66   13.86 
  -8   2  -8  266.08   35.60 
  -8   2  -8  253.53   31.54 
   2   8  -5  105.38   40.07 
  -2  -8   5   96.53   16.07 
   5   6  -7    3.12    5.90 
  -4  -4 -16   -0.16    7.38 
  -4  -4 -16    0.28    5.50 
   4   4 -11  633.94   75.47 
  -3   1 -15   24.02   30.51 
   1  -8   5  238.16   36.09 
  -6   7   5  181.36   66.70 
  -3   1 -15   24.35   33.78 
  -1   8  -5  241.61   48.24 
  -2   8  12  141.59   28.71 
   2  -8 -12   99.74   76.27 
  -7  -2 -13   23.65   20.30 
  -3   9   3    8.77   10.41 
  -9  -1   5  327.28   41.85 
  -6   0  12   68.51   49.53 
   4   2 -13   18.58   16.69 
   4   2 -13   21.69   22.87 
   2   7  15  668.56   43.50 
  -2  -7 -15  619.30   66.49 
  -3  -9   1    5.63    8.40 
   3   9  -1    4.25    6.99 
  -7   6   0    6.83   10.48 
  -7   6   0   12.29    8.11 
  -7  -1  10  555.72   67.87 
  -9   3   0  301.35   74.71 
  -9   3   0  328.14   41.44 
  -8   4   6  185.19   31.92 
  -9   3   1    6.78   15.96 
  -7   4  -7    5.25    7.35 
  -7   4  -7    3.25    7.00 
  -9   3   1   13.46   11.20 
  -9  -5  -5   11.37   14.67 
  -2   0 -16   21.70   11.16 
  -2   0 -16   23.12   18.76 
   0   9  -2   88.10   17.57 
  -5  -9  -7   27.75   26.42 
   0  -9   2   71.08   60.93 
  -6  -1 -14   51.96   59.16 
  -6  -1 -14   56.92   47.25 
   3  -6 -14    0.63    4.67 
   3  -6 -14    0.48    6.58 
  -4  -2 -16    6.41    9.44 
  -4  -2 -16    6.34   10.04 
  -3   6  14   -0.43    8.48 
   6   3 -10   69.26   28.33 
  -5  -5 -15  534.70   62.56 
  -8  -1   8  127.46   19.94 
  -9  -5  -2   22.23   28.73 
  -6   6   9    9.95   16.38 
  -8  -4 -11    6.00    8.48 
   1   6  16    4.55    5.46 
  -6   5  -7   10.27    7.05 
   3   0 -15   28.86   23.64 
  -2   9   9   72.76   60.07 
   2  -9  -9   83.77   43.06 
  -6   5  -7    4.33   13.52 
  -3   0  15   21.68   20.73 
  -7   5   8   39.13   26.26 
  -5  -1 -15  149.85   23.71 
  -5  -1 -15  144.60   22.35 
   2   1 -15   22.09   21.29 
   2   1 -15    8.91    9.76 
   5   7  -5  140.03   32.85 
  -5  -7   5  118.93   27.54 
  -7  -4 -13    8.89   13.06 
   2  -4 -16   54.37   46.62 
  -2   4  16   41.46   38.05 
  -3   9   6   33.82   17.66 
  -2   5 -11  148.53   51.76 
  -5  -9  -3  132.96   26.36 
  -8   4  -4   15.96    9.14 
  -1   8  13   46.26   38.62 
  -8   4  -4   11.65   18.17 
   1  -8 -13   33.16   33.37 
   1  -8 -13   36.01   22.47 
  -1  -3 -17   36.20   34.44 
   1   3  17   18.65   23.19 
  -3  -9 -11   10.43    9.23 
  -6   4  -9    0.89    5.73 
  -6   4  -9    2.28    5.06 
  -6  -5 -14   62.22   42.07 
   2   5 -11   17.11   12.72 
  -9   3  -1  280.40   35.38 
   3   7  -7    2.88    6.34 
  -9   3  -1  258.20   35.91 
  -6  -8   0  203.77   48.86 
  -3   4 -12    8.34   14.85 
   2   6  16  196.19   29.49 
  -8  -1 -11   39.93   30.73 
  -9   3   2  127.29   31.39 
  -2  -6 -16  207.01   35.86 
  -9   3   2  114.15   21.88 
  -7  -7   1   38.03   50.16 
  -6   7   0  158.38   27.09 
  -7   6   5   89.81   54.31 
  -6   7   0  143.22   35.92 
  -6  -7 -12  165.95   28.62 
  -4  -9 -10    9.11    9.13 
  -6  -7 -12   98.02   53.50 
   0  -7 -15   36.51   14.54 
   0  -7 -15   15.27   13.65 
  -3   9   2   37.78   13.31 
   0   7  15   37.31   17.20 
  -2  -9   2    5.44    9.10 
   2   9  -2    4.34    4.93 
   2  -1 -16   26.56   16.34 
  -2   1  16   32.95   37.23 
  -6  -2  11   38.53   48.23 
  -4  -9   0   13.07    9.21 
   1   0 -16   18.42   12.66 
   1   0 -16   12.04    6.21 
   6   4  -9    5.29    6.36 
  -7   3  -9  181.39   30.44 
  -4   6  13   57.39   38.77 
  -7   3  -9  195.01   31.47 
   3   6  -9   36.21   36.48 
  -9  -4  -8   19.25   19.10 
  -9  -5  -6    3.54    7.32 
  -5   8   3   19.75   15.16 
   2  -6 -15    8.35    8.65 
  -2   6  15   10.43    9.03 
  -4   8   9   48.95   19.82 
  -5   8   4    7.10   13.37 
  -3   8  11  144.27   40.59 
  -2  -3 -17   94.48   21.21 
   2   3  17   84.29   19.81 
  -1 -10  -5  292.79   41.84 
   1  10   5  259.31   34.41 
  -1  -4 -17    7.25    8.71 
   1   4  17    1.64    7.43 
   0   3  17   14.05   13.97 
   0  -3 -17   10.52   12.95 
  -6   7   6  113.45   29.93 
   1   2  17   35.41   45.33 
  -1  -2 -17   35.87   39.40 
  -8   5   2  245.91   34.54 
  -5  -9  -8  170.85   31.50 
   3   3 -13    5.96    7.67 
  -8   5   2  251.63   37.97 
  -9  -5  -1  123.44   20.28 
   0   7  -8  184.50   26.75 
  -8  -6  -9   89.02   44.08 
   0  -6 -16   31.16   19.45 
   0   6  16   18.62   27.91 
  -1 -10  -6   63.23   21.32 
  -8   5   1   90.38   63.14 
   3  -7 -13   55.58   37.44 
  -3   7  13   52.75   16.47 
  -8   5   1  101.74   20.04 
   1  10   6   54.23   30.23 
  -5   2 -13   46.03   35.51 
  -7  -7 -10  141.87   25.41 
  -7   6  -1    8.99    6.82 
  -5   2 -13   89.10   20.22 
  -7  -7 -10  122.72   20.47 
  -7   6  -1    5.44    7.66 
   2  -7 -14   31.21   29.37 
   2  -7 -14   63.94   16.93 
  -2   7  14   38.88   44.44 
   3  -5 -15    6.33    7.15 
  -3   5  15    5.12    8.26 
  -4   5  14    2.54    6.83 
  -9  -4   2    4.71    6.32 
  -4   8  -2   48.82   21.24 
   0   3 -14  264.33   38.39 
  -9   3  -2    0.71    5.21 
  -3   9   7   40.76   19.02 
  -9   3  -2   -1.89    6.75 
  -1 -10  -4   15.19   11.78 
   1  10   4    8.96   11.49 
  -5   8   2   35.83   28.90 
  -1  -8 -14    1.76    5.32 
  -1  -8 -14    5.43    7.42 
  -7   5  -5    4.29    7.94 
   1   8  14    2.06    7.76 
  -5   8   5   89.72   64.81 
  -7   5  -5    3.84    9.89 
  -3  -7 -15   43.19   26.91 
  -3  -7 -15   33.67   21.99 
   3   7  15   21.70   32.06 
   1   7  -8   25.96   18.79 
  -9   3   3   67.36   19.54 
  -9   3   3   74.31   14.78 
   2  10   5   22.10   10.77 
  -2 -10  -5   14.06   17.51 
  -4   6  -8   97.69   67.31 
  -9   2   5   61.88   47.88 
  -9   2   5   77.59   34.25 
  -2  -4 -17   93.25   58.86 
  -6  -8 -10  179.40   38.94 
  -6  -8 -10  185.70   40.32 
  -9  -2  -9    5.24   11.03 
   2   4  17  143.39   22.65 
  -1   3 -14    7.02    6.85 
   5   5  -9   10.31   17.41 
  -1   3 -14    1.41    8.93 
  -5  -1  13   27.97   37.97 
  -8   5   3    7.58   14.48 
  -5  -9  -2   15.10   20.28 
  -8   5   3    4.94    8.43 
   2  10   6   69.89   21.17 
  -2 -10  -6   68.60   21.84 
   1  -9   2   32.28   29.25 
  -1   9  -2   23.79   23.42 
   2   8  14  330.75   41.76 
  -4  -8 -13   21.85   24.52 
 -10  -1  -2    6.40   13.56 
  -2  -8 -14  341.44   40.53 
  -2  -8 -14  366.20   44.73 
  -4  -8 -13   21.81   18.26 
   0   6 -10   28.36   14.33 
   0   2  17   20.72   27.01 
   0  -2 -17   45.80   12.08 
  -6   2 -12   94.27   20.21 
  -8   5   0   24.78   37.27 
   4   5  16  142.91   40.96 
  -8   5   0   46.66   13.81 
  -4  -5 -16  238.64   36.35 
  -9   0  -8   12.82   10.17 
  -6   2 -12   37.65   49.64 
   3   4 -12   71.36   56.60 
  -7  -1 -13   50.84   16.98 
 -10  -1  -1  202.87   33.00 
  -6   5  11  273.02   54.76 
  -8   3   8  359.84   44.88 
  -2   9  -1   71.81   18.68 
  -9  -3  -9   33.65   13.76 
  -5   1 -14    6.79    7.89 
   4   5 -10  162.77   32.87 
  -5   1 -14    5.78    9.06 
  -1 -10  -7  180.37   50.77 
   1  10   7  161.22   37.30 
   0  -4 -17   49.61   14.19 
   0   4  17   42.72   35.32 
  -2  -2 -17   30.52   25.10 
   4   8  -4  318.61   41.95 
  -1  -9 -12    2.44    4.28 
  -2  -2 -17   42.22   18.99 
  -1  -9 -12    1.22    8.38 
  -4  -8   4  320.50   37.77 
   0 -10  -5    5.21    8.95 
   1   9  12    0.85    6.22 
   0  10   5    3.98    6.49 
   0   2 -15   30.67   15.28 
  -6   1 -13   14.91   10.65 
   0   2 -15   10.95    9.88 
  -6   1 -13   33.14   11.63 
   2  10   4  123.23   37.35 
  -2 -10  -4  168.59   29.24 
  -1   2 -15    2.23    7.27 
  -1   2 -15    1.63    3.66 
  -7   1  11   14.14   13.37 
  -3   9   1  148.57   24.42 
   1  -9 -11    5.34    9.55 
   3   2 -14    6.94    8.69 
   1  -9 -11    4.18    5.76 
  -1   9  11    6.44   11.08 
   3   2 -14    9.27   10.12 
  -4   5 -10   16.85   19.93 
  -5  -8 -12  183.15   57.38 
 -10  -1  -3  264.57   58.72 
  -5  -8 -12  212.60   30.91 
  -4  -1  14    6.60   12.79 
  -5   3 -12  101.01   61.47 
   4   1 -14    7.49    9.65 
  -5   3 -12  141.26   21.76 
   0 -10  -6  195.21   67.25 
  -2  -9 -12    5.59    8.01 
  -2  -9 -12    4.02    8.21 
   2   9  12    2.69    6.22 
   0  10   6  222.76   40.09 
 -10  -2  -2  154.50   26.02 
  -3   6  -9    3.57    8.01 
  -9   1  -7   13.22   16.42 
  -9  -2   5    3.48   10.75 
  -3  -6 -16    7.29   11.81 
   0  10   4   14.21   11.54 
   0 -10  -4   38.09   16.20 
  -5   7  -4    3.80    8.07 
   3   6  16    0.50    4.35 
   1   6 -10    1.55    6.84 
  -9   0   6  242.67   35.07 
  -2 -10  -7    7.21   12.89 
  -1 -10  -3   20.73   14.15 
  -7  -6 -12  165.26   28.98 
  -7  -6 -12  165.82   25.46 
  -7   2  11   16.76   22.13 
   2  10   7   11.44    8.88 
   1  10   3   13.56    9.11 
  -6   7  -1   36.68   37.82 
  -7   6   6   49.67   58.63 
  -7  -8  -5   52.00   55.82 
  -1   7  -8   23.95   26.13 
 -10  -2  -3   10.76   15.32 
   0   4 -13   58.16   17.47 
  -5   2  14   47.96   47.49 
  -8   3  -7   19.74   22.81 
  -8   3  -7   33.10   19.94 
  -6   4  12   16.96   10.88 
  -9  -5  -7   13.56   11.57 
  -4  -1 -16   25.58   19.73 
  -4  -1 -16   36.14   11.98 
 -10  -1   0   -0.10    8.10 
   3   8  -5   76.43   30.34 
  -5   8   1   22.78   10.99 
  -3   0 -16    2.43    4.26 
  -6   6  -5    5.11   14.72 
  -8  -7  -4   22.01   22.06 
  -3   0 -16    3.36    7.12 
  -8  -7  -5  137.74   31.92 
  -9  -3   4    4.50    9.24 
  -3   8  -4   14.18   10.16 
  -5   5  -9   74.88   55.36 
  -7  -8  -4   96.94   24.00 
  -4   3  15    2.89    6.43 
  -8   1   9  100.25   28.54 
   2  -8   5    4.21    5.40 
 -10  -2  -1    5.62   10.35 
  -2   8  -5   10.61    9.23 
  -5   8   6  108.90   77.86 
   1   3 -14   12.19   11.18 
  -1   6 -10   21.04   10.39 
  -5   7  10  151.18   62.74 
  -9   1   6    5.05    6.94 
 -10   0  -1   83.62   23.29 
  -7   4  10   16.18   15.69 
  -7  -8  -6   17.90   25.19 
  -8   5   4  309.97   69.70 
  -8   5   4  359.34   96.52 
   0   8  14   59.96   46.52 
   0  -8 -14   38.43   36.52 
   0  -8 -14   59.60   26.28 
  -8   4   7   29.62   19.58 
  -7  -5 -13  114.64   69.26 
  -4   2 -14   10.19    7.66 
 -10   0  -2  229.49   48.26 
  -4   2 -14   13.83   12.35 
  -1   4 -13  138.87   34.98 
  -6  -7   4    5.26    7.22 
  -9  -5   0   95.50   23.21 
   2  -9 -10   36.98   37.54 
   2  -9 -10   50.05   30.34 
  -2   9  10   64.65   21.65 
  -8   5  -1  214.42   49.64 
  -9  -1  -9   10.68   17.22 
  -8   5  -1  207.06   42.59 
  -5  -9  -9    9.58    9.45 
  -6  -1  12    4.90   11.10 
  -2 -10  -3  214.13   45.97 
   0  10   7  165.23   58.69 
   2  10   3  183.37   39.34 
  -4   7  12    7.60   10.15 
  -9   3  -3   79.33   26.01 
  -9   3  -3   88.66   25.33 
 -10   0   0   25.43   40.40 
  -8  -7  -6   39.68   46.25 
  -6   7   7   16.31   22.55 
  -8  -5 -11  215.16   61.57 
  -8  -7  -6   52.17   20.76 
 -10  -2  -4  112.81   29.53 
  -8  -7  -3    7.75    8.89 
  -5   6  -7   55.72   48.90 
   0  10   3   24.25   12.80 
   0 -10  -3   26.88   13.41 
 -10  -1  -4   23.41   12.71 
  -8   0   9    1.17    4.01 
  -8   1 -10  123.79   27.47 
  -1 -10  -8  199.23   45.13 
   1  10   8  172.69   38.06 
  -3  -3 -17  155.43   36.77 
  -3  -3 -17  159.97   36.10 
  -6   3 -11   33.61   11.61 
  -5   1  14   21.85   12.09 
  -6  -8   1   17.26   13.28 
  -3   9   8    3.52    9.79 
  -6   3 -11   35.18   12.07 
  -9   3   4   19.29   11.66 
  -9   3   4   21.80   22.40 
  -2   5  16   10.11   13.31 
  -5   3  14   22.86   31.34 
   2  -5 -16   11.96   13.30 
   0  -9 -12    6.15    7.51 
   1  -7 -15   35.50   17.92 
  -1   7  15   26.89   35.86 
   3   9  -2  119.47   25.68 
  -3  -9   2   71.82   56.59 
  -7   6  -2   44.34   28.39 
  -7   6  -2   58.07   20.09 
   6   5  -8   18.27   17.71 
   1  -7 -15   18.28   16.84 
  -8   4  -5    7.41    8.94 
  -8   4  -5    3.45    7.61 
   2   7  -8   70.46   20.57 
  -4   3 -13  117.20   38.38 
  -4   3 -13  113.41   61.60 
  -5   5  13   22.08   28.47 
   0   8  -6  132.47   52.61 
   1  -3 -17    7.98    7.39 
  -3   7  -7  105.07   34.88 
  -1   3  17    4.62    9.34 
  -7  -8  -3    5.78    9.68 
   7   3  -9   10.28    5.70 
  -7   0  11  535.67  100.35 
   1   8  -6   13.80   18.23 
  -5  -8   3   25.32   17.15 
  -2   3 -14   23.28   21.38 
  -2   3 -14   41.28   31.38 
  -1  -5 -17   48.61   29.35 
   1   5  17   34.86   45.30 
  -3  -8 -14   35.03   28.88 
  -3  -8 -14   49.56   12.68 
  -4   1  15    2.95    8.82 
   4  -1 -15   15.46    9.93 
   1   2 -15    7.09    8.87 
   1   2 -15   10.34   13.72 
   1   9  -3    3.84    6.45 
  -1  -9   3    5.33    6.51 
   1   4 -13  189.24   42.46 
  -8  -3 -12    5.89    8.85 
 -10  -2   0   71.03   25.26 
  -2 -10  -8   75.20   45.86 
  -4  -9 -11   82.72   26.47 
   2  10   8   78.35   26.74 
 -10   0  -3   96.51   25.89 
  -2   2 -15   17.82   19.98 
  -1  -1 -17   48.59   22.56 
  -7  -8  -7   33.87   43.29 
  -1  -1 -17   41.19   30.98 
  -8   2   9  341.36   79.29 
  -2   2 -15   16.09    8.35 
  -3 -10  -5   87.70   24.81 
  -6  -3 -15   35.77   15.51 
  -3 -10  -6   12.25   14.56 
  -5  -9  -1   59.30   18.36 
   3   4  17   66.16   19.65 
  -3  -4 -17   63.50   22.71 
 -10  -1   1    2.19    8.66 
  -5   6  12   68.67   22.97 
  -7  -7   2   34.34   46.85 
   0   9  -3   37.29   12.70 
   0  -9   3   31.80   12.16 
  -8   0 -11    6.89    9.12 
  -4   7  -6   50.69   15.64 
  -1   6  16   15.21   14.72 
   1  -6 -16   19.36   14.77 
  -4  -9   1   27.12   32.37 
  -7   5   9    4.75    9.23 
  -6   0 -14   12.72    9.13 
  -6   0 -14   11.95    7.93 
  -1 -10  -2  104.93   44.73 
  -9  -4  -9  855.68  159.52 
   1  10   2   84.51   29.10 
  -2  -5 -17    6.70   11.79 
   2   5  17    5.48    9.14 
  -5  -7 -14   24.87   29.90 
  -3   5 -11    4.12    4.72 
  -5  -7 -14   31.16   14.25 
  -8  -2 -12   26.94   33.64 
   3  -3 -16  230.70   47.76 
  -3   3  16  180.69   70.19 
  -1   2  17   86.43   56.23 
   1  -2 -17  156.81   35.26 
   3  -2 -16  183.42   38.62 
  -3  -9 -12    6.57    8.52 
  -3   2  16  200.24   49.65 
  -3  -9 -12    7.37    7.39 
  -5  -6 -15   68.96   53.39 
  -6   6  10  474.60   96.91 
  -4   1 -15   36.98   32.91 
  -5  -6 -15   41.78   40.97 
  -4   1 -15   40.82   30.01 
  -7  -2  10   16.17   27.27 
   2   0 -16   27.61   22.23 
  -2   0  16   21.96   30.83 
  -1   1 -16   49.13   47.49 
  -1   1 -16   33.56   36.00 
   3   5 -11   47.62   45.95 
   0  -1 -17   15.16   16.84 
   0  -1 -17   12.56    9.75 
  -3 -10  -4   72.70   21.28 
  -3   9   0   14.60   17.54 
  -5   8   0   92.10   29.99 
  -5   0 -15    2.72    6.74 
  -5   0 -15    4.47    7.87 
  -4   8  10   33.47   33.67 
  -5  -3 -16   27.59   12.60 
  -8  -7  -2    3.31    6.43 
  -8  -7  -7  106.39   30.91 
  -5  -3 -16   45.71   13.99 
  -8  -7  -7   54.74   59.81 
   0   1 -16    6.96    8.73 
  -8  -6 -10   24.61   28.48 
  -8   2  -9   33.27   15.47 
 -10  -3  -3    2.50    6.29 
   0   1 -16   10.33   14.31 
  -8   2  -9   28.47    9.45 
  -3 -10  -7   15.94   15.92 
  -7   1 -12   10.48   16.13 
  -6  -4 -15  351.70   94.13 
  -7   1 -12   11.07    7.49 
  -7   3  11    2.25    4.60 
  -5   8   7  135.21   64.49 
  -9   2  -6   30.19   17.14 
  -8   5   5   15.09   23.02 
 -10  -3  -2   15.32   28.71 
  -3  -2 -17   53.64   12.20 
  -3  -2 -17   33.67   31.02 
   0  10   8  197.34   43.41 
  -1   4  17   95.97   27.06 
 -10  -2  -5   12.81   19.09 
   1  -4 -17   88.17   22.29 
   2   6 -10  205.49   54.22 
   2  -8 -13   22.38   28.87 
   2  -8 -13   45.04   15.78 
  -1  10   5  146.86   34.53 
  -2   8  13   36.57   28.71 
   1 -10  -5  120.59   30.76 
  -6  -6 -14    2.82    4.07 
  -6  -6 -14    6.39   10.22 
  -9  -4   3   49.45   46.35 
   0  -5 -17   12.52   10.27 
   0   5  17    8.53   13.20 
   2  10   2   22.62   30.02 
   0 -10  -2   16.34   20.03 
  -6   2  13   59.01   59.66 
  -2 -10  -2   32.81   31.32 
  -7   2 -11  177.48   37.87 
   0  10   2    8.04   12.69 
  -7   2 -11  183.78   38.09 
  -2  -1 -17    4.92    5.74 
  -2  -1 -17   12.76    8.85 
  -6  -2 -15   11.20   10.97 
  -7  -7 -11  189.49   39.61 
  -7  -7 -11  155.20   39.34 
  -4   4  15    0.04    8.14 
  -7   4  -8   53.51   12.54 
  -7   4  -8   47.62   13.24 
  -9  -5  -8  170.82   36.31 
  -8   5  -2    2.22    7.49 
  -2  -9   3  179.20   38.90 
  -1  10   4   28.41   28.43 
  -9   2   6   50.54   16.48 
   3   1 -15   35.56   51.87 
   2   9  -3  142.06   33.29 
  -8   5  -2    8.99    8.51 
   1 -10  -4   35.36   26.10 
 -10  -3  -4   38.27   36.66 
  -7  -8  -2    9.86    9.02 
  -9   2   6   40.52   42.36 
   3   1 -15   37.18   27.10 
  -5  -4 -16  833.32  157.02 
  -8  -4 -12  195.37   43.09 
  -1  10   6   80.18   25.04 
   1 -10  -6   39.22   38.94 
 -10  -1  -5   28.91   39.64 
  -5   4 -11   61.91   45.61 
  -5   4 -11   69.11   17.72 
  -4   8  -3   13.25   14.57 
  -7   6   7   16.33   28.22 
  -2   4 -13   46.12   24.09 
  -6   7  -2    2.84    8.11 
  -4  -7 -15  149.12   34.79 
  -1   8  -6   30.89   25.08 
  -4  -7 -15   94.60   52.71 
  -6  -8 -11  309.26   60.32 
  -6  -8 -11  265.22   78.14 
 -10   0  -4  185.90   40.88 
   2   8  -6    4.67    8.33 
  -6   1  13   15.92   18.37 
 -10  -3  -1   61.21   19.98 
 -10  -2   1    8.58   14.24 
   1  10   9    6.47   10.24 
  -1 -10  -9    8.34   10.47 
   4   7  -7    2.99    7.59 
  -2   9  -2   55.70   25.37 
  -7  -8  -8  342.72   67.40 
   2  -9   2   55.68   34.16 
  -2   7  -8   41.75   40.95 
  -2   6 -10   34.72   13.24 
  -6  -7 -13   22.40   27.21 
  -6  -7 -13   18.96   23.62 
 -10   1  -1   18.41   11.32 
  -9  -5   1   19.63   28.02 
  -3 -10  -3  124.43   40.73 
  -9   3  -4   13.72    9.35 
  -6   5  -8   75.57   19.81 
  -6   5  -8   39.12   48.81 
 -10   1   0   12.97   11.71 
  -3   8  12   21.93   10.90 
  -7  -3 -14   -0.72    9.88 
  -5  -2 -16    9.24    9.41 
  -5  -2 -16   17.05   12.32 
   2  10   9   11.79   12.89 
  -2 -10  -9    8.82    9.72 
  -5  -9 -10  146.55   35.72 
  -3 -10  -8    5.78   10.59 
  -2   1 -16    3.03    5.76 
  -2   1 -16    4.29    8.45 
  -4   4 -12  196.97   42.21 
   2   3 -14  225.28   88.15 
   5   7  -6    3.53    6.69 
  -8  -1   9   33.87   23.80 
  -9   3   5  119.25   40.98 
  -9   3   5  141.15   32.77 
 -10   0   2    5.86    8.25 
 -10  -1   2    3.09    9.04 
   3  -4 -16   65.11   51.62 
   1 -10  -3   15.04   15.26 
  -3   4  16   74.95   57.31 
  -7   5  -6   20.32    8.24 
  -7   5  -6   14.58   17.83 
  -1  10   3    8.96   14.98 
   1  -8 -14    4.46    8.60 
   1  -8 -14   16.05   12.37 
  -1   8  14    9.57   11.13 
   1  -9   3    2.72    4.90 
  -1   9  -3    5.25    6.64 
  -3   1  16    3.47    7.82 
   3  -1 -16    2.59    6.46 
  -6  -9  -5   65.28   37.02 
 -10   1  -2   78.94   40.68 
  -1  10   7  304.63   87.16 
  -7   0 -13  105.05   34.97 
  -3   9   9    1.67    6.59 
 -10  -3  -5    4.72    9.77 
  -5   4  14  198.81   42.97 
  -6   7   8   10.75   11.69 
   5   6  -8    8.66   15.22 
  -4  -6 -16   47.15   35.99 
  -5   0  14    1.51    6.71 
  -1   5 -12   71.40   19.77 
  -6  -9  -6   15.23   15.73 
  -9  -2 -10   82.02   24.41 
  -9  -3 -10  123.61   28.51 
  -3  -5 -17   97.59   24.90 
   3   5  17   84.31   21.78 
  -6   3  13    5.19   11.82 
  -8  -7  -1    1.68    9.61 
  -1 -10  -1    3.79    8.19 
  -8  -7  -8   25.76   32.09 
   1  10   1    4.21    7.85 
   1   5 -12    2.28    7.98 
  -8  -7  -8   25.66   32.73 
   1   1 -16  201.19   43.25 
 -10   1   1  116.99   32.20 
   1   1 -16  228.80   49.56 
  -7   6  -3   32.29   36.98 
  -9   0  -9   85.63   23.16 
  -7   6  -3   16.25   26.11 
   5   3 -12    6.57    8.93 
  -1  -7 -16  311.34   65.52 
  -8  -1 -12   14.59    9.87 
   1   7  16  280.91   66.84 
  -4   9   4    0.98    7.93 
  -6  -9  -4    4.33   11.26 
   2   4 -13   88.27   31.77 
   1  -9 -12   17.47   11.37 
   1  -9 -12   13.13   14.01 
  -7  -4 -14   82.54   27.80 
  -1   9  12   18.30   17.61 
  -9   1  -8   37.09   12.83 
  -9  -6  -5   13.79   10.93 
  -7  -2 -14    9.44   11.01 
  -1   1  17   83.11   28.87 
   1  -1 -17   96.43   25.29 
   2   7  16    2.68    9.35 
  -2  -7 -16    2.66    9.31 
 -10  -2  -6   12.48   21.79 
  -4   9   5   99.59   27.50 
  -8   3   9    0.46    5.30 
  -9  -6  -3   10.28    9.03 
 -10  -3   0   18.81   13.41 
   0  10   9   28.51   25.46 
  -5  -9   0   21.41   29.89 
   0 -10  -9   50.81   16.13 
  -6   4 -10   13.55   17.84 
  -6   4 -10   24.04   27.42 
   4   0 -15   83.58   65.92 
  -4   0  15   93.84   33.83 
   1   9  13  273.33   55.89 
  -1  -9 -13  213.25   42.65 
  -7  -1  11   29.45   39.95 
  -1  -9 -13  250.83   51.56 
   2  -9 -11   16.31   23.05 
  -5   8  -1   16.01   10.12 
   2  -9 -11   25.49   10.43 
  -2   9  11   29.29   11.00 
  -4   9   3  132.84   38.17 
  -8   4   8   30.14   44.32 
  -6  -9  -7    2.82   10.09 
  -5   7  -5    8.17    8.38 
   2   2 -15   22.25   14.05 
   3  -6 -15   60.29   65.80 
   2   2 -15   18.17   19.05 
  -3   6  15   87.53   25.44 
  -9   4   1   13.63   19.70 
  -2  -9 -13   34.87    8.69 
  -2  -9 -13    8.07   12.71 
  -9   4   1    9.17   18.17 
  -8   5   6   19.70   25.26 
  -7   3 -10  201.10   62.67 
  -7   3 -10  225.16   48.73 
   5   4 -11   74.53   48.37 
  -5  -8 -13   47.97   32.15 
  -5  -8 -13   48.35   14.18 
  -6  -5 -15    5.40   11.66 
  -5   8   8   31.71   53.90 
   0  10   1    2.87   13.35 
   0 -10  -1    7.93    8.15 
  -7  -8  -1  190.68   47.36 
 -10   1  -3   29.06   28.65 
  -3   2 -15    2.81    9.51 
  -3   2 -15    8.43    8.88 
  -3   3 -14  148.97   30.79 
  -3   3 -14  166.26   36.94 
   3   7  -8   14.79   14.30 
   2  10   1  291.73   60.93 
  -4  -8 -14   86.57   22.38 
 -10   0  -5    3.60    9.76 
  -2 -10  -1  336.88   67.85 
  -4  -8 -14  102.18   25.13 
  -9   4   0   67.30   58.12 
  -6  -8   2   23.99   27.04 
  -9   4   0   67.78   31.88 
  -4   0 -16    5.06   10.78 
  -4   0 -16    3.52    3.62 
  -3   9  -1   30.36   17.00 
  -9   4   2   11.92    9.57 
  -9   4   2    9.61   13.94 
  -5  -5 -16   12.41   17.68 
  -3 -10  -2  388.07   77.71 
   1 -10  -2   22.35   25.58 
   4   3 -13    0.92    7.73 
  -1  10   2   18.41   22.77 
 -10  -1  -6    9.00    9.26 
  -5   7  11   12.93   11.70 
  -9  -6  -6    6.63    6.79 
  -6   6  -6   78.40   22.74 
  -8   3  -8  216.89   43.65 
  -8   3  -8  162.59   69.91 
  -4   6  14  119.33   39.34 
   3  -7 -14  498.78   97.21 
  -8   5  -3  205.88   45.31 
  -3   7  14  465.82   99.98 
   3  -7 -14  381.31   71.68 
  -8   5  -3  185.77   38.27 
  -4  -3 -17    5.48    6.74 
  -8   4  -6    6.80   10.02 
  -4  -3 -17    6.72    6.30 
  -8   4  -6    3.75    6.48 
   4   8  -5   40.32    9.99 
   6   3 -11    7.57   10.16 
  -6   0  13    6.65   10.13 
  -6  -9  -3    8.02   14.22 
   1 -10  -8  230.54   47.54 
  -1  10   8  203.80   56.82 
   1  -5 -17    8.07   11.42 
   5   2 -13   12.52    9.01 
  -1   5  17    5.74   12.58 
   5   2 -13    9.28    6.41 
  -4   9   6   12.62   12.44 
  -7  -8  -9   36.37   23.25 
  -3  -1 -17   20.60   10.28 
  -3  -1 -17   16.43   20.48 
  -3 -10  -9  390.32   77.52 
   2  -3 -17  230.60   90.06 
 -10   1   2   25.90   45.44 
 -10  -2   2    9.26   14.68 
  -2   3  17  253.17   60.74 
  -9  -6  -2   -0.11    5.00 
  -3   8  -5  128.52   31.26 
  -7  -6 -13  127.24   31.27 
  -4  -9 -12    2.66    5.76 
  -4  -9 -12    4.16    6.08 
  -4 -10  -6    8.78   12.51 
  -6   5  12   19.57   25.37 
  -4 -10  -5    3.80    6.64 
  -6  -1 -15  214.97   42.03 
  -1  -8 -15  278.30   65.47 
  -6  -1 -15  180.38   75.80 
  -1  -8 -15  214.17   55.37 
   1   8  15  307.63   62.75 
   0   7  16    4.00   13.50 
   0  -7 -16   11.64   10.61 
  -4   9   2   23.62   13.72 
 -10  -3  -6   18.13   20.05 
  -4  -4 -17  252.84   54.37 
  -4  -4 -17  240.43   47.76 
   4   4 -12   24.52   30.63 
  -9  -1 -10   43.87   19.26 
  -2  -8 -15  184.70   53.83 
   2   8  15  217.48   44.63 
  -9  -4 -10    4.16   10.10 
  -9  -5  -9    7.62   11.12 
  -2  -8 -15  231.79   50.25 
  -3  -9   3    8.88    9.49 
   3   9  -3    6.14    6.40 
  -1 -10 -10    6.54    9.43 
   1   6  17   34.89   41.80 
  -1  -6 -17   53.01   37.80 
  -4  -9   2    2.69    4.43 
   2  -7 -15   45.91   39.33 
  -2   7  15   48.71   52.40 
  -9   4  -1   31.56   48.67 
 -10   0   3  130.72   33.37 
  -9   4  -1   49.02   25.48 
  -2   2  17  220.53   74.08 
  -8  -5 -12   13.27   18.96 
   2  -2 -17  271.57   55.73 
  -7  -7   3  165.54   42.56 
   6   4 -10  113.93   34.29 
  -9   4   3    2.89    5.89 
  -9   4   3    6.52   10.65 
  -6  -9  -8   12.12   13.85 
  -2 -10 -10  133.80   41.40 
   2  10  10  113.39   40.57 
   0  -9 -13    6.98    7.04 
  -7   6   8   18.53   12.62 
   0   9  13    7.08    9.80 
   0  -9 -13    3.24    6.76 
  -1   0 -17   92.29   80.95 
  -1   0 -17  172.19   38.85 
 -10  -4  -3    8.37    9.27 
  -4 -10  -7    7.56   13.10 
  -6   7  -3    2.51    7.65 
   2   6  17   15.97   20.54 
  -4 -10  -4   39.64   32.23 
  -2   8  -6  216.47   48.46 
  -4   6  -9  124.49   39.07 
  -2  -6 -17   19.77   15.08 
 -10  -1   3  112.56   53.27 
  -8  -6 -11   12.15   20.56 
  -7   4  11    5.04   10.81 
  -2   5 -12   12.43    9.83 
   0   7  -9   18.63   10.66 
 -10  -4  -4    5.64   10.44 
  -9   2  -7  111.93   27.74 
  -5  -8   4   32.42   16.16 
  -3  -7 -16  253.37   58.35 
  -3  -7 -16  206.85   41.22 
  -2   6  16   28.90   23.02 
   3   7  16  217.50   44.10 
   2  -6 -16   25.85   18.73 
  -1  -9   4  101.02   22.28 
   1   9  -4  103.22   41.23 
   3   6 -10  112.02   26.74 
  -9   3  -5   29.78   13.33 
   3   8  -6    9.32   16.42 
   4   2 -14   61.29   18.54 
  -4   8  11   27.85   18.49 
 -10  -3   1  179.59   39.04 
   4   2 -14   21.36   24.98 
  -5  -1 -16   10.70   19.57 
 -10  -4  -2   13.02   11.85 
   0   0 -17   43.66   33.37 
   0   0 -17   31.16   28.08 
  -5  -1 -16   19.74   14.70 
  -8  -7  -9    3.51    6.57 
  -8   1  10   40.21   46.06 
  -8  -7  -9    8.07   10.11 
  -7   5  10  281.27   72.58 
  -9  -4   4    1.39    3.02 
  -3  -9 -13   13.05    8.71 
  -3  -9 -13   11.42    9.31 
 -10   1  -4   85.43   21.20 
  -4  -2 -17    2.91    7.51 
  -4  -2 -17   13.76   13.07 
  -9  -6  -7    7.45   14.28 
   0  -9   4   11.85   13.70 
  -3   4 -13   30.10   38.35 
   2   5 -12    6.44   13.19 
   0   9  -4   11.24    7.61 
   1   7  -9  236.89   56.59 
  -3   1 -16    3.85    3.82 
  -4   5  15   34.93   22.46 
  -3   1 -16    3.54   11.04 
   2  -4 -17   17.09   12.59 
  -2   4  17   13.16   19.07 
  -4   7  13  212.79   61.65 
  -9   3   6    1.72    5.65 
  -9   2   7   17.07   32.65 
  -4   9   7   27.85   34.26 
  -5  -9 -11   40.27   18.74 
   2 -10  -5   12.25   10.57 
  -2  10   5    8.02    7.81 
  -7  -5 -14   12.91   11.42 
  -1 -10   0   10.50   15.82 
   1  10   0    8.59   13.53 
  -6   6  11   36.00   37.21 
  -6  -8 -12  132.55   29.63 
  -6  -8 -12   91.45   58.25 
   3  -9 -10    8.08   14.89 
   0  -8 -15    5.14    7.20 
  -7  -1 -14  335.06   68.38 
   0  -8 -15    5.51    9.80 
  -3   9  10   10.92   10.05 
  -6  -9  -2    2.32    8.52 
   0   8  15    1.08    9.71 
 -10  -4  -5   98.87   38.82 
  -2  10   4    7.89    6.30 
  -7  -7 -12    6.39   11.64 
   2 -10  -4    2.37    7.27 
  -7  -7 -12   17.11   12.53 
 -10  -2  -7    4.01    9.87 
  -7   1  12   10.58   20.22 
   0   6  17   68.06   31.67 
   5   5 -10  292.00   69.61 
  -7   2  12    8.73   11.26 
   0  -6 -17   92.59   23.87 
  -4   8  -4    2.62    8.53 
  -4   9   1   17.80   20.18 
  -5   6  -8  243.02   62.53 
  -6   4  13  244.06   54.22 
   0  10  10   15.03   19.19 
  -3   5  16   18.31   14.42 
   0 -10 -10   28.25   25.93 
   3  -5 -16   25.57   27.52 
   1 -10  -1   64.17   60.31 
  -1  10   1  106.42   29.08 
   2 -10  -6  180.66   41.28 
  -8   1 -11   15.49   23.86 
  -2  10   6  181.45   44.87 
  -4 -10  -8  327.31   67.20 
  -6   7   9  109.85   30.77 
  -8   2  10    8.51    6.38 
  -2   0 -17   54.38   43.25 
   3   0 -16   13.09   13.49 
  -2   0 -17   43.75   50.39 
  -3   0  16    7.06   13.95 
   2  -9   3   44.48   11.25 
  -2   9  -3   40.53   30.78 
  -4 -10  -3   33.58   36.29 
  -9   4  -2  139.69   34.48 
  -9   4  -2  114.00   27.31 
 -10   1   3  136.23   54.84 
  -6   2 -13  126.60   32.55 
  -6   2 -13  111.20   28.87 
  -5   5 -10   24.88   17.75 
  -5   2 -14  189.58   50.40 
  -5   2 -14  235.76   48.16 
  -7  -8   0   19.23   27.12 
   1 -10  -9  122.39   77.60 
  -1   7  -9   27.08   34.82 
  -8   0  10  270.35   56.83 
  -3 -10  -1   25.97   36.40 
  -3   6 -10  203.87   52.44 
  -3  -8 -15  192.68   41.96 
  -9   4   4    3.09    7.65 
 -10   2   0   34.47   14.92 
  -9   4   4    3.49   10.85 
 -10  -4  -1  105.89   50.87 
  -3  -8 -15  201.68   41.08 
   2   1 -16    4.91    6.41 
   2   1 -16    2.75    7.23 
   1   3  18   27.07   43.26 
  -7   6  -4    1.32    5.92 
  -8  -3 -13    5.19    8.32 
  -7   6  -4   11.90    7.47 
  -1  -3 -18   33.00   36.76 
  -4   7  -7   36.17   45.00 
  -5   8  -2  131.58   32.33 
 -10   0  -6   53.35   18.74 
   0 -10   0   56.21   19.96 
   0  10   0   23.17   38.43 
  -4   5 -11    4.94    7.51 
   0   8  -7   41.12   24.44 
 -10   2  -1   21.05   21.60 
  -7   7   3  262.81   55.08 
   0   6 -11   17.93    9.99 
  -3   7  -8    5.15    8.98 
  -8   5   7    4.47    8.98 
   2   9  -4    2.97    4.90 
  -5   6  13    3.74    4.17 
  -2  -9   4    0.53    5.09 
  -4  -5 -17   12.59   28.96 
   1   8  -7    5.34    6.33 
   2 -10  -3    2.29    5.52 
 -10  -3  -7   19.89   25.99 
  -2  10   3    6.69   10.14 
  -7   7   2   22.02   19.69 
  -7   7   2   18.15   20.82 
  -6   1 -14    5.72    8.04 
  -5   8   9    3.15   17.09 
  -2 -10   0    2.47    5.47 
  -3 -10 -10   33.36   19.73 
   4   5 -11   97.43   30.57 
  -5  -9   1    2.22    7.90 
  -6  -9  -9  134.23   77.94 
 -10  -1  -7    4.28    7.34 
  -7  -8 -10  146.70   31.91 
;
_shelx_hkl_checksum              34262
loop_
_space_group_symop_operation_xyz
'x, y, z'
'-x, -y, -z'
loop_
_atom_site_label
_atom_site_type_symbol
_atom_site_fract_x
_atom_site_fract_y
_atom_site_fract_z
_atom_site_U_iso_or_equiv
_atom_site_adp_type
_atom_site_occupancy
_atom_site_site_symmetry_order
_atom_site_calc_flag
_atom_site_refinement_flags_posn
_atom_site_refinement_flags_adp
Fe1 Fe 0.18992(5) 0.11189(5) 0.15610(3) 0.01623(11) Uani 1 1 d . .
Fe2 Fe 0.34965(5) 0.23309(5) 0.27365(3) 0.01691(11) Uani 1 1 d . .
S1 S 0.16583(9) 0.39481(9) 0.15762(5) 0.01718(16) Uani 1 1 d . .
P1 P 0.13589(9) 0.08227(9) 0.31650(5) 0.01586(17) Uani 1 1 d . .
O1 O 0.3076(3) -0.2614(2) 0.21073(15) 0.0280(5) Uani 1 1 d . .
O2 O 0.4375(3) 0.1997(3) -0.02499(15) 0.0311(5) Uani 1 1 d . .
O3 O -0.1319(3) 0.0912(3) 0.07660(16) 0.0315(5) Uani 1 1 d . .
O4 O 0.5647(3) -0.0617(3) 0.39419(17) 0.0363(6) Uani 1 1 d . .
O5 O 0.6252(3) 0.3929(3) 0.12269(16) 0.0298(5) Uani 1 1 d . .
O6 O 0.3044(3) 0.4330(3) 0.42228(14) 0.0263(5) Uani 1 1 d . .
O7 O -0.0429(2) 0.1711(2) 0.35562(13) 0.0186(4) Uani 1 1 d . .
O8 O 0.1428(2) -0.1025(2) 0.40496(13) 0.0178(4) Uani 1 1 d . .
C1 C 0.2631(3) -0.1152(4) 0.1873(2) 0.0187(6) Uani 1 1 d . .
C2 C 0.3392(4) 0.1684(3) 0.0420(2) 0.0219(7) Uani 1 1 d . .
C3 C -0.0056(4) 0.0999(3) 0.1068(2) 0.0213(7) Uani 1 1 d . .
C4 C 0.4811(4) 0.0545(4) 0.3455(2) 0.0234(7) Uani 1 1 d . .
C5 C 0.5220(4) 0.3327(4) 0.1815(2) 0.0224(7) Uani 1 1 d . .
C6 C 0.3255(3) 0.3574(4) 0.3632(2) 0.0196(6) Uani 1 1 d . .
C7 C -0.0238(3) 0.4532(3) 0.2234(2) 0.0167(6) Uani 1 1 d . .
C8 C -0.1023(3) 0.3432(3) 0.3112(2) 0.0161(6) Uani 1 1 d . .
C9 C -0.2458(3) 0.4042(4) 0.3604(2) 0.0192(6) Uani 1 1 d . .
H9 H -0.2970 0.3281 0.4205 0.023 Uiso 1 1 calc R U
C10 C -0.3145(3) 0.5750(4) 0.3224(2) 0.0207(7) Uani 1 1 d . .
H10 H -0.4118 0.6169 0.3569 0.025 Uiso 1 1 calc R U
C11 C -0.2411(3) 0.6853(4) 0.2336(2) 0.0216(7) Uani 1 1 d . .
H11 H -0.2898 0.8019 0.2062 0.026 Uiso 1 1 calc R U
C12 C -0.0972(3) 0.6255(3) 0.1852(2) 0.0180(6) Uani 1 1 d . .
H12 H -0.0470 0.7023 0.1250 0.022 Uiso 1 1 calc R U
C13 C 0.0031(3) -0.2138(3) 0.4191(2) 0.0231(7) Uani 1 1 d . .
H13A H -0.1014 -0.1537 0.4405 0.028 Uiso 1 1 calc R U
H13B H 0.0283 -0.3252 0.4718 0.028 Uiso 1 1 calc R U
H13C H -0.0107 -0.2365 0.3543 0.028 Uiso 1 1 calc R U
loop_
_atom_site_aniso_label
_atom_site_aniso_U_11
_atom_site_aniso_U_22
_atom_site_aniso_U_33
_atom_site_aniso_U_23
_atom_site_aniso_U_13
_atom_site_aniso_U_12
Fe1 0.0180(2) 0.0161(2) 0.0160(2) -0.00716(17) -0.00022(18) -0.00103(17)
Fe2 0.0151(2) 0.0170(2) 0.0206(2) -0.00866(17) -0.00107(18) -0.00131(17)
S1 0.0176(4) 0.0161(4) 0.0185(4) -0.0068(3) 0.0004(3) -0.0013(3)
P1 0.0161(4) 0.0166(4) 0.0157(4) -0.0059(3) -0.0016(3) -0.0009(3)
O1 0.0321(13) 0.0175(11) 0.0330(13) -0.0069(9) 0.0003(11) -0.0006(10)
O2 0.0310(13) 0.0341(13) 0.0240(12) -0.0079(10) 0.0116(11) 0.0004(10)
O3 0.0269(13) 0.0358(14) 0.0362(14) -0.0152(11) -0.0096(11) -0.0018(10)
O4 0.0327(14) 0.0321(14) 0.0450(15) -0.0140(11) -0.0146(12) 0.0116(11)
O5 0.0227(13) 0.0354(13) 0.0329(13) -0.0131(10) 0.0078(11) -0.0093(10)
O6 0.0318(13) 0.0275(12) 0.0241(12) -0.0144(10) 0.0045(10) -0.0084(10)
O7 0.0177(11) 0.0183(11) 0.0188(11) -0.0056(8) 0.0015(9) 0.0000(8)
O8 0.0212(11) 0.0158(10) 0.0160(10) -0.0032(8) 0.0040(9) -0.0092(9)
C1 0.0142(15) 0.0259(17) 0.0183(15) -0.0094(12) 0.0016(13) -0.0060(13)
C2 0.0274(18) 0.0164(16) 0.0226(16) -0.0072(12) -0.0044(15) 0.0017(13)
C3 0.0278(18) 0.0191(16) 0.0173(15) -0.0075(12) 0.0021(14) -0.0002(13)
C4 0.0219(17) 0.0219(17) 0.0310(18) -0.0142(13) -0.0020(15) -0.0031(14)
C5 0.0216(17) 0.0227(16) 0.0278(18) -0.0147(13) -0.0069(15) 0.0028(13)
C6 0.0128(15) 0.0190(15) 0.0262(17) -0.0042(13) -0.0023(13) -0.0053(12)
C7 0.0127(15) 0.0196(15) 0.0207(15) -0.0100(12) -0.0030(12) -0.0007(12)
C8 0.0149(15) 0.0173(15) 0.0187(15) -0.0082(12) -0.0046(12) -0.0005(12)
C9 0.0137(15) 0.0250(16) 0.0216(16) -0.0104(13) 0.0013(13) -0.0060(13)
C10 0.0133(15) 0.0258(17) 0.0286(17) -0.0159(13) -0.0037(13) -0.0004(12)
C11 0.0184(16) 0.0204(16) 0.0297(18) -0.0121(13) -0.0090(14) 0.0032(13)
C12 0.0180(16) 0.0180(15) 0.0207(15) -0.0083(12) -0.0030(13) -0.0036(12)
C13 0.0233(17) 0.0226(16) 0.0227(16) -0.0031(13) -0.0006(14) -0.0097(13)
loop_
_atom_type_symbol
_atom_type_description
_atom_type_scat_dispersion_real
_atom_type_scat_dispersion_imag
_atom_type_scat_source
C C 0.0033 0.0016 'International Tables Vol C Tables 4.2.6.8 and 6.1.1.4'
H H 0.0000 0.0000 'International Tables Vol C Tables 4.2.6.8 and 6.1.1.4'
O O 0.0106 0.0060 'International Tables Vol C Tables 4.2.6.8 and 6.1.1.4'
P P 0.1023 0.0942 'International Tables Vol C Tables 4.2.6.8 and 6.1.1.4'
S S 0.1246 0.1234 'International Tables Vol C Tables 4.2.6.8 and 6.1.1.4'
Fe Fe 0.3463 0.8444 'International Tables Vol C Tables 4.2.6.8 and 6.1.1.4'
loop_
_geom_angle_atom_site_label_1
_geom_angle_atom_site_label_2
_geom_angle_atom_site_label_3
_geom_angle
C1 Fe1 C3 98.20(12)
C1 Fe1 C2 92.32(12)
C3 Fe1 C2 104.49(12)
C1 Fe1 P1 89.11(9)
C3 Fe1 P1 106.39(9)
C2 Fe1 P1 148.55(9)
C1 Fe1 S1 159.21(8)
C3 Fe1 S1 101.32(9)
C2 Fe1 S1 89.68(9)
P1 Fe1 S1 78.62(3)
C1 Fe1 Fe2 104.31(8)
C3 Fe1 Fe2 147.88(9)
C2 Fe1 Fe2 97.26(8)
P1 Fe1 Fe2 52.21(2)
S1 Fe1 Fe2 54.94(2)
C4 Fe2 C6 97.13(13)
C4 Fe2 C5 94.94(13)
C6 Fe2 C5 103.42(12)
C4 Fe2 P1 91.11(9)
C6 Fe2 P1 102.53(9)
C5 Fe2 P1 152.36(9)
C4 Fe2 S1 161.29(9)
C6 Fe2 S1 100.30(9)
C5 Fe2 S1 87.59(9)
P1 Fe2 S1 78.57(3)
C4 Fe2 Fe1 106.75(9)
C6 Fe2 Fe1 144.66(9)
C5 Fe2 Fe1 100.11(8)
P1 Fe2 Fe1 52.44(2)
S1 Fe2 Fe1 54.63(2)
C7 S1 Fe1 113.12(9)
C7 S1 Fe2 109.35(9)
Fe1 S1 Fe2 70.43(3)
O8 P1 O7 98.61(10)
O8 P1 Fe2 121.17(7)
O7 P1 Fe2 119.09(7)
O8 P1 Fe1 124.49(8)
O7 P1 Fe1 119.41(7)
Fe2 P1 Fe1 75.36(3)
C8 O7 P1 122.97(17)
C13 O8 P1 118.52(16)
O1 C1 Fe1 177.6(3)
O2 C2 Fe1 176.5(3)
O3 C3 Fe1 179.1(3)
O4 C4 Fe2 178.6(3)
O5 C5 Fe2 178.0(2)
O6 C6 Fe2 177.1(3)
C8 C7 C12 117.9(3)
C8 C7 S1 125.2(2)
C12 C7 S1 116.9(2)
O7 C8 C9 115.8(2)
O7 C8 C7 123.3(3)
C9 C8 C7 120.9(3)
C10 C9 C8 120.3(3)
C10 C9 H9 119.9
C8 C9 H9 119.9
C9 C10 C11 119.8(3)
C9 C10 H10 120.1
C11 C10 H10 120.1
C12 C11 C10 120.0(3)
C12 C11 H11 120.0
C10 C11 H11 120.0
C11 C12 C7 121.1(3)
C11 C12 H12 119.4
C7 C12 H12 119.4
O8 C13 H13A 109.5
O8 C13 H13B 109.5
H13A C13 H13B 109.5
O8 C13 H13C 109.5
H13A C13 H13C 109.5
H13B C13 H13C 109.5
loop_
_geom_bond_atom_site_label_1
_geom_bond_atom_site_label_2
_geom_bond_distance
Fe1 C1 1.784(3)
Fe1 C3 1.790(3)
Fe1 C2 1.841(3)
Fe1 P1 2.1441(9)
Fe1 S1 2.2647(8)
Fe1 Fe2 2.6169(6)
Fe2 C4 1.772(3)
Fe2 C6 1.789(3)
Fe2 C5 1.848(3)
Fe2 P1 2.1374(9)
Fe2 S1 2.2732(9)
S1 C7 1.774(3)
P1 O8 1.6053(17)
P1 O7 1.637(2)
O1 C1 1.143(3)
O2 C2 1.132(3)
O3 C3 1.148(3)
O4 C4 1.154(3)
O5 C5 1.133(3)
O6 C6 1.141(3)
O7 C8 1.380(3)
O8 C13 1.471(3)
C7 C8 1.396(4)
C7 C12 1.403(4)
C8 C9 1.387(4)
C9 C10 1.381(4)
C9 H9 0.9500
C10 C11 1.389(4)
C10 H10 0.9500
C11 C12 1.380(4)
C11 H11 0.9500
C12 H12 0.9500
C13 H13A 0.9800
C13 H13B 0.9800
C13 H13C 0.9800
loop_
_geom_torsion_atom_site_label_1
_geom_torsion_atom_site_label_2
_geom_torsion_atom_site_label_3
_geom_torsion_atom_site_label_4
_geom_torsion
O8 P1 O7 C8 173.11(18)
Fe2 P1 O7 C8 40.0(2)
Fe1 P1 O7 C8 -48.9(2)
O7 P1 O8 C13 58.4(2)
Fe2 P1 O8 C13 -169.82(16)
Fe1 P1 O8 C13 -76.5(2)
Fe1 S1 C7 C8 36.2(2)
Fe2 S1 C7 C8 -40.2(2)
Fe1 S1 C7 C12 -145.71(17)
Fe2 S1 C7 C12 137.94(18)
P1 O7 C8 C9 -172.97(17)
P1 O7 C8 C7 5.9(3)
C12 C7 C8 O7 179.6(2)
S1 C7 C8 O7 -2.3(4)
C12 C7 C8 C9 -1.6(4)
S1 C7 C8 C9 176.48(19)
O7 C8 C9 C10 179.6(2)
C7 C8 C9 C10 0.7(4)
C8 C9 C10 C11 1.0(4)
C9 C10 C11 C12 -1.7(4)
C10 C11 C12 C7 0.8(4)
C8 C7 C12 C11 0.9(4)
S1 C7 C12 C11 -177.39(19)
