#------------------------------------------------------------------------------
#$Date: 2016-08-05 06:33:52 +0300 (Fri, 05 Aug 2016) $
#$Revision: 184944 $
#$URL: file:///home/coder/svn-repositories/cod/cif/4/08/65/4086548.cif $
#------------------------------------------------------------------------------
#
# This file is available in the Crystallography Open Database (COD),
# http://www.crystallography.net/
#
# All data on this site have been placed in the public domain by the
# contributors.
#
data_4086548
loop_
_publ_author_name
'Bhattacharjee, Hridaynath'
'Martell, Jonathon D.'
'Khozeimeh Sarbisheh, Elaheh'
'Sadeh, Saeid'
'Quail, J. Wilson'
'M\"uller, Jens'
_publ_section_title
;
 Insight into the Formation of Highly Strained [1]Ferrocenophanes with
 Boron in Bridging Position
;
_journal_issue                   12
_journal_name_full               Organometallics
_journal_page_first              2156
_journal_paper_doi               10.1021/acs.organomet.6b00388
_journal_volume                  35
_journal_year                    2016
_chemical_formula_moiety         'C26 H42 B Fe N'
_chemical_formula_sum            'C26 H42 B Fe N'
_chemical_formula_weight         435.26
_space_group_crystal_system      triclinic
_space_group_IT_number           1
_space_group_name_Hall           'P 1'
_space_group_name_H-M_alt        'P 1'
_symmetry_space_group_name_Hall  'P 1'
_symmetry_space_group_name_H-M   'P 1'
_atom_sites_solution_hydrogens   geom
_audit_creation_method           SHELXL-2014/7
_audit_update_record
;
2016-05-12 # Formatted by publCIF

;
_cell_angle_alpha                102.1770(12)
_cell_angle_beta                 103.3960(13)
_cell_angle_gamma                105.9690(12)
_cell_formula_units_Z            1
_cell_length_a                   7.3391(3)
_cell_length_b                   9.4771(3)
_cell_length_c                   9.9193(3)
_cell_measurement_reflns_used    9919
_cell_measurement_temperature    173(2)
_cell_measurement_theta_max      28.79
_cell_measurement_theta_min      2.70
_cell_volume                     616.80(4)
_computing_cell_refinement       'Bruker SAINT'
_computing_data_collection       'Bruker APEX2'
_computing_data_reduction        'Bruker SAINT'
_computing_molecular_graphics    'Bruker SHELXTL'
_computing_publication_material  'Bruker SHELXTL'
_computing_structure_refinement  'SHELXL-2014/7 (Sheldrick, 2014)'
_computing_structure_solution    'SHELXS-97 (Sheldrick 2008)'
_diffrn_ambient_temperature      173(2)
_diffrn_measured_fraction_theta_full 0.999
_diffrn_measured_fraction_theta_max 0.999
_diffrn_measurement_device_type  'Bruker APEX-II CCD'
_diffrn_measurement_method       '\f and \w scans'
_diffrn_radiation_type           MoK\a
_diffrn_radiation_wavelength     0.71073
_diffrn_reflns_av_R_equivalents  0.0271
_diffrn_reflns_av_unetI/netI     0.0381
_diffrn_reflns_Laue_measured_fraction_full 0.999
_diffrn_reflns_Laue_measured_fraction_max 0.999
_diffrn_reflns_limit_h_max       10
_diffrn_reflns_limit_h_min       -10
_diffrn_reflns_limit_k_max       13
_diffrn_reflns_limit_k_min       -13
_diffrn_reflns_limit_l_max       14
_diffrn_reflns_limit_l_min       -14
_diffrn_reflns_number            27754
_diffrn_reflns_point_group_measured_fraction_full 0.999
_diffrn_reflns_point_group_measured_fraction_max 0.999
_diffrn_reflns_theta_full        25.242
_diffrn_reflns_theta_max         30.508
_diffrn_reflns_theta_min         3.035
_exptl_absorpt_coefficient_mu    0.623
_exptl_absorpt_correction_T_max  0.7457
_exptl_absorpt_correction_T_min  0.6956
_exptl_absorpt_correction_type   multi-scan
_exptl_absorpt_process_details   sadabs
_exptl_crystal_colour            orange
_exptl_crystal_density_diffrn    1.172
_exptl_crystal_description       chip
_exptl_crystal_F_000             236
_exptl_crystal_size_max          0.300
_exptl_crystal_size_mid          0.250
_exptl_crystal_size_min          0.200
_refine_diff_density_max         0.292
_refine_diff_density_min         -0.209
_refine_diff_density_rms         0.042
_refine_ls_abs_structure_details
; 
 Refined as an inversion twin. 
;
_refine_ls_abs_structure_Flack   0.014(11)
_refine_ls_extinction_method     none
_refine_ls_goodness_of_fit_ref   0.999
_refine_ls_hydrogen_treatment    constr
_refine_ls_matrix_type           full
_refine_ls_number_parameters     339
_refine_ls_number_reflns         7483
_refine_ls_number_restraints     29
_refine_ls_restrained_S_all      0.997
_refine_ls_R_factor_all          0.0363
_refine_ls_R_factor_gt           0.0312
_refine_ls_shift/su_max          0.000
_refine_ls_shift/su_mean         0.000
_refine_ls_structure_factor_coef Fsqd
_refine_ls_weighting_details
'w=1/[\s^2^(Fo^2^)+(0.0357P)^2^] where P=(Fo^2^+2Fc^2^)/3'
_refine_ls_weighting_scheme      calc
_refine_ls_wR_factor_gt          0.0634
_refine_ls_wR_factor_ref         0.0656
_reflns_Friedel_coverage         1.000
_reflns_Friedel_fraction_full    0.999
_reflns_Friedel_fraction_max     0.999
_reflns_number_gt                6874
_reflns_number_total             7483
_reflns_threshold_expression     'I > 2\s(I)'
_cod_data_source_file            om6b00388_si_002.cif
_cod_data_source_block           SS427
_cod_depositor_comments          'Adding full bibliography for 4086548.cif.'
_cod_database_code               4086548
_publcif_datablock.id            {221fa193-42c7-4ace-9e15-e7fa789b6a60}
_shelx_shelxl_version_number     2014/7
_shelx_space_group_comment
; 
The symmetry employed for this shelxl refinement is uniquely defined 
by the following loop, which should always be used as a source of 
symmetry information in preference to the above space-group names. 
They are only intended as comments. 
;
_shelx_estimated_absorpt_t_min   0.835
_shelx_estimated_absorpt_t_max   0.886
_shelx_res_file
; 
  
    SS427.res created by SHELXL-2014/7 
  
TITL SS427 
CELL  0.71073   7.3391   9.4771   9.9193  102.177  103.396  105.969 
ZERR    1.00   0.00030   0.00030   0.00030   0.0012   0.0013   0.0012 
LATT -1 
SFAC C  H  B  N  Fe 
UNIT 26  42  1  1  1 
OMIT   0   1   0 
OMIT   0  -1   0 
OMIT   0   0  -1 
OMIT   0   0   1 
L.S. 10 
SHEL 9999 0.70 
ACTA 
BOND $H 
FMAP 2 
PLAN 10 
SIZE 0.20 0.25 0.30 
TWIN -1 0 0 0 -1 0 0 0 -1 
DELU N1 > C26A 
TEMP -100.000 
WGHT    0.035700 
BASF   0.01434 
FVAR       1.21642   0.68560 
FE1   5    0.514577    0.279408    0.515979    11.00000    0.03733    0.01762 = 
         0.02975    0.00896    0.01009    0.01199 
B1    3    0.487073    0.534201    0.493319    11.00000    0.02467    0.01840 = 
         0.02650    0.00726    0.00502    0.00771 
C1    1    0.683335    0.487366    0.528082    11.00000    0.02028    0.02635 = 
         0.03387    0.01261    0.01030    0.00705 
C2    1    0.749699    0.454183    0.663817    11.00000    0.02371    0.02515 = 
         0.03369    0.01067    0.00663    0.01275 
C3    1    0.810165    0.323608    0.636365    11.00000    0.04741    0.04073 = 
         0.04441    0.00996    0.00386    0.03151 
AFIX  13 
H3    2    0.853930    0.271955    0.709671    11.00000   -1.20000 
AFIX   0 
C4    1    0.785457    0.272897    0.487373    11.00000    0.04777    0.05559 = 
         0.04619   -0.00098    0.00916    0.03738 
AFIX  13 
H4    2    0.810634    0.180481    0.436734    11.00000   -1.20000 
AFIX   0 
C5    1    0.711363    0.373166    0.420887    11.00000    0.02887    0.04881 = 
         0.03578    0.01154    0.01488    0.01753 
AFIX  13 
H5    2    0.680305    0.364490    0.315217    11.00000   -1.20000 
AFIX   0 
C6    1    0.310921    0.379029    0.472291    11.00000    0.02111    0.02478 = 
         0.03550    0.00598    0.01041    0.00769 
C7    1    0.263394    0.241477    0.354428    11.00000    0.02564    0.02059 = 
         0.03368    0.00846    0.00918    0.00397 
C8    1    0.234832    0.111941    0.409978    11.00000    0.05235    0.02151 = 
         0.04010    0.00769    0.01039   -0.00624 
AFIX  13 
H8    2    0.208440    0.003729    0.353691    11.00000   -1.20000 
AFIX   0 
C9    1    0.259521    0.164888    0.560261    11.00000    0.05654    0.04315 = 
         0.03779    0.01724    0.01232   -0.01625 
AFIX  13 
H9    2    0.252745    0.100788    0.628368    11.00000   -1.20000 
AFIX   0 
C10   1    0.302799    0.325988    0.597269    11.00000    0.02959    0.03942 = 
         0.03422    0.00263    0.01560   -0.00077 
AFIX  13 
H10   2    0.328814    0.393657    0.696761    11.00000   -1.20000 
AFIX   0 
C11   1    0.760598    0.548118    0.811649    11.00000    0.03152    0.02758 = 
         0.03277    0.00747    0.00934    0.01213 
AFIX  13 
H11   2    0.657333    0.598212    0.795042    11.00000   -1.20000 
AFIX   0 
C12   1    0.964039    0.678132    0.881742    11.00000    0.03521    0.03376 = 
         0.04600    0.00418    0.00954    0.00700 
AFIX  23 
H12A  2    0.981791    0.742306    0.815696    11.00000   -1.20000 
H12B  2    0.961333    0.743836    0.972689    11.00000   -1.20000 
AFIX   0 
C13   1    1.143769    0.626788    0.916417    11.00000    0.03651    0.06163 = 
         0.05344    0.01468    0.00241    0.01232 
AFIX 137 
H13A  2    1.151724    0.564828    0.826847    11.00000   -1.50000 
H13B  2    1.130332    0.565284    0.983856    11.00000   -1.50000 
H13C  2    1.265175    0.717135    0.960912    11.00000   -1.50000 
AFIX   0 
C14   1    0.711597    0.451077    0.912136    11.00000    0.04506    0.04649 = 
         0.03325    0.01395    0.00833    0.01093 
AFIX  23 
H14A  2    0.598316    0.355693    0.855409    11.00000   -1.20000 
H14B  2    0.827835    0.421628    0.951374    11.00000   -1.20000 
AFIX   0 
C15   1    0.658607    0.535583    1.037370    11.00000    0.06034    0.09159 = 
         0.03661    0.01175    0.01778    0.01034 
AFIX 137 
H15A  2    0.533044    0.552435    0.999835    11.00000   -1.50000 
H15B  2    0.764773    0.634775    1.088362    11.00000   -1.50000 
H15C  2    0.643844    0.474015    1.104639    11.00000   -1.50000 
AFIX   0 
C16   1    0.237668    0.234651    0.196754    11.00000    0.03361    0.02666 = 
         0.03278    0.00998    0.00666    0.00452 
AFIX  13 
H16   2    0.330897    0.333458    0.195702    11.00000   -1.20000 
AFIX   0 
C17   1    0.025417    0.226825    0.121349    11.00000    0.04737    0.04604 = 
         0.04642    0.01112    0.00036    0.01953 
AFIX  23 
H17A  2   -0.002033    0.313138    0.178620    11.00000   -1.20000 
H17B  2    0.019916    0.241675    0.024831    11.00000   -1.20000 
AFIX   0 
C18   1   -0.138615    0.078107    0.101455    11.00000    0.03312    0.06664 = 
         0.04990    0.00456    0.00587    0.01224 
AFIX 137 
H18A  2   -0.268814    0.088822    0.065802    11.00000   -1.50000 
H18B  2   -0.125747    0.055750    0.194587    11.00000   -1.50000 
H18C  2   -0.126966   -0.006068    0.031156    11.00000   -1.50000 
AFIX   0 
C19   1    0.294830    0.105345    0.116380    11.00000    0.03435    0.04486 = 
         0.03397    0.00172    0.00910    0.00478 
AFIX  23 
H19A  2    0.430937    0.115361    0.171753    11.00000   -1.20000 
H19B  2    0.203177    0.006026    0.114936    11.00000   -1.20000 
AFIX   0 
C20   1    0.289832    0.101085   -0.037634    11.00000    0.05933    0.07150 = 
         0.03810   -0.00456    0.01791   -0.00479 
AFIX 137 
H20A  2    0.337140    0.019503   -0.078036    11.00000   -1.50000 
H20B  2    0.376127    0.200125   -0.038414    11.00000   -1.50000 
H20C  2    0.152987    0.080865   -0.096321    11.00000   -1.50000 
PART 1  21.00 
AFIX   0 
N1    4    0.497514    0.682194    0.494665    21.00000    0.02576    0.02173 = 
         0.02941    0.00999    0.00953    0.01352 
C21   1    0.691254    0.804177    0.517225    21.00000    0.02737    0.02256 = 
         0.06454    0.01688    0.01609    0.00879 
AFIX  13 
H21   2    0.796210    0.755258    0.529564    21.00000   -1.20000 
AFIX   0 
C22   1    0.749079    0.934277    0.654465    21.00000    0.04162    0.02905 = 
         0.05955    0.00682   -0.00170    0.00339 
AFIX 137 
H22A  2    0.882458    1.005742    0.670363    21.00000   -1.50000 
H22B  2    0.749222    0.892753    0.736974    21.00000   -1.50000 
H22C  2    0.653008    0.988593    0.644938    21.00000   -1.50000 
AFIX   0 
C23   1    0.688456    0.859543    0.383867    21.00000    0.07417    0.03779 = 
         0.07516    0.03206    0.04698    0.01946 
AFIX 137 
H23A  2    0.649910    0.771262    0.298213    21.00000   -1.50000 
H23B  2    0.821409    0.929587    0.396480    21.00000   -1.50000 
H23C  2    0.592246    0.913467    0.370953    21.00000   -1.50000 
AFIX   0 
C24   1    0.325322    0.736236    0.481552    21.00000    0.03050    0.02317 = 
         0.03707    0.01097    0.00790    0.01415 
AFIX  13 
H24   2    0.374050    0.847064    0.485903    21.00000   -1.20000 
AFIX   0 
C25   1    0.241884    0.725744    0.606473    21.00000    0.04445    0.05177 = 
         0.05770    0.01743    0.02726    0.02837 
AFIX 137 
H25A  2    0.143309    0.777812    0.603479    21.00000   -1.50000 
H25B  2    0.350161    0.775027    0.698316    21.00000   -1.50000 
H25C  2    0.178151    0.617601    0.598516    21.00000   -1.50000 
AFIX   0 
C26   1    0.161186    0.651569    0.338112    21.00000    0.04782    0.04974 = 
         0.05384    0.00910   -0.00921    0.02736 
AFIX 137 
H26A  2    0.217531    0.655873    0.258022    21.00000   -1.50000 
H26B  2    0.058782    0.700077    0.329469    21.00000   -1.50000 
H26C  2    0.101451    0.544185    0.334389    21.00000   -1.50000 
PART 2  -21.00 
AFIX   0 
N1A   4    0.439146    0.668035    0.486947   -21.00000    0.02584    0.02266 = 
         0.02640    0.01067    0.00427    0.01135 
C21A  1    0.590207    0.807493    0.490142   -21.00000    0.03383    0.01915 = 
         0.03424    0.01248    0.01189    0.00613 
AFIX  13 
H21A  2    0.520704    0.882174    0.472813   -21.00000   -1.20000 
AFIX   0 
C22A  1    0.747231    0.881700    0.634073   -21.00000    0.03344    0.02948 = 
         0.04598    0.00636    0.01118   -0.00044 
AFIX 137 
H22D  2    0.810661    0.808364    0.659408   -21.00000   -1.50000 
H22E  2    0.686461    0.913715    0.707970   -21.00000   -1.50000 
H22F  2    0.847642    0.971729    0.629315   -21.00000   -1.50000 
AFIX   0 
C23A  1    0.679229    0.778151    0.369412   -21.00000    0.05889    0.04187 = 
         0.05696    0.02909    0.03866    0.02559 
AFIX 137 
H23D  2    0.573660    0.738957    0.276016   -21.00000   -1.50000 
H23E  2    0.744778    0.702228    0.380437   -21.00000   -1.50000 
H23F  2    0.777276    0.874144    0.373085   -21.00000   -1.50000 
AFIX   0 
C24A  1    0.232788    0.669774    0.464455   -21.00000    0.02672    0.02030 = 
         0.05007    0.00753    0.00272    0.01228 
AFIX  13 
H24A  2    0.150144    0.568798    0.469365   -21.00000   -1.20000 
AFIX   0 
C25A  1    0.226857    0.795276    0.588995   -21.00000    0.04357    0.03686 = 
         0.07280    0.01962    0.02949    0.02648 
AFIX 137 
H25D  2    0.285928    0.896430    0.577488   -21.00000   -1.50000 
H25E  2    0.302543    0.789808    0.681970   -21.00000   -1.50000 
H25F  2    0.088329    0.779377    0.586704   -21.00000   -1.50000 
AFIX   0 
C26A  1    0.143608    0.683000    0.315357   -21.00000    0.05775    0.04101 = 
         0.05550    0.00952   -0.01898    0.02412 
AFIX 137 
H26D  2    0.139660    0.594959    0.240800   -21.00000   -1.50000 
H26E  2    0.225567    0.778157    0.304361   -21.00000   -1.50000 
H26F  2    0.008046    0.684419    0.304693   -21.00000   -1.50000 
PART 
AFIX   0 
HKLF 4 
  
REM  SS427 
REM R1 =  0.0312 for    6874 Fo > 4sig(Fo)  and  0.0363 for all    7483 data 
REM    339 parameters refined using     29 restraints 
  
END 
  
WGHT      0.0357      0.0000 
  
REM Highest difference peak  0.292,  deepest hole -0.209,  1-sigma level  0.042 
Q1    1   0.5229  0.1995  0.4834  11.00000  0.05    0.29 
Q2    1   0.4858  0.3528  0.5508  11.00000  0.05    0.25 
Q3    1   0.4949  0.3624  0.5217  11.00000  0.05    0.25 
Q4    1   0.8323  0.2782  0.4769  11.00000  0.05    0.22 
Q5    1   0.5489  0.3801  0.5600  11.00000  0.05    0.21 
Q6    1   0.7552  0.3185  0.4547  11.00000  0.05    0.21 
Q7    1   0.8008  0.4011  0.6721  11.00000  0.05    0.21 
Q8    1   0.6125  0.5424  0.5119  11.00000  0.05    0.20 
Q9    1   0.1928  0.1622  0.5742  11.00000  0.05    0.20 
Q10   1   0.2806  0.3081  0.4048  11.00000  0.05    0.20 
;
_shelx_res_checksum              36226
_shelx_hkl_file
; 
  -1   0   0 822.416 27.5404  14 
  -1   0   0 989.050 27.9233   3 
  -1   0   0 833.923 27.2535   4 
  -1   0   0 873.807 27.6202   7 
  -1   0   0 849.769 27.6191   1 
  -1   0   0 878.787 27.6434   1 
   1   0   0 988.106 28.1334   2 
  -2   0   0 3108.90 94.4198  14 
  -2   0   0 3045.07 94.8415   3 
  -2   0   0 3103.80 94.9358   3 
  -2   0   0 3032.22 95.0750   4 
  -2   0   0 3132.09 94.6613   5 
  -2   0   0 3186.75 94.5172   7 
  -2   0   0 3064.72 94.5385   1 
  -2   0   0 3129.92 95.3385   2 
  -2   0   0 3057.20 95.1067   2 
  -2   0   0 3114.42 94.5262   1 
  -2   0   0 3012.36 94.4570   1 
   2   0   0 3060.69 94.5444   1 
   2   0   0 3162.10 95.3145   2 
   2   0   0 3043.90 94.8693   3 
   2   0   0 3198.87 95.4473   2 
   2   0   0 3180.40 94.7387   5 
   2   0   0 3218.92 94.2125  12 
  -3   0   0 115.670 6.19863  14 
  -3   0   0 106.230 6.11284   1 
  -3   0   0 104.924 6.07259   7 
  -3   0   0 111.337 6.85273   2 
  -3   0   0 104.137 6.36767   3 
  -3   0   0 117.518 6.66585   3 
  -3   0   0 106.050 6.17507   5 
  -3   0   0 107.701 5.32656   4 
   3   0   0 132.846 7.36717   2 
   3   0   0 129.265 7.16689   2 
   3   0   0 140.454 6.71203   5 
   3   0   0 133.973 6.70646   1 
   3   0   0 129.365 6.96402   3 
   3   0   0 131.527 6.07357  12 
  -4   0   0 1559.71 52.2513   3 
  -4   0   0 1605.63 50.0981   4 
  -4   0   0 1560.99 51.4576   1 
  -4   0   0 1651.81 52.7296   3 
  -4   0   0 1564.51 51.3481  14 
  -4   0   0 1613.60 53.0530   2 
  -4   0   0 1600.25 51.7917   5 
  -4   0   0 1611.65 51.6247   7 
   4   0   0 1616.04 53.5583   2 
   4   0   0 1603.99 50.9218  12 
   4   0   0 1572.51 52.2768   3 
   4   0   0 1570.86 53.0876   2 
   4   0   0 1516.25 51.7931   1 
  -5   0   0 512.416 20.7835   5 
  -5   0   0 525.798 22.1271   2 
  -5   0   0 577.876 23.6636  14 
  -5   0   0 538.823 21.9402   3 
  -5   0   0 512.736 20.6647   7 
  -5   0   0 531.567 20.5650  14 
  -5   0   0 535.513 19.1189   4 
  -5   0   0 519.812 20.6481   1 
   5   0   0 522.886 21.2562   1 
   5   0   0 481.451 21.9079   2 
   5   0   0 488.072 21.2944   3 
  -6   0   0 107.027 8.11725   7 
  -6   0   0 98.8061 7.86949   1 
  -6   0   0 106.699 8.67288   3 
  -6   0   0 102.411 6.46200   4 
  -6   0   0 92.9410 7.57151  14 
  -6   0   0 100.840 8.08652   5 
   6   0   0 97.0664 8.31802   1 
   6   0   0 95.1273 8.92348   2 
   6   0   0 75.8889 7.72754   3 
  -7   0   0 15.9758 5.20961   3 
  -7   0   0 10.4491 4.01256   7 
  -7   0   0 15.1216 4.30047  14 
  -7   0   0 12.0906 3.86185   1 
  -7   0   0 8.09531 3.74462   5 
   7   0   0 11.4238 4.95281   3 
   7   0   0 12.7277 4.35105   2 
   7   0   0 18.2778 4.70265   1 
  -8   0   0 23.8241 5.96097   7 
  -8   0   0 34.7070 7.04659   1 
  -8   0   0 28.0199 6.89437   3 
  -8   0   0 15.0079 4.77461  14 
   8   0   0 30.4142 7.12309   1 
  -9   0   0 8.24840 4.77562   1 
  -9   0   0 6.05763 4.58036  14 
  -9   0   0 15.0689 6.43432   7 
   9   0   0 5.60752 4.79456   1 
   9  -1   0 20.7722 6.83649   1 
  -9   1   0 6.33900 4.05169  14 
  -9   1   0 10.2175 5.77721   3 
  -9   1   0 15.7951 5.63360   1 
  -9   1   0 10.7893 5.26320   7 
   8  -1   0 46.2168 7.89929   1 
  -8   1   0 35.4944 7.17979   1 
  -8   1   0 44.2343 7.08634  14 
  -8   1   0 40.6602 7.64556   7 
  -8   1   0 47.2531 8.23628   3 
   7  -1   0 3.00872 2.89242   2 
   7  -1   0 18.2278 5.04026   1 
   7  -1   0 8.36979 4.07109   3 
  -7   1   0 2.64842 2.79976   5 
  -7   1   0 12.2023 4.61819   3 
  -7   1   0 11.2386 3.92569   1 
  -7   1   0 4.23087 3.34330   7 
  -7   1   0 6.09144 3.09645  14 
   6  -1   0 2.16103 2.49174   1 
   6  -1   0 5.11692 2.82098   3 
   6  -1   0 5.28976 3.14039   2 
  -6   1   0 16.4467 2.57489   4 
  -6   1   0 10.5816 3.49872   1 
  -6   1   0 10.2324 3.79667   2 
  -6   1   0 18.6109 4.12690  14 
  -6   1   0 18.3387 4.36278   3 
  -6   1   0 15.9980 3.80161   5 
  -6   1   0 10.6335 3.31169   7 
   5  -1   0 528.260 22.1895   3 
   5  -1   0 512.342 22.5735   2 
   5  -1   0 501.347 21.2751   1 
  -5   1   0 555.995 22.9417   2 
  -5   1   0 542.124 21.2709   7 
  -5   1   0 559.262 22.3267   3 
  -5   1   0 562.090 18.6751   4 
  -5   1   0 542.609 21.4940   5 
  -5   1   0 557.205 21.4543  14 
  -5   1   0 572.445 21.3538  14 
  -5   1   0 512.831 21.0999   1 
   4  -1   0 693.168 25.1063   2 
   4  -1   0 677.902 24.4308   3 
   4  -1   0 647.724 23.6778   1 
   4  -1   0 684.307 23.9023   5 
  -4   1   0 641.851 24.2157   3 
  -4   1   0 642.880 23.5275  14 
  -4   1   0 615.221 23.2942  14 
  -4   1   0 630.375 21.1979   4 
  -4   1   0 631.919 23.5549   1 
  -4   1   0 645.828 24.8903   2 
  -4   1   0 662.793 23.8944   5 
  -4   1   0 646.841 23.4897   7 
   3  -1   0 256.822 9.87263  12 
   3  -1   0 259.167 10.7287   2 
   3  -1   0 234.836 10.2094   3 
   3  -1   0 252.347 10.8130   2 
   3  -1   0 249.332 9.90678   1 
   3  -1   0 258.456 10.3040   3 
  -3   1   0 215.455 9.65616  14 
  -3   1   0 207.392 9.36550   7 
  -3   1   0 214.830 9.59980   1 
  -3   1   0 203.325 9.42361  12 
  -3   1   0 211.480 9.40115  14 
  -3   1   0 208.270 9.56249   5 
  -3   1   0 210.997 9.86661   3 
  -3   1   0 206.534 9.86823   3 
  -3   1   0 209.082 10.2552   2 
  -3   1   0 208.073 9.49471   1 
  -3   1   0 224.169 10.4785   2 
  -3   1   0 215.553 7.82704   4 
   2  -1   0 818.133 28.3633   2 
   2  -1   0 805.628 27.6587   1 
   2  -1   0 789.400 27.8747   3 
   2  -1   0 824.797 27.6940   1 
   2  -1   0 802.312 27.7523  12 
   2  -1   0 808.778 28.2261   2 
   2  -1   0 784.674 27.9095   3 
   2  -1   0 818.106 27.5435  14 
  -2   1   0 924.187 27.8246  14 
  -2   1   0 909.815 28.5464   2 
  -2   1   0 899.188 26.1349   4 
  -2   1   0 904.185 27.7585   7 
  -2   1   0 918.245 28.0276  12 
  -2   1   0 870.431 28.0713   3 
  -2   1   0 911.864 28.2283   3 
  -2   1   0 914.751 27.9314   1 
  -2   1   0 879.128 28.5272   2 
  -2   1   0 917.622 27.9089   1 
   1  -1   0 2673.98 74.8499   1 
   1  -1   0 2453.53 76.0364   5 
   1  -1   0 2365.10 77.1986  14 
  -1   1   0 2672.69 79.0930  12 
  -1   1   0 2213.30 77.0136   1 
  -1   1   0 2524.86 74.7446   7 
  -1   1   0 2485.22 76.5940   2 
   0  -1   0 -3.3940 0.36949   6 
   0  -1   0 -3.6482 0.34542   9 
   0  -1   0 -3.3302 0.45361  13 
   0  -1   0 -3.4124 0.37001   4 
   0  -1   0 -3.4068 0.34147  10 
   0   1   0 -3.9451 0.27637  12 
   0   1   0 -3.4629 0.30289  10 
   0   1   0 -3.4573 0.29959   6 
   0   1   0 -3.8175 0.24637   9 
   0   1   0 -3.7768 0.32689  13 
  -1  -1   0 21.7929 1.75138  10 
  -1  -1   0 20.1197 1.88085   2 
  -1  -1   0 18.9948 1.61215  14 
  -1  -1   0 21.3553 1.67987  14 
  -1  -1   0 20.6413 1.60603   1 
  -1  -1   0 19.2655 1.56381   1 
  -1  -1   0 19.1884 1.94716   4 
  -1  -1   0 20.0642 1.68776   5 
  -1  -1   0 22.6850 1.77796   7 
  -1  -1   0 20.6762 1.82798   2 
  -2  -1   0 626.423 20.4909   3 
  -2  -1   0 604.466 20.3403   3 
  -2  -1   0 596.712 19.8070  14 
  -2  -1   0 596.357 20.0678   4 
  -2  -1   0 589.511 19.9884   5 
  -2  -1   0 623.599 19.9097   1 
  -2  -1   0 617.501 20.6765   2 
  -2  -1   0 608.720 19.9901   7 
  -2  -1   0 603.957 19.3741  10 
  -2  -1   0 603.589 19.8126  14 
  -2  -1   0 586.553 19.7619   1 
   2   1   0 574.903 19.9766   1 
   2   1   0 586.681 20.8259   5 
   2   1   0 583.701 20.7306   2 
   2   1   0 570.347 20.1984   3 
   2   1   0 572.543 20.6024   2 
   2   1   0 597.383 20.0162  14 
  -3  -1   0 935.801 30.7420   5 
  -3  -1   0 912.947 30.4458   1 
  -3  -1   0 943.618 31.3994   3 
  -3  -1   0 906.244 30.4131  14 
  -3  -1   0 928.056 30.4099  14 
  -3  -1   0 905.865 30.3792   4 
  -3  -1   0 911.948 30.6119   7 
  -3  -1   0 910.545 29.5098  10 
  -3  -1   0 914.827 31.2364   3 
   3   1   0 925.114 31.8316   2 
   3   1   0 909.099 30.8310   1 
   3   1   0 915.249 31.8716   2 
   3   1   0 908.757 31.0068   3 
   3   1   0 952.693 29.8837  12 
  -4  -1   0 1390.20 44.7323  10 
  -4  -1   0 1438.13 46.6121   7 
  -4  -1   0 1409.62 46.1651  14 
  -4  -1   0 1385.94 46.2135  14 
  -4  -1   0 1377.64 47.2338   3 
  -4  -1   0 1411.65 46.3047   1 
  -4  -1   0 1467.79 47.7829   3 
  -4  -1   0 1399.84 45.9135   4 
  -4  -1   0 1386.42 46.4656   5 
   4   1   0 1423.74 48.4808   2 
   4   1   0 1449.91 47.4249   3 
   4   1   0 1414.09 48.1511   2 
   4   1   0 1406.04 46.8630   1 
   4   1   0 1458.94 45.4335  12 
  -5  -1   0 20.1441 3.80560   7 
  -5  -1   0 25.0393 4.13107   5 
  -5  -1   0 16.2932 3.43031  14 
  -5  -1   0 12.2502 3.60473   3 
  -5  -1   0 17.7067 3.35269  14 
  -5  -1   0 18.0762 3.22003   4 
  -5  -1   0 17.0993 2.48577  10 
  -5  -1   0 17.4371 3.47138   1 
   5   1   0 16.1754 4.11161   2 
   5   1   0 14.7629 3.81355   1 
   5   1   0 19.7446 4.06818   3 
  -6  -1   0 108.425 7.40397   4 
  -6  -1   0 112.797 9.26957   3 
  -6  -1   0 120.971 8.41228   1 
  -6  -1   0 101.918 8.33118   5 
  -6  -1   0 104.074 7.93668  14 
  -6  -1   0 96.3951 5.92169  10 
  -6  -1   0 96.6168 8.25090   7 
   6   1   0 112.875 8.90622   3 
   6   1   0 121.725 10.0842   2 
   6   1   0 122.071 9.51719   1 
  -7  -1   0 29.0357 4.88639   4 
  -7  -1   0 39.0587 6.43807   7 
  -7  -1   0 29.2169 6.51938   3 
  -7  -1   0 32.6115 6.18812   5 
  -7  -1   0 45.5473 6.56355   1 
  -7  -1   0 35.7653 5.88433  14 
   7   1   0 32.4064 6.87697   1 
   7   1   0 38.0014 7.36102   2 
  -8  -1   0 18.9360 5.76777   3 
  -8  -1   0 21.2183 5.85157   7 
  -8  -1   0 16.5625 4.78340  14 
  -8  -1   0 23.5715 5.44587   1 
  -8  -1   0 19.8917 5.51951   5 
   8   1   0 25.8748 6.71956   1 
  -9  -1   0 10.0532 4.98232   1 
  -9  -1   0 13.3407 5.20038  14 
  -9  -1   0 14.3820 6.28793   7 
   9   1   0 9.24541 5.52388   1 
 -10   2   0 31.0147 8.51141   7 
   9  -2   0 7.77529 5.38996   1 
  -9   2   0 6.65719 5.34821   7 
  -9   2   0 11.1137 5.48750   3 
  -9   2   0 9.15297 4.95292   1 
   8  -2   0 51.9814 8.49731   3 
   8  -2   0 67.0067 8.59632   1 
  -8   2   0 50.2757 7.57761   7 
  -8   2   0 52.1767 8.56201   3 
  -8   2   0 54.0271 7.92004   1 
   7  -2   0 89.7339 8.52557   1 
   7  -2   0 102.264 9.52754   3 
  -7   2   0 78.4577 8.54586   3 
  -7   2   0 78.5003 7.88669   7 
  -7   2   0 78.1780 8.05292   1 
  -7   2   0 90.6351 8.11620  14 
   6  -2   0 161.225 10.8670   5 
   6  -2   0 169.373 11.6371   2 
   6  -2   0 164.034 10.5435   1 
   6  -2   0 173.451 11.4319   3 
  -6   2   0 179.395 10.6629   7 
  -6   2   0 190.205 11.0601   1 
  -6   2   0 188.559 11.0374   5 
  -6   2   0 192.418 11.8407   3 
  -6   2   0 186.794 12.0590   2 
  -6   2   0 183.931 10.6539  14 
   5  -2   0 170.102 10.0955   1 
   5  -2   0 192.437 11.3945   2 
   5  -2   0 170.414 10.6882   3 
  -5   2   0 207.427 10.4962  14 
  -5   2   0 210.676 10.8001   5 
  -5   2   0 208.665 10.5467   7 
  -5   2   0 197.470 10.5747   1 
  -5   2   0 204.898 7.16747   4 
  -5   2   0 199.331 11.5894   2 
  -5   2   0 196.535 11.0182   3 
  -5   2   0 217.244 10.9453  12 
   4  -2   0 1080.38 36.2574   1 
   4  -2   0 1061.58 37.4019   2 
   4  -2   0 1109.63 36.0728  14 
   4  -2   0 1102.95 36.8882   3 
   4  -2   0 1085.83 37.0807   3 
  -4   2   0 1066.37 37.6891   2 
  -4   2   0 1043.56 36.1861   1 
  -4   2   0 1067.95 36.0972   7 
  -4   2   0 1066.44 36.3831   1 
  -4   2   0 1060.79 36.5356  12 
  -4   2   0 1095.87 36.2199  14 
  -4   2   0 1079.64 36.7837   3 
  -4   2   0 1040.88 36.3725   5 
   3  -2   0 1263.81 39.2924   5 
   3  -2   0 1286.22 40.0717   2 
   3  -2   0 1241.12 39.6067   3 
   3  -2   0 1262.15 39.0941   5 
   3  -2   0 1297.49 39.6938   3 
   3  -2   0 1255.85 39.5275  12 
   3  -2   0 1184.35 38.7935   1 
  -3   2   0 1151.77 38.6629   7 
  -3   2   0 1154.22 38.8588   1 
  -3   2   0 1169.62 39.3445  12 
  -3   2   0 1171.34 39.3440   3 
  -3   2   0 1173.62 38.7398  14 
  -3   2   0 1136.54 38.8483   1 
  -3   2   0 1190.45 39.8580   2 
  -3   2   0 1191.31 39.0907   5 
  -3   2   0 1158.52 39.1689   3 
  -3   2   0 1169.41 39.9501   2 
   2  -2   0 631.525 21.7956   3 
   2  -2   0 656.843 21.3677   1 
   2  -2   0 661.810 21.4851   5 
   2  -2   0 671.729 21.3253  14 
   2  -2   0 645.907 21.5500   5 
   2  -2   0 674.246 22.2507  12 
   2  -2   0 663.636 21.8471   3 
   2  -2   0 637.602 21.3320   1 
  -2   2   0 664.900 22.0472   1 
  -2   2   0 637.202 21.4813   1 
  -2   2   0 652.388 22.2443  12 
  -2   2   0 657.937 21.7882   3 
  -2   2   0 648.406 21.3580   7 
  -2   2   0 668.681 21.6619   5 
  -2   2   0 657.590 22.1671   2 
  -2   2   0 658.145 21.3899  14 
  -2   2   0 619.710 21.5906   3 
  -2   2   0 623.426 22.0446   2 
   1  -2   0 7954.50 247.282   3 
   1  -2   0 8012.37 245.666   5 
   1  -2   0 7545.97 244.022   1 
   1  -2   0 7431.02 245.119   5 
   1  -2   0 8205.27 249.884  12 
   1  -2   0 7923.83 243.244   8 
   1  -2   0 8398.51 246.242   2 
   1  -2   0 8253.46 245.323  14 
   1  -2   0 8158.64 246.545   6 
   1  -2   0 8002.49 247.885  13 
   1  -2   0 8055.15 245.501   4 
   1  -2   0 7801.64 247.501   9 
   1  -2   0 8122.10 246.141   2 
  -1   2   0 8408.08 246.817   3 
  -1   2   0 8658.74 245.242   1 
  -1   2   0 8411.01 247.405   6 
  -1   2   0 8409.30 246.372   5 
  -1   2   0 8150.13 245.729   1 
  -1   2   0 8189.40 245.154   3 
  -1   2   0 8391.83 246.206   7 
  -1   2   0 8912.11 248.130  13 
  -1   2   0 7952.50 245.338   5 
  -1   2   0 8095.51 250.668  12 
  -1   2   0 7842.60 246.317   2 
  -1   2   0 8094.21 248.455   2 
   0  -2   0 2343.96 71.1325   9 
   0  -2   0 2341.08 71.5194  13 
   0  -2   0 2263.64 71.2503   6 
   0  -2   0 2436.52 71.3329  10 
   0   2   0 2304.73 70.9212  12 
   0   2   0 2318.10 71.1604   9 
   0   2   0 2367.22 71.5951  13 
   0   2   0 2385.63 71.3510  10 
   0   2   0 2305.04 69.8290  11 
   0   2   0 2339.79 71.3242   6 
  -1  -2   0 1010.79 32.6464  10 
  -1  -2   0 984.976 31.6785   5 
  -1  -2   0 1009.14 31.6638   5 
  -1  -2   0 987.697 31.1563   1 
  -1  -2   0 1047.58 31.9708   2 
  -1  -2   0 1011.72 33.2202   4 
  -1  -2   0 1033.80 31.5417  14 
  -1  -2   0 1029.54 31.5004  14 
  -1  -2   0 1026.46 31.9429   7 
   1   2   0 1048.18 31.9117   1 
   1   2   0 1047.66 31.9221   1 
   1   2   0 1072.04 31.9520   1 
   1   2   0 1074.44 32.7880  10 
   1   2   0 1055.30 31.9607   3 
   1   2   0 1041.58 33.4344  13 
   1   2   0 1057.48 32.4851   2 
   1   2   0 1047.61 32.4364   2 
  -2  -2   0 478.036 16.0491   7 
  -2  -2   0 487.090 15.6491   1 
  -2  -2   0 465.168 15.5305   1 
  -2  -2   0 473.688 16.0314   5 
  -2  -2   0 476.383 17.0653   4 
  -2  -2   0 460.683 16.0514  10 
  -2  -2   0 481.958 16.4947   2 
  -2  -2   0 494.172 16.6488   3 
  -2  -2   0 487.291 15.7616  14 
  -2  -2   0 471.891 15.6755  14 
  -2  -2   0 470.260 15.8890   5 
   2   2   0 430.650 16.7538   2 
   2   2   0 416.676 16.5170   2 
   2   2   0 438.105 16.1441   3 
   2   2   0 422.956 15.9720   1 
  -3  -2   0 782.271 26.6894   3 
  -3  -2   0 775.697 25.3756  14 
  -3  -2   0 733.082 25.5299   5 
  -3  -2   0 728.483 25.0954   1 
  -3  -2   0 776.465 26.5800   2 
  -3  -2   0 781.357 25.4818  14 
  -3  -2   0 736.648 26.2830   3 
  -3  -2   0 766.014 25.1662  10 
  -3  -2   0 746.756 25.6840   7 
  -3  -2   0 768.828 25.3801   1 
  -3  -2   0 750.099 26.3501   4 
   3   2   0 749.568 27.2022   2 
   3   2   0 751.169 26.1108   3 
   3   2   0 736.467 27.0123   2 
   3   2   0 725.477 25.9155   1 
  -4  -2   0 329.327 15.0248   3 
  -4  -2   0 345.326 13.8964   1 
  -4  -2   0 350.038 15.3123   2 
  -4  -2   0 361.954 14.6551   7 
  -4  -2   0 334.212 13.1907  10 
  -4  -2   0 350.724 14.7808   4 
  -4  -2   0 331.574 13.9372  14 
  -4  -2   0 328.447 13.8094  14 
  -4  -2   0 360.542 15.4669   3 
  -4  -2   0 343.526 14.3442   5 
   4   2   0 348.626 14.8182   1 
   4   2   0 343.750 14.7796   3 
   4   2   0 345.856 13.1620  12 
   4   2   0 348.036 16.0456   2 
   4   2   0 358.311 16.2395   2 
  -5  -2   0 33.4729 5.15978   3 
  -5  -2   0 39.8902 4.39298  14 
  -5  -2   0 30.7134 4.49002   4 
  -5  -2   0 33.4530 3.40535  10 
  -5  -2   0 36.0482 4.68457   5 
  -5  -2   0 29.8667 4.60068   7 
  -5  -2   0 29.4750 4.24426  14 
  -5  -2   0 33.7531 4.35548   1 
   5   2   0 43.7895 5.43207   1 
   5   2   0 49.7652 6.41287   2 
   5   2   0 41.9059 5.12831   3 
  -6  -2   0 15.6305 3.83882   1 
  -6  -2   0 11.3406 3.48470  14 
  -6  -2   0 14.1856 4.39802   3 
  -6  -2   0 15.9658 4.21795   7 
  -6  -2   0 15.4824 4.18344   5 
  -6  -2   0 11.5966 3.54121   4 
   6   2   0 14.8257 4.86253   2 
   6   2   0 20.8125 5.19421   1 
  -7  -2   0 69.6984 7.11024   4 
  -7  -2   0 75.9384 7.59213   1 
  -7  -2   0 62.5470 7.76073   5 
  -7  -2   0 74.7313 9.05159   3 
  -7  -2   0 65.0483 7.29949  14 
  -7  -2   0 70.6512 8.05559   7 
   7   2   0 67.3915 8.53178   1 
   7   2   0 66.6956 9.50408   2 
  -8  -2   0 2.21246 4.23319   7 
  -8  -2   0 4.71047 3.34530  14 
  -8  -2   0 4.60687 3.69647   1 
  -8  -2   0 1.66328 3.51468   5 
   8   2   0 4.24216 4.20602   1 
   8   2   0 2.11522 4.36690   2 
  10  -3   0 3.94542 8.00343   1 
 -10   3   0 8.81735 6.00834   7 
 -10   3   0 2.42445 5.04083   1 
   9  -3   0 27.5792 7.33516   1 
  -9   3   0 25.8582 7.23497   7 
  -9   3   0 33.9481 7.30779   1 
  -9   3   0 25.6490 7.25839   3 
   8  -3   0 132.638 12.2340   3 
   8  -3   0 131.393 11.1496   1 
  -8   3   0 120.028 10.7307   1 
  -8   3   0 121.051 10.6031   7 
  -8   3   0 114.688 11.0128   3 
   7  -3   0 107.761 9.32092   1 
   7  -3   0 119.062 10.3479   3 
  -7   3   0 122.100 9.21986   7 
  -7   3   0 107.221 9.28892   1 
  -7   3   0 118.101 10.1544   3 
   6  -3   0 58.5605 6.85454   2 
   6  -3   0 63.0713 7.06082   3 
   6  -3   0 54.7379 6.25106   1 
   6  -3   0 57.8616 6.53152   5 
  -6   3   0 74.2179 7.56856   2 
  -6   3   0 82.6624 7.41990   3 
  -6   3   0 73.4642 6.67586   5 
  -6   3   0 75.5922 6.66286   7 
  -6   3   0 81.5602 7.10356   1 
  -6   3   0 73.7628 6.95167  12 
  -6   3   0 79.1298 6.80388  14 
   5  -3   0 119.248 7.80489   5 
   5  -3   0 101.443 7.82993   2 
   5  -3   0 115.930 8.20817   3 
   5  -3   0 104.776 7.27425   1 
   5  -3   0 109.143 7.19599   5 
  -5   3   0 93.3887 7.46110  12 
  -5   3   0 103.128 8.04229   2 
  -5   3   0 92.1343 6.73135   7 
  -5   3   0 87.5166 7.10640   3 
  -5   3   0 96.0931 7.10469   1 
  -5   3   0 109.887 7.19238  14 
  -5   3   0 104.027 7.28810   5 
   4  -3   0 663.424 23.5107   1 
   4  -3   0 666.147 23.8786   5 
   4  -3   0 674.256 23.7512   5 
   4  -3   0 646.786 24.2400   3 
   4  -3   0 680.098 24.3960   3 
   4  -3   0 670.251 24.6441   2 
  -4   3   0 638.474 23.3437   7 
  -4   3   0 655.754 24.8664   2 
  -4   3   0 638.682 23.7865   5 
  -4   3   0 623.696 23.8124   3 
  -4   3   0 663.445 25.0937   2 
  -4   3   0 658.872 23.7952   1 
  -4   3   0 624.737 24.2010  12 
  -4   3   0 621.447 23.5337   1 
  -4   3   0 667.855 23.5769  14 
   3  -3   0 2202.24 72.0572   1 
   3  -3   0 2257.35 72.7670   3 
   3  -3   0 2258.01 72.9800   3 
   3  -3   0 2319.75 72.3944   5 
   3  -3   0 2401.28 72.3015   1 
   3  -3   0 2386.03 72.1670  14 
   3  -3   0 2275.15 72.4942   5 
   3  -3   0 2253.98 72.3049  13 
  -3   3   0 2354.75 72.5583   1 
  -3   3   0 2440.46 72.4870  14 
  -3   3   0 2423.23 72.3775   7 
  -3   3   0 2427.33 72.7959   5 
  -3   3   0 2315.38 73.6077   2 
  -3   3   0 2321.98 72.6474   3 
  -3   3   0 2278.73 73.3401   2 
  -3   3   0 2390.73 72.8974   3 
  -3   3   0 2339.46 73.5872  12 
   2  -3   0 418.943 14.6285   5 
   2  -3   0 421.159 13.9578   4 
   2  -3   0 424.399 14.2818   1 
   2  -3   0 418.889 15.2955  13 
   2  -3   0 404.612 14.9720   3 
   2  -3   0 418.606 15.3482   6 
   2  -3   0 420.888 14.9696   3 
   2  -3   0 434.882 15.0859   2 
   2  -3   0 454.457 14.6441   5 
   2  -3   0 430.934 15.9357  12 
   2  -3   0 423.207 14.3208  14 
   2  -3   0 431.583 14.3863   1 
  -2   3   0 429.407 15.3926   2 
  -2   3   0 436.870 14.9023   3 
  -2   3   0 408.844 14.7114   3 
  -2   3   0 440.221 14.6329   7 
  -2   3   0 425.515 15.3927   2 
  -2   3   0 434.849 14.7595   1 
  -2   3   0 438.585 14.8868   5 
  -2   3   0 417.950 15.8984  12 
   1  -3   0 127.333 5.23280   4 
   1  -3   0 120.199 5.23853   9 
   1  -3   0 121.738 5.62542  13 
   1  -3   0 120.527 5.40399   6 
   1  -3   0 119.224 4.37681   3 
   1  -3   0 124.553 5.73313  12 
   1  -3   0 120.276 4.42012   3 
  -1   3   0 92.5669 3.70489   3 
  -1   3   0 96.1899 4.31080   2 
  -1   3   0 95.3112 5.24628  13 
  -1   3   0 98.7173 3.93325   7 
  -1   3   0 93.8124 5.32926  12 
  -1   3   0 98.0276 3.74361   3 
  -1   3   0 91.6287 4.28576   2 
  -1   3   0 97.6965 5.30032  10 
  -1   3   0 98.0330 3.87074   1 
  -1   3   0 94.8176 3.85708   1 
  -1   3   0 100.317 5.04016   9 
   0  -3   0 314.305 12.6800   6 
   0  -3   0 333.748 12.7281  10 
   0  -3   0 324.588 12.7099   4 
   0  -3   0 325.559 12.4488   9 
   0  -3   0 320.922 12.9692  13 
   0   3   0 359.853 12.9216  10 
   0   3   0 361.172 13.2217  13 
   0   3   0 358.140 12.3372  12 
   0   3   0 366.087 12.7551   9 
   0   3   0 354.673 10.7352  11 
  -1  -3   0 635.394 19.5706  11 
  -1  -3   0 630.999 20.2250   3 
  -1  -3   0 627.666 21.3472  10 
  -1  -3   0 649.290 22.0808   4 
   1   3   0 617.117 19.7883   1 
   1   3   0 604.445 19.2811   3 
   1   3   0 622.482 20.4016   2 
   1   3   0 610.569 19.7654   1 
   1   3   0 632.814 21.3707  10 
   1   3   0 608.344 20.3918   2 
  -2  -3   0 1981.81 60.4830  10 
  -2  -3   0 1905.47 58.1612   1 
  -2  -3   0 1888.48 59.0627   5 
  -2  -3   0 1906.44 58.7481  14 
  -2  -3   0 1878.03 58.9922   5 
  -2  -3   0 1875.97 58.6365  14 
  -2  -3   0 1912.96 61.4964   4 
  -2  -3   0 1942.17 59.4368  11 
  -2  -3   0 1918.21 59.5515   7 
   2   3   0 1995.23 60.5485  10 
   2   3   0 1952.30 59.4757   3 
   2   3   0 1964.56 59.8638   1 
   2   3   0 1854.55 60.4263   2 
   2   3   0 1991.86 60.8869   2 
  -3  -3   0 459.688 15.5997   1 
  -3  -3   0 457.055 17.4870   3 
  -3  -3   0 440.674 16.3599   5 
  -3  -3   0 454.569 16.6738   7 
  -3  -3   0 460.672 15.9847  14 
  -3  -3   0 443.049 16.5417  10 
  -3  -3   0 435.299 16.1560   5 
  -3  -3   0 456.877 15.6186   1 
  -3  -3   0 477.081 18.3292   4 
  -3  -3   0 445.444 15.8771  14 
  -3  -3   0 451.908 17.3567   3 
   3   3   0 436.147 16.9027   1 
   3   3   0 437.647 18.0063   2 
   3   3   0 431.304 17.8779   2 
   3   3   0 424.436 16.5148   3 
  -4  -3   0 53.1072 4.56601   5 
  -4  -3   0 42.5979 5.04671   4 
  -4  -3   0 39.3262 4.82711   3 
  -4  -3   0 46.5206 4.06968  10 
  -4  -3   0 43.4880 4.25637   5 
  -4  -3   0 44.7451 3.99386  14 
  -4  -3   0 43.3887 4.04736  14 
  -4  -3   0 47.8199 5.66797   1 
  -4  -3   0 46.9102 3.89436   1 
  -4  -3   0 51.7664 5.09181   3 
  -4  -3   0 53.1435 4.75308   7 
   4   3   0 41.5242 5.30711   2 
   4   3   0 38.4181 3.46054  12 
   4   3   0 44.9045 4.96177   1 
   4   3   0 42.4923 4.43804   3 
   4   3   0 39.3051 5.07001   2 
  -5  -3   0 65.8231 6.16135   7 
  -5  -3   0 57.1270 5.48888   5 
  -5  -3   0 60.2142 6.36529   4 
  -5  -3   0 53.8571 4.92830  14 
  -5  -3   0 58.6252 4.71397  10 
  -5  -3   0 56.3955 6.34492   3 
  -5  -3   0 59.5235 5.27941  14 
  -5  -3   0 57.6714 5.64073   5 
  -5  -3   0 60.3153 5.15114   1 
   5   3   0 75.6156 6.82029   1 
   5   3   0 80.9596 7.88530   2 
  -6  -3   0 76.0033 7.01281   5 
  -6  -3   0 83.8488 7.53564   5 
  -6  -3   0 81.1277 6.47302   1 
  -6  -3   0 89.5476 8.80035   3 
  -6  -3   0 79.3672 7.72750   4 
  -6  -3   0 80.8669 6.77790  14 
  -6  -3   0 84.2236 7.69296   7 
   6   3   0 78.8858 8.30142   1 
   6   3   0 80.0471 9.33712   2 
  -7  -3   0 61.3229 7.92606   7 
  -7  -3   0 42.1385 6.26755  14 
  -7  -3   0 50.5187 5.89824   1 
  -7  -3   0 52.1092 7.18361   4 
  -7  -3   0 51.1708 7.06742  11 
  -7  -3   0 59.5009 7.20737   5 
  -7  -3   0 48.7779 7.91186   3 
   7   3   0 39.2899 7.77972   1 
   7   3   0 38.8932 8.48043   2 
  -8  -3   0 27.3138 5.48512  14 
  -8  -3   0 22.0240 5.17658   5 
   8   3   0 31.9558 7.72374   1 
   8   3   0 12.8543 6.23234   2 
  10  -4   0 8.03500 5.15685   1 
 -10   4   0 6.27223 5.45900   7 
 -10   4   0 6.36741 5.14954   1 
   9  -4   0 0.06968 4.01118   1 
   9  -4   0 2.11101 4.45670   3 
  -9   4   0 0.05873 3.51610   1 
  -9   4   0 5.19901 4.42751   7 
   8  -4   0 112.068 10.3742   1 
   8  -4   0 103.038 10.8789   3 
  -8   4   0 106.601 10.2824   1 
  -8   4   0 108.662 10.5172   3 
  -8   4   0 102.276 9.84208   7 
   7  -4   0 171.777 11.6315   1 
   7  -4   0 195.895 13.2434   3 
   7  -4   0 196.093 12.6761   5 
  -7   4   0 186.524 13.4278   2 
  -7   4   0 180.741 11.5597   7 
  -7   4   0 185.443 12.6899  12 
  -7   4   0 187.826 12.2805   1 
  -7   4   0 183.815 12.4797   3 
   6  -4   0 37.9854 5.14769   1 
   6  -4   0 30.3995 5.46477   3 
   6  -4   0 28.0213 5.09317   5 
  -6   4   0 37.6082 5.80677  12 
  -6   4   0 42.7108 5.98612   2 
  -6   4   0 33.9499 5.10161   3 
  -6   4   0 38.1741 5.15335   7 
  -6   4   0 34.0380 5.10002   1 
   5  -4   0 108.332 8.17848   3 
   5  -4   0 107.275 6.98429  14 
   5  -4   0 104.376 7.34984   1 
   5  -4   0 105.613 7.66299   5 
   5  -4   0 105.549 7.24679   5 
  -5   4   0 117.597 7.79656   5 
  -5   4   0 131.614 9.06040   2 
  -5   4   0 123.969 7.64962   7 
  -5   4   0 124.089 8.08693   3 
  -5   4   0 132.130 8.97973   2 
  -5   4   0 127.596 8.08193   1 
  -5   4   0 128.772 7.85668  14 
  -5   4   0 126.503 8.71450  12 
   4  -4   0 927.745 31.4121   1 
   4  -4   0 933.810 32.6815   3 
   4  -4   0 981.135 32.9830   2 
   4  -4   0 957.468 31.8323   5 
   4  -4   0 958.303 32.1332   5 
   4  -4   0 961.797 31.9872  13 
   4  -4   0 983.161 31.5361  14 
   4  -4   0 973.774 32.7141   3 
  -4   4   0 879.618 31.8282   1 
  -4   4   0 900.302 31.9392   1 
  -4   4   0 930.357 31.7211   7 
  -4   4   0 912.032 33.2031   2 
  -4   4   0 866.326 32.9670  12 
  -4   4   0 904.581 33.3105   2 
  -4   4   0 928.423 31.8662  14 
  -4   4   0 930.030 32.2662   5 
  -4   4   0 896.474 32.0327   3 
   3  -4   0 422.415 14.7648  14 
   3  -4   0 418.839 14.7060   1 
   3  -4   0 410.676 15.8412  13 
   3  -4   0 397.157 15.8842   6 
   3  -4   0 401.316 14.7676   1 
   3  -4   0 407.467 15.0070   5 
   3  -4   0 416.658 15.7587   3 
   3  -4   0 422.755 15.8043   2 
   3  -4   0 411.478 15.1918   5 
   3  -4   0 410.614 13.5903   4 
   3  -4   0 377.204 15.5313   3 
  -3   4   0 437.184 17.1113  12 
  -3   4   0 416.496 16.2425   2 
  -3   4   0 420.608 15.4217   3 
  -3   4   0 414.835 16.3603   2 
  -3   4   0 416.154 15.0922   7 
  -3   4   0 416.668 15.4168   1 
   2  -4   0 374.194 14.3280  13 
   2  -4   0 369.355 13.9008   9 
   2  -4   0 384.064 14.2894   6 
   2  -4   0 383.681 12.5581   5 
   2  -4   0 375.993 12.4111   5 
   2  -4   0 363.670 11.6890   1 
   2  -4   0 379.359 12.1571  14 
   2  -4   0 379.244 13.1066   4 
   2  -4   0 380.022 13.4129   3 
  -2   4   0 366.296 14.1626  13 
  -2   4   0 359.573 12.7147   3 
  -2   4   0 345.419 14.5416  12 
  -2   4   0 355.593 13.5786   2 
  -2   4   0 357.653 13.4958   2 
  -2   4   0 350.087 12.8385   1 
  -2   4   0 352.611 14.1768  10 
  -2   4   0 372.727 12.8107   3 
  -2   4   0 355.827 12.6915   7 
   1  -4   0 563.421 20.2994   6 
   1  -4   0 591.775 20.1041   4 
   1  -4   0 569.137 18.4465   3 
   1  -4   0 596.238 20.1591   9 
   1  -4   0 613.787 17.8536   7 
   1  -4   0 593.458 20.7665  13 
   1  -4   0 572.045 18.3892   3 
   1  -4   0 599.522 20.5984  12 
  -1   4   0 574.800 20.5843  10 
  -1   4   0 558.732 18.5478   2 
  -1   4   0 569.628 17.8716   1 
  -1   4   0 551.101 20.3745  12 
  -1   4   0 529.924 18.4312   2 
  -1   4   0 577.705 17.8797   1 
  -1   4   0 582.882 17.8484   7 
  -1   4   0 568.655 20.6180  13 
   0  -4   0 451.669 16.7317  10 
   0  -4   0 434.559 16.7344   6 
   0  -4   0 431.182 16.7044   4 
   0  -4   0 433.358 17.0919  13 
   0  -4   0 444.935 14.2028   3 
   0   4   0 461.051 16.1441  12 
   0   4   0 462.311 16.7848  10 
  -1  -4   0 787.991 25.9652   3 
  -1  -4   0 783.630 24.8260  11 
  -1  -4   0 766.749 28.2402   4 
  -1  -4   0 776.881 27.6031  10 
   1   4   0 808.861 26.2136   2 
   1   4   0 835.707 26.7309  12 
   1   4   0 834.477 26.2625   2 
   1   4   0 817.980 25.4929   1 
   1   4   0 871.559 28.0905  10 
  -2  -4   0 411.693 16.7614   4 
  -2  -4   0 410.093 15.6806  10 
  -2  -4   0 412.131 13.8179  11 
   2   4   0 371.938 15.0950   2 
   2   4   0 383.216 13.4261   3 
   2   4   0 388.316 15.2373   2 
   2   4   0 396.839 14.4880   1 
   2   4   0 404.403 15.7578  10 
  -3  -4   0 130.202 6.74279   7 
  -3  -4   0 118.762 7.07042  10 
  -3  -4   0 125.873 7.31517   3 
  -3  -4   0 124.733 5.46767  14 
  -3  -4   0 125.380 5.92237   5 
  -3  -4   0 123.726 8.34491   4 
  -3  -4   0 123.669 5.51959  14 
  -3  -4   0 114.907 6.29049  11 
  -3  -4   0 118.587 5.94509   5 
  -3  -4   0 112.372 7.09137   3 
   3   4   0 128.836 6.40042   3 
   3   4   0 128.464 7.88538   2 
   3   4   0 125.202 7.79452   2 
   3   4   0 122.462 7.03813   1 
  -4  -4   0 9.38429 2.54358  10 
  -4  -4   0 10.6065 2.71520  11 
  -4  -4   0 8.44873 2.04477  14 
  -4  -4   0 8.01394 2.39768   5 
  -4  -4   0 11.8388 2.30979  14 
  -4  -4   0 11.2778 3.17289   3 
  -4  -4   0 11.3912 2.85937   7 
  -4  -4   0 10.2793 2.56411   5 
  -4  -4   0 11.5338 1.82989   1 
  -4  -4   0 7.37912 2.94472   4 
   4   4   0 8.84487 2.89410   1 
   4   4   0 6.49973 2.90332   2 
   4   4   0 10.2072 3.52927   2 
  -5  -4   0 34.9833 4.45956   5 
  -5  -4   0 39.6007 4.86254  11 
  -5  -4   0 29.0760 5.77148   4 
  -5  -4   0 34.9290 4.86499   7 
  -5  -4   0 46.1457 5.98697   3 
  -5  -4   0 40.1758 4.20884  14 
  -5  -4   0 38.3861 3.47501   1 
  -5  -4   0 33.5018 4.16892  10 
  -5  -4   0 36.5870 3.92781  14 
  -5  -4   0 39.7717 4.64211   5 
   5   4   0 42.6936 6.62502   2 
   5   4   0 38.7310 5.66284   1 
  -6  -4   0 109.566 7.99955   5 
  -6  -4   0 110.752 7.54111  14 
  -6  -4   0 109.854 8.10791   5 
  -6  -4   0 103.404 7.16260  14 
  -6  -4   0 107.488 9.61638   4 
  -6  -4   0 101.744 9.69717   3 
   6   4   0 116.852 11.2940   2 
   6   4   0 115.935 9.93460   1 
  -7  -4   0 52.8395 6.82595   5 
  -7  -4   0 48.3452 7.80005   4 
  -7  -4   0 42.2348 5.86331  14 
  -7  -4   0 50.3516 6.29492   5 
   7   4   0 47.8879 8.32446   1 
   7   4   0 55.5284 9.63377   2 
  -8  -4   0 -0.2089 3.13631  14 
  -8  -4   0 -0.7939 3.13373   5 
   8   4   0 0.21058 4.88582   2 
  10  -5   0 0.84518 4.43072   1 
 -10   5   0 0.60568 4.62882   7 
 -10   5   0 -1.8385 3.81460   1 
   9  -5   0 29.9032 7.09190   1 
   9  -5   0 27.6064 7.56188   3 
  -9   5   0 31.5152 7.15463   7 
  -9   5   0 23.8452 6.19931   1 
   8  -5   0 81.5696 10.0443   3 
   8  -5   0 75.4242 8.48974   1 
  -8   5   0 82.9583 9.22011   1 
  -8   5   0 66.8731 8.31351   7 
   7  -5   0 41.2081 6.90445   3 
   7  -5   0 42.3693 6.06093   1 
   7  -5   0 35.9964 6.33472   5 
   7  -5   0 42.3677 5.81495  13 
  -7   5   0 35.2519 6.50936  12 
  -7   5   0 47.6750 6.67624   1 
  -7   5   0 38.1572 5.86672   7 
  -7   5   0 49.5260 7.42889   2 
  -7   5   0 53.8769 6.98229   3 
   6  -5   0 10.1624 3.24065   1 
   6  -5   0 5.61766 2.88248  13 
   6  -5   0 7.41243 2.67304   5 
   6  -5   0 8.99623 3.40415   3 
   6  -5   0 10.2057 3.69567   5 
  -6   5   0 5.44096 3.45407  12 
  -6   5   0 7.98001 3.21939   2 
  -6   5   0 8.70121 3.32864   3 
  -6   5   0 7.74584 2.89041   1 
  -6   5   0 9.80203 3.24727   7 
   5  -5   0 107.218 7.10710   1 
   5  -5   0 106.043 6.81063  14 
   5  -5   0 121.805 7.87561   5 
   5  -5   0 113.453 9.14440   2 
   5  -5   0 103.135 7.06366   5 
   5  -5   0 112.727 8.36434   3 
   5  -5   0 116.317 8.10312   3 
   5  -5   0 115.061 7.53023  13 
  -5   5   0 126.530 9.05764   2 
  -5   5   0 115.821 7.78684   3 
  -5   5   0 118.096 7.87663   1 
  -5   5   0 125.530 8.01008   5 
  -5   5   0 122.403 9.01711  12 
  -5   5   0 117.386 8.52086   2 
  -5   5   0 123.004 7.56637   7 
   4  -5   0 861.238 30.0005   2 
   4  -5   0 837.753 30.0771   6 
   4  -5   0 828.910 28.4859   1 
   4  -5   0 826.984 30.1938   3 
   4  -5   0 832.713 29.8098  13 
   4  -5   0 824.938 29.8298   3 
   4  -5   0 822.897 28.7768   5 
   4  -5   0 830.573 28.3875   1 
   4  -5   0 833.173 28.4050  14 
   4  -5   0 833.903 29.0836   5 
  -4   5   0 870.184 30.7605   2 
  -4   5   0 807.255 30.6379   2 
  -4   5   0 869.839 29.6753   1 
  -4   5   0 860.983 31.4569  12 
  -4   5   0 871.989 29.3895   3 
  -4   5   0 867.608 29.2031   7 
  -4   5   0 876.425 29.7317   1 
   3  -5   0 696.411 24.6636   9 
   3  -5   0 690.980 22.6130   4 
   3  -5   0 679.598 22.7069   5 
   3  -5   0 654.988 22.3097  14 
   3  -5   0 694.544 22.1259   1 
   3  -5   0 676.884 23.8518   3 
   3  -5   0 680.560 24.6641  13 
   3  -5   0 702.592 22.9577   5 
   3  -5   0 668.349 24.0603   3 
   3  -5   0 664.253 24.6205   6 
   3  -5   0 677.938 22.0713   1 
  -3   5   0 663.278 24.4668   2 
  -3   5   0 684.794 23.2095   3 
  -3   5   0 695.043 23.5705   1 
  -3   5   0 674.673 24.3829   2 
  -3   5   0 705.571 23.2350   7 
  -3   5   0 656.301 25.5260  12 
  -3   5   0 717.560 23.6562   1 
   2  -5   0 87.3517 5.37518   9 
   2  -5   0 88.9437 4.98121   4 
   2  -5   0 85.9229 5.61965   6 
   2  -5   0 86.3774 4.63954   3 
   2  -5   0 82.1596 5.72411  13 
  -2   5   0 74.8515 5.69624  12 
  -2   5   0 69.4729 4.00743   1 
  -2   5   0 73.9397 3.39471   3 
  -2   5   0 78.7616 4.69288   2 
  -2   5   0 77.1733 3.44937   3 
  -2   5   0 74.4142 3.87950   7 
  -2   5   0 71.6899 4.55907   2 
   1  -5   0 260.956 12.1428  13 
   1  -5   0 264.314 11.7957   6 
   1  -5   0 269.204 11.5078   9 
   1  -5   0 258.188 9.44741   3 
   1  -5   0 264.058 11.5377   4 
   1  -5   0 251.390 9.47201   3 
  -1   5   0 274.599 8.87033   1 
  -1   5   0 282.908 11.9688  12 
  -1   5   0 287.976 8.96503   1 
  -1   5   0 284.426 9.76536   2 
  -1   5   0 260.077 9.58690   2 
   0  -5   0 1040.08 35.3970  13 
   0  -5   0 991.227 34.5894  10 
   0  -5   0 1004.47 34.7333   4 
   0  -5   0 1014.72 31.4026   3 
   0  -5   0 1016.52 34.7440   6 
   0   5   0 985.475 31.4374   2 
   0   5   0 1033.51 31.5273   2 
   0   5   0 1017.91 33.7357  12 
  -1  -5   0 343.007 15.4687   4 
  -1  -5   0 336.212 14.7973  10 
  -1  -5   0 351.848 12.7788   3 
   1   5   0 367.439 13.1430   2 
   1   5   0 359.969 13.7418  12 
   1   5   0 365.488 12.3290   1 
   1   5   0 368.207 13.1211   2 
  -2  -5   0 421.202 18.0561   4 
  -2  -5   0 415.162 13.7615  11 
  -2  -5   0 404.426 16.6450  10 
  -2  -5   0 387.707 15.6569   3 
   2   5   0 419.660 16.0385   2 
   2   5   0 390.463 15.8033   2 
   2   5   0 401.391 14.9880  12 
   2   5   0 413.989 15.1266   1 
  -3  -5   0 142.330 6.68228  11 
  -3  -5   0 137.126 9.49806   4 
  -3  -5   0 145.121 8.11948   3 
  -3  -5   0 146.143 8.42314  10 
   3   5   0 130.188 6.07896   3 
   3   5   0 128.398 8.34260   2 
   3   5   0 126.800 8.28773   2 
   3   5   0 127.636 7.62103   1 
  -4  -5   0 54.1294 6.65879   4 
  -4  -5   0 55.5325 5.35753  10 
  -4  -5   0 54.5451 5.30868  11 
  -4  -5   0 56.6646 6.05910   3 
   4   5   0 56.8273 5.85455   1 
   4   5   0 54.0454 6.50357   2 
  -5  -5   0 52.9852 3.87779  14 
  -5  -5   0 49.0268 3.93801  14 
  -5  -5   0 53.3884 4.73903   5 
  -5  -5   0 51.1803 6.61498   3 
  -5  -5   0 51.4107 4.66175   5 
  -5  -5   0 62.7933 7.62250   4 
   5   5   0 47.0624 6.34970   1 
   5   5   0 61.8466 7.96135   2 
  -6  -5   0 71.3794 6.01252   5 
  -6  -5   0 68.6036 6.00776   5 
  -6  -5   0 59.9913 8.15796   3 
  -6  -5   0 69.3947 8.91508   4 
  -6  -5   0 63.3563 5.11849  14 
  -6  -5   0 69.9203 5.10586  14 
   6   5   0 81.1014 10.0168   2 
  -7  -5   0 50.6309 9.13007   4 
  -7  -5   0 44.2069 5.58693   5 
  -7  -5   0 42.5939 4.72044  14 
  -7  -5   0 46.9493 4.82890  14 
  -7  -5   0 34.6147 5.40696   5 
   7   5   0 47.4657 9.92107   2 
  10  -6   0 2.50497 4.21497   1 
 -10   6   0 -3.1316 4.15862   7 
 -10   6   0 -1.5523 4.22196   1 
   9  -6   0 4.57670 4.67798   3 
   9  -6   0 0.48595 3.72864   1 
  -9   6   0 0.60446 4.24894   7 
  -9   6   0 6.97563 4.41468   1 
   8  -6   0 110.181 9.40287  13 
   8  -6   0 119.209 10.0666   1 
   8  -6   0 119.769 10.7969   5 
   8  -6   0 112.461 11.7264   3 
  -8   6   0 114.860 11.7124  12 
  -8   6   0 123.724 12.0979   2 
  -8   6   0 129.591 10.6562   7 
  -8   6   0 114.680 10.7719   1 
   7  -6   0 73.0532 7.33955  13 
   7  -6   0 70.7982 7.82913   5 
   7  -6   0 73.2364 7.35096   1 
   7  -6   0 91.5452 9.41459   3 
  -7   6   0 74.1449 7.67036   7 
  -7   6   0 68.4890 8.83916  12 
  -7   6   0 67.8195 7.85645   1 
  -7   6   0 85.8049 9.47489   2 
   6  -6   0 10.6662 3.00268   5 
   6  -6   0 11.3290 3.18905  13 
   6  -6   0 10.4396 3.16908   1 
   6  -6   0 13.1082 3.88346   5 
   6  -6   0 7.04949 3.46656   6 
   6  -6   0 6.40547 3.25342   3 
  -6   6   0 10.1763 3.51268   3 
  -6   6   0 12.3579 3.72718   1 
  -6   6   0 9.80500 3.78695   2 
  -6   6   0 10.8162 3.25019   7 
  -6   6   0 12.7563 4.58160  12 
   5  -6   0 140.220 9.51707   3 
   5  -6   0 164.727 9.53736  13 
   5  -6   0 157.353 8.16271  14 
   5  -6   0 154.118 8.17536   1 
   5  -6   0 149.481 8.39071   5 
   5  -6   0 164.673 9.99121   6 
   5  -6   0 164.038 9.01414   5 
   5  -6   0 160.111 9.56265   3 
  -5   6   0 142.841 10.0555   2 
  -5   6   0 145.411 10.4600  12 
  -5   6   0 144.284 9.12359   1 
  -5   6   0 154.492 8.85052   7 
  -5   6   0 152.719 8.92306   3 
   4  -6   0 166.914 7.15974   1 
   4  -6   0 162.713 7.35764  14 
   4  -6   0 172.926 6.95368   4 
   4  -6   0 160.892 9.04117   3 
   4  -6   0 162.189 9.32861   9 
   4  -6   0 168.252 7.85878   5 
   4  -6   0 180.527 9.12914   3 
   4  -6   0 169.406 7.14478   1 
   4  -6   0 166.703 7.99801   5 
   4  -6   0 168.593 9.52545   6 
   4  -6   0 164.008 9.30631  13 
  -4   6   0 137.595 7.72069   7 
  -4   6   0 144.316 8.28369   1 
  -4   6   0 135.154 9.73514  12 
  -4   6   0 150.475 7.95282   3 
  -4   6   0 137.059 8.99162   2 
  -4   6   0 137.889 8.94248   2 
  -4   6   0 141.303 8.32262   1 
   3  -6   0 197.617 7.19285  14 
   3  -6   0 204.953 10.7978  13 
   3  -6   0 209.131 7.88795   5 
   3  -6   0 195.780 9.01104   4 
   3  -6   0 195.772 10.1722   9 
   3  -6   0 199.283 10.4737   6 
   3  -6   0 198.762 9.55295   3 
  -3   6   0 211.804 9.24221   1 
  -3   6   0 216.749 9.29626   1 
  -3   6   0 212.051 11.4960  12 
  -3   6   0 203.631 9.94855   2 
  -3   6   0 224.309 10.2646   2 
  -3   6   0 219.738 8.84288   7 
  -3   6   0 212.908 8.38307   3 
   2  -6   0 111.566 7.57875  13 
   2  -6   0 104.217 6.51585   4 
   2  -6   0 111.898 5.80555   3 
   2  -6   0 114.230 7.02366   9 
   2  -6   0 111.421 5.70202   3 
   2  -6   0 117.455 7.47034   6 
  -2   6   0 117.686 5.40942   1 
  -2   6   0 117.459 5.39855   1 
  -2   6   0 116.408 6.02958   2 
  -2   6   0 118.745 4.87990   7 
  -2   6   0 120.548 5.53859   8 
  -2   6   0 112.537 6.02054   2 
  -2   6   0 120.135 7.78182  12 
   1  -6   0 325.173 13.6761   9 
   1  -6   0 312.868 14.3825  13 
   1  -6   0 296.257 10.8360   3 
   1  -6   0 311.893 13.6620   4 
   1  -6   0 293.250 13.6604   6 
   1  -6   0 307.561 10.9558   3 
  -1   6   0 325.734 10.3834   1 
  -1   6   0 311.670 13.6471  12 
  -1   6   0 307.977 11.1362   2 
  -1   6   0 293.189 11.0549   2 
   0  -6   0 228.384 11.6829   4 
   0  -6   0 213.158 11.3083   6 
   0  -6   0 228.964 8.37000   3 
   0   6   0 229.125 10.6161  12 
   0   6   0 218.683 8.49785   2 
   0   6   0 229.139 7.78233   1 
   0   6   0 234.138 8.62403   2 
  -1  -6   0 71.1174 4.17146   3 
  -1  -6   0 60.4045 6.22258   4 
  -1  -6   0 58.8383 5.73568  10 
   1   6   0 74.0629 4.64981   2 
   1   6   0 78.0236 4.04472   1 
   1   6   0 77.6771 5.25290  12 
   1   6   0 71.8811 4.52304   2 
  -2  -6   0 25.0397 4.94618   4 
   2   6   0 37.7548 3.64865   1 
   2   6   0 38.5622 3.70096  12 
   2   6   0 32.9201 4.02253   2 
   2   6   0 36.8762 4.20555   2 
  -3  -6   0 131.641 8.78390  10 
  -3  -6   0 140.552 10.3560   4 
  -3  -6   0 127.256 8.07939   3 
   3   6   0 135.543 8.89647   2 
   3   6   0 124.005 8.48141   2 
   3   6   0 139.967 8.21520   1 
  -4  -6   0 100.674 9.55840   4 
  -4  -6   0 100.463 8.09047   3 
  -4  -6   0 98.0383 7.70096  10 
   4   6   0 94.5101 8.51030   2 
  -5  -6   0 20.1027 5.08659   3 
  -5  -6   0 18.3796 5.77574   4 
   5   6   0 14.0280 5.01109   2 
  -6  -6   0 32.3170 7.73619   4 
   6   6   0 29.2011 7.20606   2 
  -7  -6   0 3.82382 5.42064   4 
  10  -7   0 7.00681 5.44179   6 
 -10   7   0 17.2967 7.39444   1 
 -10   7   0 20.0015 7.11162   7 
   9  -7   0 41.9316 7.63359   1 
   9  -7   0 56.4329 9.05240   6 
  -9   7   0 47.5910 8.73802   7 
  -9   7   0 40.2373 8.52286   1 
   8  -7   0 88.9926 10.5186   3 
   8  -7   0 79.5781 9.37157   6 
   8  -7   0 80.8796 8.33360   1 
   8  -7   0 81.3557 9.05507   5 
   8  -7   0 74.5718 8.25567  13 
  -8   7   0 71.6235 8.32831   7 
  -8   7   0 64.7579 8.80721   1 
  -8   7   0 87.2462 10.6009   2 
  -8   7   0 86.5311 10.7126  12 
   7  -7   0 112.819 9.79558   6 
   7  -7   0 123.091 8.81050   1 
   7  -7   0 112.795 9.28276   5 
   7  -7   0 105.613 8.99406  13 
   7  -7   0 110.861 10.5359   3 
  -7   7   0 112.798 11.0387   2 
  -7   7   0 111.312 9.72996   1 
  -7   7   0 113.560 11.1640  12 
  -7   7   0 120.325 9.51063   7 
   6  -7   0 48.1382 6.08754  13 
   6  -7   0 32.3966 5.77776   6 
   6  -7   0 35.4426 4.37531  14 
   6  -7   0 40.3580 4.62813   1 
   6  -7   0 28.5600 4.45434   5 
   6  -7   0 35.9541 5.32785   5 
   6  -7   0 34.5557 5.96825   3 
  -6   7   0 43.7529 7.11508  12 
  -6   7   0 38.2500 5.20244   7 
  -6   7   0 45.0942 6.87816   2 
  -6   7   0 45.5629 5.91122   1 
   5  -7   0 251.810 11.4107   5 
   5  -7   0 247.663 13.0614  13 
   5  -7   0 243.054 11.1400   5 
   5  -7   0 239.536 10.4891  14 
   5  -7   0 261.498 13.4092   9 
   5  -7   0 241.836 10.1273   1 
   5  -7   0 254.065 13.4070   6 
   5  -7   0 233.309 12.9306   3 
  -5   7   0 217.474 11.9638   1 
  -5   7   0 237.265 13.5795   2 
  -5   7   0 229.686 14.1525  12 
  -5   7   0 242.365 11.6605   7 
   4  -7   0 527.081 18.1245   5 
   4  -7   0 519.740 18.7583   4 
   4  -7   0 526.462 20.6850   3 
   4  -7   0 527.614 17.4285  14 
   4  -7   0 518.988 20.7690   3 
   4  -7   0 553.520 21.5531   9 
   4  -7   0 519.107 21.6251  13 
   4  -7   0 521.100 21.5592   6 
   4  -7   0 532.659 18.2359   5 
  -4   7   0 500.446 21.1343   2 
  -4   7   0 519.369 21.1406   2 
  -4   7   0 515.739 22.9299  12 
  -4   7   0 512.720 18.6984   3 
  -4   7   0 526.576 20.0838   1 
  -4   7   0 494.080 18.9952   7 
   3  -7   0 142.821 7.69582   3 
   3  -7   0 147.256 7.84466   4 
   3  -7   0 145.646 8.63011   9 
   3  -7   0 128.336 8.88144  13 
   3  -7   0 152.960 9.28412   6 
  -3   7   0 125.147 7.70979   2 
  -3   7   0 129.927 9.32829  12 
  -3   7   0 138.604 6.48987   7 
  -3   7   0 140.499 7.21009   1 
  -3   7   0 150.393 8.09798   2 
   2  -7   0 219.017 9.21876   3 
   2  -7   0 221.616 12.2120  13 
   2  -7   0 209.828 10.8899   4 
   2  -7   0 216.224 11.6304   6 
   2  -7   0 216.954 11.1578   9 
   2  -7   0 223.318 9.36008   3 
  -2   7   0 211.634 9.47187   2 
  -2   7   0 209.234 9.52463   2 
  -2   7   0 230.498 8.90158   1 
  -2   7   0 229.152 8.92880   8 
  -2   7   0 239.488 12.2425  12 
   1  -7   0 520.550 21.0853   6 
   1  -7   0 508.927 21.5858  13 
   1  -7   0 512.829 20.4138   9 
   1  -7   0 496.012 17.1103   3 
   1  -7   0 517.553 20.7499   4 
  -1   7   0 491.524 16.5616   1 
  -1   7   0 578.625 18.7224  11 
  -1   7   0 496.564 17.4735   2 
  -1   7   0 477.532 17.3966   2 
  -1   7   0 507.095 20.5698  12 
   0  -7   0 268.202 9.22828   3 
   0  -7   0 250.988 12.8838   6 
   0  -7   0 267.187 13.2596   4 
   0   7   0 223.735 11.4741  12 
   0   7   0 229.605 9.30128   2 
   0   7   0 224.409 9.23902   2 
   0   7   0 230.961 8.59043   1 
  -1  -7   0 55.5566 6.40014   4 
  -1  -7   0 53.7009 3.74238   3 
   1   7   0 53.1610 4.23599   2 
   1   7   0 55.2099 4.96060  12 
   1   7   0 47.5012 4.10573   2 
  -2  -7   0 142.906 9.67317  10 
  -2  -7   0 133.028 10.1404   4 
   2   7   0 118.962 7.21744  12 
   2   7   0 130.583 7.96840   2 
   2   7   0 130.522 7.78321   2 
  -3  -7   0 196.440 11.7126  10 
  -3  -7   0 201.903 13.4223   4 
  -3  -7   0 187.497 10.1900   3 
   3   7   0 175.151 10.8185   2 
  -4  -7   0 53.2808 7.90148   4 
  -4  -7   0 46.2756 6.09900   3 
   4   7   0 43.8688 6.64908   2 
  -5  -7   0 -0.8084 3.78639   4 
  -5  -7   0 2.17536 4.61059   3 
   5   7   0 4.34077 3.94678   2 
  -6  -7   0 4.63420 4.91606   4 
   6   7   0 2.31244 3.81056   2 
   9  -8   0 20.6136 6.35477   5 
   9  -8   0 25.4846 7.31590   6 
   9  -8   0 14.6454 4.92632   1 
  -9   8   0 18.8896 6.06524   7 
  -9   8   0 19.4495 6.22077   1 
   8  -8   0 2.58522 4.08617   6 
   8  -8   0 13.6253 5.41298   3 
   8  -8   0 10.4490 4.44831   5 
   8  -8   0 8.40077 5.88149  13 
   8  -8   0 14.7705 4.32008   1 
  -8   8   0 8.44534 5.90541  12 
  -8   8   0 7.56863 4.65070   2 
  -8   8   0 13.2624 5.24683   1 
  -8   8   0 6.79833 3.88267   7 
   7  -8   0 50.9508 7.10310  13 
   7  -8   0 58.4669 8.20129   3 
   7  -8   0 56.4500 7.52115   9 
   7  -8   0 57.4434 6.90603   5 
   7  -8   0 63.3352 5.83393   1 
   7  -8   0 51.8606 5.99226   5 
   7  -8   0 52.9784 7.55661   6 
  -7   8   0 59.4427 9.11739  12 
  -7   8   0 71.3482 9.37319   2 
  -7   8   0 61.4272 7.01235   7 
  -7   8   0 65.4620 7.72816   1 
   6  -8   0 50.7203 6.71284  13 
   6  -8   0 44.9376 4.96947   5 
   6  -8   0 46.0116 5.33773   5 
   6  -8   0 46.1087 4.49952  14 
   6  -8   0 59.7958 7.17681   9 
   6  -8   0 46.9795 4.01145   1 
   6  -8   0 56.7474 7.11253   3 
   6  -8   0 47.2200 6.70108   6 
  -6   8   0 50.4185 7.61186   2 
  -6   8   0 54.9057 5.86190   7 
  -6   8   0 59.4781 8.54410  12 
  -6   8   0 60.5488 6.58643   1 
   5  -8   0 213.070 12.4309   9 
   5  -8   0 209.617 12.5696  13 
   5  -8   0 208.512 9.37823   5 
   5  -8   0 209.221 8.65339  14 
   5  -8   0 216.766 12.8043   6 
   5  -8   0 224.701 12.3803   3 
   5  -8   0 225.652 9.65762   5 
  -5   8   0 203.296 11.3497   1 
  -5   8   0 198.218 12.5194   2 
  -5   8   0 203.672 10.4950   7 
  -5   8   0 194.014 13.5205  12 
   4  -8   0 91.4149 7.77889   6 
   4  -8   0 82.5727 7.11154   9 
   4  -8   0 86.8554 6.79955   3 
   4  -8   0 85.6237 5.94387   4 
   4  -8   0 79.6181 7.55470  13 
  -4   8   0 89.9475 8.87702  12 
  -4   8   0 84.8365 7.13203   2 
  -4   8   0 88.7999 7.04666   2 
  -4   8   0 94.3389 6.46974   1 
  -4   8   0 86.3574 5.54977   7 
   3  -8   0 178.412 11.6412  13 
   3  -8   0 178.470 11.2568   6 
   3  -8   0 172.337 9.33825   3 
   3  -8   0 181.827 10.1425   4 
   3  -8   0 188.977 10.9776   9 
  -3   8   0 217.084 12.6333  12 
  -3   8   0 202.961 10.1859   2 
  -3   8   0 199.883 10.0020   2 
  -3   8   0 201.717 9.18581   1 
  -3   8   0 210.341 8.01546   7 
   2  -8   0 243.481 10.4944   3 
   2  -8   0 242.772 10.3511   3 
   2  -8   0 256.473 13.6091   6 
   2  -8   0 250.041 12.8978   4 
   2  -8   0 263.008 13.1012   9 
   2  -8   0 242.928 13.8764  13 
  -2   8   0 260.350 13.8826  12 
  -2   8   0 252.626 10.9146   2 
  -2   8   0 265.886 10.9847   2 
   1  -8   0 513.636 17.6470   3 
   1  -8   0 524.321 22.3808   6 
   1  -8   0 531.196 23.0434  13 
   1  -8   0 519.809 22.0414   4 
  -1   8   0 513.601 18.1374   2 
  -1   8   0 530.837 21.6970  12 
  -1   8   0 493.334 18.0977   2 
   0  -8   0 98.8397 8.42904   6 
   0  -8   0 89.9897 8.22116   4 
   0  -8   0 83.0196 4.48841   3 
   0   8   0 82.2146 4.88276   2 
   0   8   0 77.1840 4.82249   2 
   0   8   0 88.0612 6.88326  12 
  -1  -8   0 15.7235 4.73523   4 
   1   8   0 22.4149 3.35633   2 
   1   8   0 24.4957 3.96650  12 
   1   8   0 23.0778 3.40529   2 
  -2  -8   0 214.287 14.3786   4 
   2   8   0 233.457 11.5284   2 
   2   8   0 214.163 11.0254   2 
  -3  -8   0 182.931 10.2395   3 
  -3  -8   0 179.543 13.6742   4 
   3   8   0 173.729 10.9971   2 
  -4  -8   0 30.9291 5.67012   3 
  -4  -8   0 25.2073 6.59471   4 
   4   8   0 24.5652 5.80576   2 
  -5  -8   0 5.00990 5.60566   4 
   5   8   0 5.20558 4.01864   2 
   9  -9   0 7.43405 4.16735   5 
   9  -9   0 5.28550 5.05021   9 
   9  -9   0 8.39903 5.15660   6 
  -9   9   0 5.19811 5.23150   2 
  -9   9   0 9.22326 4.90751   7 
  -9   9   0 2.54879 4.43864   1 
   8  -9   0 18.3697 4.97587   5 
   8  -9   0 5.45730 4.58151   9 
   8  -9   0 12.8977 5.44087   6 
  -8   9   0 7.24608 5.49087   2 
  -8   9   0 11.7437 5.13992   1 
  -8   9   0 12.1565 4.74512   7 
  -8   9   0 12.7004 6.45538  12 
   7  -9   0 11.5947 3.00045  14 
   7  -9   0 9.92227 4.57504   3 
   7  -9   0 13.0247 4.05082   5 
   7  -9   0 12.7359 3.42611   5 
   7  -9   0 12.2767 4.90362   6 
   7  -9   0 15.9073 5.06441  13 
   7  -9   0 16.3009 5.20833   9 
  -7   9   0 5.34876 4.36905   2 
  -7   9   0 18.2647 5.18947   1 
  -7   9   0 10.1219 5.19222  12 
  -7   9   0 17.9893 4.52537   7 
   6  -9   0 44.6225 6.77337   3 
   6  -9   0 45.2004 6.52308   9 
   6  -9   0 37.2823 4.43376   5 
   6  -9   0 42.0496 6.63922  13 
   6  -9   0 31.8849 6.48531   6 
   6  -9   0 41.0915 3.88830  14 
   6  -9   0 37.4955 4.32652   5 
  -6   9   0 41.5873 7.24930   2 
  -6   9   0 42.0781 6.10785   1 
  -6   9   0 45.5850 8.18541  12 
  -6   9   0 44.3068 5.44272   7 
   5  -9   0 155.266 10.6705   9 
   5  -9   0 156.414 11.2019  13 
   5  -9   0 140.718 10.7687   6 
   5  -9   0 145.689 10.1103   3 
  -5   9   0 158.873 9.38700   7 
  -5   9   0 155.039 12.5451  12 
  -5   9   0 149.720 10.8253   2 
   4  -9   0 124.119 10.1100  13 
   4  -9   0 124.230 9.81560   6 
   4  -9   0 122.569 7.81103   4 
   4  -9   0 123.099 9.20127   9 
   4  -9   0 125.270 8.21371   3 
  -4   9   0 93.3072 8.02005   2 
  -4   9   0 95.2901 9.70919  12 
   3  -9   0 54.9370 7.05029   6 
   3  -9   0 45.0512 6.88256  13 
   3  -9   0 65.1466 6.25772   4 
   3  -9   0 53.3162 6.42327   9 
   3  -9   0 59.5367 5.24848   3 
  -3   9   0 76.9728 5.95587   2 
  -3   9   0 63.9744 5.68404   2 
  -3   9   0 71.8764 7.78774  12 
   2  -9   0 99.7781 8.10179   9 
   2  -9   0 90.8646 8.56526   6 
   2  -9   0 102.662 8.32042   4 
   2  -9   0 84.8418 8.57688  13 
  -2   9   0 98.6012 8.57588  12 
  -2   9   0 98.2457 6.10120   2 
  -2   9   0 99.0304 6.34296   2 
   1  -9   0 118.411 9.53774   4 
   1  -9   0 135.519 10.2288   6 
  -1   9   0 116.721 9.05171  12 
  -1   9   0 110.100 6.22746   2 
  -1   9   0 120.340 6.38481   2 
   0  -9   0 7.44546 4.00917   4 
   0  -9   0 15.9127 4.91748   6 
   0   9   0 7.02589 2.13199   2 
   0   9   0 8.95590 3.31469  12 
   0   9   0 9.70147 2.32529   2 
  -1  -9   0 84.8810 9.34619   4 
   1   9   0 92.6745 6.23385   2 
   1   9   0 96.0182 6.45349   2 
  -2  -9   0 110.874 11.0526   4 
  -2  -9   0 107.443 7.07641   3 
   2   9   0 116.670 7.88842   2 
  -3  -9   0 39.1473 8.01259   4 
  -3  -9   0 33.2370 5.23588   3 
   3   9   0 48.0169 6.54555   2 
  -4  -9   0 -3.3197 4.26819   4 
   4   9   0 0.60699 3.06118   2 
   8 -10   0 25.2163 5.61798  14 
   8 -10   0 23.1321 6.28936   9 
   8 -10   0 33.7607 5.87967   5 
   8 -10   0 32.8811 5.39917   5 
   8 -10   0 24.6079 6.40908   6 
  -8  10   0 28.8723 7.95208   2 
   7 -10   0 65.1627 8.34570   9 
   7 -10   0 66.0004 5.54705   5 
   7 -10   0 62.1660 5.57208   5 
   7 -10   0 76.7211 8.83773  13 
   7 -10   0 49.2960 8.32310   6 
  -7  10   0 64.2347 9.81060   2 
  -7  10   0 54.3784 9.98759  12 
   6 -10   0 69.9802 8.49058  13 
   6 -10   0 66.2898 7.95523   3 
   6 -10   0 61.4071 7.68861   9 
   6 -10   0 61.0287 8.45620   6 
  -6  10   0 60.9078 9.51129  12 
  -6  10   0 72.6720 9.16079   2 
   5 -10   0 71.3299 8.68571  13 
   5 -10   0 80.9925 8.97382   6 
   5 -10   0 79.0143 7.73205   3 
   5 -10   0 76.4671 7.96076   9 
  -5  10   0 66.0587 7.90080   2 
  -5  10   0 86.5428 10.3588  12 
   4 -10   0 85.9261 8.12431   9 
   4 -10   0 66.6337 6.42550   3 
   4 -10   0 80.9871 8.97168  13 
   4 -10   0 65.7270 6.58807   4 
   4 -10   0 67.4359 8.30865   6 
  -4  10   0 66.9730 8.79327  12 
  -4  10   0 74.2153 7.19551   2 
   3 -10   0 121.911 7.68316   3 
   3 -10   0 132.195 9.93224   9 
   3 -10   0 136.301 11.3167  13 
   3 -10   0 125.471 9.38742   4 
   3 -10   0 124.905 10.7578   6 
  -3  10   0 119.040 7.99487   2 
  -3  10   0 115.531 8.13774   2 
  -3  10   0 132.796 11.2716  12 
   2 -10   0 125.409 10.1134   4 
   2 -10   0 114.166 10.3938   6 
   2 -10   0 130.354 11.4704  13 
  -2  10   0 133.287 10.6967  12 
  -2  10   0 129.306 7.71374   2 
  -2  10   0 127.627 7.40845   2 
   1 -10   0 88.3781 9.09560   4 
   1 -10   0 87.5665 9.15206   6 
  -1  10   0 62.9088 7.36337  12 
  -1  10   0 68.6474 4.94137   2 
  -1  10   0 65.8904 4.99415   2 
   0 -10   0 59.6689 8.18641   4 
   0  10   0 53.2773 4.51506   2 
   0  10   0 44.6930 4.40270   2 
  -1 -10   0 83.8715 10.3369   4 
   1  10   0 92.2607 6.58314   2 
   1  10   0 89.8006 6.43543   2 
  -2 -10   0 40.2151 4.92573   3 
  -2 -10   0 45.2615 9.19366   4 
   2  10   0 49.1306 5.89556   2 
  -3 -10   0 8.39971 5.85345   4 
   3  10   0 2.55007 3.17644   2 
   8 -11   0 29.2681 7.19647   6 
  -8  11   0 45.0164 9.95764   2 
   7 -11   0 7.63137 4.85584   6 
   7 -11   0 19.8544 6.44364  13 
   7 -11   0 6.37330 4.38278   9 
  -7  11   0 23.0223 6.51795   2 
   6 -11   0 15.0303 5.84987  13 
   6 -11   0 11.3123 5.08745   6 
   6 -11   0 17.1743 5.27722   9 
  -6  11   0 23.5918 7.17342  12 
  -6  11   0 12.3917 5.20931   2 
   5 -11   0 122.226 11.6539  13 
   5 -11   0 134.598 10.0111   3 
   5 -11   0 147.374 12.2893   6 
   5 -11   0 144.433 11.1082   9 
  -5  11   0 117.073 10.4275   2 
  -5  11   0 121.156 12.4745  12 
   4 -11   0 69.3014 6.68307   3 
   4 -11   0 67.8315 9.18744   6 
   4 -11   0 64.9893 7.66572   9 
   4 -11   0 57.8516 8.65567  13 
  -4  11   0 70.6985 7.25207   2 
  -4  11   0 50.8066 8.77721  12 
   3 -11   0 43.8859 6.85729   4 
   3 -11   0 44.4423 8.01529  13 
   3 -11   0 39.9148 6.50879   9 
   3 -11   0 47.1400 8.07698   6 
  -3  11   0 47.4047 5.60959   2 
  -3  11   0 41.8305 7.91409  12 
   2 -11   0 20.0042 5.71898   4 
   2 -11   0 25.9593 6.41043   6 
  -2  11   0 18.9824 3.81365   2 
  -2  11   0 23.6391 6.15669  12 
  -2  11   0 18.9687 3.54462   2 
   1 -11   0 66.2671 9.16646   4 
   1 -11   0 71.7056 9.52508   6 
  -1  11   0 55.7766 4.73670   2 
  -1  11   0 54.5394 9.89815  12 
   0 -11   0 56.7649 9.32634   4 
   0  11   0 49.3166 4.56791   2 
  -1 -11   0 72.1371 10.4502   4 
   1  11   0 55.4978 5.46282   2 
  -2 -11   0 9.75572 5.77857   4 
   2  11   0 6.00071 3.13688   2 
   7 -12   0 9.86256 5.78729   6 
  -7  12   0 20.6459 6.92375   2 
   6 -12   0 44.5096 8.99984   6 
   6 -12   0 44.6874 9.14896  13 
  -6  12   0 35.8772 7.77881   2 
   5 -12   0 115.957 11.8826  13 
   5 -12   0 108.963 11.7480   6 
  -5  12   0 94.0673 9.57649   2 
  -5  12   0 94.4059 12.3169  12 
   4 -12   0 60.4152 9.68011  13 
   4 -12   0 77.8080 10.2044   6 
  -4  12   0 78.4994 10.3320  12 
  -4  12   0 85.7177 8.20976   2 
   3 -12   0 38.1399 8.58420   6 
   3 -12   0 36.4194 7.07956   4 
  -3  12   0 45.2575 5.92953   2 
  -3  12   0 38.5063 8.21799  12 
   2 -12   0 119.729 11.5635   4 
   2 -12   0 110.164 11.7690   6 
  -2  12   0 99.6821 6.84907   2 
  -2  12   0 102.764 12.6089  12 
  -2  12   0 91.2956 6.74329   2 
   1 -12   0 88.5566 11.0249   4 
   1 -12   0 80.6162 11.0511   6 
   0 -12   0 27.8028 7.82283   4 
   5 -13   0 24.0748 7.85469   6 
  -5  13   0 31.4587 7.32452   2 
   4 -13   0 6.93528 5.25826   6 
  -4  13   0 14.7752 4.67473   2 
   3 -13   0 23.5157 6.74505   4 
   3 -13   0 21.4976 7.10269   6 
  -3  13   0 21.2377 4.97531   2 
   2 -13   0 47.8263 9.41959   4 
   2 -13   0 55.1355 10.3552   6 
  -1  13  -1 28.4168 4.90918   2 
   1 -13   1 34.3973 8.76622   4 
  -2  13  -1 21.4684 4.97454   2 
   2 -13   1 15.2453 6.16323   4 
   2 -13   1 7.85098 5.43190   6 
  -3  13  -1 16.4474 9.03214  12 
  -3  13  -1 11.7675 4.17348   2 
   3 -13   1 7.19701 4.60599   4 
   3 -13   1 9.88517 5.57162   6 
  -4  13  -1 48.6023 7.84121   2 
  -4  13  -1 65.5276 12.1354  12 
   4 -13   1 60.7384 9.72270   6 
  -5  13  -1 60.4790 8.79846   2 
   5 -13   1 67.3802 16.5638  13 
   5 -13   1 82.0395 10.7397   6 
   1  12  -1 31.7634 5.38113   2 
  -1 -12   1 20.3878 7.58482   4 
   0  12  -1 37.0052 5.48666   2 
   0 -12   1 51.2406 9.14865   4 
  -1  12  -1 67.9706 6.30928   2 
   1 -12   1 57.0176 9.69790   6 
   1 -12   1 79.5023 10.1582   4 
  -2  12  -1 54.3176 6.10103   2 
  -2  12  -1 48.2896 8.95657  12 
   2 -12   1 51.4080 8.54777   4 
   2 -12   1 45.8591 8.58227   6 
  -3  12  -1 135.629 9.98794   2 
  -3  12  -1 131.614 12.6519  12 
   3 -12   1 150.063 12.0541   9 
   3 -12   1 142.087 12.6890   6 
   3 -12   1 126.682 10.8586   4 
  -4  12  -1 111.746 11.8552  12 
  -4  12  -1 122.361 10.0190   2 
   4 -12   1 117.337 11.7538  13 
   4 -12   1 125.605 11.9182   6 
   4 -12   1 106.090 10.6571   9 
  -5  12  -1 48.2816 10.0043  12 
  -5  12  -1 39.4737 7.81505   2 
   5 -12   1 41.4705 7.66520   9 
   5 -12   1 44.1223 8.32685  13 
   5 -12   1 52.1586 8.91655   6 
  -6  12  -1 8.12434 4.90190   2 
   6 -12   1 0.68642 3.84219   9 
   6 -12   1 11.9931 5.70198   6 
  -7  12  -1 68.5691 10.9652   2 
   7 -12   1 62.6244 9.72292   6 
   7 -12   1 51.3175 9.02493   9 
   2  11  -1 58.3829 6.83997   2 
  -2 -11   1 48.3965 9.52709   4 
   1  11  -1 40.6606 5.54752   2 
  -1 -11   1 35.6344 8.28227   4 
   0  11  -1 37.2596 6.30232   2 
   0  11  -1 38.6977 4.97488   2 
   0 -11   1 47.2513 8.60590   4 
  -1  11  -1 37.7674 4.80780   2 
  -1  11  -1 54.3268 9.15249  12 
  -1  11  -1 45.3202 5.20206   2 
   1 -11   1 50.9163 8.24880   4 
   1 -11   1 39.7892 7.63621   6 
  -2  11  -1 68.8359 8.42183  12 
  -2  11  -1 77.9137 6.82467   2 
   2 -11   1 65.5994 8.68300   6 
   2 -11   1 68.0429 8.41871   4 
  -3  11  -1 51.2468 8.33599  12 
  -3  11  -1 52.6796 6.68903   2 
   3 -11   1 50.5794 8.04074   6 
   3 -11   1 60.8166 7.91394   9 
   3 -11   1 73.4325 9.04543  13 
   3 -11   1 54.1275 6.89011   4 
  -4  11  -1 123.702 10.0347   2 
  -4  11  -1 140.523 12.4365  12 
   4 -11   1 138.893 11.8224  13 
   4 -11   1 136.801 9.73568   3 
   4 -11   1 150.248 12.1314   6 
   4 -11   1 137.285 11.3349   9 
  -5  11  -1 62.7189 9.52366  12 
  -5  11  -1 55.3258 8.00075   2 
   5 -11   1 50.1999 7.98880   9 
   5 -11   1 59.8006 8.22023  13 
   5 -11   1 55.0883 7.18230   3 
   5 -11   1 57.0180 8.25604   6 
  -6  11  -1 22.1036 6.38424   2 
  -6  11  -1 16.5644 6.60895  12 
   6 -11   1 10.3677 4.68227   9 
   6 -11   1 16.8299 5.50101   6 
   6 -11   1 19.7284 6.20250  13 
  -7  11  -1 50.4243 9.76671   2 
   7 -11   1 41.3979 8.34317   9 
   7 -11   1 36.0613 7.69601   6 
  -8  11  -1 44.1883 10.0669   2 
   8 -11   1 51.3849 5.42645  14 
   8 -11   1 50.3934 5.94815   5 
   8 -11   1 47.7542 5.13544  14 
   8 -11   1 30.9561 7.82288   6 
   8 -11   1 50.3874 5.98834   5 
   8 -11   1 54.9923 9.23641   9 
   4  10  -1 11.9230 4.74175   2 
  -4 -10   1 23.5585 8.20813   4 
   3  10  -1 48.8187 7.15904   2 
  -3 -10   1 38.4716 8.79340   4 
   2  10  -1 29.9728 5.40291   2 
  -2 -10   1 24.3422 7.32993   4 
   1  10  -1 10.2974 3.72626   2 
   1  10  -1 10.3122 3.26045   2 
   1  10  -1 12.2681 3.88584   2 
  -1 -10   1 17.2986 5.39931   4 
   0  10  -1 83.4894 6.29960   2 
   0  10  -1 81.9210 6.18193   2 
   0 -10   1 78.8255 9.22126   4 
  -1  10  -1 241.751 11.3045   2 
  -1  10  -1 225.200 11.1234   2 
  -1  10  -1 242.782 13.9329  12 
   1 -10   1 240.675 14.6700   6 
   1 -10   1 226.447 14.3175   4 
  -2  10  -1 159.295 9.38341   2 
  -2  10  -1 161.557 9.66240   2 
  -2  10  -1 182.516 12.3778  12 
   2 -10   1 184.499 12.4288   6 
   2 -10   1 189.615 12.0658   4 
   2 -10   1 178.562 12.0415   9 
  -3  10  -1 34.4813 5.35719   2 
  -3  10  -1 37.2474 6.85672  12 
   3 -10   1 38.0526 4.84620   3 
   3 -10   1 49.0658 6.94580   6 
   3 -10   1 27.1508 6.26522  13 
   3 -10   1 42.9628 6.32640   9 
   3 -10   1 27.8431 4.94951   4 
  -4  10  -1 54.3476 8.19177  12 
  -4  10  -1 45.1381 6.50506   2 
   4 -10   1 49.8797 7.22732  13 
   4 -10   1 52.8623 7.31518   9 
   4 -10   1 60.5661 7.62981   6 
   4 -10   1 48.9332 5.95706   4 
   4 -10   1 60.6292 6.41090   3 
  -5  10  -1 80.0182 9.80487  12 
  -5  10  -1 72.4045 8.67178   2 
   5 -10   1 67.8573 8.17688  13 
   5 -10   1 80.4128 8.53180   6 
   5 -10   1 70.9240 8.11680   9 
   5 -10   1 81.3131 7.91734   3 
  -6  10  -1 121.794 11.3745   2 
  -6  10  -1 108.276 12.0616  12 
   6 -10   1 96.3631 9.61363   6 
   6 -10   1 108.201 10.1071   9 
   6 -10   1 101.305 9.60313  13 
   6 -10   1 105.587 9.90796   3 
  -7  10  -1 51.2173 9.37178   2 
  -7  10  -1 52.5364 10.2398  12 
   7 -10   1 51.1622 8.20369   6 
   7 -10   1 58.0917 8.66698   9 
   7 -10   1 69.1198 5.74668  14 
   7 -10   1 60.4887 6.17178   5 
   7 -10   1 68.1268 6.51462   5 
  -8  10  -1 34.7016 7.84062   1 
  -8  10  -1 30.6392 8.38648   2 
   8 -10   1 42.5439 6.85957   5 
   8 -10   1 30.2382 7.21247   6 
   8 -10   1 35.6710 8.11856   9 
   5   9  -1 1.19365 3.80862   2 
  -5  -9   1 2.62685 5.28438   4 
   4   9  -1 36.0870 7.23446   2 
  -4  -9   1 30.1683 8.15510   4 
   3   9  -1 41.6995 6.24000   2 
  -3  -9   1 34.5899 7.85063   4 
   2   9  -1 81.9075 7.01825   2 
  -2  -9   1 67.5692 8.73404   4 
   1   9  -1 13.5846 3.26587   2 
   1   9  -1 15.0045 3.53168   2 
  -1  -9   1 29.5736 6.51102   4 
   0   9  -1 191.483 9.48112   2 
   0   9  -1 181.662 9.37611   2 
   0   9  -1 192.863 11.1474  12 
   0  -9   1 217.260 13.2140   6 
   0  -9   1 205.889 13.0250   4 
  -1   9  -1 222.170 12.6009  12 
  -1   9  -1 213.765 10.1687   2 
  -1   9  -1 209.658 10.1598   2 
   1  -9   1 227.407 13.1561   9 
   1  -9   1 203.730 12.6738   4 
   1  -9   1 209.280 12.8069   6 
  -2   9  -1 20.2413 3.59262   2 
  -2   9  -1 23.2367 3.78538   2 
  -2   9  -1 14.7306 4.07632  12 
   2  -9   1 8.13788 3.40272   9 
   2  -9   1 6.76518 2.98347   4 
   2  -9   1 7.79574 3.87284  13 
   2  -9   1 10.8827 3.81445   6 
  -3   9  -1 4.14048 2.45506   2 
  -3   9  -1 7.04978 3.53273  12 
   3  -9   1 11.0365 3.96080   6 
   3  -9   1 14.0652 3.33341   3 
   3  -9   1 16.1371 4.40677  13 
   3  -9   1 16.9445 4.40147   9 
   3  -9   1 14.0590 3.57405   4 
  -4   9  -1 229.708 15.1852  12 
  -4   9  -1 243.272 13.6911   2 
  -4   9  -1 251.813 13.9006   1 
   4  -9   1 267.347 14.5560   9 
   4  -9   1 262.798 13.3320   3 
   4  -9   1 248.781 14.1514   6 
   4  -9   1 265.626 12.2569   4 
   4  -9   1 276.358 14.7678  13 
  -5   9  -1 215.084 13.5109   2 
  -5   9  -1 207.992 14.5417  12 
  -5   9  -1 201.728 11.7036   1 
   5  -9   1 200.146 8.06412  14 
   5  -9   1 205.586 9.19970   5 
   5  -9   1 206.888 12.6202  13 
   5  -9   1 211.240 13.1211   9 
   5  -9   1 207.357 12.5844   3 
   5  -9   1 201.107 12.4929   6 
   5  -9   1 197.837 9.10010   5 
   5  -9   1 204.306 8.14201  14 
  -6   9  -1 16.8044 4.28457   7 
  -6   9  -1 32.6388 7.76262  12 
  -6   9  -1 27.0657 5.53856   1 
  -6   9  -1 15.2900 5.43907   2 
   6  -9   1 21.4693 4.15566   5 
   6  -9   1 17.2370 3.62172   5 
   6  -9   1 21.9014 5.47287   9 
   6  -9   1 19.8239 3.39445  14 
   6  -9   1 18.9292 4.86060  13 
   6  -9   1 15.5009 4.66447   3 
   6  -9   1 17.1618 4.92599   6 
  -7   9  -1 6.82248 3.97538   1 
  -7   9  -1 11.0115 4.90025   2 
  -7   9  -1 10.4781 5.66999  12 
  -7   9  -1 11.8676 4.21247   7 
   7  -9   1 7.36168 3.11661   5 
   7  -9   1 6.07857 4.16002   9 
   7  -9   1 10.4559 4.61114   6 
   7  -9   1 5.67584 4.15713   3 
   7  -9   1 6.11249 3.43446   5 
  -8   9  -1 21.4982 6.55362   1 
  -8   9  -1 22.3168 7.00387   2 
  -8   9  -1 13.9605 6.81555  12 
  -8   9  -1 21.1679 5.68725   7 
   8  -9   1 23.8914 6.60093   1 
   8  -9   1 21.1236 6.40734   9 
   8  -9   1 25.2790 5.90967   5 
   8  -9   1 31.1428 7.16965   6 
  -9   9  -1 10.3098 5.41829   1 
  -9   9  -1 7.88098 5.02490   7 
   9  -9   1 13.3277 5.70535   6 
   9  -9   1 12.8212 6.06309   9 
   9  -9   1 9.97886 5.11984   5 
   5   8  -1 20.0441 6.17992   2 
  -5  -8   1 21.6725 7.01729   4 
   4   8  -1 132.011 10.7123   2 
  -4  -8   1 121.749 12.1369   4 
  -4  -8   1 121.966 9.45572   3 
   3   8  -1 112.783 8.80956   2 
  -3  -8   1 107.017 10.3410   4 
   2   8  -1 24.7348 4.31583   2 
   2   8  -1 24.2060 4.31429   2 
  -2  -8   1 14.3494 4.63880   4 
   1   8  -1 113.562 7.07992  12 
   1   8  -1 107.853 6.84539   2 
   1   8  -1 99.5915 6.67853   2 
  -1  -8   1 106.367 9.37672   4 
   0   8  -1 542.250 19.8355   2 
   0   8  -1 548.736 19.8864   2 
   0   8  -1 559.590 21.7104  12 
   0  -8   1 527.974 23.1971   4 
   0  -8   1 540.860 23.0991   6 
  -1   8  -1 222.610 10.0511   2 
  -1   8  -1 217.569 11.8918  12 
  -1   8  -1 222.911 10.0046   2 
   1  -8   1 212.135 11.9824   9 
   1  -8   1 208.695 11.9540   4 
   1  -8   1 203.327 9.19597   3 
   1  -8   1 214.437 12.1424   6 
  -2   8  -1 106.280 6.03685   1 
  -2   8  -1 120.654 7.14173   2 
  -2   8  -1 120.339 8.74727  12 
  -2   8  -1 110.202 6.99250   2 
   2  -8   1 97.3267 6.05360   3 
   2  -8   1 101.285 7.58975   4 
   2  -8   1 107.201 8.18112   9 
   2  -8   1 107.924 6.52395   3 
   2  -8   1 98.8127 8.24032  13 
   2  -8   1 102.728 8.02440   6 
  -3   8  -1 126.144 7.90618   2 
  -3   8  -1 114.156 9.01067  12 
  -3   8  -1 112.999 7.70785   2 
  -3   8  -1 111.979 6.78524   1 
   3  -8   1 97.8386 6.94068   3 
   3  -8   1 95.1037 8.08755  13 
   3  -8   1 95.5266 7.82639   6 
   3  -8   1 101.210 6.91848   4 
   3  -8   1 106.870 8.22603   9 
  -4   8  -1 438.853 20.9049  12 
  -4   8  -1 437.698 17.8977   1 
  -4   8  -1 456.020 16.7638   7 
  -4   8  -1 446.226 21.2874   2 
  -4   8  -1 426.440 19.3427   2 
   4  -8   1 432.935 15.5816   5 
   4  -8   1 417.062 18.5542   3 
   4  -8   1 442.276 14.7156  14 
   4  -8   1 446.454 19.6775   9 
   4  -8   1 414.859 14.6308  14 
   4  -8   1 435.639 19.1185   6 
   4  -8   1 427.658 16.7405   4 
   4  -8   1 432.300 19.1839  13 
   4  -8   1 433.084 15.5663   5 
  -5   8  -1 119.467 8.59821   1 
  -5   8  -1 130.210 10.9032  12 
  -5   8  -1 123.946 7.95188   7 
  -5   8  -1 126.852 10.1002   2 
   5  -8   1 145.681 9.85631   6 
   5  -8   1 138.403 7.92161   5 
   5  -8   1 129.119 7.05640  14 
   5  -8   1 129.988 6.32517   1 
   5  -8   1 139.657 9.80049   3 
   5  -8   1 128.959 9.08460  13 
   5  -8   1 128.122 7.58121   5 
   5  -8   1 137.404 9.89847   9 
  -6   8  -1 19.0249 5.80509  12 
  -6   8  -1 21.7783 4.45044   7 
  -6   8  -1 19.4419 4.44568   1 
  -6   8  -1 17.2724 5.34796   2 
   6  -8   1 24.4389 5.77028   9 
   6  -8   1 20.0454 5.35565   3 
   6  -8   1 18.3826 4.67035   6 
   6  -8   1 19.3141 4.55776  13 
   6  -8   1 20.1998 3.88450   5 
   6  -8   1 17.9527 4.12045   5 
   6  -8   1 24.1040 3.86649  14 
   6  -8   1 21.5343 3.60658   1 
  -7   8  -1 22.7506 6.77627  12 
  -7   8  -1 26.5368 6.94007   2 
  -7   8  -1 18.0332 5.01544   1 
  -7   8  -1 26.8596 5.46611   7 
   7  -8   1 14.7891 4.83440   6 
   7  -8   1 21.4604 5.26278   5 
   7  -8   1 10.9425 4.61362   3 
   7  -8   1 15.9781 4.23727   1 
   7  -8   1 22.5434 5.26482  13 
  -8   8  -1 22.8184 7.64771  12 
  -8   8  -1 29.0289 6.63545   1 
  -8   8  -1 37.0192 7.20374   7 
  -8   8  -1 20.1624 6.75236   2 
   8  -8   1 27.0835 6.06303   5 
   8  -8   1 33.6217 6.92452   6 
   8  -8   1 21.5854 6.41704   3 
   8  -8   1 29.7755 6.08607   1 
  -9   8  -1 7.15576 5.08804   1 
  -9   8  -1 3.93245 4.38469   7 
   9  -8   1 3.48590 4.35408   6 
   9  -8   1 1.08888 3.86416   1 
   6   7  -1 14.3431 5.56833   2 
  -6  -7   1 15.4378 6.37025   4 
   5   7  -1 13.4508 4.84100   2 
  -5  -7   1 18.4437 5.92952   4 
  -5  -7   1 16.5840 4.77387   3 
   4   7  -1 55.2637 7.20356   2 
  -4  -7   1 57.7606 8.03843   4 
  -4  -7   1 50.1285 6.23017   3 
   3   7  -1 120.278 8.75028   2 
  -3  -7   1 138.567 10.8128   4 
   2   7  -1 74.4009 6.11218   2 
   2   7  -1 75.7139 4.86453  12 
   2   7  -1 70.1734 5.89756   2 
  -2  -7   1 75.9891 7.65059   4 
   1   7  -1 244.511 11.2894   2 
   1   7  -1 263.771 10.7126   1 
   1   7  -1 247.929 11.4185  12 
   1   7  -1 255.231 11.3987   2 
  -1  -7   1 298.748 14.6520   4 
  -1  -7   1 290.772 11.2812   3 
   0   7  -1 606.197 19.8940   1 
   0   7  -1 587.136 22.0419  12 
   0   7  -1 589.642 20.7105   2 
   0   7  -1 563.327 20.4636   2 
   0  -7   1 569.984 23.1729   6 
   0  -7   1 593.043 20.2518   3 
   0  -7   1 593.907 23.6339   4 
  -1   7  -1 152.074 7.53254   2 
  -1   7  -1 153.774 6.80376   8 
  -1   7  -1 157.972 7.59926   2 
  -1   7  -1 161.680 5.80950  11 
  -1   7  -1 146.955 8.81911  12 
  -1   7  -1 155.687 6.75417   1 
   1  -7   1 154.432 9.66948  13 
   1  -7   1 145.907 9.09638   9 
   1  -7   1 136.538 8.87230   6 
   1  -7   1 132.208 6.71956   3 
   1  -7   1 132.476 8.64405   4 
  -2   7  -1 62.5517 4.31371   1 
  -2   7  -1 52.0054 4.75824   2 
  -2   7  -1 50.3098 5.63626  12 
  -2   7  -1 61.2680 4.92497   2 
  -2   7  -1 59.0450 4.43620   8 
   2  -7   1 62.6066 5.70668   6 
   2  -7   1 64.9954 5.32789   4 
   2  -7   1 77.8379 5.07052   3 
   2  -7   1 80.0710 6.42381   9 
   2  -7   1 75.3594 6.32596  13 
   2  -7   1 77.6533 5.51097   3 
  -3   7  -1 554.605 20.5708   1 
  -3   7  -1 563.100 21.8230   2 
  -3   7  -1 546.317 21.7572   2 
  -3   7  -1 547.152 23.2857  12 
  -3   7  -1 578.589 19.4974   3 
   3  -7   1 586.796 21.2372   3 
   3  -7   1 584.983 22.4902  13 
   3  -7   1 554.708 22.3917   9 
   3  -7   1 579.021 22.2377   6 
   3  -7   1 551.209 20.4675   4 
   3  -7   1 540.799 21.1667   3 
  -4   7  -1 670.166 27.5591  12 
  -4   7  -1 654.407 23.8009   7 
  -4   7  -1 676.105 26.2588   2 
  -4   7  -1 669.047 24.9590   1 
  -4   7  -1 639.906 26.2795   2 
  -4   7  -1 673.757 24.1212   3 
   4  -7   1 667.727 25.7023   3 
   4  -7   1 675.667 23.4928   5 
   4  -7   1 699.837 26.4509   9 
   4  -7   1 655.879 22.8320  14 
   4  -7   1 674.731 25.7978   6 
   4  -7   1 655.420 23.5160   5 
   4  -7   1 703.031 26.3984   3 
   4  -7   1 682.954 25.5984  13 
   4  -7   1 656.176 22.2235   1 
   4  -7   1 671.236 22.8754   4 
  -5   7  -1 114.082 7.53352   7 
  -5   7  -1 113.953 9.26279   2 
  -5   7  -1 112.122 9.63891  12 
  -5   7  -1 107.610 7.98963   1 
   5  -7   1 120.587 9.10341   9 
   5  -7   1 117.531 7.29422   5 
   5  -7   1 116.627 8.46829   6 
   5  -7   1 106.614 6.69813   1 
   5  -7   1 105.738 7.47659   5 
   5  -7   1 112.875 6.82932  14 
   5  -7   1 108.158 8.60042   3 
   5  -7   1 110.233 7.93986  13 
  -6   7  -1 19.6237 5.32866  12 
  -6   7  -1 25.6729 4.57126   7 
  -6   7  -1 25.7461 6.08377   2 
  -6   7  -1 28.4534 5.29017   1 
   6  -7   1 24.9607 4.21147   5 
   6  -7   1 33.2206 4.94180  13 
   6  -7   1 24.9415 4.39768   1 
   6  -7   1 25.1997 4.88683   5 
   6  -7   1 28.4484 5.34707   6 
   6  -7   1 29.7502 6.15449   3 
  -7   7  -1 52.4288 7.20661   1 
  -7   7  -1 41.3491 6.29162   7 
  -7   7  -1 60.6098 8.59327  12 
  -7   7  -1 44.7732 7.97357   2 
   7  -7   1 41.8794 6.61936   6 
   7  -7   1 36.6521 5.62285  13 
   7  -7   1 39.4779 7.39159   3 
   7  -7   1 50.0255 6.78925   5 
   7  -7   1 49.8917 6.33389   1 
  -8   7  -1 137.864 12.0229   1 
  -8   7  -1 120.033 10.9462   7 
  -8   7  -1 147.444 13.6656   2 
   8  -7   1 128.627 12.3642   3 
   8  -7   1 141.214 11.5404   5 
   8  -7   1 138.181 10.9397   1 
   8  -7   1 139.979 11.8136   6 
  -9   7  -1 32.5797 7.44604   7 
  -9   7  -1 36.6688 8.22707   1 
   9  -7   1 30.3220 7.54667   6 
   9  -7   1 40.4042 8.01908   1 
   7   6  -1 18.6021 7.16702   2 
  -7  -6   1 24.6691 7.53388   4 
   6   6  -1 5.56344 4.56090   2 
  -6  -6   1 12.9447 5.46468   4 
   5   6  -1 28.4934 6.76796   2 
  -5  -6   1 29.9896 5.86659   3 
  -5  -6   1 27.0747 6.05702   4 
   4   6  -1 82.1055 7.87222   2 
   4   6  -1 71.4375 6.72312   1 
  -4  -6   1 79.9660 7.19380   3 
  -4  -6   1 83.1073 8.76728   4 
   3   6  -1 52.3342 5.73518   2 
   3   6  -1 59.6001 5.23477   1 
   3   6  -1 53.5765 5.77183   2 
  -3  -6   1 38.9685 5.89753   4 
   2   6  -1 118.790 7.47983   2 
   2   6  -1 118.411 5.91732  12 
   2   6  -1 120.335 7.36766   2 
   2   6  -1 126.119 6.77081   1 
  -2  -6   1 130.709 9.06665   4 
   1   6  -1 103.161 5.25884   1 
   1   6  -1 99.1063 5.65849  12 
   1   6  -1 96.1171 5.72140   2 
   1   6  -1 103.624 5.91088   2 
  -1  -6   1 97.4414 7.48966   4 
  -1  -6   1 88.2958 5.19834   3 
   0   6  -1 387.058 14.0513   2 
   0   6  -1 400.740 13.4536   1 
   0   6  -1 390.719 14.1179   2 
   0   6  -1 396.283 15.2782  12 
   0  -6   1 371.778 15.9678   6 
   0  -6   1 369.657 16.1593   9 
   0  -6   1 372.328 16.2486   4 
   0  -6   1 361.944 13.6135   3 
  -1   6  -1 113.285 6.22223   2 
  -1   6  -1 113.625 5.54215   1 
  -1   6  -1 119.333 7.35395  12 
  -1   6  -1 110.775 6.19379   2 
  -1   6  -1 118.657 5.61431   8 
   1  -6   1 138.949 7.73395   6 
   1  -6   1 137.193 7.59817   4 
   1  -6   1 127.813 7.69537   9 
   1  -6   1 133.683 6.22776   3 
   1  -6   1 138.405 6.11079   3 
   1  -6   1 139.682 8.13915  13 
  -2   6  -1 119.233 7.76680  12 
  -2   6  -1 113.993 6.62664   2 
  -2   6  -1 114.164 5.10983   3 
  -2   6  -1 129.681 6.42956   8 
  -2   6  -1 118.272 5.92059   1 
  -2   6  -1 113.916 6.64032   2 
   2  -6   1 117.152 7.16957   6 
   2  -6   1 115.890 6.45373   3 
   2  -6   1 113.014 7.30355  13 
   2  -6   1 120.136 6.65875   4 
   2  -6   1 123.741 7.49910   9 
  -3   6  -1 356.926 13.9852   1 
  -3   6  -1 338.407 15.7654  12 
  -3   6  -1 339.876 13.0205   7 
  -3   6  -1 339.685 14.9154   2 
  -3   6  -1 343.364 13.3740   3 
  -3   6  -1 347.012 14.8188   2 
   3  -6   1 344.528 14.6442   6 
   3  -6   1 343.886 13.0795   4 
   3  -6   1 333.056 14.0792   3 
   3  -6   1 351.369 14.6303  13 
   3  -6   1 322.737 14.8145   9 
   3  -6   1 342.549 12.8822   5 
   3  -6   1 337.144 12.4304  14 
   3  -6   1 364.634 13.1756   5 
   3  -6   1 361.397 12.9994   1 
   3  -6   1 341.239 12.0038   1 
   3  -6   1 332.935 14.3207   3 
  -4   6  -1 314.812 14.9549   2 
  -4   6  -1 318.406 13.2286   7 
  -4   6  -1 307.974 13.5299   3 
  -4   6  -1 311.448 15.0710   2 
  -4   6  -1 293.894 13.6406   1 
  -4   6  -1 324.625 15.7835  12 
   4  -6   1 322.943 12.7113   1 
   4  -6   1 334.116 14.4273   6 
   4  -6   1 308.468 14.4442   3 
   4  -6   1 317.404 11.2210   4 
   4  -6   1 322.770 12.7083   1 
   4  -6   1 332.357 13.5385   5 
   4  -6   1 319.836 14.2627   3 
   4  -6   1 301.714 12.5908  14 
   4  -6   1 303.130 13.0566   5 
   4  -6   1 318.884 13.9297  13 
   4  -6   1 305.001 14.6582   9 
  -5   6  -1 40.8396 5.19373   1 
  -5   6  -1 46.0292 5.21924   3 
  -5   6  -1 46.7277 6.21150   2 
  -5   6  -1 51.5381 6.60143  12 
  -5   6  -1 48.1349 5.07400   7 
   5  -6   1 61.5274 6.40215   3 
   5  -6   1 66.2253 5.51360   5 
   5  -6   1 65.6396 5.48972   1 
   5  -6   1 60.8182 5.51424  13 
   5  -6   1 65.5405 5.20059  14 
   5  -6   1 62.9146 5.96482   6 
   5  -6   1 58.8234 5.89851   3 
   5  -6   1 60.6849 5.80955   5 
  -6   6  -1 16.4727 4.56561   2 
  -6   6  -1 24.2368 4.79340   3 
  -6   6  -1 29.8172 6.16355  12 
  -6   6  -1 22.1552 4.31071   7 
  -6   6  -1 24.5982 4.96995   1 
   6  -6   1 23.8472 4.18841   5 
   6  -6   1 32.1522 4.97286   1 
   6  -6   1 31.1631 5.31637   6 
   6  -6   1 27.9186 5.08868   5 
   6  -6   1 17.4803 3.95404  13 
   6  -6   1 28.2607 5.82334   3 
  -7   6  -1 159.507 11.0575   7 
  -7   6  -1 178.211 13.4658   2 
  -7   6  -1 166.103 11.7027   1 
  -7   6  -1 175.711 13.1735  12 
   7  -6   1 154.057 11.4180   5 
   7  -6   1 172.554 11.3518   1 
   7  -6   1 152.318 9.89765  13 
   7  -6   1 174.098 12.8129   3 
  -8   6  -1 88.1102 9.60889   7 
  -8   6  -1 57.5306 8.49832   1 
   8  -6   1 83.5512 10.4959   3 
   8  -6   1 94.6862 9.37331   1 
  -9   6  -1 10.7010 5.61520   1 
  -9   6  -1 14.4933 5.50290   7 
   9  -6   1 17.1435 5.96622   1 
   9  -6   1 15.1437 6.51440   3 
   7   5  -1 68.5820 10.6132   2 
  -7  -5   1 52.6278 5.82093  14 
  -7  -5   1 50.7896 6.42427   5 
  -7  -5   1 42.5982 5.51131  14 
  -7  -5   1 46.5244 8.49039   4 
  -7  -5   1 48.3120 6.12389   5 
   6   5  -1 25.6440 6.69242   2 
   6   5  -1 23.9891 5.51536   1 
  -6  -5   1 13.0886 3.20540  14 
  -6  -5   1 27.6363 6.54189   4 
  -6  -5   1 21.8188 4.77404   7 
  -6  -5   1 16.3023 4.09172   5 
  -6  -5   1 21.3663 4.34963   5 
  -6  -5   1 22.2779 3.80671  14 
  -6  -5   1 17.4684 5.08838   3 
   5   5  -1 28.8399 5.54133   1 
   5   5  -1 29.2407 6.40343   2 
  -5  -5   1 26.9093 3.49816  14 
  -5  -5   1 32.1202 4.67515   7 
  -5  -5   1 37.0875 4.44704   5 
  -5  -5   1 30.3839 3.70898  14 
  -5  -5   1 27.7422 6.05679   4 
  -5  -5   1 41.9631 4.60011   5 
  -5  -5   1 29.5908 5.45634   3 
   4   5  -1 137.378 9.66119   2 
   4   5  -1 139.416 8.82025   1 
  -4  -5   1 133.250 7.84154  10 
  -4  -5   1 142.494 7.91491   7 
  -4  -5   1 130.239 6.37286  14 
  -4  -5   1 136.694 7.31010  11 
  -4  -5   1 134.405 7.15341   5 
  -4  -5   1 138.803 7.18866   5 
  -4  -5   1 135.028 6.50878  14 
  -4  -5   1 138.025 9.07206   3 
  -4  -5   1 137.857 9.95124   4 
   3   5  -1 266.079 10.4722   3 
   3   5  -1 285.216 11.9744   1 
   3   5  -1 241.858 12.3784   2 
   3   5  -1 264.818 12.8137   2 
  -3  -5   1 252.609 9.10965  14 
  -3  -5   1 252.852 9.73635   5 
  -3  -5   1 250.317 9.81869  11 
  -3  -5   1 244.985 11.8421   3 
  -3  -5   1 245.741 11.4728  10 
  -3  -5   1 247.777 13.2867   4 
  -3  -5   1 253.913 9.85920   5 
  -3  -5   1 255.169 10.5907   7 
  -3  -5   1 237.090 8.92546  14 
   2   5  -1 209.005 10.1842   2 
   2   5  -1 229.519 10.5070   2 
   2   5  -1 220.509 9.51299   1 
   2   5  -1 217.906 8.19831   3 
   2   5  -1 216.607 8.43719  12 
  -2  -5   1 221.695 11.5883   4 
  -2  -5   1 220.729 8.53718   7 
   1   5  -1 793.520 27.2805   2 
   1   5  -1 852.411 27.5971   2 
   1   5  -1 826.587 26.6325   1 
   1   5  -1 809.687 26.9971  12 
  -1  -5   1 821.606 27.0434   3 
  -1  -5   1 821.929 29.4103   4 
   0   5  -1 777.679 24.2224   1 
   0   5  -1 783.596 25.8869  12 
   0   5  -1 775.477 24.9410   2 
   0   5  -1 775.586 24.9452   2 
   0  -5   1 738.113 26.7507   9 
   0  -5   1 727.917 26.5399   6 
   0  -5   1 736.779 26.7257   4 
   0  -5   1 741.114 24.5394   3 
  -1   5  -1 103.234 4.29250   3 
  -1   5  -1 103.867 5.06623   8 
  -1   5  -1 100.166 5.00182   1 
  -1   5  -1 104.131 6.43281  12 
  -1   5  -1 112.188 5.75225   2 
  -1   5  -1 100.776 5.58241   2 
   1  -5   1 130.736 5.75135   3 
   1  -5   1 136.871 6.80246   4 
   1  -5   1 122.639 6.88781   9 
   1  -5   1 126.367 5.61363   3 
   1  -5   1 135.434 6.84316   6 
   1  -5   1 129.756 7.01643  13 
  -2   5  -1 287.341 11.2176   1 
  -2   5  -1 280.128 10.8946   3 
  -2   5  -1 273.541 11.8036   2 
  -2   5  -1 288.996 12.9333  12 
  -2   5  -1 278.560 10.4379   7 
  -2   5  -1 267.624 11.8239   2 
   2  -5   1 288.993 11.9940   6 
   2  -5   1 298.961 10.2526  14 
   2  -5   1 301.467 9.78928   1 
   2  -5   1 291.028 12.1695  13 
   2  -5   1 297.768 11.3680   4 
   2  -5   1 292.681 10.5458   5 
   2  -5   1 290.710 11.6886   3 
   2  -5   1 294.429 10.2492  14 
   2  -5   1 299.425 10.6073   5 
   2  -5   1 300.507 11.7089   3 
   2  -5   1 292.464 12.5413   9 
  -3   5  -1 1064.28 36.1556  12 
  -3   5  -1 1056.64 33.4808   7 
  -3   5  -1 1015.98 35.2453   2 
  -3   5  -1 1068.94 34.0949   3 
  -3   5  -1 1064.94 35.2607   2 
  -3   5  -1 1040.16 34.1803   1 
   3  -5   1 1017.70 33.6981   5 
   3  -5   1 1001.97 34.2132  13 
   3  -5   1 1007.35 33.1098  14 
   3  -5   1 1023.57 33.0758   1 
   3  -5   1 997.791 34.4202   3 
   3  -5   1 1061.26 34.6584   2 
   3  -5   1 985.330 34.3735   6 
   3  -5   1 997.213 34.6291   3 
   3  -5   1 994.960 32.3454   4 
   3  -5   1 994.163 33.4628   5 
   3  -5   1 968.958 35.0166   9 
   3  -5   1 1024.68 33.1577   1 
  -4   5  -1 788.845 29.7440   2 
  -4   5  -1 815.887 28.5175   3 
  -4   5  -1 799.975 28.4147   1 
  -4   5  -1 836.704 28.7511   5 
  -4   5  -1 796.801 30.0175  12 
  -4   5  -1 783.553 27.6630   7 
  -4   5  -1 813.270 29.7455   2 
  -4   5  -1 820.362 28.2678  14 
   4  -5   1 761.705 27.6893   5 
   4  -5   1 791.145 28.8008   3 
   4  -5   1 770.791 28.9621   3 
   4  -5   1 798.136 28.3099   6 
   4  -5   1 778.811 27.5625   1 
   4  -5   1 799.358 29.0925   2 
   4  -5   1 770.110 27.3325  14 
   4  -5   1 789.563 28.0793   5 
   4  -5   1 778.801 27.6047  13 
  -5   5  -1 5.40231 3.21145  12 
  -5   5  -1 2.74319 2.30902   5 
  -5   5  -1 5.96015 2.78756  14 
  -5   5  -1 2.96633 2.18763   7 
  -5   5  -1 5.60019 2.85365   2 
  -5   5  -1 3.88123 2.22333   1 
  -5   5  -1 5.19107 2.58051   3 
   5  -5   1 20.1207 3.38970  13 
   5  -5   1 17.3477 3.63368   1 
   5  -5   1 10.9302 2.59440   5 
   5  -5   1 12.1874 3.14118   5 
   5  -5   1 18.2687 4.21893   3 
   5  -5   1 16.4842 3.08170  14 
  -6   5  -1 26.4306 4.67557   7 
  -6   5  -1 26.2130 5.67003  12 
  -6   5  -1 31.9251 5.31264   3 
  -6   5  -1 30.1450 5.22346   1 
  -6   5  -1 34.1543 5.94529   2 
   6  -5   1 22.8766 3.94226  13 
   6  -5   1 20.0857 4.78455   3 
   6  -5   1 21.0664 4.48599   1 
   6  -5   1 27.1300 5.20785   5 
  -7   5  -1 137.844 10.5575   1 
  -7   5  -1 132.860 10.0381   7 
  -7   5  -1 130.444 10.6564   3 
  -7   5  -1 144.245 11.9111   2 
   7  -5   1 136.792 11.4747   3 
   7  -5   1 145.352 10.3869   1 
   7  -5   1 133.965 9.05833  13 
   7  -5   1 144.037 10.9797   5 
  -8   5  -1 96.4453 10.0569   1 
  -8   5  -1 98.2921 9.93481   7 
   8  -5   1 77.2333 10.0346   3 
   8  -5   1 94.3852 9.65406   1 
  -9   5  -1 4.35414 4.73962   7 
  -9   5  -1 -1.4321 3.72202   1 
   9  -5   1 3.03608 4.45513   1 
   9  -5   1 3.43210 4.79531   3 
 -10   5  -1 2.40170 5.43152   7 
   8   4  -1 4.75267 4.91351   1 
   8   4  -1 12.3163 6.21223   2 
  -8  -4   1 11.4113 4.27337  14 
  -8  -4   1 16.2932 5.02026   5 
   7   4  -1 22.1651 6.05029   1 
   7   4  -1 23.5197 6.93247   2 
  -7  -4   1 22.2786 4.58334  14 
  -7  -4   1 23.6297 5.27673   5 
  -7  -4   1 26.4329 5.81288   7 
  -7  -4   1 25.3484 6.21078   4 
  -7  -4   1 18.9232 5.72274   3 
   6   4  -1 47.8883 8.06982   2 
   6   4  -1 45.6913 7.02403   1 
  -6  -4   1 51.7171 5.68135  14 
  -6  -4   1 43.9828 5.99513   7 
  -6  -4   1 51.6541 7.20217   3 
  -6  -4   1 47.6164 7.00680   4 
  -6  -4   1 51.0467 6.12761   5 
  -6  -4   1 48.3263 5.68918   5 
  -6  -4   1 47.2518 5.42228  14 
  -6  -4   1 51.4691 4.95189   1 
   5   4  -1 41.5498 6.66233   2 
   5   4  -1 44.0381 5.94512   1 
  -5  -4   1 53.2796 4.42666   1 
  -5  -4   1 58.3536 6.55348   3 
  -5  -4   1 43.5753 4.98786   5 
  -5  -4   1 48.3145 4.52689  14 
  -5  -4   1 46.3906 5.25916   7 
  -5  -4   1 39.6458 6.03933   4 
  -5  -4   1 45.6135 4.14396  10 
  -5  -4   1 49.1349 4.84635  14 
  -5  -4   1 46.5559 4.92536   5 
   4   4  -1 204.505 11.6083   2 
   4   4  -1 205.287 9.86965   3 
   4   4  -1 196.741 10.2705   1 
   4   4  -1 190.015 11.1885   2 
  -4  -4   1 181.020 9.35100   7 
  -4  -4   1 191.223 11.1080   4 
  -4  -4   1 185.144 9.09563   5 
  -4  -4   1 182.850 9.11874   5 
  -4  -4   1 181.515 8.78958  10 
  -4  -4   1 174.088 8.57101  14 
  -4  -4   1 188.036 8.29637   1 
  -4  -4   1 175.534 8.54720  14 
  -4  -4   1 178.009 10.3959   3 
   3   4  -1 225.586 10.0999  10 
   3   4  -1 213.360 11.2180   2 
   3   4  -1 215.670 11.1135   2 
   3   4  -1 220.713 10.4488   1 
   3   4  -1 214.563 9.76554   3 
  -3  -4   1 234.598 8.65543   1 
  -3  -4   1 229.029 9.17673  14 
  -3  -4   1 232.966 10.0378  10 
  -3  -4   1 226.140 9.44743   5 
  -3  -4   1 229.093 9.69667   7 
  -3  -4   1 225.044 9.21589   1 
  -3  -4   1 226.947 10.7950   3 
  -3  -4   1 229.323 9.09809  14 
  -3  -4   1 229.367 9.65682   5 
  -3  -4   1 236.585 11.8312   4 
   2   4  -1 386.457 13.5222   3 
   2   4  -1 375.501 12.4744  12 
   2   4  -1 376.775 14.8180   2 
   2   4  -1 385.677 14.0821   1 
   2   4  -1 401.634 14.6502  10 
   2   4  -1 390.327 15.0058   2 
  -2  -4   1 349.278 16.0813   3 
  -2  -4   1 389.515 14.4245  10 
  -2  -4   1 358.081 12.5589  14 
  -2  -4   1 367.947 13.0968   5 
  -2  -4   1 363.185 13.1748   7 
  -2  -4   1 375.297 12.7149  14 
  -2  -4   1 360.745 15.5437   4 
  -2  -4   1 358.918 12.9413   5 
   1   4  -1 258.721 9.81481  12 
   1   4  -1 258.932 10.4267   2 
   1   4  -1 265.105 9.89184   1 
   1   4  -1 268.282 11.1379  10 
   1   4  -1 264.286 9.30923   3 
   1   4  -1 268.424 10.5734   2 
  -1  -4   1 290.745 9.12592   7 
  -1  -4   1 287.154 12.0204   4 
   0   4  -1 357.495 13.0600   2 
   0   4  -1 363.205 13.0058   2 
   0   4  -1 372.187 13.6154  12 
   0   4  -1 373.745 11.9399   3 
   0   4  -1 361.508 12.4944   1 
   0   4  -1 385.254 14.7784  13 
   0   4  -1 368.079 11.9043   3 
   0   4  -1 370.362 14.2362  10 
   0   4  -1 376.061 12.4461   1 
   0  -4   1 373.315 14.3861   4 
   0  -4   1 387.646 12.9068   3 
   0  -4   1 378.406 14.2441   6 
   0  -4   1 393.077 13.7373  12 
   0  -4   1 377.260 14.5821   9 
  -1   4  -1 468.462 15.9143   2 
  -1   4  -1 458.543 14.9925   3 
  -1   4  -1 439.454 15.1260   1 
  -1   4  -1 459.987 16.8112  12 
  -1   4  -1 461.625 15.0614   3 
  -1   4  -1 440.229 15.8023   2 
  -1   4  -1 487.220 16.7413  13 
  -1   4  -1 459.375 15.3061   8 
   1  -4   1 460.854 16.1829   4 
   1  -4   1 434.114 16.1640   6 
   1  -4   1 436.882 15.5671   3 
   1  -4   1 449.734 14.3728  14 
   1  -4   1 455.344 14.4100  14 
   1  -4   1 454.527 16.5450  13 
   1  -4   1 432.399 16.5335   9 
   1  -4   1 450.775 14.6696   5 
   1  -4   1 447.941 14.6860   5 
   1  -4   1 460.916 16.6767  12 
  -2   4  -1 747.018 25.6204   2 
  -2   4  -1 744.767 24.8042   3 
  -2   4  -1 765.527 25.5942   2 
  -2   4  -1 754.375 24.2425   7 
  -2   4  -1 768.611 24.8896   3 
  -2   4  -1 780.005 26.4199  12 
  -2   4  -1 768.489 25.1430  13 
  -2   4  -1 766.820 24.8526   1 
   2  -4   1 709.426 25.0871   3 
   2  -4   1 755.431 24.2464  14 
   2  -4   1 739.692 24.5774   5 
   2  -4   1 758.503 24.1766   1 
   2  -4   1 767.384 25.1942   2 
   2  -4   1 752.345 25.1597  13 
   2  -4   1 704.234 24.9823   6 
   2  -4   1 722.756 25.0595   3 
   2  -4   1 718.856 24.0706   1 
   2  -4   1 745.975 25.8992   9 
   2  -4   1 717.000 24.0695   4 
   2  -4   1 739.641 24.5123   5 
  -3   4  -1 962.993 34.9994  12 
  -3   4  -1 1024.33 33.7301  14 
  -3   4  -1 1013.34 33.3787   7 
  -3   4  -1 985.806 33.7988   1 
  -3   4  -1 986.217 33.9590   3 
  -3   4  -1 967.044 34.7780   2 
  -3   4  -1 1019.89 34.9747   2 
  -3   4  -1 1034.62 34.0930   5 
   3  -4   1 1035.72 33.8545   5 
   3  -4   1 1027.85 33.7268   5 
   3  -4   1 1033.81 33.9159   6 
   3  -4   1 1028.79 31.3169   4 
   3  -4   1 1005.74 33.4440   1 
   3  -4   1 1038.56 34.3632   3 
   3  -4   1 1052.31 34.7044   2 
   3  -4   1 1060.35 33.4242  14 
   3  -4   1 1023.54 34.5050   3 
   3  -4   1 1014.92 33.3157  13 
  -4   4  -1 178.172 10.4556  12 
  -4   4  -1 192.735 9.44178   7 
  -4   4  -1 179.491 10.5738   2 
  -4   4  -1 197.772 10.6972   2 
  -4   4  -1 199.765 9.98238   5 
  -4   4  -1 186.907 9.92500   3 
  -4   4  -1 185.591 9.50012  14 
  -4   4  -1 181.684 9.66706   1 
   4  -4   1 201.543 9.62245   1 
   4  -4   1 197.900 9.65232   5 
   4  -4   1 202.090 10.5056   3 
   4  -4   1 202.548 10.2947   3 
   4  -4   1 198.726 9.98629   5 
   4  -4   1 194.448 8.97260  13 
   4  -4   1 202.725 9.38934  14 
  -5   4  -1 73.6499 6.72372   3 
  -5   4  -1 82.6358 6.36072   7 
  -5   4  -1 74.6252 6.47333   1 
  -5   4  -1 80.0744 7.32808   2 
  -5   4  -1 81.1959 6.54623   5 
  -5   4  -1 64.8227 6.65371  12 
  -5   4  -1 81.4298 6.42989  14 
   5  -4   1 90.1920 7.41911   3 
   5  -4   1 84.3682 6.48553   1 
   5  -4   1 84.3699 7.13510   2 
   5  -4   1 94.6185 7.16000   5 
   5  -4   1 84.9126 6.40135   5 
  -6   4  -1 177.322 10.6475   7 
  -6   4  -1 184.393 11.6223   3 
  -6   4  -1 175.852 12.1616   2 
  -6   4  -1 167.908 10.8314   1 
  -6   4  -1 167.018 11.9835  14 
   6  -4   1 178.978 11.8040   3 
   6  -4   1 165.496 11.0883   5 
   6  -4   1 174.519 10.7339   1 
  -7   4  -1 159.917 11.1456   7 
  -7   4  -1 159.648 11.4600   1 
  -7   4  -1 189.821 12.9613   3 
   7  -4   1 167.071 12.5214   3 
   7  -4   1 177.908 11.8931   1 
  -8   4  -1 54.5288 8.39696   3 
  -8   4  -1 56.5778 7.96613   7 
  -8   4  -1 44.3394 7.67906   1 
   8  -4   1 49.7103 8.70145   3 
   8  -4   1 65.9201 8.57135   1 
  -9   4  -1 -0.6761 4.07699   1 
  -9   4  -1 4.80590 5.09438   7 
   9  -4   1 2.11869 4.83576   3 
   9  -4   1 -0.2288 3.91889   1 
 -10   4  -1 10.3333 6.47666   7 
   8   3  -1 8.32110 5.69504   2 
   8   3  -1 14.9840 5.96273   1 
  -8  -3   1 13.3924 4.99193   5 
  -8  -3   1 11.7642 4.42734  14 
  -8  -3   1 6.49289 4.48098   7 
  -8  -3   1 10.6121 3.91045   1 
   7   3  -1 47.6744 8.90710   2 
   7   3  -1 54.0669 8.34878   1 
  -7  -3   1 48.4948 6.96185   5 
  -7  -3   1 56.3547 7.12815   4 
  -7  -3   1 52.8698 7.28962   7 
  -7  -3   1 44.9287 7.63319   3 
  -7  -3   1 46.9306 6.23004   1 
  -7  -3   1 49.8082 6.44731  14 
   6   3  -1 23.5032 5.26316   1 
   6   3  -1 33.9295 6.90906   2 
  -6  -3   1 53.2290 6.00854   7 
  -6  -3   1 34.4975 5.34180   5 
  -6  -3   1 32.6514 5.05172  14 
  -6  -3   1 30.0126 5.31497   4 
  -6  -3   1 36.7793 5.05056   1 
  -6  -3   1 35.4988 6.08597   3 
  -6  -3   1 27.6258 4.87855   5 
   5   3  -1 66.2445 7.54223   2 
   5   3  -1 82.6318 7.34457   1 
   5   3  -1 79.3890 6.86727   3 
  -5  -3   1 87.6384 6.73930   5 
  -5  -3   1 76.2295 7.00344   4 
  -5  -3   1 94.7809 6.82534   5 
  -5  -3   1 96.2519 7.77882   3 
  -5  -3   1 89.3058 6.29322  14 
  -5  -3   1 96.0205 6.57153  14 
  -5  -3   1 93.0047 5.24890  10 
  -5  -3   1 87.6413 6.81397   7 
  -5  -3   1 84.8791 6.15627   1 
   4   3  -1 362.301 16.3063   2 
   4   3  -1 373.915 16.5225   2 
   4   3  -1 368.157 14.9952   3 
   4   3  -1 372.464 15.2883   1 
  -4  -3   1 330.986 15.2079   4 
  -4  -3   1 341.983 14.4781   5 
  -4  -3   1 337.095 15.4455   3 
  -4  -3   1 342.050 14.3462   7 
  -4  -3   1 331.648 15.2217   3 
  -4  -3   1 330.024 12.9810  10 
  -4  -3   1 344.859 14.3276   5 
  -4  -3   1 355.194 13.8817   1 
  -4  -3   1 334.260 13.8233  14 
  -4  -3   1 328.543 13.8440  14 
   3   3  -1 379.144 15.7677   2 
   3   3  -1 387.253 14.8810   3 
   3   3  -1 378.622 14.8975   1 
   3   3  -1 377.254 15.8474   2 
  -3  -3   1 376.876 14.0903  14 
  -3  -3   1 355.262 13.9171  14 
  -3  -3   1 386.481 15.4281   3 
  -3  -3   1 386.312 14.4735   7 
  -3  -3   1 387.585 15.7707   4 
  -3  -3   1 379.107 14.4049   5 
  -3  -3   1 374.633 13.8720   1 
  -3  -3   1 388.731 13.9626   1 
  -3  -3   1 379.881 14.4828   5 
  -3  -3   1 365.399 13.7453  10 
   2   3  -1 658.784 23.4564   3 
   2   3  -1 665.766 24.4147   2 
   2   3  -1 670.915 23.6898   1 
   2   3  -1 674.539 23.4757  10 
   2   3  -1 637.429 24.2112   2 
  -2  -3   1 773.178 25.9731   2 
  -2  -3   1 732.890 22.8733   1 
  -2  -3   1 711.241 23.3041   5 
  -2  -3   1 715.893 23.4085   5 
  -2  -3   1 723.482 23.5697  10 
  -2  -3   1 717.515 22.7941   1 
  -2  -3   1 724.908 23.1099  14 
  -2  -3   1 720.813 23.0124  14 
  -2  -3   1 743.648 24.3084   3 
  -2  -3   1 717.053 24.9628   4 
  -2  -3   1 735.100 23.2567   7 
   1   3  -1 1423.43 45.9921   2 
   1   3  -1 1453.09 44.9787  12 
   1   3  -1 1493.08 45.5010   1 
   1   3  -1 1466.52 45.3826   3 
   1   3  -1 1513.68 46.3468  10 
   1   3  -1 1463.00 45.4922   1 
   1   3  -1 1476.64 46.1569   2 
  -1  -3   1 1462.31 45.0976   5 
  -1  -3   1 1470.27 45.1884   5 
  -1  -3   1 1515.97 44.9132   7 
  -1  -3   1 1422.46 44.4813   1 
  -1  -3   1 1501.39 44.3721  11 
  -1  -3   1 1465.34 44.8569  14 
  -1  -3   1 1437.31 47.0046   4 
  -1  -3   1 1580.65 46.3838   2 
  -1  -3   1 1448.30 44.8875  14 
   0   3  -1 738.436 23.4143   2 
   0   3  -1 745.785 22.9625   1 
   0   3  -1 749.176 23.5231   2 
   0   3  -1 760.048 24.5238  13 
   0   3  -1 736.672 23.6822  12 
   0   3  -1 757.898 22.9489   3 
   0   3  -1 773.320 22.9122   1 
   0   3  -1 724.161 24.1216  10 
   0   3  -1 737.265 22.2431  11 
   0   3  -1 750.182 22.8612   3 
   0  -3   1 727.576 22.6053   5 
   0  -3   1 695.725 24.2970   9 
   0  -3   1 702.464 23.9881   6 
   0  -3   1 716.292 22.3773  14 
   0  -3   1 684.256 22.5727   5 
   0  -3   1 700.231 23.5365  12 
   0  -3   1 690.114 22.3682  14 
   0  -3   1 762.532 22.8967   2 
   0  -3   1 728.528 24.2771   4 
  -1   3  -1 42.3658 3.03794   2 
  -1   3  -1 38.4797 2.56257   3 
  -1   3  -1 41.0471 3.00523   2 
  -1   3  -1 47.6684 3.07571  13 
  -1   3  -1 39.5572 2.53408   1 
  -1   3  -1 40.0297 2.55401   1 
  -1   3  -1 41.8980 2.67905   3 
  -1   3  -1 42.2537 3.32176  12 
  -1   3  -1 43.1491 2.70741   5 
  -1   3  -1 45.6621 2.84290   8 
   1  -3   1 34.6746 3.02691   9 
   1  -3   1 29.0181 2.47540   3 
   1  -3   1 33.9999 2.30556  14 
   1  -3   1 34.5891 3.03067  12 
   1  -3   1 38.7620 2.92686  13 
   1  -3   1 33.8716 2.37493   5 
   1  -3   1 35.1262 2.77063   3 
   1  -3   1 36.2560 2.39580   8 
   1  -3   1 34.1924 2.19904   1 
   1  -3   1 28.6612 2.16262  14 
   1  -3   1 34.6042 2.42605   5 
   1  -3   1 35.6833 2.66080   6 
   1  -3   1 35.2219 2.58977   2 
   1  -3   1 36.0017 2.21054   1 
   1  -3   1 34.2070 2.64322   4 
  -2   3  -1 1230.81 36.5849  14 
  -2   3  -1 1186.04 36.1847   7 
  -2   3  -1 1222.12 36.7876   5 
  -2   3  -1 1147.41 37.3538   2 
  -2   3  -1 1205.64 37.4533   2 
  -2   3  -1 1174.99 36.5969   1 
  -2   3  -1 1146.20 36.7153   3 
  -2   3  -1 1207.22 36.8960   3 
   2  -3   1 1114.30 36.5245   5 
   2  -3   1 1139.00 36.3955   6 
   2  -3   1 1154.70 36.3095   1 
   2  -3   1 1103.34 36.1163  14 
   2  -3   1 1124.66 37.4770  12 
   2  -3   1 1084.34 36.3230   5 
   2  -3   1 1081.24 35.9763  13 
   2  -3   1 1085.73 36.8275   3 
   2  -3   1 1126.26 35.0750   4 
   2  -3   1 1129.42 37.1461   2 
   2  -3   1 1104.90 36.1978   1 
   2  -3   1 1098.85 36.7440   3 
  -3   3  -1 718.788 26.4503  12 
  -3   3  -1 742.384 25.6657   1 
  -3   3  -1 729.143 26.6801   2 
  -3   3  -1 732.827 25.2512   7 
  -3   3  -1 763.522 26.7078   2 
  -3   3  -1 741.790 25.9357   3 
  -3   3  -1 734.433 25.7358   5 
  -3   3  -1 750.736 25.5170  14 
  -3   3  -1 726.994 25.9462   3 
   3  -3   1 759.845 25.7947   5 
   3  -3   1 730.188 26.1102   3 
   3  -3   1 743.961 26.0073   3 
   3  -3   1 739.699 27.7934   2 
   3  -3   1 728.100 25.2991   1 
   3  -3   1 749.006 24.6581  13 
   3  -3   1 788.186 25.6019  14 
   3  -3   1 757.790 25.6951   5 
  -4   3  -1 535.429 20.3569   1 
  -4   3  -1 532.545 20.7832   3 
  -4   3  -1 539.525 20.5157   5 
  -4   3  -1 532.940 21.6259   2 
  -4   3  -1 546.137 20.2070  14 
  -4   3  -1 513.478 20.8051  12 
  -4   3  -1 544.666 21.6060   2 
  -4   3  -1 535.029 19.9863   7 
   4  -3   1 535.618 20.2923   1 
   4  -3   1 528.870 20.7110   3 
   4  -3   1 512.268 21.1558   2 
   4  -3   1 503.055 20.6938   3 
   4  -3   1 533.438 20.3078   5 
   4  -3   1 556.694 20.7591   5 
  -5   3  -1 86.8535 6.79589   1 
  -5   3  -1 80.3238 6.33405   7 
  -5   3  -1 94.7397 7.19456   3 
  -5   3  -1 77.5046 7.09174   2 
  -5   3  -1 83.9609 6.42826  14 
  -5   3  -1 76.9404 6.35365   5 
   5  -3   1 76.1794 5.96895  14 
   5  -3   1 62.9105 6.46699   3 
   5  -3   1 72.9064 6.30268   1 
   5  -3   1 73.0069 6.79831   2 
   5  -3   1 66.4350 6.33000   5 
  -6   3  -1 107.858 8.78502   3 
  -6   3  -1 93.8469 7.88455   1 
  -6   3  -1 104.770 9.05369   2 
  -6   3  -1 92.3957 7.87686   5 
  -6   3  -1 93.5719 7.63440  14 
  -6   3  -1 100.993 7.81992   7 
   6  -3   1 83.5520 8.37906   3 
   6  -3   1 92.4781 8.17557   5 
   6  -3   1 84.1685 8.23763   2 
   6  -3   1 91.6111 7.83282   1 
  -7   3  -1 49.6671 7.76246  14 
  -7   3  -1 49.9221 6.62626   7 
  -7   3  -1 51.8910 7.36327   3 
  -7   3  -1 54.1680 6.99425   1 
   7  -3   1 48.2081 6.81140   1 
   7  -3   1 57.2188 7.76665   3 
  -8   3  -1 34.4641 7.33928   3 
  -8   3  -1 41.6484 7.27673   7 
  -8   3  -1 40.0754 7.47309   1 
   8  -3   1 51.5878 8.78582   3 
   8  -3   1 32.2667 7.04358   1 
  -9   3  -1 21.1635 6.68105   3 
  -9   3  -1 36.9039 8.03084   1 
  -9   3  -1 37.3078 8.09347   7 
   9  -3   1 19.7748 6.67675   1 
   9   2  -1 13.6903 5.83834   1 
  -9  -2   1 2.76451 3.65782   1 
  -9  -2   1 11.5567 4.99688  14 
  -9  -2   1 3.37109 4.07085   5 
  -9  -2   1 15.4043 6.21004   7 
   8   2  -1 6.52887 4.84070   1 
   8   2  -1 12.3489 5.56395   2 
  -8  -2   1 8.42215 4.14278  14 
  -8  -2   1 15.5191 5.40598   3 
  -8  -2   1 16.4253 5.36941   5 
  -8  -2   1 10.5073 5.08284   7 
  -8  -2   1 14.2395 4.87416   1 
   7   2  -1 20.3302 5.98137   1 
  -7  -2   1 16.6558 4.86067   5 
  -7  -2   1 20.4292 4.73646  14 
  -7  -2   1 30.4453 6.59573   3 
  -7  -2   1 26.2014 5.16746   4 
  -7  -2   1 27.0586 5.40219   1 
  -7  -2   1 28.8417 5.80286   7 
   6   2  -1 50.2435 6.66772   1 
   6   2  -1 47.0451 7.20531   2 
  -6  -2   1 50.3034 5.79098   4 
  -6  -2   1 47.4069 5.66151  14 
  -6  -2   1 49.1480 6.66277   3 
  -6  -2   1 51.2743 5.85121   5 
  -6  -2   1 52.6767 5.84996   1 
  -6  -2   1 50.4154 6.00294   5 
  -6  -2   1 53.0608 6.03304   7 
   5   2  -1 93.1823 7.22409   3 
   5   2  -1 99.9229 5.17067  12 
   5   2  -1 97.1201 7.52261   1 
   5   2  -1 100.095 8.46101   2 
  -5  -2   1 98.1569 7.08675   5 
  -5  -2   1 92.2332 6.57125  14 
  -5  -2   1 83.3112 7.33360   3 
  -5  -2   1 82.8235 4.69631  10 
  -5  -2   1 91.6569 6.67737   1 
  -5  -2   1 93.1807 8.12870   3 
  -5  -2   1 86.7559 6.51032  14 
  -5  -2   1 88.1423 6.69942   4 
  -5  -2   1 88.7399 6.90279   7 
   4   2  -1 508.956 19.2507   1 
   4   2  -1 489.474 20.2685   2 
   4   2  -1 507.755 20.4393   2 
   4   2  -1 499.887 19.0266  14 
   4   2  -1 485.960 16.3376  12 
   4   2  -1 498.281 19.2384   3 
  -4  -2   1 476.513 18.6055   5 
  -4  -2   1 467.850 16.3977  10 
  -4  -2   1 479.829 18.5389   7 
  -4  -2   1 493.572 19.6409   3 
  -4  -2   1 460.833 19.1933   3 
  -4  -2   1 465.761 18.5437   4 
  -4  -2   1 474.688 18.2527  14 
  -4  -2   1 477.023 18.7504   5 
  -4  -2   1 492.251 19.7639   2 
  -4  -2   1 458.421 18.1296  14 
  -4  -2   1 470.008 18.1926   1 
   3   2  -1 1052.92 35.6719  14 
   3   2  -1 1043.51 33.3538  12 
   3   2  -1 1028.99 35.6637   1 
   3   2  -1 1013.79 36.5206   2 
   3   2  -1 1023.42 36.6407   2 
   3   2  -1 1028.71 35.7910   3 
  -3  -2   1 1099.09 35.3337  14 
  -3  -2   1 1091.98 35.9942   4 
  -3  -2   1 1109.41 34.0710  10 
  -3  -2   1 1092.82 35.2693   1 
  -3  -2   1 1114.93 36.4807   2 
  -3  -2   1 1110.72 35.3053  14 
  -3  -2   1 1100.50 35.3443   1 
  -3  -2   1 1096.15 35.4306   7 
  -3  -2   1 1144.77 36.5990   3 
  -3  -2   1 1101.65 35.6234   5 
  -3  -2   1 1105.85 35.7203   5 
  -3  -2   1 1119.46 35.3838   1 
   2   2  -1 936.303 30.8842  10 
   2   2  -1 919.673 32.3719   2 
   2   2  -1 943.610 32.4437   2 
   2   2  -1 918.855 31.7938   3 
   2   2  -1 941.298 31.7897   1 
  -2  -2   1 1021.92 31.7241   5 
  -2  -2   1 997.218 31.4438   1 
  -2  -2   1 1039.63 32.4428   2 
  -2  -2   1 995.447 32.3938   4 
  -2  -2   1 1002.63 31.4831   1 
  -2  -2   1 1016.64 31.4677  14 
  -2  -2   1 999.941 31.4988  14 
  -2  -2   1 987.604 31.7671   5 
  -2  -2   1 1040.86 32.3752   3 
  -2  -2   1 1013.74 30.9420  10 
  -2  -2   1 1011.73 31.4648   7 
   1   2  -1 192.329 6.18451  12 
   1   2  -1 187.010 7.57682   2 
   1   2  -1 185.830 7.05840   1 
   1   2  -1 195.933 8.02588   9 
   1   2  -1 194.108 7.28182   5 
   1   2  -1 183.292 7.19633   3 
   1   2  -1 178.589 7.05955   1 
   1   2  -1 180.906 7.51322   2 
   1   2  -1 183.765 7.09447  10 
  -1  -2   1 188.271 7.01265   5 
  -1  -2   1 193.830 6.90732   1 
  -1  -2   1 193.928 7.39022   2 
  -1  -2   1 190.908 6.85173   1 
  -1  -2   1 188.164 7.08750   5 
  -1  -2   1 193.368 6.89875  14 
  -1  -2   1 181.937 6.88572  14 
  -1  -2   1 187.053 7.83466   4 
  -1  -2   1 180.379 7.27830   3 
  -1  -2   1 194.419 6.75492   7 
   0   2  -1 9094.44 287.249   1 
   0   2  -1 9767.41 287.981   5 
   0   2  -1 9619.47 287.452   1 
   0   2  -1 9158.21 289.055   2 
   0   2  -1 9928.99 288.258   3 
   0   2  -1 9276.78 288.968   2 
   0   2  -1 9312.44 285.739  11 
   0   2  -1 9766.65 287.847   5 
   0   2  -1 9464.06 290.444  12 
   0   2  -1 9974.45 288.398  14 
   0   2  -1 9683.13 289.625  13 
   0   2  -1 9960.72 292.283   9 
   0   2  -1 9147.41 288.293   6 
   0   2  -1 9660.25 288.031   3 
   0  -2   1 9479.90 289.073   2 
   0  -2   1 9016.15 290.664   9 
   0  -2   1 9999.99 287.390   1 
   0  -2   1 9538.54 288.670   2 
   0  -2   1 9518.10 286.415   1 
   0  -2   1 9674.49 287.487  14 
   0  -2   1 9501.04 287.233  14 
   0  -2   1 9536.79 288.532   5 
   0  -2   1 9295.23 287.372   5 
   0  -2   1 9654.93 289.721  12 
   0  -2   1 9259.42 288.128   6 
  -1   2  -1 3501.10 104.866   3 
  -1   2  -1 3450.35 104.299   7 
  -1   2  -1 3528.60 104.572  14 
  -1   2  -1 3501.79 104.732   5 
  -1   2  -1 3469.69 105.124   2 
  -1   2  -1 3445.71 105.064  13 
  -1   2  -1 3427.48 104.715   5 
  -1   2  -1 3453.17 104.625   1 
  -1   2  -1 3665.92 106.206   1 
  -1   2  -1 3486.52 105.321  12 
  -1   2  -1 3344.86 105.091   2 
  -1   2  -1 3437.52 104.783   3 
   1  -2   1 3439.94 104.901   3 
   1  -2   1 3327.32 105.178  13 
   1  -2   1 3524.93 104.358   6 
   1  -2   1 3481.03 106.075   5 
   1  -2   1 3660.12 105.431  12 
   1  -2   1 3447.70 105.071   2 
   1  -2   1 3552.69 104.538   1 
   1  -2   1 3451.49 106.211   5 
   1  -2   1 3586.07 105.912  14 
   1  -2   1 3281.77 104.456   1 
   1  -2   1 3396.05 105.945   8 
   1  -2   1 3480.81 104.882   3 
  -2   2  -1 417.433 16.0429   1 
  -2   2  -1 429.043 16.1533   5 
  -2   2  -1 435.485 16.6958  12 
  -2   2  -1 421.966 16.7436   2 
  -2   2  -1 436.520 15.8893   7 
  -2   2  -1 427.442 16.4002   3 
  -2   2  -1 411.870 16.2176   3 
  -2   2  -1 427.225 16.2446   5 
  -2   2  -1 442.803 16.0116  14 
  -2   2  -1 432.529 16.7837   2 
   2  -2   1 503.177 16.3063   1 
   2  -2   1 494.194 16.3948   5 
   2  -2   1 499.601 16.2787   1 
   2  -2   1 504.075 16.9952  12 
   2  -2   1 500.648 16.8076   3 
   2  -2   1 494.906 16.4844   5 
   2  -2   1 498.822 16.6574   3 
   2  -2   1 512.868 17.1368   2 
   2  -2   1 516.793 16.3981   1 
  -3   2  -1 816.821 27.9777   5 
  -3   2  -1 770.144 27.9929   3 
  -3   2  -1 799.631 27.8041   1 
  -3   2  -1 784.682 28.2012  12 
  -3   2  -1 798.761 27.5936  14 
  -3   2  -1 831.591 28.8589   2 
  -3   2  -1 757.360 28.0248   3 
  -3   2  -1 782.138 28.7796   2 
  -3   2  -1 797.523 27.5571   7 
   3  -2   1 844.105 27.8677   1 
   3  -2   1 852.463 28.1462   5 
   3  -2   1 881.402 27.8028  14 
   3  -2   1 870.473 28.4402   3 
   3  -2   1 841.661 28.8407   2 
   3  -2   1 849.290 28.5094   3 
  -4   2  -1 515.431 19.8177   1 
  -4   2  -1 524.495 21.1375   2 
  -4   2  -1 502.490 20.2267   3 
  -4   2  -1 506.230 19.5007  14 
  -4   2  -1 502.048 19.4576   7 
  -4   2  -1 525.281 19.9959   5 
   4  -2   1 537.074 20.5939   3 
   4  -2   1 502.844 20.7719   2 
   4  -2   1 502.051 19.7537   1 
   4  -2   1 542.782 20.2635   5 
  -5   2  -1 463.581 18.9340   7 
  -5   2  -1 473.654 20.6681   2 
  -5   2  -1 477.349 19.3666   5 
  -5   2  -1 474.400 19.1610   1 
  -5   2  -1 475.049 19.9816   3 
  -5   2  -1 460.081 18.8261  14 
   5  -2   1 439.312 19.6766   3 
   5  -2   1 429.138 18.9206   5 
   5  -2   1 447.574 19.1399   1 
   5  -2   1 457.484 20.4813   2 
   5  -2   1 444.754 19.3390   5 
  -6   2  -1 50.6396 6.53799   2 
  -6   2  -1 50.3489 5.91444   7 
  -6   2  -1 56.8153 6.12947  14 
  -6   2  -1 52.4743 6.07284   5 
  -6   2  -1 51.7209 6.52512   3 
  -6   2  -1 54.8681 6.11487   1 
   6  -2   1 54.6196 6.48108   1 
   6  -2   1 51.3415 6.59240   2 
   6  -2   1 51.6348 6.71494   3 
  -7   2  -1 42.5133 6.36791   7 
  -7   2  -1 43.6604 6.86831   3 
  -7   2  -1 44.6464 6.40680  14 
  -7   2  -1 47.6534 6.91410   1 
   7  -2   1 61.3559 8.09197   3 
   7  -2   1 49.9626 7.25173   1 
  -8   2  -1 49.0028 7.97279   7 
  -8   2  -1 39.6210 7.62234   1 
  -8   2  -1 43.5614 7.71727   3 
  -8   2  -1 48.9370 7.42646  14 
   8  -2   1 46.9138 8.16480   1 
  -9   2  -1 25.1260 7.62365   7 
  -9   2  -1 11.4713 5.72783   3 
  -9   2  -1 26.6108 6.70196   1 
   9  -2   1 24.5871 7.06308   1 
   9   1  -1 23.5270 6.74544   1 
  -9  -1   1 20.8826 6.08828   1 
  -9  -1   1 33.3480 7.46438   7 
  -9  -1   1 30.0001 6.93284  14 
   8   1  -1 43.4747 8.29604   1 
  -8  -1   1 44.2472 7.37879   1 
  -8  -1   1 41.2428 7.31373   5 
  -8  -1   1 28.3261 6.05571  14 
  -8  -1   1 42.6011 7.68727   7 
  -8  -1   1 48.4923 8.36530   3 
   7   1  -1 26.8543 6.67478   2 
   7   1  -1 29.0811 6.28841   1 
  -7  -1   1 30.2682 4.74073   4 
  -7  -1   1 26.8495 5.61884   5 
  -7  -1   1 19.0820 5.08423   3 
  -7  -1   1 23.7147 5.15182   7 
  -7  -1   1 26.5488 5.37484   1 
  -7  -1   1 28.8043 5.61469  14 
   6   1  -1 19.5527 4.54419   3 
   6   1  -1 10.4411 4.01638   2 
   6   1  -1 19.0426 4.43656   1 
  -6  -1   1 24.8049 4.72233   7 
  -6  -1   1 23.7427 4.63289   1 
  -6  -1   1 27.1763 4.50589  14 
  -6  -1   1 29.3091 4.89888   5 
  -6  -1   1 17.2953 4.49703   3 
  -6  -1   1 20.3580 3.70455   4 
   5   1  -1 432.717 15.8047  12 
   5   1  -1 432.145 19.5417   2 
   5   1  -1 433.720 19.5843   2 
   5   1  -1 411.101 17.9609   1 
   5   1  -1 439.581 18.6194   3 
  -5  -1   1 421.441 17.4151  14 
  -5  -1   1 432.938 17.5565  14 
  -5  -1   1 413.506 17.5056   7 
  -5  -1   1 421.065 18.5464   3 
  -5  -1   1 406.918 17.3435   1 
  -5  -1   1 407.092 14.3420  10 
  -5  -1   1 408.160 17.7015   5 
  -5  -1   1 396.118 16.4344   4 
   4   1  -1 656.326 23.8919  14 
   4   1  -1 699.478 24.3576   1 
   4   1  -1 679.583 22.0425  12 
   4   1  -1 680.721 25.4282   2 
   4   1  -1 697.989 25.5849   2 
   4   1  -1 672.503 24.3901   3 
  -4  -1   1 644.682 23.7470   5 
  -4  -1   1 625.929 20.9736  10 
  -4  -1   1 653.264 23.5612  14 
  -4  -1   1 644.592 24.3236   3 
  -4  -1   1 626.505 23.4259   7 
  -4  -1   1 629.140 23.4570   1 
  -4  -1   1 635.839 22.9261   4 
  -4  -1   1 633.206 23.5254   1 
  -4  -1   1 633.422 23.3185  14 
  -4  -1   1 647.945 24.5099   3 
   3   1  -1 198.779 9.80090   2 
   3   1  -1 198.543 9.06826   1 
   3   1  -1 202.924 9.79364   2 
   3   1  -1 200.048 9.30948   3 
   3   1  -1 200.509 7.61039  12 
   3   1  -1 206.674 9.09232  14 
  -3  -1   1 198.632 8.99627   5 
  -3  -1   1 209.360 9.01875   1 
  -3  -1   1 198.414 7.10886  10 
  -3  -1   1 197.595 9.39381   3 
  -3  -1   1 195.190 8.69799  14 
  -3  -1   1 214.869 8.83048   4 
  -3  -1   1 196.935 8.78265  14 
  -3  -1   1 194.484 8.73426   7 
   2   1  -1 480.767 17.7182   3 
   2   1  -1 486.486 16.1352  12 
   2   1  -1 466.159 17.4687   1 
   2   1  -1 502.354 18.2595   2 
   2   1  -1 486.532 17.5367   5 
   2   1  -1 494.263 18.1952   2 
   2   1  -1 477.992 17.4063  14 
  -2  -1   1 528.565 17.3968  14 
  -2  -1   1 523.138 17.5742   5 
  -2  -1   1 541.012 17.4422   7 
  -2  -1   1 532.528 17.6013   4 
  -2  -1   1 546.183 17.6944   1 
  -2  -1   1 542.971 17.5736  14 
  -2  -1   1 551.127 16.1443  10 
  -2  -1   1 530.404 17.5345   1 
  -2  -1   1 553.541 18.2066   3 
   1   1  -1 1577.10 47.8579   2 
   1   1  -1 1548.54 47.4859   5 
   1   1  -1 1565.52 47.4268   5 
   1   1  -1 1589.56 47.8657   2 
   1   1  -1 1570.13 47.3672   1 
   1   1  -1 1547.72 46.6408  10 
   1   1  -1 1567.89 47.5996   3 
   1   1  -1 1556.61 47.3585  14 
   1   1  -1 1560.84 47.4080   1 
  -1  -1   1 1517.90 47.4151   5 
  -1  -1   1 1554.95 47.2941  14 
  -1  -1   1 1518.20 47.2825   1 
  -1  -1   1 1538.26 47.0864   7 
  -1  -1   1 1544.85 47.3547   5 
  -1  -1   1 1529.46 47.2584   1 
  -1  -1   1 1558.69 47.2282  14 
  -1  -1   1 1534.65 47.7398   2 
  -1  -1   1 1509.44 47.5468   3 
  -1   1  -1 334.697 12.7864   2 
  -1   1  -1 342.869 12.3273  14 
  -1   1  -1 336.533 12.6038   3 
  -1   1  -1 364.139 12.9151   2 
  -1   1  -1 345.049 12.2985   7 
  -1   1  -1 345.332 12.5964   3 
  -1   1  -1 346.578 12.4472   1 
  -1   1  -1 339.983 12.4568   5 
  -1   1  -1 357.793 12.4735   1 
   1  -1   1 391.718 12.5359   1 
   1  -1   1 394.699 12.7735   3 
   1  -1   1 418.792 12.6220   1 
   1  -1   1 393.384 12.6829   5 
   1  -1   1 401.447 12.8755   3 
   1  -1   1 400.048 13.0315   2 
   1  -1   1 388.035 12.8694  12 
   1  -1   1 392.362 13.0314   2 
  -2   1  -1 439.509 14.7784  14 
  -2   1  -1 432.755 14.7552   7 
  -2   1  -1 423.359 13.4299   4 
  -2   1  -1 423.526 15.5054   2 
  -2   1  -1 423.586 15.1597   3 
  -2   1  -1 426.695 14.8222   1 
  -2   1  -1 434.210 15.6076   2 
  -2   1  -1 435.741 15.2301   3 
  -2   1  -1 434.842 14.9344   5 
  -2   1  -1 391.138 14.5853   1 
   2  -1   1 414.687 15.0550  12 
   2  -1   1 404.775 14.8894   5 
   2  -1   1 401.461 15.0589   3 
   2  -1   1 401.630 14.8153   5 
   2  -1   1 392.542 14.7101   1 
   2  -1   1 408.912 15.5224   2 
   2  -1   1 382.213 15.2333   2 
   2  -1   1 405.824 14.9914   3 
  -3   1  -1 959.206 33.4096   2 
  -3   1  -1 966.988 32.3024   7 
  -3   1  -1 945.890 32.2671   1 
  -3   1  -1 967.073 32.5183   5 
  -3   1  -1 979.104 32.2570  14 
  -3   1  -1 952.084 32.8779   3 
  -3   1  -1 965.712 32.8468   3 
  -3   1  -1 971.784 30.5731   4 
   3  -1   1 995.797 33.0410   3 
   3  -1   1 1001.98 32.9491   3 
   3  -1   1 963.578 33.3707   2 
   3  -1   1 1007.10 32.7315   5 
   3  -1   1 1009.78 32.6869  12 
   3  -1   1 961.554 32.6101   5 
   3  -1   1 978.752 33.5702   2 
   3  -1   1 940.090 32.3138   1 
  -4   1  -1 562.745 18.7970   4 
  -4   1  -1 582.823 22.4430   2 
  -4   1  -1 578.613 21.0567   7 
  -4   1  -1 550.010 21.5480   3 
  -4   1  -1 578.003 20.8986  14 
  -4   1  -1 590.729 21.9279   3 
  -4   1  -1 549.978 20.8243   1 
  -4   1  -1 566.793 21.1851   5 
   4  -1   1 522.340 21.3935   3 
   4  -1   1 569.737 21.3356   5 
   4  -1   1 524.882 21.9840   2 
   4  -1   1 530.340 20.9325   1 
   4  -1   1 521.053 21.0943   5 
  -5   1  -1 24.4349 4.07111   1 
  -5   1  -1 25.5581 4.60776   3 
  -5   1  -1 28.8144 4.16676   7 
  -5   1  -1 27.5053 2.87778   4 
  -5   1  -1 20.8324 4.16947   2 
  -5   1  -1 30.3344 4.26102  14 
  -5   1  -1 24.6425 4.07132   5 
   5  -1   1 32.1513 4.68076   1 
   5  -1   1 26.7722 4.67979   2 
   5  -1   1 21.1598 4.41431   3 
   5  -1   1 28.5493 4.46843   5 
  -6   1  -1 39.4564 5.36783  14 
  -6   1  -1 34.1592 5.87289   3 
  -6   1  -1 37.9830 5.51657   1 
  -6   1  -1 44.1334 5.63085   5 
  -6   1  -1 38.1456 3.63271   4 
  -6   1  -1 33.0062 5.21091   7 
   6  -1   1 25.2704 5.09835   1 
   6  -1   1 25.9583 5.08767   3 
   6  -1   1 26.0527 5.27230   2 
  -7   1  -1 54.6892 7.01586   7 
  -7   1  -1 45.8287 6.48706  14 
  -7   1  -1 54.9552 7.68434   3 
  -7   1  -1 55.4367 7.08404   5 
  -7   1  -1 54.5877 7.27183   1 
   7  -1   1 68.3152 8.47072   2 
   7  -1   1 54.3900 7.36152   1 
   7  -1   1 57.1182 7.64369   3 
  -8   1  -1 20.8638 5.50605  14 
  -8   1  -1 14.2948 5.23681   3 
  -8   1  -1 14.3388 5.13113   7 
  -8   1  -1 15.5797 5.01352   1 
   8  -1   1 21.8412 6.30803   1 
  -9   1  -1 13.4019 5.35137   1 
  -9   1  -1 9.93857 4.81879  14 
  -9   1  -1 28.2040 7.59922   7 
   9  -1   1 21.1778 7.15997   1 
   9   0  -1 9.89819 5.05198   1 
  -9   0   1 18.7706 5.90029   1 
  -9   0   1 15.3182 6.23036   3 
  -9   0   1 18.0659 6.28469   7 
  -9   0   1 15.4602 5.24918  14 
   8   0  -1 2.88250 3.66326   1 
  -8   0   1 -1.9272 3.35439   7 
  -8   0   1 4.40362 3.30836  14 
  -8   0   1 2.78930 3.66938   3 
  -8   0   1 5.31094 3.82936   1 
   7   0  -1 46.1552 6.76867   1 
   7   0  -1 39.2091 6.86575   2 
   7   0  -1 50.2707 6.98853   3 
  -7   0   1 48.4800 6.50348   5 
  -7   0   1 57.5438 6.88665   1 
  -7   0   1 48.7185 5.24324   4 
  -7   0   1 55.1059 7.33420   3 
  -7   0   1 39.1491 6.20251   7 
  -7   0   1 34.5465 5.81732  14 
   6   0  -1 74.1435 7.66323   2 
   6   0  -1 67.5901 7.12830   1 
   6   0  -1 67.2468 6.91694   3 
  -6   0   1 60.7450 3.65861  10 
  -6   0   1 52.6484 6.05477   5 
  -6   0   1 54.5572 6.49004   3 
  -6   0   1 58.4384 6.14672   7 
  -6   0   1 58.3207 6.26698   1 
  -6   0   1 59.2994 6.01048  14 
  -6   0   1 60.6417 4.88794   4 
   5   0  -1 826.996 30.3433   1 
   5   0  -1 787.434 32.3925   5 
   5   0  -1 833.834 30.8861   3 
   5   0  -1 805.335 31.4574   2 
  -5   0   1 819.472 29.8942   1 
  -5   0   1 820.461 29.8040   7 
  -5   0   1 854.072 30.3390   5 
  -5   0   1 836.817 30.8724   3 
  -5   0   1 826.384 29.7111  14 
  -5   0   1 834.937 30.1057   1 
  -5   0   1 855.564 28.1068   4 
  -5   0   1 828.109 31.6226   2 
   4   0  -1 1019.99 36.3854   2 
   4   0  -1 1013.91 35.6093   3 
   4   0  -1 1012.91 33.7574  12 
   4   0  -1 1009.52 35.1268   5 
   4   0  -1 999.632 36.3385   2 
   4   0  -1 991.699 35.0213   1 
  -4   0   1 1019.48 35.6343   3 
  -4   0   1 1054.34 33.9591  12 
  -4   0   1 1015.74 34.6439  14 
  -4   0   1 1057.79 33.4623   4 
  -4   0   1 1063.46 35.2496   5 
  -4   0   1 1067.60 35.1285   1 
  -4   0   1 1073.04 35.9820   3 
  -4   0   1 1058.59 36.3973   2 
   3   0  -1 109.733 6.74435   2 
   3   0  -1 112.096 6.13269   5 
   3   0  -1 105.551 6.14539   1 
   3   0  -1 109.415 6.11354  14 
   3   0  -1 112.691 5.43172  12 
   3   0  -1 113.169 6.45017   3 
   3   0  -1 114.622 6.83682   2 
  -3   0   1 118.305 6.24509   5 
  -3   0   1 116.924 6.53643   3 
  -3   0   1 137.156 7.91144  14 
  -3   0   1 113.949 5.49341  12 
  -3   0   1 120.343 6.23791   1 
  -3   0   1 113.041 5.97526   7 
  -3   0   1 121.953 5.40917   4 
  -3   0   1 116.271 6.04490  14 
  -3   0   1 112.665 6.70656   2 
  -3   0   1 113.441 6.47146   3 
   2   0  -1 285.806 11.0114   2 
   2   0  -1 303.138 10.9634   3 
   2   0  -1 293.607 9.87791  12 
   2   0  -1 303.490 10.6258  14 
   2   0  -1 288.466 10.5392   1 
   2   0  -1 289.188 10.5180   5 
   2   0  -1 299.434 10.4587  14 
   2   0  -1 293.722 11.1549   2 
  -2   0   1 272.870 10.7846   3 
  -2   0   1 270.833 9.82297  12 
  -2   0   1 274.109 10.4735   1 
  -2   0   1 265.017 10.3010  14 
  -2   0   1 267.315 10.9114   2 
  -2   0   1 261.510 10.2134   7 
  -2   0   1 264.865 10.9399   2 
  -2   0   1 262.471 10.2217  14 
  -2   0   1 271.655 10.4497   5 
  -2   0   1 271.949 10.3861   1 
   1   0  -1 6998.56 231.895   2 
   1   0  -1 7232.19 226.442  10 
   1   0  -1 8143.87 231.574   1 
   1   0  -1 8261.44 233.657   3 
   1   0  -1 8097.84 229.939  14 
  -1   0   1 7036.49 231.166   1 
  -1   0   1 7255.93 230.956   7 
   0   0  -1 -10.557 0.13838   2 
   0   0  -1 -10.749 0.36779  11 
   0   0  -1 -10.570 0.26779   1 
   0   0  -1 -11.121 0.25117   1 
   0   0  -1 -11.026 0.20943   6 
   0   0  -1 -10.576 0.33161   2 
   0   0  -1 -10.752 0.29493  14 
   0   0  -1 -10.483 0.33728   3 
   0   0  -1 -10.877 0.29274   5 
   0   0  -1 -10.655 0.28523   5 
   0   0  -1 -10.480 0.29556  13 
   0   0   1 -10.938 0.29604   5 
   0   0   1 -10.667 0.28022   3 
   0   0   1 -10.708 0.21519   6 
   0   0   1 -10.703 0.31197   1 
   0   0   1 -10.651 0.30082   1 
   0   0   1 -10.813 0.32101   2 
   0   0   1 -10.336 0.36180  11 
   0   0   1 -10.727 0.33769   2 
   0   0   1 -10.820 0.19703   5 
   0   0   1 -10.806 0.23495  14 
  -1   0  -1 1220.84 36.7091   1 
  -1   0  -1 1190.23 36.7444   5 
  -1   0  -1 1231.41 37.0389   3 
  -1   0  -1 1221.86 37.1733   2 
  -1   0  -1 1191.16 36.5935  14 
  -1   0  -1 1202.46 36.6943   1 
  -1   0  -1 1197.96 36.5703   4 
  -1   0  -1 1164.29 36.8773   3 
   1   0   1 1153.18 36.8657   3 
   1   0   1 1168.54 37.1901   2 
   1   0   1 1149.09 36.6614   1 
   1   0   1 1161.30 36.8090   5 
   1   0   1 1172.98 36.8248   3 
   1   0   1 1189.57 36.7820   5 
   1   0   1 1183.47 36.7350   1 
   1   0   1 1190.09 37.1834   2 
  -2   0  -1 5.71567 1.48266   1 
  -2   0  -1 8.70696 1.61208   4 
  -2   0  -1 4.70305 1.62025   3 
  -2   0  -1 7.61060 1.73056   5 
  -2   0  -1 3.95054 1.26816   1 
  -2   0  -1 7.06829 1.77792   3 
  -2   0  -1 6.54225 1.55631  14 
  -2   0  -1 8.80530 1.83617   7 
   2   0   1 2.36155 1.32228   3 
   2   0   1 2.90175 1.31337   3 
   2   0   1 0.79066 1.07608   1 
   2   0   1 2.22625 1.35175   2 
   2   0   1 2.33770 1.42693   2 
   2   0   1 1.55854 0.93474   5 
  -3   0  -1 1188.33 37.0294  14 
  -3   0  -1 1124.33 37.0548   5 
  -3   0  -1 1163.42 37.8021   3 
  -3   0  -1 1086.58 36.8647   7 
  -3   0  -1 1159.28 36.1344   4 
  -3   0  -1 1093.77 36.7545   1 
  -3   0  -1 1125.74 37.5463   3 
  -3   0  -1 1149.97 36.8372  14 
   3   0   1 1114.14 38.4299   3 
   3   0   1 1126.88 38.2430   2 
   3   0   1 1145.70 36.9429  12 
   3   0   1 1075.07 36.9378   1 
   3   0   1 1126.96 38.1495   2 
   3   0   1 1091.95 37.4188   3 
  -4   0  -1 696.720 25.4087   5 
  -4   0  -1 722.083 24.1631   4 
  -4   0  -1 702.367 26.1518   3 
  -4   0  -1 711.842 26.1423   3 
  -4   0  -1 705.168 25.1952   1 
  -4   0  -1 709.731 25.1002  14 
  -4   0  -1 699.682 25.3441   7 
  -4   0  -1 695.136 25.1090  14 
   4   0   1 693.585 26.9495   2 
   4   0   1 695.595 25.9636   3 
   4   0   1 669.720 25.4211   1 
   4   0   1 694.424 26.7362   2 
  -5   0  -1 34.8229 4.57254  14 
  -5   0  -1 42.6268 4.86055   1 
  -5   0  -1 36.8911 4.79285   7 
  -5   0  -1 40.1826 4.46710  14 
  -5   0  -1 46.4821 4.18518   4 
  -5   0  -1 37.9972 4.73698   5 
  -5   0  -1 38.5755 5.15171   3 
   5   0   1 32.8306 4.83529   1 
   5   0   1 38.7538 5.13772   3 
   5   0   1 36.2198 5.31671   2 
  -6   0  -1 105.602 8.05725  14 
  -6   0  -1 115.120 9.48946   3 
  -6   0  -1 104.632 6.91313   4 
  -6   0  -1 106.461 8.38797   1 
  -6   0  -1 105.253 8.47170   7 
  -6   0  -1 111.659 8.68360   5 
   6   0   1 103.072 8.77761   1 
   6   0   1 106.022 9.59157   2 
   6   0   1 103.441 8.77511   3 
  -7   0  -1 92.2187 8.55422  14 
  -7   0  -1 93.2158 8.74087   1 
  -7   0  -1 97.2954 9.58352   3 
  -7   0  -1 107.675 9.33121   5 
  -7   0  -1 88.8558 8.90667   7 
   7   0   1 78.5247 9.44136   2 
   7   0   1 92.2948 9.32749   1 
  -8   0  -1 8.58664 4.25095   1 
  -8   0  -1 5.58326 3.52874  14 
  -8   0  -1 -0.0010 3.73565   7 
  -8   0  -1 5.66678 4.64356   3 
   8   0   1 9.93020 4.96285   1 
  -9   0  -1 -1.1019 3.64988   1 
  -9   0  -1 -0.0896 3.38775  14 
  -9   0  -1 9.13811 5.53081  11 
   9   0   1 4.08041 4.51654   1 
 -10   1   1 12.0402 6.25411   7 
 -10   1   1 4.80540 5.83267   1 
   9  -1  -1 23.8248 7.14601   1 
  -9   1   1 31.0053 7.07756   1 
  -9   1   1 30.9754 7.62880   3 
  -9   1   1 39.3122 7.81917   7 
   8  -1  -1 74.4398 9.08302   1 
   8  -1  -1 72.9795 9.37371   3 
  -8   1   1 65.3701 8.71233   3 
  -8   1   1 83.0088 9.22883   7 
  -8   1   1 68.7716 8.16891  14 
  -8   1   1 62.3835 8.28988   1 
   7  -1  -1 48.6434 7.01259   1 
   7  -1  -1 56.2418 7.33777   3 
  -7   1   1 43.7540 6.01475  14 
  -7   1   1 30.4611 6.47318   5 
  -7   1   1 40.4995 6.18564   1 
  -7   1   1 31.6774 5.98641   3 
  -7   1   1 35.3176 6.05345   7 
   6  -1  -1 146.524 10.7674   2 
   6  -1  -1 135.633 9.70937   1 
   6  -1  -1 142.228 10.4467   3 
  -6   1   1 170.507 10.4098   5 
  -6   1   1 172.474 11.1128   3 
  -6   1   1 160.470 9.99921   7 
  -6   1   1 190.656 12.0172   2 
  -6   1   1 172.356 10.1776  14 
  -6   1   1 165.672 7.55689   4 
  -6   1   1 174.828 10.4043   1 
   5  -1  -1 155.600 9.64161   3 
   5  -1  -1 146.462 9.68039   2 
   5  -1  -1 139.086 8.93779   1 
   5  -1  -1 153.653 8.97477   5 
  -5   1   1 164.915 9.68032   3 
  -5   1   1 161.894 10.0869   2 
  -5   1   1 156.697 9.09782   5 
  -5   1   1 167.381 8.66558  12 
  -5   1   1 155.907 8.82425  14 
  -5   1   1 147.895 8.77022   1 
  -5   1   1 157.131 6.85966   4 
  -5   1   1 152.483 8.81532   7 
  -5   1   1 145.288 8.74562   1 
   4  -1  -1 691.609 24.7658   1 
   4  -1  -1 719.862 25.9250   2 
   4  -1  -1 707.814 25.4051   3 
   4  -1  -1 728.523 25.7027   5 
   4  -1  -1 687.471 24.1426  12 
  -4   1   1 700.651 25.3916   3 
  -4   1   1 670.204 24.3074  14 
  -4   1   1 675.819 24.6061   1 
  -4   1   1 693.401 25.9001   2 
  -4   1   1 669.694 24.0992  12 
  -4   1   1 673.522 24.3808   7 
  -4   1   1 672.291 24.6969   5 
  -4   1   1 682.212 25.1254   3 
  -4   1   1 676.444 22.3012   4 
   3  -1  -1 198.549 8.65917  12 
   3  -1  -1 199.407 8.70692  14 
   3  -1  -1 196.680 8.94311   1 
   3  -1  -1 191.340 9.23160   3 
   3  -1  -1 192.826 9.47708   2 
  -3   1   1 212.829 9.86732   2 
  -3   1   1 207.879 9.36244   3 
  -3   1   1 223.787 9.58815   3 
  -3   1   1 217.618 9.13192   1 
  -3   1   1 209.720 8.94601   7 
  -3   1   1 216.341 8.91957  14 
  -3   1   1 214.158 9.74158   2 
  -3   1   1 210.213 8.93262  12 
   2  -1  -1 91.0496 5.30514   2 
   2  -1  -1 85.8829 4.84942  12 
   2  -1  -1 93.1370 5.13711   3 
   2  -1  -1 85.7010 5.15890   2 
   2  -1  -1 87.0037 4.83192   1 
   2  -1  -1 89.9500 4.85675   5 
  -2   1   1 119.195 5.40409   3 
  -2   1   1 122.507 4.46319  10 
  -2   1   1 117.189 5.08040  14 
  -2   1   1 118.189 5.19472   5 
  -2   1   1 116.791 5.05358   7 
  -2   1   1 115.698 5.58178   2 
  -2   1   1 116.239 5.12902   1 
  -2   1   1 120.682 5.48836   3 
  -2   1   1 121.236 5.71106   2 
  -2   1   1 115.938 5.20326   1 
  -2   1   1 116.924 5.27726  12 
   1  -1  -1 1266.13 38.3493   2 
   1  -1  -1 1249.42 37.9592  14 
   1  -1  -1 1237.60 38.2565   3 
   1  -1  -1 1193.24 38.2791  10 
   1  -1  -1 1099.29 38.2079   2 
   1  -1  -1 1160.21 37.9582   8 
   1  -1  -1 1241.57 37.9420   1 
   1  -1  -1 1200.28 37.9485   1 
   1  -1  -1 1269.09 38.0831   5 
  -1   1   1 1129.15 38.0575   5 
  -1   1   1 1307.25 38.4295   2 
  -1   1   1 1352.53 38.5347   2 
  -1   1   1 1244.59 38.0172  14 
  -1   1   1 1366.67 38.3441   7 
  -1   1   1 1328.84 38.2546   3 
  -1   1   1 1351.28 38.1360   1 
   0  -1  -1 0.25407 0.45204   3 
   0  -1  -1 1.20681 0.76225   6 
   0  -1  -1 0.50655 0.68401  11 
   0  -1  -1 -0.5549 0.70857  10 
   0  -1  -1 -0.4035 0.75665  13 
   0  -1  -1 -0.3413 0.69961   4 
   0   1   1 2.07846 0.85815   6 
   0   1   1 3.30227 0.73633   2 
   0   1   1 1.30692 0.43083   5 
   0   1   1 3.43215 1.01518  13 
   0   1   1 2.01774 0.77398  11 
   0   1   1 2.48884 0.52547   5 
   0   1   1 2.26919 0.50943   3 
   0   1   1 1.80142 0.83680  10 
   0   1   1 3.74457 0.75260   2 
  -1  -1  -1 664.079 22.0644   1 
  -1  -1  -1 713.903 23.0562  10 
  -1  -1  -1 693.623 22.6581   2 
  -1  -1  -1 686.122 22.1423  14 
  -1  -1  -1 658.427 22.2390   5 
  -1  -1  -1 686.023 22.8099  11 
  -1  -1  -1 671.472 22.5455   3 
  -1  -1  -1 672.447 22.0411   1 
  -1  -1  -1 695.881 22.1671  14 
  -1  -1  -1 696.055 23.1123   4 
   1   1   1 725.130 22.5382   3 
   1   1   1 737.216 22.5024   3 
   1   1   1 736.275 22.9511   2 
   1   1   1 734.717 22.8909   2 
   1   1   1 737.150 22.5352   5 
   1   1   1 740.957 22.4449   1 
   1   1   1 761.440 23.1671  13 
   1   1   1 731.761 22.3995   1 
  -2  -1  -1 1093.98 34.2709   1 
  -2  -1  -1 1069.92 34.8628   4 
  -2  -1  -1 1059.64 34.9907   3 
  -2  -1  -1 1072.43 34.4994   5 
  -2  -1  -1 1038.15 34.7862   3 
  -2  -1  -1 1118.85 35.2164   2 
  -2  -1  -1 1089.43 34.2352  14 
  -2  -1  -1 1089.64 34.3138  14 
  -2  -1  -1 1123.57 34.3439   1 
  -2  -1  -1 1103.01 34.7404   7 
   2   1   1 1064.26 35.2949   2 
   2   1   1 1077.01 34.5953   1 
   2   1   1 1086.21 35.5374   2 
   2   1   1 1035.68 34.6692   3 
  -3  -1  -1 646.165 22.4325   4 
  -3  -1  -1 629.000 22.0895   1 
  -3  -1  -1 639.933 22.1071  14 
  -3  -1  -1 640.607 23.3290   2 
  -3  -1  -1 619.367 22.0561  14 
  -3  -1  -1 637.855 22.4248   5 
  -3  -1  -1 630.807 22.5286   7 
  -3  -1  -1 597.229 22.8340   3 
  -3  -1  -1 669.767 25.3811   1 
  -3  -1  -1 645.341 23.1746   3 
   3   1   1 670.048 23.0310   3 
   3   1   1 616.376 23.4202   2 
   3   1   1 652.784 22.7755   1 
   3   1   1 653.741 23.8376   2 
  -4  -1  -1 25.5111 3.64746   3 
  -4  -1  -1 25.3676 3.99160   3 
  -4  -1  -1 24.5386 3.12031  10 
  -4  -1  -1 26.9827 3.32525  14 
  -4  -1  -1 23.0221 3.45109   1 
  -4  -1  -1 25.5649 3.54258  14 
  -4  -1  -1 32.1025 3.92983   5 
  -4  -1  -1 22.8949 3.69306   2 
  -4  -1  -1 23.3897 3.57126   7 
  -4  -1  -1 25.9501 3.31710   4 
   4   1   1 25.5993 3.97291   1 
   4   1   1 33.7619 4.55446   2 
   4   1   1 31.4356 4.46569   2 
   4   1   1 26.0147 3.88758   3 
  -5  -1  -1 255.577 14.0042   3 
  -5  -1  -1 285.661 13.6320   5 
  -5  -1  -1 262.969 12.7934  14 
  -5  -1  -1 280.079 13.6747   7 
  -5  -1  -1 262.836 12.0442  10 
  -5  -1  -1 271.083 12.8876  14 
  -5  -1  -1 276.324 13.0067   1 
  -5  -1  -1 276.265 12.7708   4 
   5   1   1 298.108 15.4641   2 
   5   1   1 286.907 14.0051   1 
   5   1   1 302.401 14.3163   3 
  -6  -1  -1 104.577 7.95011  14 
  -6  -1  -1 113.208 8.40012   1 
  -6  -1  -1 111.338 7.81874   4 
  -6  -1  -1 112.080 8.73388   5 
  -6  -1  -1 115.251 9.59188   3 
  -6  -1  -1 101.188 8.47028   7 
  -6  -1  -1 104.014 6.98103  10 
   6   1   1 116.777 9.43488   1 
   6   1   1 99.1618 9.75976   2 
  -7  -1  -1 76.2123 7.74059  14 
  -7  -1  -1 77.6707 8.40946   5 
  -7  -1  -1 76.8359 7.56295   4 
  -7  -1  -1 74.7853 7.91683   1 
  -7  -1  -1 63.0961 8.57267   3 
  -7  -1  -1 84.3193 8.67808   7 
   7   1   1 65.2959 9.06211   2 
   7   1   1 71.0911 8.69394   1 
  -8  -1  -1 -2.5839 2.94173   5 
  -8  -1  -1 0.45403 3.91370  11 
  -8  -1  -1 -2.3084 2.84206  14 
  -8  -1  -1 3.07289 6.24243   3 
  -8  -1  -1 1.03445 3.11426   1 
   8   1   1 -3.0925 3.07100   1 
   8   1   1 0.17752 4.94207   2 
  -9  -1  -1 8.96189 4.47420   1 
  -9  -1  -1 4.57033 4.12970  14 
  -9  -1  -1 2.73830 4.86388  11 
   9   1   1 7.28078 5.63564   1 
  10  -2  -1 5.72282 5.46089   1 
 -10   2   1 4.21429 5.75971   7 
 -10   2   1 5.66191 5.09605   1 
   9  -2  -1 23.4228 6.31581   1 
  -9   2   1 26.9044 6.72542   7 
  -9   2   1 21.7170 6.27096   1 
  -9   2   1 30.9785 7.48931   3 
   8  -2  -1 70.4468 8.48021   1 
   8  -2  -1 82.5442 9.70089   3 
  -8   2   1 66.7314 8.64563   7 
  -8   2   1 63.7295 8.70094   3 
  -8   2   1 73.2708 8.73189   1 
   7  -2  -1 168.053 11.1895   1 
   7  -2  -1 150.572 11.4697   3 
  -7   2   1 142.695 10.4512   1 
  -7   2   1 136.255 10.0119   7 
  -7   2   1 131.267 10.7165   3 
   6  -2  -1 97.7630 8.60728   3 
   6  -2  -1 100.565 8.70454   2 
   6  -2  -1 97.1719 7.95880   1 
  -6   2   1 109.214 7.97862  14 
  -6   2   1 120.040 5.15035   4 
  -6   2   1 123.439 8.57866   5 
  -6   2   1 119.436 8.29432   7 
  -6   2   1 109.173 9.18198   2 
  -6   2   1 115.781 8.56406   1 
  -6   2   1 124.516 8.31799  12 
  -6   2   1 123.914 8.66783   1 
  -6   2   1 115.661 8.74557   3 
   5  -2  -1 476.576 20.0285   3 
   5  -2  -1 467.679 20.3162   2 
   5  -2  -1 478.474 18.8130  14 
   5  -2  -1 460.032 19.0615   1 
  -5   2   1 458.673 19.0599   1 
  -5   2   1 479.896 19.1650  12 
  -5   2   1 487.228 15.5207   4 
  -5   2   1 482.541 19.0410  14 
  -5   2   1 495.995 19.5236   5 
  -5   2   1 462.795 18.8530   7 
  -5   2   1 465.865 20.4559   2 
  -5   2   1 469.572 19.7259   3 
   4  -2  -1 694.990 24.2835   5 
   4  -2  -1 712.296 25.3890   2 
   4  -2  -1 677.892 24.9334   3 
   4  -2  -1 697.593 24.3380   1 
  -4   2   1 678.375 24.0665   7 
  -4   2   1 672.482 21.1735   4 
  -4   2   1 672.547 25.3037   2 
  -4   2   1 664.667 23.9811  14 
  -4   2   1 679.361 24.4923   5 
  -4   2   1 659.626 24.3656  12 
  -4   2   1 675.923 24.3077   1 
  -4   2   1 662.027 25.4233   2 
  -4   2   1 677.590 24.7673   3 
   3  -2  -1 675.685 22.7950   3 
   3  -2  -1 686.235 22.9052  12 
   3  -2  -1 675.442 22.3086   5 
   3  -2  -1 674.906 22.2859   1 
   3  -2  -1 650.079 22.7997   3 
   3  -2  -1 689.330 22.1215  14 
  -3   2   1 643.594 23.1184   2 
  -3   2   1 591.947 22.5109  12 
  -3   2   1 623.689 22.1945   1 
  -3   2   1 616.279 22.0592   7 
  -3   2   1 612.223 22.3662   3 
  -3   2   1 677.123 22.8114   3 
  -3   2   1 620.087 23.1254   2 
  -3   2   1 643.247 22.3780   5 
  -3   2   1 660.390 22.1266  14 
   2  -2  -1 62.7411 3.50299   5 
   2  -2  -1 68.9159 3.47985   1 
   2  -2  -1 66.1011 3.43543   1 
   2  -2  -1 67.3112 3.77779   3 
   2  -2  -1 62.2242 4.15173  12 
   2  -2  -1 64.5190 3.82721   2 
   2  -2  -1 69.7219 3.94722   3 
   2  -2  -1 66.9174 3.37380  14 
  -2   2   1 60.5042 3.63515   3 
  -2   2   1 62.2677 4.21080  12 
  -2   2   1 62.7914 3.54263   1 
  -2   2   1 58.2904 3.86021   2 
  -2   2   1 63.8544 3.71660   3 
  -2   2   1 67.4703 3.54072  14 
  -2   2   1 62.8618 3.93142   2 
  -2   2   1 65.3860 3.61300   5 
  -2   2   1 58.8365 3.51707   1 
  -2   2   1 59.0851 3.46225   7 
  -2   2   1 61.1577 3.60129  10 
   1  -2  -1 2361.08 69.7897   3 
   1  -2  -1 2404.18 71.0628  10 
   1  -2  -1 2291.91 69.9552   9 
   1  -2  -1 2338.40 70.9936   6 
   1  -2  -1 2345.12 70.6012   4 
   1  -2  -1 2305.75 71.1887  13 
   1  -2  -1 2346.40 70.5823   3 
  -1   2   1 2406.01 69.6506   5 
  -1   2   1 2338.89 70.0433   7 
  -1   2   1 2258.02 71.1053  13 
  -1   2   1 2238.41 69.6489   3 
  -1   2   1 2294.16 69.7236   1 
  -1   2   1 2304.58 71.2359  12 
  -1   2   1 2276.65 69.3940   3 
  -1   2   1 2373.69 71.0055  10 
  -1   2   1 2318.72 70.5477   2 
  -1   2   1 2270.62 69.3863   1 
  -1   2   1 2271.97 70.4892   2 
   0  -2  -1 2462.95 75.1204  11 
   0  -2  -1 2356.35 76.0002   6 
   0  -2  -1 2470.49 76.1650   4 
   0  -2  -1 2397.83 76.2545  13 
   0  -2  -1 2509.06 76.2018  10 
   0   2   1 2611.31 75.2283  11 
   0   2   1 2539.37 75.4647   9 
   0   2   1 2547.75 76.2287  10 
  -1  -2  -1 535.601 18.4316  10 
  -1  -2  -1 538.935 17.4305   3 
  -1  -2  -1 509.242 16.3597  14 
  -1  -2  -1 529.830 16.3938  14 
  -1  -2  -1 551.108 18.8639   4 
  -1  -2  -1 534.857 17.6811  11 
   1   2   1 538.373 18.7672  13 
   1   2   1 538.009 18.4788  10 
   1   2   1 530.470 16.9768   3 
   1   2   1 517.472 17.6115   2 
   1   2   1 528.123 17.0665   1 
   1   2   1 532.914 17.0860   1 
   1   2   1 533.939 17.6445   2 
  -2  -2  -1 322.126 13.4560   2 
  -2  -2  -1 285.627 11.5013   3 
  -2  -2  -1 301.274 10.4875   1 
  -2  -2  -1 304.238 11.8131  10 
  -2  -2  -1 289.275 12.2164   4 
  -2  -2  -1 304.865 10.7398  14 
  -2  -2  -1 292.926 10.8693   5 
  -2  -2  -1 310.671 11.7564   3 
  -2  -2  -1 294.688 10.6547  14 
  -2  -2  -1 286.239 10.4281   1 
  -2  -2  -1 303.820 11.5981  11 
   2   2   1 290.828 11.1872   3 
   2   2   1 294.163 11.3159   1 
   2   2   1 286.911 11.9203   2 
   2   2   1 295.468 12.0770   2 
  -3  -2  -1 81.7838 4.68869   1 
  -3  -2  -1 82.4306 5.63584   3 
  -3  -2  -1 81.7037 5.77094   4 
  -3  -2  -1 76.8987 5.13179  10 
  -3  -2  -1 74.6920 4.64940  14 
  -3  -2  -1 83.1877 4.69858   1 
  -3  -2  -1 83.0188 5.55123   3 
  -3  -2  -1 75.7733 5.15997   7 
  -3  -2  -1 78.9149 4.72921  14 
  -3  -2  -1 84.0064 7.27563   2 
  -3  -2  -1 74.3662 4.91935   5 
   3   2   1 69.7722 5.67822   2 
   3   2   1 80.6664 5.35270   1 
   3   2   1 78.6543 5.95806   2 
   3   2   1 73.3008 5.11078   3 
  -4  -2  -1 0.96727 1.23428  14 
  -4  -2  -1 2.73417 1.67998   1 
  -4  -2  -1 2.18859 1.72037   7 
  -4  -2  -1 3.39107 1.91158   3 
  -4  -2  -1 4.53833 1.80399  10 
  -4  -2  -1 4.64965 2.06172   4 
  -4  -2  -1 3.01412 1.75066   5 
  -4  -2  -1 1.59297 1.96056   3 
  -4  -2  -1 1.67357 1.49749  14 
   4   2   1 7.21564 2.71501   2 
   4   2   1 2.97958 2.01346   3 
   4   2   1 4.33175 2.46903   2 
   4   2   1 6.09267 2.41067   1 
  -5  -2  -1 141.429 8.77713   5 
  -5  -2  -1 134.576 9.07229   7 
  -5  -2  -1 135.318 8.87347   4 
  -5  -2  -1 127.314 9.38722   3 
  -5  -2  -1 143.563 8.42594  14 
  -5  -2  -1 141.502 8.05843  10 
  -5  -2  -1 145.086 8.36999  14 
  -5  -2  -1 129.642 8.08594   1 
   5   2   1 144.688 10.5400   2 
   5   2   1 156.808 9.94629   1 
   5   2   1 145.851 9.31217   3 
  -6  -2  -1 145.165 10.1775   7 
  -6  -2  -1 137.902 9.71871   4 
  -6  -2  -1 137.858 10.6805   3 
  -6  -2  -1 144.082 10.5839  11 
  -6  -2  -1 131.209 9.03153  14 
  -6  -2  -1 144.564 9.14392   1 
  -6  -2  -1 143.967 9.73848   5 
   6   2   1 141.667 11.8121   2 
   6   2   1 130.218 10.3570   1 
  -7  -2  -1 7.80717 4.42229  11 
  -7  -2  -1 11.3621 4.46980   5 
  -7  -2  -1 8.14901 4.23535   3 
  -7  -2  -1 8.73048 3.80711  14 
  -7  -2  -1 9.22789 3.54355   1 
  -7  -2  -1 7.32662 3.70218   4 
   7   2   1 10.2304 5.45500   2 
   7   2   1 7.32703 4.07844   1 
  -8  -2  -1 -1.2016 3.70317  11 
  -8  -2  -1 2.17936 3.51121  14 
  -8  -2  -1 -2.5831 2.34805   1 
  -8  -2  -1 0.96285 3.26707   5 
   8   2   1 2.61548 3.94823   1 
   8   2   1 1.91927 4.54655   2 
  10  -3  -1 27.8606 7.72313   1 
 -10   3   1 34.7538 8.09138   1 
 -10   3   1 26.2894 7.84390   7 
   9  -3  -1 94.8637 11.4151   3 
   9  -3  -1 101.379 10.9573   1 
  -9   3   1 71.6381 10.1479   3 
  -9   3   1 79.0069 10.5465   7 
  -9   3   1 98.4025 10.8191   1 
   8  -3  -1 90.4890 10.3432   3 
   8  -3  -1 107.139 10.0076   1 
  -8   3   1 101.171 9.70685   1 
  -8   3   1 86.6398 9.71968   3 
  -8   3   1 97.9185 9.73897   7 
   7  -3  -1 -0.9974 2.45309   3 
   7  -3  -1 -0.0947 2.29032   1 
   7  -3  -1 1.67801 2.54158   5 
  -7   3   1 4.17298 2.94658  12 
  -7   3   1 4.91994 3.30104   3 
  -7   3   1 6.19130 3.16522   7 
  -7   3   1 4.20779 3.15019   1 
  -7   3   1 0.24208 2.10489   2 
   6  -3  -1 26.8015 5.22907   3 
   6  -3  -1 30.2015 4.76798   1 
   6  -3  -1 29.1828 4.97280   2 
   6  -3  -1 28.7206 4.97859   5 
   6  -3  -1 26.9748 5.01666   5 
  -6   3   1 48.5590 5.64423   1 
  -6   3   1 43.3268 5.52874   3 
  -6   3   1 31.3389 4.94283   1 
  -6   3   1 39.0316 4.91529   7 
  -6   3   1 43.5780 5.75523  12 
  -6   3   1 37.1814 4.81184  14 
  -6   3   1 38.7321 5.03614   5 
   5  -3  -1 333.212 15.7534   3 
   5  -3  -1 346.379 14.8691   1 
   5  -3  -1 354.480 15.0876   5 
   5  -3  -1 353.745 16.2107   2 
  -5   3   1 335.148 16.1195   2 
  -5   3   1 344.099 14.8922   7 
  -5   3   1 341.142 15.2293   5 
  -5   3   1 344.884 15.2417   1 
  -5   3   1 359.822 15.6289   3 
  -5   3   1 339.939 16.3266   2 
  -5   3   1 339.588 15.5303  12 
   4  -3  -1 867.916 28.8283  14 
   4  -3  -1 841.619 29.9358   3 
   4  -3  -1 867.788 29.0285   1 
   4  -3  -1 845.713 29.0519   5 
   4  -3  -1 883.055 29.9509   3 
  -4   3   1 861.136 30.5926   2 
  -4   3   1 842.579 30.5541   2 
  -4   3   1 816.556 30.0130  12 
  -4   3   1 824.275 28.9556   7 
  -4   3   1 840.740 29.4658   5 
  -4   3   1 856.884 28.3530  10 
  -4   3   1 848.137 29.0656  14 
  -4   3   1 822.222 29.1787   1 
  -4   3   1 831.678 29.4436   3 
   3  -3  -1 842.755 29.0200   5 
   3  -3  -1 885.281 28.7068   1 
   3  -3  -1 859.492 28.8897   5 
   3  -3  -1 827.455 28.5572   1 
   3  -3  -1 826.779 29.4462   3 
   3  -3  -1 895.308 29.7749   2 
   3  -3  -1 826.354 29.6479  13 
   3  -3  -1 870.567 28.6143  14 
   3  -3  -1 854.576 29.4151   3 
  -3   3   1 903.228 30.2398   2 
  -3   3   1 924.637 29.5173   3 
  -3   3   1 953.877 29.4776   5 
  -3   3   1 892.434 29.1014   7 
  -3   3   1 870.300 30.2738  12 
  -3   3   1 906.927 29.2391  10 
  -3   3   1 902.324 30.1476   2 
  -3   3   1 936.401 29.8514  14 
  -3   3   1 893.153 29.1795   1 
  -3   3   1 871.079 29.2010   3 
   2  -3  -1 170.379 6.81190   5 
   2  -3  -1 160.647 6.36446   1 
   2  -3  -1 151.598 7.99315  13 
   2  -3  -1 168.197 7.08419   2 
   2  -3  -1 165.195 7.11130   4 
   2  -3  -1 168.409 6.58828  14 
   2  -3  -1 164.627 8.32848  12 
   2  -3  -1 165.333 7.35337   3 
   2  -3  -1 162.056 6.81125   5 
  -2   3   1 211.649 8.40925  10 
  -2   3   1 198.953 8.71050  12 
  -2   3   1 201.423 7.80761   2 
  -2   3   1 221.492 7.84827   1 
  -2   3   1 205.891 7.25630   3 
  -2   3   1 205.246 7.41109   7 
  -2   3   1 199.595 7.20156   3 
  -2   3   1 199.591 7.19601   1 
  -2   3   1 199.583 7.78090   2 
   1  -3  -1 927.816 30.1458  10 
   1  -3  -1 907.495 29.6324   4 
   1  -3  -1 876.341 29.8645   6 
   1  -3  -1 902.204 27.8249   3 
   1  -3  -1 922.519 29.0190   9 
   1  -3  -1 924.106 27.8632   3 
  -1   3   1 892.664 28.9377   9 
  -1   3   1 931.821 30.2562  13 
  -1   3   1 922.827 28.3160   7 
  -1   3   1 919.860 30.2425  12 
   0  -3  -1 477.261 17.7525  10 
   0  -3  -1 485.408 17.8066   4 
   0  -3  -1 492.793 16.2017  11 
   0  -3  -1 483.580 18.0457  13 
   0  -3  -1 461.267 17.6405   6 
   0   3   1 512.564 17.1403   9 
   0   3   1 517.228 16.2537  11 
   0   3   1 501.193 17.8036  10 
   0   3   1 523.208 18.2097  13 
  -1  -3  -1 965.362 33.5320  10 
  -1  -3  -1 1012.04 32.0156   3 
  -1  -3  -1 969.555 31.8307   3 
  -1  -3  -1 973.505 33.9293   6 
  -1  -3  -1 1017.37 32.1932  11 
   1   3   1 1062.00 33.8470  10 
   1   3   1 1056.24 31.5356   1 
   1   3   1 1064.77 31.5501   1 
   1   3   1 1017.19 32.0883   2 
   1   3   1 1033.07 32.1877   2 
  -2  -3  -1 305.730 11.3996  11 
  -2  -3  -1 300.874 12.2766  10 
  -2  -3  -1 299.535 12.9243   4 
  -2  -3  -1 293.071 11.4886   3 
  -2  -3  -1 295.826 9.78121  14 
  -2  -3  -1 288.895 10.2477   5 
  -2  -3  -1 293.878 10.2060   5 
  -2  -3  -1 296.386 9.79863  14 
   2   3   1 261.942 11.6536   2 
   2   3   1 283.075 11.0690   1 
   2   3   1 268.528 10.4773   3 
   2   3   1 275.779 11.7160   2 
  -3  -3  -1 519.313 19.4962  10 
  -3  -3  -1 534.372 17.8441  14 
  -3  -3  -1 532.364 19.8228   3 
  -3  -3  -1 548.457 20.7631   4 
  -3  -3  -1 509.064 18.2084   5 
  -3  -3  -1 529.811 17.2026   1 
  -3  -3  -1 529.313 19.2499  11 
  -3  -3  -1 513.920 17.6885  14 
  -3  -3  -1 494.698 19.4050   3 
  -3  -3  -1 517.905 18.1676   5 
   3   3   1 492.561 18.4616   3 
   3   3   1 489.767 18.9993   1 
   3   3   1 486.936 19.9456   2 
   3   3   1 512.595 20.3303   2 
  -4  -3  -1 41.7938 4.24873   5 
  -4  -3  -1 47.8532 3.71282   1 
  -4  -3  -1 44.0857 4.17975   5 
  -4  -3  -1 40.9611 6.31181   3 
  -4  -3  -1 41.2374 5.07169   3 
  -4  -3  -1 41.4367 4.45330  10 
  -4  -3  -1 38.7306 3.74139  14 
  -4  -3  -1 36.4923 3.76828  14 
  -4  -3  -1 43.5168 4.63385  11 
  -4  -3  -1 47.8089 5.34228   4 
   4   3   1 47.8109 5.75928   2 
   4   3   1 50.1047 5.67512   2 
   4   3   1 55.4354 5.37657   1 
   4   3   1 54.0738 4.75286   3 
  -5  -3  -1 121.183 7.84389   5 
  -5  -3  -1 109.490 7.18659  14 
  -5  -3  -1 137.115 8.97643  11 
  -5  -3  -1 108.814 6.72541   1 
  -5  -3  -1 116.610 7.67346  10 
  -5  -3  -1 120.474 9.02615   4 
  -5  -3  -1 106.937 7.02027  14 
  -5  -3  -1 126.098 7.96113   5 
  -5  -3  -1 117.674 9.05452   3 
   5   3   1 134.145 9.41223   1 
   5   3   1 123.713 9.89907   2 
  -6  -3  -1 55.4200 5.28671   1 
  -6  -3  -1 57.4467 7.62380   3 
  -6  -3  -1 64.8841 6.62917   5 
  -6  -3  -1 62.9187 6.91312  11 
  -6  -3  -1 57.6648 7.02316   4 
  -6  -3  -1 53.7774 5.85816  14 
  -6  -3  -1 61.5270 6.19371   5 
   6   3   1 63.3939 8.80322   2 
   6   3   1 56.8117 7.30858   1 
  -7  -3  -1 23.8940 5.08513  14 
  -7  -3  -1 19.7396 6.07700   3 
  -7  -3  -1 32.0635 6.49261   4 
  -7  -3  -1 21.4317 5.53693  11 
  -7  -3  -1 27.3747 5.70260   5 
   7   3   1 27.2609 7.41343   2 
   7   3   1 17.2654 5.40130   1 
  -8  -3  -1 3.92630 3.90256   5 
  -8  -3  -1 5.76108 3.55906  14 
   8   3   1 4.51305 4.68795   1 
   8   3   1 7.88903 5.26621   2 
  10  -4  -1 27.8726 7.48151   1 
 -10   4   1 31.1437 8.15861   7 
 -10   4   1 20.2049 6.72384   1 
   9  -4  -1 1.87680 3.75601   1 
   9  -4  -1 8.72967 5.09149   3 
  -9   4   1 2.13832 3.85858   1 
  -9   4   1 4.09179 4.73189   7 
   8  -4  -1 39.6125 6.88046   1 
   8  -4  -1 49.5310 8.27907   3 
  -8   4   1 31.9268 6.27987   7 
  -8   4   1 38.6054 7.02055   1 
  -8   4   1 31.4050 6.76152  12 
  -8   4   1 26.7684 6.24628   3 
   7  -4  -1 76.5789 8.34008   3 
   7  -4  -1 86.7117 8.26814   5 
   7  -4  -1 67.6671 7.20987   1 
  -7   4   1 79.7338 8.01050   1 
  -7   4   1 70.2116 7.68450   3 
  -7   4   1 68.8463 8.16857   2 
  -7   4   1 64.5684 7.29861   7 
  -7   4   1 65.1852 7.93176  12 
   6  -4  -1 143.484 10.4700   3 
   6  -4  -1 153.799 9.55304   5 
   6  -4  -1 155.474 9.61671   1 
   6  -4  -1 150.378 9.98119   5 
  -6   4   1 162.370 10.1012   1 
  -6   4   1 163.396 10.8110  12 
  -6   4   1 161.244 9.74287   7 
  -6   4   1 168.184 10.4408   3 
  -6   4   1 155.854 9.97204   1 
  -6   4   1 162.860 11.3788   2 
   5  -4  -1 459.637 18.0822   1 
   5  -4  -1 471.582 19.3070   3 
   5  -4  -1 461.570 17.9323  14 
   5  -4  -1 476.926 18.7881   5 
   5  -4  -1 475.500 18.4637   5 
   5  -4  -1 439.562 19.3141   3 
  -5   4   1 467.200 18.5093  14 
  -5   4   1 435.531 19.7982   2 
  -5   4   1 466.562 20.0319   2 
  -5   4   1 434.140 18.5569   1 
  -5   4   1 454.450 18.3341   7 
  -5   4   1 463.793 18.8685   5 
  -5   4   1 447.118 18.6947   3 
  -5   4   1 445.170 19.5193  12 
   4  -4  -1 178.757 8.89373   5 
   4  -4  -1 184.271 9.57649   3 
   4  -4  -1 182.781 8.73462   5 
   4  -4  -1 179.693 8.35778  14 
   4  -4  -1 183.806 9.30531   3 
   4  -4  -1 179.383 9.32664   2 
   4  -4  -1 171.794 8.40163   1 
   4  -4  -1 187.414 9.59825  13 
  -4   4   1 180.738 9.04287   1 
  -4   4   1 194.180 9.34016   5 
  -4   4   1 180.536 9.79578   2 
  -4   4   1 190.142 10.1124   2 
  -4   4   1 185.344 9.04575   3 
  -4   4   1 202.246 10.4587  12 
  -4   4   1 189.688 8.96072   7 
   3  -4  -1 99.6891 6.39547   6 
   3  -4  -1 102.411 5.94614   3 
   3  -4  -1 108.311 4.88598   1 
   3  -4  -1 103.753 4.96739  14 
   3  -4  -1 103.715 5.39695   5 
   3  -4  -1 107.002 4.94878   4 
   3  -4  -1 104.461 5.22354   5 
   3  -4  -1 107.875 4.96044   1 
   3  -4  -1 99.7298 5.73641   3 
   3  -4  -1 105.888 6.53344  13 
  -3   4   1 106.671 5.61930   1 
  -3   4   1 105.243 6.90520  12 
  -3   4   1 105.979 5.62085   7 
  -3   4   1 106.951 5.55487   3 
  -3   4   1 99.3290 6.12752   2 
  -3   4   1 106.119 6.20147   2 
  -3   4   1 108.942 6.22902  10 
   2  -4  -1 517.368 18.1757   9 
   2  -4  -1 507.850 19.1711   6 
   2  -4  -1 526.779 18.2987   4 
   2  -4  -1 499.712 19.3766  13 
   2  -4  -1 511.001 17.6358   3 
   2  -4  -1 513.577 17.6562   3 
  -2   4   1 523.659 17.4566   7 
  -2   4   1 521.817 17.8316   2 
  -2   4   1 514.480 19.5694  12 
  -2   4   1 532.208 17.9489   2 
  -2   4   1 553.014 16.6538   3 
  -2   4   1 516.246 17.1406   1 
  -2   4   1 545.477 16.6388   3 
  -2   4   1 554.508 19.5016  10 
   1  -4  -1 1020.51 33.3537  10 
   1  -4  -1 967.248 33.0635   6 
   1  -4  -1 971.702 33.3299  13 
   1  -4  -1 1002.47 32.7667   4 
   1  -4  -1 990.964 31.9732   9 
  -1   4   1 980.911 30.4970   7 
  -1   4   1 1012.34 33.2874  10 
  -1   4   1 948.673 33.0004  12 
   0  -4  -1 363.586 15.3218  13 
   0  -4  -1 373.815 15.1701   4 
   0  -4  -1 372.179 15.1629   6 
   0  -4  -1 386.804 12.8804  11 
   0  -4  -1 379.998 15.1395  10 
   0   4   1 398.253 16.3526  10 
   0   4   1 387.577 13.3788  11 
  -1  -4  -1 389.854 16.2916   6 
  -1  -4  -1 377.173 13.6396   3 
  -1  -4  -1 376.404 15.8097  10 
  -1  -4  -1 379.397 13.6204  11 
   1   4   1 425.691 14.1277   2 
   1   4   1 398.759 13.8582   2 
   1   4   1 435.483 13.3488   1 
  -2  -4  -1 209.850 10.3364  10 
  -2  -4  -1 216.271 11.2147   4 
  -2  -4  -1 202.805 9.06574   3 
  -2  -4  -1 214.065 8.88217  11 
   2   4   1 212.131 9.62776   2 
   2   4   1 217.321 8.89272   1 
   2   4   1 203.982 9.62542   2 
  -3  -4  -1 152.408 8.18611   3 
  -3  -4  -1 146.006 9.35636   4 
  -3  -4  -1 143.655 7.44960  11 
  -3  -4  -1 156.120 8.59078  10 
  -3  -4  -1 149.045 8.13238   3 
   3   4   1 136.323 6.59578   3 
   3   4   1 124.970 8.23778   2 
   3   4   1 132.381 7.65480   1 
   3   4   1 127.607 8.27969   2 
  -4  -4  -1 62.0182 4.03807  14 
  -4  -4  -1 63.7757 4.69614   5 
  -4  -4  -1 62.0137 4.12812  14 
  -4  -4  -1 66.5773 5.82096  10 
  -4  -4  -1 64.3887 5.43607  11 
  -4  -4  -1 60.0989 6.55578   4 
  -4  -4  -1 58.6392 4.46325   5 
  -4  -4  -1 54.6370 5.86117   3 
   4   4   1 58.5887 6.56049   2 
   4   4   1 57.4239 5.70457   1 
  -5  -4  -1 54.0370 6.95106   4 
  -5  -4  -1 62.6055 5.47929   5 
  -5  -4  -1 61.5520 4.88640  14 
  -5  -4  -1 67.8824 5.60630   5 
  -5  -4  -1 58.2124 5.79085  10 
  -5  -4  -1 59.2540 6.02592  11 
  -5  -4  -1 62.5584 4.84081  14 
  -5  -4  -1 65.8530 7.21052   3 
   5   4   1 66.2665 7.15393   1 
   5   4   1 65.4159 7.83677   2 
  -6  -4  -1 36.3459 5.14626   5 
  -6  -4  -1 34.9062 6.96700   4 
  -6  -4  -1 37.5776 5.32376   5 
  -6  -4  -1 33.3871 4.28403  14 
  -6  -4  -1 32.6177 4.68170  14 
  -6  -4  -1 47.3082 7.15209   3 
   6   4   1 44.8644 8.47237   2 
   6   4   1 33.8177 6.50741   1 
  -7  -4  -1 21.0978 4.69553   5 
  -7  -4  -1 18.0120 4.41886   5 
  -7  -4  -1 23.8560 6.61762   4 
  -7  -4  -1 22.6517 4.28572  14 
  -7  -4  -1 11.5773 4.64218  14 
   7   4   1 15.2143 6.40154   2 
  10  -5  -1 7.86996 4.97222   1 
 -10   5   1 15.5000 6.86671   7 
 -10   5   1 3.67116 4.77222   1 
   9  -5  -1 1.17028 4.02907   3 
   9  -5  -1 5.79745 4.14544   1 
  -9   5   1 4.45112 4.13879   7 
  -9   5   1 5.29678 4.56699   1 
   8  -5  -1 64.2074 8.94842   3 
   8  -5  -1 57.6119 7.60577   1 
   8  -5  -1 45.0599 7.40927   5 
  -8   5   1 41.4648 7.63535   2 
  -8   5   1 56.3815 7.96748   1 
  -8   5   1 60.9811 7.78709   7 
  -8   5   1 52.5551 8.16540  12 
   7  -5  -1 103.873 8.80738  13 
   7  -5  -1 115.020 8.94827   1 
   7  -5  -1 120.979 10.6136   3 
   7  -5  -1 113.629 9.51850   5 
  -7   5   1 124.107 9.64822   3 
  -7   5   1 117.958 10.5084   2 
  -7   5   1 115.782 9.11111   7 
  -7   5   1 111.748 10.2451  12 
  -7   5   1 117.993 9.65013   1 
   6  -5  -1 108.850 7.89687   5 
   6  -5  -1 114.070 7.86228   1 
   6  -5  -1 103.319 8.69143   3 
   6  -5  -1 117.876 8.54537   5 
   6  -5  -1 102.770 8.11202  13 
  -6   5   1 114.796 9.71458   2 
  -6   5   1 104.480 9.06319  12 
  -6   5   1 120.040 8.53938   3 
  -6   5   1 116.858 8.14988   7 
  -6   5   1 117.005 8.51001   1 
  -6   5   1 123.262 8.69881   1 
   5  -5  -1 175.435 10.4755   3 
   5  -5  -1 190.081 9.15314  14 
   5  -5  -1 196.109 9.67402   5 
   5  -5  -1 177.848 10.1505   3 
   5  -5  -1 184.941 10.7014   6 
   5  -5  -1 198.504 10.6142  13 
   5  -5  -1 183.199 9.85410   5 
   5  -5  -1 186.286 9.12537   1 
  -5   5   1 190.577 11.0277   2 
  -5   5   1 173.626 9.93714   1 
  -5   5   1 189.535 11.4477  12 
  -5   5   1 166.017 9.43455   7 
  -5   5   1 188.330 9.92749   3 
  -5   5   1 184.098 11.1325   2 
   4  -5  -1 185.103 10.2079  13 
   4  -5  -1 188.964 8.26683   1 
   4  -5  -1 176.455 10.0977   6 
   4  -5  -1 184.894 8.25427   1 
   4  -5  -1 175.782 8.52768   5 
   4  -5  -1 189.011 8.33341  14 
   4  -5  -1 180.562 9.52138   3 
   4  -5  -1 180.425 9.69261   3 
   4  -5  -1 193.941 8.99343   5 
  -4   5   1 203.586 10.4983   2 
  -4   5   1 208.037 11.2201  12 
  -4   5   1 221.210 9.60851   7 
  -4   5   1 215.055 9.68589   1 
  -4   5   1 204.021 9.21406   3 
  -4   5   1 215.741 10.5164   2 
   3  -5  -1 449.466 16.5762   4 
   3  -5  -1 440.355 18.2562   6 
   3  -5  -1 454.476 15.6113   5 
   3  -5  -1 463.876 18.6324  13 
   3  -5  -1 464.867 15.1007  14 
   3  -5  -1 450.885 17.2527   9 
   3  -5  -1 429.163 16.9644   3 
   3  -5  -1 465.736 15.5702   5 
  -3   5   1 480.431 16.7404   1 
  -3   5   1 492.525 16.1092   3 
  -3   5   1 470.129 17.6358   2 
  -3   5   1 496.602 17.6535   2 
  -3   5   1 458.502 19.0351  12 
  -3   5   1 493.645 16.7891   7 
   2  -5  -1 760.206 26.8457  13 
   2  -5  -1 685.753 25.9276   6 
   2  -5  -1 733.979 23.8239   3 
   2  -5  -1 727.128 25.2954   4 
   2  -5  -1 730.014 23.7262   3 
   2  -5  -1 746.294 25.1537   9 
  -2   5   1 743.233 23.2752   1 
  -2   5   1 736.479 23.6025   7 
  -2   5   1 702.478 26.4493  12 
  -2   5   1 741.076 24.0596   2 
  -2   5   1 724.913 24.0611   2 
   1  -5  -1 774.181 26.1678   9 
   1  -5  -1 777.802 27.5486  10 
   1  -5  -1 749.590 27.2484   6 
   1  -5  -1 776.397 27.9638  13 
   1  -5  -1 745.326 26.8758   4 
  -1   5   1 761.511 23.8051   7 
  -1   5   1 766.379 27.3033  12 
   0  -5  -1 102.073 7.01143   6 
   0  -5  -1 94.1913 6.78710   4 
   0  -5  -1 90.2880 6.59479  10 
   0  -5  -1 85.6188 6.85416  13 
   0   5   1 117.362 6.29534  11 
   0   5   1 114.332 4.24397   7 
   0   5   1 120.589 6.76860  12 
  -1  -5  -1 368.593 16.1084  10 
  -1  -5  -1 367.711 16.6191   4 
  -1  -5  -1 374.988 13.3774   3 
  -1  -5  -1 395.412 13.1663  11 
  -1  -5  -1 361.114 16.4643   6 
   1   5   1 396.166 12.9567   1 
   1   5   1 387.448 13.6843   2 
   1   5   1 388.353 13.7635   2 
  -2  -5  -1 470.241 16.4853  11 
  -2  -5  -1 457.412 17.2508   3 
  -2  -5  -1 447.772 19.9887   4 
  -2  -5  -1 468.267 19.2007  10 
  -2  -5  -1 449.677 17.0914   3 
   2   5   1 479.725 17.8939   2 
   2   5   1 477.981 17.8291   2 
   2   5   1 479.688 16.9413   1 
  -3  -5  -1 321.178 16.0607   4 
  -3  -5  -1 317.651 14.8324  10 
  -3  -5  -1 319.811 13.8995   3 
  -3  -5  -1 319.967 12.8782  11 
   3   5   1 306.728 14.5069   2 
   3   5   1 309.885 13.5087   1 
   3   5   1 305.376 14.5601   2 
  -4  -5  -1 20.9365 4.88035   4 
  -4  -5  -1 30.2505 4.81200  10 
  -4  -5  -1 30.0317 4.86990   3 
   4   5   1 25.5345 4.50942   1 
   4   5   1 29.0645 5.45169   2 
  -5  -5  -1 28.6483 6.21083   4 
  -5  -5  -1 24.2121 5.35747   3 
   5   5   1 45.6165 7.10457   2 
  -6  -5  -1 53.3099 8.62340   4 
   6   5   1 64.0705 9.63416   2 
  -7  -5  -1 39.2331 8.71109   4 
   7   5   1 36.3026 8.62650   2 
  10  -6  -1 -1.5507 3.64390   1 
 -10   6   1 -4.1491 3.92714   7 
 -10   6   1 -4.0096 3.85066   1 
   9  -6  -1 27.9865 6.47723   1 
   9  -6  -1 26.5733 6.51487  13 
   9  -6  -1 33.6784 8.14701   3 
  -9   6   1 19.5825 6.64762  12 
  -9   6   1 19.8952 5.91140   7 
  -9   6   1 15.9374 5.61759   1 
   8  -6  -1 81.0190 8.54059  13 
   8  -6  -1 79.5944 8.79618   5 
   8  -6  -1 85.4816 8.25447   1 
   8  -6  -1 78.3293 9.98941   3 
  -8   6   1 73.9102 9.98839  12 
  -8   6   1 83.0291 8.64885   7 
  -8   6   1 78.2448 9.69691   2 
  -8   6   1 75.8166 8.96512   1 
   7  -6  -1 153.912 10.5336   5 
   7  -6  -1 160.999 12.2140   3 
   7  -6  -1 138.490 10.9616   6 
   7  -6  -1 148.274 10.6385  13 
   7  -6  -1 147.028 9.71029   1 
  -7   6   1 149.510 12.1515  12 
  -7   6   1 142.464 11.9614   2 
  -7   6   1 150.020 10.2925   7 
  -7   6   1 153.388 11.0111   1 
   6  -6  -1 93.3729 8.13210   6 
   6  -6  -1 66.3652 7.19900   3 
   6  -6  -1 79.3896 6.02618  14 
   6  -6  -1 81.1347 7.36746  13 
   6  -6  -1 79.6714 6.32695   1 
   6  -6  -1 76.1439 6.86537   5 
   6  -6  -1 84.4400 6.55200   5 
  -6   6   1 87.8453 7.50383   1 
  -6   6   1 80.3093 8.30710  12 
  -6   6   1 92.6856 8.75591   2 
  -6   6   1 85.6798 7.06986   7 
  -6   6   1 73.0624 7.02623   1 
   5  -6  -1 98.9875 7.60860   6 
   5  -6  -1 93.7606 6.28551   5 
   5  -6  -1 92.4311 5.01160   8 
   5  -6  -1 93.2507 5.44634   1 
   5  -6  -1 94.1087 5.61739  14 
   5  -6  -1 86.4903 7.58384   3 
   5  -6  -1 88.5883 7.26340  13 
   5  -6  -1 93.7078 6.01180   5 
   5  -6  -1 88.3839 7.20846   3 
  -5   6   1 60.8561 5.41501   3 
  -5   6   1 66.6507 6.55588   2 
  -5   6   1 63.5044 6.80584   2 
  -5   6   1 60.0635 5.63523   7 
  -5   6   1 68.4620 6.07442   1 
  -5   6   1 70.7402 7.55020  12 
   4  -6  -1 44.8811 4.57072   3 
   4  -6  -1 42.1904 5.08768  13 
   4  -6  -1 42.5635 3.39623   4 
   4  -6  -1 44.4512 5.06722   6 
   4  -6  -1 44.9930 4.58571   9 
   4  -6  -1 40.6080 3.40999   5 
   4  -6  -1 37.3524 4.03621   3 
   4  -6  -1 38.8591 3.07717   1 
   4  -6  -1 38.5371 3.41861   5 
   4  -6  -1 37.8799 2.95628  14 
  -4   6   1 39.0247 4.44737   2 
  -4   6   1 40.1174 3.91929   7 
  -4   6   1 44.4462 4.82418   2 
  -4   6   1 35.7511 5.37176  12 
  -4   6   1 45.9034 3.68782   3 
  -4   6   1 42.0416 4.06917   1 
   3  -6  -1 132.103 7.37445   4 
   3  -6  -1 137.998 8.66923   6 
   3  -6  -1 141.009 8.92028  13 
   3  -6  -1 132.511 7.59772   9 
   3  -6  -1 131.283 7.16393   3 
  -3   6   1 162.139 7.04971   7 
  -3   6   1 150.834 6.97686   1 
  -3   6   1 146.637 9.35002  12 
  -3   6   1 157.558 7.80895   2 
  -3   6   1 158.622 7.82472   2 
   2  -6  -1 715.020 24.5836   4 
   2  -6  -1 685.482 24.0370   9 
   2  -6  -1 692.077 25.4046   6 
   2  -6  -1 697.733 25.7922  13 
   2  -6  -1 672.540 22.0432   3 
   2  -6  -1 674.672 21.9256   3 
  -2   6   1 652.557 21.3656   1 
  -2   6   1 639.604 22.0780   2 
  -2   6   1 629.434 22.1019   2 
  -2   6   1 637.720 25.3230  12 
  -2   6   1 665.223 21.5940   7 
   1  -6  -1 390.763 17.0257  13 
   1  -6  -1 395.468 16.5963   6 
   1  -6  -1 359.922 15.9344   4 
   1  -6  -1 376.474 16.5580  10 
  -1   6   1 365.653 15.9757  12 
   0  -6  -1 119.902 8.42631   4 
   0  -6  -1 118.336 8.67726  13 
   0  -6  -1 106.525 8.12350   6 
   0  -6  -1 123.567 8.45246  10 
   0   6   1 151.873 8.30730  12 
   0   6   1 153.198 5.49202  11 
  -1  -6  -1 124.600 8.72902  10 
  -1  -6  -1 123.124 6.17360   3 
  -1  -6  -1 116.511 8.98499   4 
   1   6   1 144.249 8.23128  12 
   1   6   1 153.987 6.84396   2 
   1   6   1 148.254 6.73890   2 
   1   6   1 165.116 6.21976   1 
  -2  -6  -1 87.2680 8.04657   4 
  -2  -6  -1 87.3982 5.63971   3 
  -2  -6  -1 89.0093 7.47385  10 
   2   6   1 91.5148 6.11767   2 
   2   6   1 90.1319 6.09374   2 
  -3  -6  -1 162.453 11.3989   4 
  -3  -6  -1 150.762 9.92930  10 
  -3  -6  -1 149.157 8.68699   3 
   3   6   1 134.055 8.99405   2 
   3   6   1 124.270 8.85404   2 
  -4  -6  -1 31.3974 5.40065   3 
  -4  -6  -1 30.1451 5.16573  10 
  -4  -6  -1 29.2261 6.52212   4 
   4   6   1 32.8061 5.96334   2 
  -5  -6  -1 39.6288 6.56885   3 
  -5  -6  -1 50.1366 8.19602   4 
   5   6   1 55.6667 7.83701   2 
  -6  -6  -1 9.08368 5.55530   4 
   6   6   1 20.7888 6.36284   2 
  10  -7  -1 22.6301 6.86439   6 
  10  -7  -1 19.6018 6.49362   1 
 -10   7   1 24.7609 7.25541   7 
 -10   7   1 16.6164 6.74753   1 
   9  -7  -1 44.2635 8.88765   6 
   9  -7  -1 52.1720 7.74843   1 
   9  -7  -1 47.4780 8.24672   5 
  -9   7   1 51.3945 8.88749   1 
  -9   7   1 66.4069 9.80893  12 
  -9   7   1 44.2250 8.47701   7 
   8  -7  -1 57.4982 8.87652   3 
   8  -7  -1 70.5680 8.19481   5 
   8  -7  -1 76.1868 8.46310  13 
   8  -7  -1 71.9159 7.62128   1 
   8  -7  -1 64.8661 8.71028   6 
  -8   7   1 73.7664 9.99618   2 
  -8   7   1 73.3426 8.97092   1 
  -8   7   1 61.7003 9.81240  12 
  -8   7   1 73.3148 8.18504   7 
   7  -7  -1 89.2035 8.75394  13 
   7  -7  -1 93.2555 9.54279   3 
   7  -7  -1 94.6720 7.38439   1 
   7  -7  -1 104.189 9.68994   6 
   7  -7  -1 93.0508 7.65366   5 
   7  -7  -1 97.9885 8.42860   5 
  -7   7   1 102.575 10.3346   2 
  -7   7   1 99.7064 10.3580  12 
  -7   7   1 91.0013 8.23346   7 
  -7   7   1 115.014 9.54513   1 
   6  -7  -1 80.3353 5.67032   1 
   6  -7  -1 86.2393 6.40395   5 
   6  -7  -1 85.4979 7.98302  13 
   6  -7  -1 88.4218 6.89956   5 
   6  -7  -1 79.4008 7.92542   6 
   6  -7  -1 76.1258 7.92120   3 
   6  -7  -1 87.3230 6.14008  14 
  -6   7   1 84.9813 7.68880   1 
  -6   7   1 92.8476 7.79570   1 
  -6   7   1 82.4685 6.95368   7 
  -6   7   1 87.0312 8.55484   2 
  -6   7   1 75.9289 8.57184  12 
   5  -7  -1 173.591 10.4442   3 
   5  -7  -1 173.326 8.26573   5 
   5  -7  -1 173.278 10.7949   6 
   5  -7  -1 169.740 8.27280   5 
   5  -7  -1 164.995 6.42656   1 
   5  -7  -1 169.796 10.0468   9 
   5  -7  -1 171.578 10.9089  13 
   5  -7  -1 173.086 7.65611  14 
  -5   7   1 150.056 10.3896   2 
  -5   7   1 144.451 11.1975  12 
  -5   7   1 158.319 9.02645   7 
  -5   7   1 140.781 9.10509   1 
  -5   7   1 152.461 9.31097   1 
   4  -7  -1 248.035 13.1136   6 
   4  -7  -1 228.761 10.4162   4 
   4  -7  -1 234.984 11.5076   3 
   4  -7  -1 240.186 11.7477   9 
   4  -7  -1 239.945 13.0458  13 
  -4   7   1 227.957 9.05786   3 
  -4   7   1 244.894 11.0757   1 
  -4   7   1 250.115 10.6453   7 
  -4   7   1 204.214 13.0282  12 
  -4   7   1 241.520 12.1191   2 
  -4   7   1 237.242 11.7724   2 
   3  -7  -1 439.028 16.4940   3 
   3  -7  -1 453.184 19.4021   6 
   3  -7  -1 455.144 16.9076   3 
   3  -7  -1 456.691 18.1749   9 
   3  -7  -1 461.060 19.8261  13 
   3  -7  -1 444.469 17.8024   4 
  -3   7   1 432.137 17.1655   2 
  -3   7   1 454.658 15.9096   7 
  -3   7   1 440.995 17.0507   2 
  -3   7   1 447.290 16.2171   1 
  -3   7   1 418.847 19.6086  12 
   2  -7  -1 442.893 19.5809  13 
   2  -7  -1 434.035 15.0292   3 
   2  -7  -1 434.615 17.9849   4 
   2  -7  -1 421.663 14.8236   3 
   2  -7  -1 409.726 18.4934   6 
   2  -7  -1 411.819 17.2855   9 
  -2   7   1 422.814 15.1377   2 
  -2   7   1 403.445 15.0882   2 
  -2   7   1 430.869 14.4213   1 
  -2   7   1 440.931 19.0942  12 
  -2   7   1 444.616 14.1448   7 
   1  -7  -1 248.563 12.6703   4 
   1  -7  -1 242.923 12.8923   6 
   1  -7  -1 232.146 13.0672  13 
  -1   7   1 223.668 12.0798  12 
   0  -7  -1 8.52891 3.16635   4 
   0  -7  -1 14.5830 3.78088  10 
   0  -7  -1 8.61427 3.29556   6 
   0   7   1 20.9941 3.73519  12 
  -1  -7  -1 90.7401 4.70049   3 
  -1  -7  -1 82.8355 7.96275   4 
  -1  -7  -1 79.0417 7.47631  10 
   1   7   1 84.4183 5.08706   2 
   1   7   1 67.4403 6.07239  12 
   1   7   1 70.7739 4.70187   2 
  -2  -7  -1 399.553 18.5162  10 
  -2  -7  -1 402.239 15.3638   3 
  -2  -7  -1 389.081 19.5156   4 
   2   7   1 364.721 15.7096   2 
   2   7   1 370.406 16.0996  12 
   2   7   1 376.030 15.8542   2 
  -3  -7  -1 87.0646 6.80220   3 
  -3  -7  -1 71.9844 8.78026   4 
  -3  -7  -1 91.5016 8.40349  10 
   3   7   1 74.5150 7.01000   2 
  -4  -7  -1 4.58374 2.82917   3 
  -4  -7  -1 4.70030 3.21654  10 
  -4  -7  -1 3.93181 4.26981   4 
   4   7   1 7.46762 3.83213   2 
  -5  -7  -1 4.83965 4.79593   4 
   5   7   1 7.79803 4.40398   2 
   9  -8  -1 4.86459 4.14543   5 
   9  -8  -1 8.31334 3.82229   1 
   9  -8  -1 5.51429 4.75601   6 
  -9   8   1 13.6446 5.18735   1 
  -9   8   1 4.14354 4.52708   7 
  -9   8   1 5.19549 4.38201   2 
  -9   8   1 -2.1114 7.11468  12 
   8  -8  -1 25.0026 4.91615   1 
   8  -8  -1 10.2800 5.23825   3 
   8  -8  -1 28.6041 6.44645  13 
   8  -8  -1 23.4963 6.52150   6 
   8  -8  -1 21.7969 5.37448   5 
  -8   8   1 32.9496 6.97177   1 
  -8   8   1 24.8511 7.36276  12 
  -8   8   1 21.4257 5.31222   7 
  -8   8   1 27.5965 7.35492   2 
   7  -8  -1 28.7747 4.29224  14 
   7  -8  -1 27.0394 5.69861   9 
   7  -8  -1 24.1290 6.07972   6 
   7  -8  -1 29.7256 4.71662   5 
   7  -8  -1 29.7207 6.46590  13 
   7  -8  -1 28.8799 4.20981   1 
   7  -8  -1 18.4313 4.32603   5 
   7  -8  -1 22.6909 5.97269   3 
  -7   8   1 44.4549 6.17496   7 
  -7   8   1 40.3766 8.03194  12 
  -7   8   1 35.5026 7.65595   2 
  -7   8   1 31.1618 6.12680   1 
   6  -8  -1 140.872 8.05554   5 
   6  -8  -1 138.559 10.6348  13 
   6  -8  -1 131.778 7.07151  14 
   6  -8  -1 130.223 10.5601   6 
   6  -8  -1 142.004 10.4482   3 
   6  -8  -1 139.977 7.89496   5 
   6  -8  -1 130.954 9.64698   9 
  -6   8   1 134.272 9.65096   1 
  -6   8   1 129.560 11.5654  12 
  -6   8   1 151.609 11.4001   2 
  -6   8   1 132.927 9.02218   7 
   5  -8  -1 80.2379 6.90590   9 
   5  -8  -1 71.6190 6.80764   3 
   5  -8  -1 75.9881 7.92767  13 
   5  -8  -1 71.5388 7.74550   6 
  -5   8   1 68.1328 6.32731   1 
  -5   8   1 75.0539 5.89505   7 
  -5   8   1 67.7055 7.10956   2 
  -5   8   1 80.9967 8.78556  12 
  -5   8   1 70.0866 6.33246   1 
   4  -8  -1 77.7358 6.54174   9 
   4  -8  -1 70.8391 7.50973  13 
   4  -8  -1 67.7368 5.86770   3 
   4  -8  -1 77.5299 7.63383   6 
   4  -8  -1 69.9714 5.71119   4 
  -4   8   1 80.7137 5.76827   1 
  -4   8   1 69.8643 6.23395   2 
  -4   8   1 70.8218 6.06657   2 
  -4   8   1 70.5876 5.46150   1 
  -4   8   1 74.1474 5.15615   7 
  -4   8   1 84.5256 8.28963  12 
   3  -8  -1 313.950 13.0677   3 
   3  -8  -1 326.946 14.8860   4 
   3  -8  -1 315.269 14.7798   9 
   3  -8  -1 323.208 16.7544  13 
   3  -8  -1 305.673 16.0661   6 
  -3   8   1 309.012 13.3662   2 
  -3   8   1 329.597 16.8916  12 
  -3   8   1 334.696 13.5169   2 
   2  -8  -1 416.505 19.1416   6 
   2  -8  -1 409.659 17.4688   9 
   2  -8  -1 406.005 14.4169   3 
   2  -8  -1 380.449 17.8401   4 
   2  -8  -1 386.029 14.1323   3 
   2  -8  -1 411.158 19.5452  13 
  -2   8   1 416.319 19.0056  12 
  -2   8   1 408.533 14.6441   2 
  -2   8   1 395.616 14.6542   2 
   1  -8  -1 96.9090 8.42319   6 
   1  -8  -1 101.413 8.56536   4 
   1  -8  -1 92.1928 8.90073  13 
  -1   8   1 106.644 8.31727  12 
   0  -8  -1 37.1160 5.87825   6 
   0  -8  -1 46.6241 6.31836   4 
   0   8   1 43.9083 5.51096  12 
  -1  -8  -1 166.457 7.31306   3 
  -1  -8  -1 145.407 11.4255   4 
  -1  -8  -1 152.520 11.1292  10 
   1   8   1 160.408 9.76278  12 
   1   8   1 161.428 7.88978   2 
   1   8   1 154.979 7.65399   2 
  -2  -8  -1 188.339 12.6437  10 
  -2  -8  -1 181.508 9.21492   3 
  -2  -8  -1 180.525 13.5505   4 
   2   8   1 191.775 10.0227   2 
   2   8   1 190.162 10.1788   2 
  -3  -8  -1 78.0556 8.60239  10 
  -3  -8  -1 79.0913 10.0204   4 
  -3  -8  -1 79.3214 6.82476   3 
   3   8   1 81.3218 7.47867   2 
  -4  -8  -1 7.77144 5.23137   4 
  -4  -8  -1 12.0186 4.24735   3 
   4   8   1 13.5344 4.56796   2 
  -5  -8  -1 32.4440 8.69540   4 
   5   8   1 19.8164 6.11276   2 
   9  -9  -1 24.6151 7.15346   6 
   9  -9  -1 26.9250 7.68994   9 
   9  -9  -1 19.0077 5.50665   5 
  -9   9   1 12.0583 5.61755   1 
  -9   9   1 9.79697 5.45763   2 
  -9   9   1 15.0301 5.77738   7 
   8  -9  -1 3.98823 3.51452   9 
   8  -9  -1 6.82738 3.52149   5 
   8  -9  -1 4.42506 4.06286  13 
   8  -9  -1 14.9645 5.69037   6 
   8  -9  -1 5.64525 2.90679   5 
  -8   9   1 3.92624 4.72286   2 
  -8   9   1 4.50804 4.06931   1 
  -8   9   1 12.0728 6.33821  12 
  -8   9   1 3.93848 3.54858   7 
   7  -9  -1 30.1920 5.59631   9 
   7  -9  -1 34.2233 7.07221  13 
   7  -9  -1 29.6364 6.45369   3 
   7  -9  -1 30.9036 3.98767  14 
   7  -9  -1 29.4435 4.47341   5 
   7  -9  -1 26.8807 6.78561   6 
   7  -9  -1 30.9813 4.89951   5 
  -7   9   1 42.2295 6.24723   7 
  -7   9   1 33.2452 7.52060   2 
  -7   9   1 32.0921 8.09961  12 
  -7   9   1 30.9295 6.89833   1 
   6  -9  -1 82.7433 9.04936  13 
   6  -9  -1 79.3549 7.61090   9 
   6  -9  -1 78.4447 8.29158   3 
   6  -9  -1 74.6007 8.87340   6 
  -6   9   1 85.7924 9.18622   2 
  -6   9   1 75.6756 9.79290  12 
  -6   9   1 81.8067 6.88609   7 
   5  -9  -1 108.293 9.74705   6 
   5  -9  -1 122.514 10.1339  13 
   5  -9  -1 117.720 8.74996   9 
   5  -9  -1 113.684 8.58656   3 
  -5   9   1 103.058 8.86981   2 
  -5   9   1 93.4846 10.1925  12 
   4  -9  -1 94.8905 9.19666  13 
   4  -9  -1 94.2453 7.21668   4 
   4  -9  -1 76.6927 8.39473   6 
   4  -9  -1 77.2444 6.39129   3 
   4  -9  -1 95.7102 7.64239   9 
  -4   9   1 85.9888 6.82926   2 
  -4   9   1 83.5274 9.11054  12 
  -4   9   1 88.7982 7.14564   2 
   3  -9  -1 50.9517 6.16258   4 
   3  -9  -1 45.8788 6.59636   6 
   3  -9  -1 57.1773 4.68455   3 
   3  -9  -1 49.6270 7.35801  13 
   3  -9  -1 52.8954 5.84552   9 
  -3   9   1 50.9333 7.20882  12 
  -3   9   1 53.1022 4.76165   2 
  -3   9   1 54.0744 4.91887   2 
   2  -9  -1 101.624 5.41828   3 
   2  -9  -1 108.354 8.98865   4 
   2  -9  -1 107.005 9.81237  13 
   2  -9  -1 93.8191 9.08440   6 
  -2   9   1 111.427 5.80511   2 
  -2   9   1 108.443 5.94519   2 
  -2   9   1 116.103 9.56798  12 
   1  -9  -1 22.0568 5.45778   4 
   1  -9  -1 24.5049 6.02931  13 
   1  -9  -1 27.4811 6.16636   6 
  -1   9   1 13.3901 4.07901  12 
   0  -9  -1 112.427 10.3331   6 
   0  -9  -1 106.294 9.88580   4 
   0   9   1 112.144 8.80556  12 
  -1  -9  -1 167.353 13.0741   4 
  -1  -9  -1 167.119 7.64158   3 
   1   9   1 177.218 8.56018   2 
   1   9   1 172.191 8.58597   2 
  -2  -9  -1 47.2826 4.76111   3 
  -2  -9  -1 34.1570 7.51777   4 
   2   9   1 50.6184 5.45162   2 
  -3  -9  -1 0.55707 4.17430   4 
  -3  -9  -1 7.38145 3.05651   3 
   3   9   1 13.1269 4.01661   2 
  -4  -9  -1 14.9093 6.90572   4 
   4   9   1 27.4383 6.33739   2 
   8 -10  -1 23.1877 6.92017  13 
   8 -10  -1 23.6459 4.42859   5 
   8 -10  -1 24.3410 4.83664   5 
   8 -10  -1 35.4186 7.71795   6 
   8 -10  -1 32.3254 3.54833  14 
  -8  10   1 33.0262 8.19154   2 
   7 -10  -1 60.1010 8.79673  13 
   7 -10  -1 45.7527 8.28446   6 
   7 -10  -1 50.2290 10.0417   9 
  -7  10   1 81.3555 11.5554  12 
  -7  10   1 52.1695 8.89534   2 
   6 -10  -1 78.0104 9.18107  13 
   6 -10  -1 75.9886 7.83480   9 
   6 -10  -1 68.4961 7.90285   3 
   6 -10  -1 85.7617 9.61848   6 
  -6  10   1 73.8228 8.71698   2 
  -6  10   1 80.2824 10.4661  12 
   5 -10  -1 91.4116 9.72354  13 
   5 -10  -1 78.8336 7.85927   9 
   5 -10  -1 73.6287 7.18898   3 
   5 -10  -1 83.6084 9.41769   6 
  -5  10   1 61.8871 9.25220  12 
  -5  10   1 84.1063 8.20683   2 
   4 -10  -1 68.1077 6.99646   4 
   4 -10  -1 77.5314 9.02000   6 
   4 -10  -1 64.5253 5.98684   3 
   4 -10  -1 76.0237 7.19438   9 
   4 -10  -1 71.9053 9.05676  13 
  -4  10   1 83.2031 9.55965  12 
  -4  10   1 70.0630 6.71196   2 
   3 -10  -1 116.932 8.90982   9 
   3 -10  -1 108.980 6.64363   3 
   3 -10  -1 111.129 10.4808   6 
   3 -10  -1 110.395 9.31596   4 
   3 -10  -1 111.769 10.6515  13 
  -3  10   1 117.641 7.42025   2 
  -3  10   1 114.112 10.4078  12 
  -3  10   1 111.693 6.95076   2 
   2 -10  -1 79.6774 8.76691   4 
   2 -10  -1 90.4725 9.84792   6 
   2 -10  -1 82.7008 9.60915  13 
  -2  10   1 94.4168 9.42392  12 
  -2  10   1 94.9929 5.64652   2 
   1 -10  -1 95.0012 9.89948   6 
   1 -10  -1 92.2536 9.63047   4 
  -1  10   1 82.9347 8.66003  12 
   0 -10  -1 89.5826 10.1147   6 
   0 -10  -1 90.0900 9.86888   4 
  -1 -10  -1 40.1801 8.45907   4 
   1  10   1 51.1645 4.66464   2 
   1  10   1 58.2392 4.89829   2 
  -2 -10  -1 8.49992 5.69777   4 
   2  10   1 14.4485 3.55354   2 
  -3 -10  -1 1.07172 4.86071   4 
   3  10   1 4.05039 3.25117   2 
   8 -11  -1 12.0183 5.83384   6 
  -8  11   1 22.8725 7.19150   2 
   7 -11  -1 20.1918 6.14875  13 
   7 -11  -1 10.4680 5.46731   6 
  -7  11   1 15.2483 5.84349   2 
   6 -11  -1 75.0760 10.0042   6 
   6 -11  -1 87.2502 10.4606  13 
  -6  11   1 61.2368 10.3755  12 
  -6  11   1 73.6192 9.10526   2 
   5 -11  -1 36.5321 8.39671  13 
   5 -11  -1 46.6881 8.37162   6 
   5 -11  -1 43.1018 5.98618   3 
  -5  11   1 35.1047 8.31820  12 
  -5  11   1 39.5541 6.56329   2 
   4 -11  -1 40.2409 8.11818   6 
   4 -11  -1 42.7794 6.35268   4 
   4 -11  -1 42.1398 8.36150  13 
   4 -11  -1 40.2210 5.06986   3 
  -4  11   1 40.8161 5.86843   2 
  -4  11   1 51.2929 9.04730  12 
   3 -11  -1 23.6385 6.53995   6 
   3 -11  -1 31.9991 7.51579  13 
   3 -11  -1 39.6959 6.90437   4 
  -3  11   1 23.3289 4.24604   2 
  -3  11   1 25.2920 3.83335   2 
  -3  11   1 27.3813 6.95496  12 
   2 -11  -1 85.4790 9.67623   4 
   2 -11  -1 72.9307 9.91455   6 
  -2  11   1 83.2198 9.50563  12 
   1 -11  -1 51.1238 8.78631   6 
   1 -11  -1 42.9311 8.39994   4 
   0 -11  -1 73.2146 10.2379   4 
  -1 -11  -1 11.3792 6.29175   4 
   7 -12  -1 33.8883 8.22834   6 
  -7  12   1 27.8904 6.99042   2 
   6 -12  -1 62.8007 10.2140   6 
   6 -12  -1 69.4771 12.2090  13 
  -6  12   1 57.2872 8.80156   2 
   5 -12  -1 54.4272 9.63229  13 
   5 -12  -1 65.9318 10.1459   6 
  -5  12   1 51.2506 7.20377   2 
  -5  12   1 29.3546 10.1520  12 
   4 -12  -1 67.0705 10.2611  13 
   4 -12  -1 64.1215 9.72508   6 
   4 -12  -1 50.9171 5.60975   3 
  -4  12   1 48.2164 9.58092  12 
  -4  12   1 56.6381 6.61494   2 
   3 -12  -1 103.710 12.9681  13 
   3 -12  -1 101.147 11.9663   6 
   3 -12  -1 115.809 10.8773   4 
  -3  12   1 105.437 11.7519  12 
  -3  12   1 101.146 7.19497   2 
   2 -12  -1 98.0050 11.3229   6 
   2 -12  -1 92.0935 11.0456   4 
   1 -12  -1 37.4809 8.77749   6 
   1 -12  -1 39.1437 8.75423   4 
   0 -12  -1 23.9451 7.29596   4 
   4 -13  -1 27.1840 8.48476   6 
  -4  13   1 29.2379 5.80061   2 
   3 -13  -1 59.8158 10.7440   6 
   3 -13  -1 62.5825 9.85156   4 
  -1  13  -2 16.0657 4.44338   2 
   1 -13   2 21.2576 7.14220   4 
  -2  13  -2 4.14943 3.42169   2 
   2 -13   2 -1.3133 4.41769   6 
   2 -13   2 0.74298 4.21386   4 
  -3  13  -2 52.0654 7.53395   2 
   3 -13   2 28.0475 7.75897   9 
   3 -13   2 47.4783 8.89598   6 
  -4  13  -2 73.6022 9.24306   2 
  -4  13  -2 62.1292 10.7740  12 
   4 -13   2 65.2284 9.86248   6 
   4 -13   2 65.0379 9.92860   9 
  -5  13  -2 16.6585 5.92300   2 
   5 -13   2 29.9883 7.44134   6 
   5 -13   2 29.7158 7.57426   9 
   1  12  -2 27.8577 5.79228   2 
  -1 -12   2 18.9772 7.03576   4 
   0  12  -2 62.5034 6.78021   2 
   0 -12   2 35.9858 8.39474   4 
  -1  12  -2 52.6243 6.53938   2 
   1 -12   2 46.8092 8.75352   4 
  -2  12  -2 113.121 12.6614  12 
  -2  12  -2 119.294 9.46791   2 
   2 -12   2 138.996 12.0040   4 
   2 -12   2 106.554 11.1980   6 
  -3  12  -2 155.706 13.6921  12 
  -3  12  -2 153.889 11.4007   2 
   3 -12   2 151.139 12.6506   6 
   3 -12   2 165.035 13.5138   9 
   3 -12   2 172.304 12.1588   4 
  -4  12  -2 108.478 10.4574   2 
  -4  12  -2 105.556 11.9129  12 
   4 -12   2 96.3269 10.5949   6 
   4 -12   2 97.2774 10.9829   9 
  -5  12  -2 4.62139 4.23966   2 
  -5  12  -2 1.11643 5.23202  12 
   5 -12   2 5.00529 4.11235   6 
   5 -12   2 3.15291 4.19113   9 
   5 -12   2 8.08896 6.79677  13 
  -6  12  -2 34.3123 7.85203   2 
   6 -12   2 33.3015 7.30173   6 
   6 -12   2 29.6603 7.89131   9 
  -7  12  -2 104.382 13.0535   2 
   7 -12   2 80.7635 12.3036   6 
   7 -12   2 86.7793 10.8639   9 
   3  11  -2 12.6764 4.80917   2 
  -3 -11   2 21.3016 8.12634   4 
   2  11  -2 39.3719 6.52941   2 
  -2 -11   2 43.0880 9.52622   4 
   1  11  -2 72.1340 7.46639   2 
  -1 -11   2 70.2333 9.95976   4 
   0  11  -2 57.4837 6.43485   2 
   0 -11   2 50.8369 8.29048   4 
  -1  11  -2 55.3222 6.14370   2 
  -1  11  -2 62.5600 10.5019  12 
   1 -11   2 49.3131 7.94141   4 
   1 -11   2 47.7256 8.24491   6 
  -2  11  -2 50.7858 6.51421   2 
  -2  11  -2 52.0340 7.73319  12 
   2 -11   2 62.8849 8.29684   9 
   2 -11   2 57.6205 7.93312   6 
   2 -11   2 60.3373 7.83183   4 
  -3  11  -2 41.9628 7.88931  12 
  -3  11  -2 35.9960 6.34839   2 
   3 -11   2 38.1589 7.04632   9 
   3 -11   2 30.0194 5.62146   4 
   3 -11   2 44.7856 7.46357   6 
  -4  11  -2 117.925 11.8464  12 
  -4  11  -2 118.085 10.3149   2 
   4 -11   2 114.187 10.4816   6 
   4 -11   2 118.822 9.47808   3 
   4 -11   2 104.993 10.5653   9 
   4 -11   2 103.874 9.99643  13 
  -5  11  -2 55.7438 8.57160   2 
  -5  11  -2 71.7980 10.1698  12 
   5 -11   2 64.3958 8.75533   9 
   5 -11   2 66.0505 8.30362  13 
   5 -11   2 65.7812 8.43074   6 
   5 -11   2 62.2318 7.88004   3 
  -6  11  -2 46.7929 10.0872  12 
  -6  11  -2 55.5066 9.30480   2 
   6 -11   2 38.1135 7.44621   6 
   6 -11   2 39.5366 7.58923   9 
  -7  11  -2 40.4359 9.50946   2 
   7 -11   2 23.5755 4.37074   5 
   7 -11   2 21.3064 6.60988   9 
   7 -11   2 28.4781 4.44289  14 
   7 -11   2 24.5308 4.06419  14 
   7 -11   2 27.3492 4.92257   5 
   7 -11   2 28.1563 6.78500   6 
  -8  11  -2 50.7000 11.2474   2 
   8 -11   2 48.1487 7.08171   5 
   8 -11   2 56.0657 9.75861   9 
   4  10  -2 24.4104 5.86578   2 
  -4 -10   2 26.5349 7.51131   4 
   3  10  -2 14.4989 4.77744   2 
  -3 -10   2 18.5754 6.55052   4 
   2  10  -2 6.11819 3.34141   2 
  -2 -10   2 12.6595 5.73507   4 
   1  10  -2 33.6608 5.29288   2 
  -1 -10   2 47.2061 8.09851   4 
   0  10  -2 203.774 11.0023   2 
   0  10  -2 200.709 11.1007   2 
   0 -10   2 197.638 13.7845   4 
  -1  10  -2 183.094 10.4608   2 
  -1  10  -2 183.146 11.7687  12 
  -1  10  -2 185.825 10.5262   2 
   1 -10   2 192.980 12.4672   6 
   1 -10   2 183.103 12.5066   4 
   1 -10   2 181.665 12.6734   9 
  -2  10  -2 58.4692 6.38623   2 
  -2  10  -2 58.9474 7.47538  12 
   2 -10   2 75.4766 7.83857   6 
   2 -10   2 74.4291 7.65319   4 
   2 -10   2 67.1666 7.99625   9 
  -3  10  -2 73.1798 8.48182  12 
  -3  10  -2 82.4635 7.85386   2 
   3 -10   2 91.1788 8.78826   9 
   3 -10   2 89.0581 7.46458   4 
   3 -10   2 80.0179 8.42697  13 
   3 -10   2 80.9520 8.03468   6 
  -4  10  -2 132.962 10.4286   2 
  -4  10  -2 130.771 11.4883  12 
   4 -10   2 117.327 9.75341   6 
   4 -10   2 103.271 9.43881  13 
   4 -10   2 105.329 9.98418   9 
   4 -10   2 108.468 8.90659   3 
  -5  10  -2 92.7486 9.69238   2 
  -5  10  -2 86.8630 10.3436  12 
   5 -10   2 82.6002 8.47984   6 
   5 -10   2 81.1184 8.41987   3 
   5 -10   2 78.9286 8.89093   9 
   5 -10   2 76.8954 8.10745  13 
  -6  10  -2 64.5232 7.82176   1 
  -6  10  -2 59.2778 9.16255   2 
  -6  10  -2 53.4310 9.67712  12 
   6 -10   2 61.4736 8.23068   3 
   6 -10   2 53.2435 5.08292  14 
   6 -10   2 64.3237 8.31403   9 
   6 -10   2 54.1255 7.41241   6 
   6 -10   2 54.9591 4.91313  14 
   6 -10   2 58.9353 5.81633   5 
   6 -10   2 52.9715 5.57473   5 
  -7  10  -2 74.4986 11.0280  12 
  -7  10  -2 72.2720 10.8514   2 
  -7  10  -2 77.5966 9.46270   1 
   7 -10   2 63.7401 7.22919   5 
   7 -10   2 73.5476 9.52037   9 
   7 -10   2 64.9980 6.81969   5 
   7 -10   2 65.7123 8.63028   6 
  -8  10  -2 28.9020 8.50699   2 
  -8  10  -2 30.0013 7.76818   1 
   8 -10   2 29.4983 8.05026   9 
   8 -10   2 39.2455 7.82822   6 
   8 -10   2 24.1191 5.99120   5 
   5   9  -2 17.3389 6.00864   2 
  -5  -9   2 10.1133 5.80827   4 
   4   9  -2 7.31851 3.90862   2 
  -4  -9   2 5.31326 5.05446   4 
   3   9  -2 39.4370 6.73385   2 
  -3  -9   2 46.6561 8.16069   4 
   2   9  -2 43.8896 5.99864   2 
  -2  -9   2 56.1562 8.17896   4 
   1   9  -2 106.692 7.71972   2 
   1   9  -2 100.229 7.64812   2 
  -1  -9   2 110.972 9.89526   4 
   0   9  -2 205.886 10.6036   2 
   0   9  -2 196.378 10.9813  12 
   0   9  -2 202.056 10.6118   2 
   0  -9   2 201.797 12.8482   4 
  -1   9  -2 49.8803 6.08468  12 
  -1   9  -2 61.6533 5.58890   2 
  -1   9  -2 56.2001 5.50827   2 
   1  -9   2 59.3285 6.74880   9 
   1  -9   2 64.1009 6.82547   4 
   1  -9   2 53.3567 6.30349   6 
  -2   9  -2 6.87174 3.34532  12 
  -2   9  -2 9.10613 3.18135   2 
  -2   9  -2 8.76727 2.99391   2 
   2  -9   2 3.28166 2.82944   9 
   2  -9   2 -0.7918 2.25299   4 
   2  -9   2 0.80675 2.31141   6 
  -3   9  -2 65.7757 5.91326   1 
  -3   9  -2 70.8658 5.73970  11 
  -3   9  -2 71.2580 6.99300   2 
  -3   9  -2 63.6872 7.49984  12 
   3  -9   2 60.9039 6.76682   6 
   3  -9   2 68.8305 7.54004   9 
   3  -9   2 68.1227 6.37177   3 
   3  -9   2 65.8318 7.19026  13 
   3  -9   2 71.5713 6.20600   4 
  -4   9  -2 327.358 17.0189   2 
  -4   9  -2 322.131 15.3861   1 
  -4   9  -2 311.494 17.8324  12 
   4  -9   2 322.336 14.7134   4 
   4  -9   2 333.100 16.2747   6 
   4  -9   2 324.203 16.9525   9 
   4  -9   2 328.415 16.1177   3 
   4  -9   2 340.939 16.3852  13 
  -5   9  -2 96.7900 9.82814   2 
  -5   9  -2 97.3442 10.2684  12 
  -5   9  -2 90.3961 8.18504   1 
   5  -9   2 96.9822 6.70220   5 
   5  -9   2 106.888 9.69042   9 
   5  -9   2 101.197 6.29068  14 
   5  -9   2 102.132 6.17056  14 
   5  -9   2 95.6466 6.76914   5 
   5  -9   2 106.501 8.72404  13 
   5  -9   2 108.194 9.25365   3 
   5  -9   2 95.5359 8.30236   6 
  -6   9  -2 21.1637 6.17730   2 
  -6   9  -2 13.0082 5.88945  12 
  -6   9  -2 17.2948 4.91068   1 
   6  -9   2 13.0598 4.82241   3 
   6  -9   2 18.9996 4.55183  13 
   6  -9   2 8.61503 3.60343   5 
   6  -9   2 11.0189 3.32050   5 
   6  -9   2 13.7462 5.08077   9 
   6  -9   2 11.8830 2.93300  14 
   6  -9   2 13.9802 4.42556   6 
   6  -9   2 15.5731 3.06728   1 
  -7   9  -2 25.0642 7.10821   2 
  -7   9  -2 13.6300 5.14129   1 
  -7   9  -2 8.44097 5.44486  12 
   7  -9   2 19.1868 4.21395   1 
   7  -9   2 26.3482 6.65601   3 
   7  -9   2 30.6680 7.17673   9 
   7  -9   2 25.6370 5.90589   6 
   7  -9   2 31.1285 6.15784   5 
  -8   9  -2 13.1031 5.48968   1 
  -8   9  -2 15.6670 6.91028   2 
   8  -9   2 17.9263 6.57724   9 
   8  -9   2 19.3912 5.64706   6 
   8  -9   2 24.9278 6.18253   5 
   8  -9   2 14.6412 4.49309   1 
  -9   9  -2 10.8270 6.19718   1 
   9  -9   2 9.43203 4.42609   1 
   9  -9   2 8.35842 4.73683   5 
   6   8  -2 9.22159 5.52764   2 
  -6  -8   2 5.18673 5.78153   4 
   5   8  -2 44.2083 8.33227   2 
  -5  -8   2 55.6250 9.31883   4 
   4   8  -2 72.2423 8.28057   2 
  -4  -8   2 78.7516 9.83647   4 
   3   8  -2 112.818 9.06992   2 
  -3  -8   2 112.066 10.4638   4 
   2   8  -2 41.8725 5.51757   2 
   2   8  -2 37.6460 5.06234   2 
  -2  -8   2 34.4976 6.28058   4 
   1   8  -2 198.451 10.3843   2 
   1   8  -2 187.665 9.49237  12 
   1   8  -2 201.324 10.3370   2 
  -1  -8   2 199.065 12.5084   4 
   0   8  -2 382.541 14.3381   1 
   0   8  -2 356.442 14.8932   2 
   0   8  -2 346.425 14.8280   2 
   0   8  -2 344.878 15.3518  12 
   0  -8   2 347.192 17.0707   4 
   0  -8   2 340.223 16.5480   6 
  -1   8  -2 253.853 12.8323  12 
  -1   8  -2 254.769 11.8822   2 
  -1   8  -2 232.396 11.5645   2 
  -1   8  -2 242.629 10.7263   1 
   1  -8   2 232.067 12.5105   6 
   1  -8   2 248.489 12.3730   3 
   1  -8   2 252.388 13.5329   9 
   1  -8   2 259.143 13.1294   4 
  -2   8  -2 55.6354 6.25803  12 
  -2   8  -2 47.7318 5.07488   2 
  -2   8  -2 51.7211 5.30825   2 
  -2   8  -2 53.2473 4.08905  11 
  -2   8  -2 50.7481 4.69854   8 
  -2   8  -2 46.6492 4.44101   1 
   2  -8   2 40.6662 4.46878   3 
   2  -8   2 46.0406 5.73514   9 
   2  -8   2 44.4223 5.13823   4 
   2  -8   2 49.0994 5.52685   6 
   2  -8   2 41.9860 5.45557  13 
  -3   8  -2 326.195 15.1284   2 
  -3   8  -2 326.600 15.3505   2 
  -3   8  -2 320.982 13.9830   1 
  -3   8  -2 318.550 16.1635  12 
   3  -8   2 319.456 15.6142   9 
   3  -8   2 307.527 14.7087  13 
   3  -8   2 294.487 14.1934   3 
   3  -8   2 290.434 11.3179   5 
   3  -8   2 296.020 14.4752   6 
   3  -8   2 296.064 13.3883   4 
   3  -8   2 299.343 10.5276  14 
  -4   8  -2 182.790 11.7368   2 
  -4   8  -2 183.219 10.4391   1 
  -4   8  -2 199.517 12.7619  12 
   4  -8   2 171.559 8.52922   4 
   4  -8   2 176.597 10.8497   3 
   4  -8   2 177.334 10.4236   6 
   4  -8   2 172.746 8.17315  14 
   4  -8   2 170.728 11.3951   9 
   4  -8   2 187.344 7.54737   1 
   4  -8   2 173.511 8.31255  14 
   4  -8   2 178.687 8.82691   5 
   4  -8   2 186.917 10.7111  13 
   4  -8   2 173.859 8.87564   5 
  -5   8  -2 60.6640 8.33015  12 
  -5   8  -2 52.4537 6.34883   1 
  -5   8  -2 62.6869 7.76278   2 
   5  -8   2 61.4110 4.88341   1 
   5  -8   2 63.2090 5.90460   5 
   5  -8   2 57.2342 7.03040   9 
   5  -8   2 58.3470 6.93431   3 
   5  -8   2 64.3588 5.59961   5 
   5  -8   2 61.2106 5.17157  14 
   5  -8   2 66.4600 6.63074   6 
   5  -8   2 61.4178 6.15146  13 
  -6   8  -2 36.7770 7.26274  12 
  -6   8  -2 36.9147 6.36356   1 
  -6   8  -2 53.9632 8.16331   2 
   6  -8   2 36.9113 5.76291   5 
   6  -8   2 32.0607 4.84319   5 
   6  -8   2 39.6166 6.80851   9 
   6  -8   2 34.3533 6.62119   3 
   6  -8   2 36.4550 5.21047  13 
   6  -8   2 31.8889 4.83976   1 
   6  -8   2 43.2079 5.99692   6 
  -7   8  -2 52.3360 8.84254   2 
  -7   8  -2 48.6149 8.03039   1 
   7  -8   2 41.0648 6.88031   6 
   7  -8   2 45.7546 8.02709   3 
   7  -8   2 52.9861 7.11384   5 
   7  -8   2 52.2170 6.67451   1 
  -8   8  -2 26.2571 7.03293   1 
   8  -8   2 15.1445 5.46916   5 
   8  -8   2 17.3469 6.11831   3 
   8  -8   2 17.8336 5.47649   1 
   8  -8   2 15.6161 5.23593   6 
  -9   8  -2 6.10868 5.33266   1 
   9  -8   2 0.21351 3.84673   1 
   9  -8   2 5.35599 4.46201   6 
   6   7  -2 9.19297 5.18582   2 
  -6  -7   2 6.89492 5.35168   4 
   5   7  -2 21.6111 6.23468   2 
  -5  -7   2 23.2523 5.61028   3 
  -5  -7   2 26.7674 7.03344   4 
   4   7  -2 156.181 11.2384   2 
  -4  -7   2 149.183 12.0310   4 
   3   7  -2 150.905 10.9982   1 
   3   7  -2 144.594 9.86540   2 
  -3  -7   2 137.519 10.8322   4 
   2   7  -2 135.924 7.93622   1 
   2   7  -2 144.622 8.92924   2 
   2   7  -2 140.338 6.53467  12 
   2   7  -2 143.482 8.86603   2 
  -2  -7   2 164.922 10.8097   4 
   1   7  -2 288.393 11.8540  12 
   1   7  -2 262.674 12.3867   2 
   1   7  -2 264.097 12.3059   2 
   1   7  -2 279.828 11.7006   1 
  -1  -7   2 310.829 14.9058   4 
   0   7  -2 490.703 17.4873   1 
   0   7  -2 480.681 18.6799  12 
   0   7  -2 479.643 18.3656   2 
   0   7  -2 461.709 18.1089   2 
   0  -7   2 492.957 20.3202   4 
   0  -7   2 479.939 19.7300   6 
   0  -7   2 478.726 17.7629   3 
   0  -7   2 481.302 20.3286   9 
  -1   7  -2 239.990 11.2133   2 
  -1   7  -2 243.251 11.2154   2 
  -1   7  -2 253.225 9.08120  11 
  -1   7  -2 231.950 11.8318  12 
  -1   7  -2 233.098 10.4483   8 
  -1   7  -2 243.530 10.3477   1 
   1  -7   2 252.475 12.1663   4 
   1  -7   2 229.104 11.5921   6 
   1  -7   2 259.530 12.7586   9 
  -2   7  -2 93.5647 7.21648  12 
  -2   7  -2 87.4735 6.48307   2 
  -2   7  -2 82.5223 5.88326   8 
  -2   7  -2 85.8245 6.44424   2 
  -2   7  -2 84.6158 4.81362   3 
  -2   7  -2 80.7406 5.55311   1 
   2  -7   2 84.0186 6.92271   9 
   2  -7   2 98.1115 6.09578   3 
   2  -7   2 91.4569 4.36003   5 
   2  -7   2 81.4104 6.51797  13 
   2  -7   2 100.770 6.43860   3 
   2  -7   2 97.5098 6.38953   4 
   2  -7   2 109.681 6.89776   6 
  -3   7  -2 450.673 17.6124   1 
  -3   7  -2 431.918 18.7153   2 
  -3   7  -2 420.939 19.3828  12 
  -3   7  -2 455.448 18.8594   2 
  -3   7  -2 437.949 16.7314   3 
   3  -7   2 426.484 16.5656   4 
   3  -7   2 448.017 15.0372   1 
   3  -7   2 458.478 18.1002   3 
   3  -7   2 427.131 16.0722   5 
   3  -7   2 421.417 15.5743  14 
   3  -7   2 424.294 15.5535  14 
   3  -7   2 437.063 16.1789   5 
   3  -7   2 437.060 18.9946   9 
   3  -7   2 431.318 17.9180  13 
   3  -7   2 425.453 17.9996   3 
   3  -7   2 448.998 17.9266   6 
  -4   7  -2 527.294 20.2879   3 
  -4   7  -2 549.957 28.6638   2 
  -4   7  -2 534.708 23.1825  12 
  -4   7  -2 527.145 22.2992   2 
  -4   7  -2 507.846 20.7410   1 
   4  -7   2 501.988 18.9716  14 
   4  -7   2 538.448 22.3510   9 
   4  -7   2 484.843 18.6515   1 
   4  -7   2 487.735 19.3714   5 
   4  -7   2 513.918 18.0713   4 
   4  -7   2 501.267 18.4344   8 
   4  -7   2 513.933 21.4491   3 
   4  -7   2 522.154 20.6383   6 
   4  -7   2 508.553 19.7057   5 
   4  -7   2 516.352 20.1568  13 
  -5   7  -2 165.726 11.8153   2 
  -5   7  -2 156.181 11.9761  12 
  -5   7  -2 156.470 10.4627   1 
  -5   7  -2 184.479 10.1113   7 
   5  -7   2 176.007 10.3572   6 
   5  -7   2 177.106 9.60196   1 
   5  -7   2 175.124 11.4497   3 
   5  -7   2 190.289 10.5109   5 
   5  -7   2 173.650 9.80098   5 
   5  -7   2 177.418 9.76495  13 
   5  -7   2 189.122 9.70510  14 
   5  -7   2 190.162 11.9748   9 
  -6   7  -2 23.3949 5.95295  12 
  -6   7  -2 44.8198 6.35570   1 
  -6   7  -2 37.1074 5.40936   7 
  -6   7  -2 34.3786 6.87897   2 
   6  -7   2 36.8411 5.76428   5 
   6  -7   2 23.8118 5.69540   3 
   6  -7   2 36.9062 4.82715  13 
   6  -7   2 30.1379 5.39418   6 
   6  -7   2 33.2010 5.19386   1 
  -7   7  -2 120.821 10.6667   1 
  -7   7  -2 113.891 9.62053   7 
  -7   7  -2 117.637 11.5440   2 
   7  -7   2 117.005 9.53760   1 
   7  -7   2 111.967 9.43952   6 
   7  -7   2 93.8741 10.4011   3 
   7  -7   2 103.661 9.57188   5 
  -8   7  -2 47.0458 8.52792   1 
   8  -7   2 47.8518 8.97676   3 
   8  -7   2 55.2470 7.87508   6 
   8  -7   2 57.7100 7.96216   1 
  -9   7  -2 42.2478 8.96257   1 
   9  -7   2 45.2513 8.53530   6 
   9  -7   2 45.3834 8.56060   1 
   7   6  -2 12.0986 6.31195   2 
  -7  -6   2 13.8958 3.19897  14 
  -7  -6   2 16.5213 4.04600   5 
  -7  -6   2 14.2047 3.20898  14 
  -7  -6   2 23.4558 4.81660   5 
  -7  -6   2 17.8377 6.53546   4 
   6   6  -2 -3.9640 3.10961   2 
  -6  -6   2 0.36204 3.29763   3 
  -6  -6   2 1.33793 2.19962   5 
  -6  -6   2 -0.5081 2.13273   5 
  -6  -6   2 1.76346 1.96162  14 
  -6  -6   2 -1.7337 1.67600  14 
  -6  -6   2 -1.4169 3.27380   4 
   5   6  -2 142.914 11.6552   2 
   5   6  -2 155.731 10.7538   1 
  -5  -6   2 145.054 8.09535   5 
  -5  -6   2 148.733 7.15856  14 
  -5  -6   2 157.624 11.0636   3 
  -5  -6   2 146.896 7.32542  14 
  -5  -6   2 151.643 8.28410   5 
  -5  -6   2 126.319 11.0279   4 
   4   6  -2 184.734 10.5813   1 
   4   6  -2 185.370 11.5863   2 
  -4  -6   2 159.829 7.00822  14 
  -4  -6   2 168.179 7.14507  14 
  -4  -6   2 158.392 11.5428   4 
  -4  -6   2 167.031 8.66510   7 
  -4  -6   2 179.476 8.27170   5 
  -4  -6   2 162.014 7.91684   5 
   3   6  -2 31.3959 4.32581   1 
   3   6  -2 27.3433 4.54792   2 
   3   6  -2 27.5030 4.59350   2 
  -3  -6   2 29.6023 5.40696   4 
  -3  -6   2 22.5437 2.74414   7 
   2   6  -2 16.4530 2.08167   3 
   2   6  -2 14.1443 3.32838   2 
   2   6  -2 15.8583 3.36314   2 
   2   6  -2 17.4239 2.00485  12 
   2   6  -2 16.9435 3.08602   1 
  -2  -6   2 23.3241 4.39087   4 
  -2  -6   2 24.1558 2.08604   7 
   1   6  -2 366.972 12.0632   3 
   1   6  -2 339.636 14.3714   2 
   1   6  -2 362.323 13.6049  12 
   1   6  -2 355.244 14.5071   2 
   1   6  -2 365.104 13.7609   1 
  -1  -6   2 354.270 16.0518   4 
   0   6  -2 260.350 11.0343   2 
   0   6  -2 262.401 8.90990   3 
   0   6  -2 246.286 10.1552   1 
   0   6  -2 247.497 11.0185  12 
   0   6  -2 243.968 10.8479   2 
   0   6  -2 270.588 11.0958   2 
   0  -6   2 251.980 12.4448   9 
   0  -6   2 241.645 12.0202  12 
   0  -6   2 243.510 11.9763   4 
   0  -6   2 257.209 11.7869   6 
  -1   6  -2 143.654 8.25543  12 
  -1   6  -2 151.129 7.95269   2 
  -1   6  -2 151.636 7.32789   8 
  -1   6  -2 142.267 7.02708   1 
  -1   6  -2 149.710 7.89866   2 
  -1   6  -2 149.696 6.41108   3 
  -1   6  -2 142.619 6.37331  11 
   1  -6   2 149.048 8.19064   4 
   1  -6   2 163.426 9.06699   9 
   1  -6   2 158.158 8.17680   6 
  -2   6  -2 137.589 6.74785   3 
  -2   6  -2 122.593 7.69788   2 
  -2   6  -2 130.048 7.74104   2 
  -2   6  -2 133.625 8.34703  12 
  -2   6  -2 128.646 7.01002   1 
   2  -6   2 137.505 7.54550   3 
   2  -6   2 130.947 7.50313  13 
   2  -6   2 138.813 7.47057   6 
   2  -6   2 128.095 8.13936   9 
   2  -6   2 137.523 6.01238  14 
   2  -6   2 136.866 6.06063  14 
   2  -6   2 133.712 7.26771   3 
   2  -6   2 145.050 7.24704   4 
   2  -6   2 132.040 5.47091   1 
   2  -6   2 133.350 6.29629   5 
   2  -6   2 129.573 6.25488   5 
  -3   6  -2 320.892 14.5985   2 
  -3   6  -2 331.015 15.4215  12 
  -3   6  -2 332.888 14.8864   2 
  -3   6  -2 328.992 13.4363   3 
  -3   6  -2 331.338 13.8284   1 
   3  -6   2 318.636 12.3609   1 
   3  -6   2 301.659 12.1771   1 
   3  -6   2 313.533 12.9746   5 
   3  -6   2 302.703 14.0008   3 
   3  -6   2 307.354 12.1802   4 
   3  -6   2 309.592 13.2719  13 
   3  -6   2 313.564 14.6584   9 
   3  -6   2 327.742 14.0683   3 
   3  -6   2 312.345 12.4639  14 
   3  -6   2 318.372 13.4768   6 
   3  -6   2 316.192 12.9229   5 
   3  -6   2 326.949 13.4277   8 
  -4   6  -2 182.292 9.58429   7 
  -4   6  -2 173.295 9.91752   3 
  -4   6  -2 187.244 11.4624   2 
  -4   6  -2 192.773 11.8430  12 
  -4   6  -2 195.989 11.4806   2 
  -4   6  -2 171.886 10.1309   1 
   4  -6   2 198.944 9.93420   5 
   4  -6   2 193.423 11.0227   3 
   4  -6   2 211.468 7.70092   4 
   4  -6   2 204.547 9.69852  13 
   4  -6   2 192.405 9.63406   8 
   4  -6   2 198.420 9.64343   1 
   4  -6   2 207.419 10.3339   5 
   4  -6   2 199.151 9.52303  14 
   4  -6   2 211.389 10.9353   3 
   4  -6   2 192.783 9.97597   6 
  -5   6  -2 85.5960 8.53221   2 
  -5   6  -2 90.6566 7.07904   7 
  -5   6  -2 87.0578 7.41756   3 
  -5   6  -2 82.2798 8.50229  12 
  -5   6  -2 92.9495 7.75656   1 
   5  -6   2 133.878 8.14253   6 
   5  -6   2 106.750 6.82771  13 
   5  -6   2 112.502 7.43932  14 
   5  -6   2 112.647 7.68281   5 
   5  -6   2 114.050 8.97781   3 
   5  -6   2 132.470 8.55700   5 
   5  -6   2 131.081 8.11134   1 
  -6   6  -2 59.6869 7.00846   1 
  -6   6  -2 55.6623 6.63493   3 
  -6   6  -2 55.1433 7.54117   2 
  -6   6  -2 56.7701 6.19124   7 
   6  -6   2 49.5921 6.45802   5 
   6  -6   2 52.5283 7.30438   3 
   6  -6   2 52.1807 6.26396   1 
   6  -6   2 48.3062 4.98334  13 
  -7   6  -2 158.910 13.0277   2 
  -7   6  -2 155.292 11.9572   1 
  -7   6  -2 145.121 10.7900   7 
   7  -6   2 145.451 11.3616   5 
   7  -6   2 159.053 12.5887   3 
   7  -6   2 141.118 10.9720   1 
  -8   6  -2 41.2982 7.69758   7 
  -8   6  -2 40.1774 8.23553   1 
   8  -6   2 41.6134 7.76305   1 
   8  -6   2 43.0391 8.76098   3 
  -9   6  -2 27.0653 7.15583   1 
   9  -6   2 21.8241 6.71889   1 
   9  -6   2 24.4798 7.37360   3 
   8   5  -2 19.4799 7.78003   2 
  -8  -5   2 16.4892 6.42224   4 
  -8  -5   2 17.3932 4.50058  14 
  -8  -5   2 16.0772 4.81750   5 
   7   5  -2 36.7237 7.81388   1 
   7   5  -2 37.1156 8.79957   2 
  -7  -5   2 35.7703 5.59996   5 
  -7  -5   2 36.7073 5.50297  14 
  -7  -5   2 29.3703 6.03462   5 
  -7  -5   2 34.9760 6.24552   7 
  -7  -5   2 24.0996 6.67920   4 
   6   5  -2 69.0320 8.55519   1 
   6   5  -2 83.5586 10.1565   2 
  -6  -5   2 95.3277 9.64829   4 
  -6  -5   2 90.0508 7.78971   7 
  -6  -5   2 87.3963 7.21494   5 
  -6  -5   2 86.4230 7.33637   5 
  -6  -5   2 92.6498 6.96873  14 
  -6  -5   2 71.0978 8.41462   3 
  -6  -5   2 77.1271 6.33231  14 
   5   5  -2 220.471 13.9669   2 
   5   5  -2 214.299 12.6294   1 
  -5  -5   2 227.361 13.2058   3 
  -5  -5   2 211.482 10.9396   5 
  -5  -5   2 222.390 10.4577  14 
  -5  -5   2 224.734 11.4819   7 
  -5  -5   2 211.259 9.51585   1 
  -5  -5   2 227.034 13.5951   4 
  -5  -5   2 219.031 11.1412   5 
  -5  -5   2 213.865 10.3179  14 
   4   5  -2 146.822 10.1097   2 
   4   5  -2 154.588 9.37064   1 
  -4  -5   2 155.151 6.89563   1 
  -4  -5   2 145.280 7.44856  14 
  -4  -5   2 142.573 7.99084   7 
  -4  -5   2 144.679 7.45904  14 
  -4  -5   2 156.718 8.17448   5 
  -4  -5   2 147.622 7.97943   5 
  -4  -5   2 163.652 10.5745   4 
   3   5  -2 9.31538 2.93551   2 
   3   5  -2 10.0572 2.70778   1 
   3   5  -2 5.56590 2.46095   2 
   3   5  -2 6.73099 1.99452   3 
  -3  -5   2 8.79353 1.88207  14 
  -3  -5   2 9.45066 2.11662   7 
  -3  -5   2 8.88596 1.90617  14 
  -3  -5   2 9.51363 2.10988   5 
  -3  -5   2 10.8094 1.52729   1 
  -3  -5   2 12.2152 2.91212   3 
  -3  -5   2 9.52493 2.16225   5 
  -3  -5   2 3.31605 2.55386   4 
   2   5  -2 128.750 7.77932  10 
   2   5  -2 124.077 7.51430   2 
   2   5  -2 113.643 5.96204   3 
   2   5  -2 126.751 7.61357   2 
   2   5  -2 128.851 6.86557   1 
  -2  -5   2 129.382 5.41943  14 
  -2  -5   2 120.212 5.80857   5 
  -2  -5   2 130.939 5.68971   7 
  -2  -5   2 121.764 8.09621   4 
  -2  -5   2 124.942 5.79332   5 
  -2  -5   2 120.981 5.35676  14 
  -2  -5   2 126.909 7.00626   3 
   1   5  -2 1721.46 53.2035  12 
   1   5  -2 1717.63 52.9164   3 
   1   5  -2 1684.43 54.4535   2 
   1   5  -2 1729.70 54.5837   2 
   1   5  -2 1710.22 53.6675   1 
  -1  -5   2 1685.23 52.4163   5 
  -1  -5   2 1724.48 51.8876   7 
  -1  -5   2 1717.82 55.9672   4 
  -1  -5   2 1705.40 51.9329  14 
  -1  -5   2 1703.18 51.9236  14 
   0   5  -2 909.211 28.2800   1 
   0   5  -2 881.802 27.5977   3 
   0   5  -2 876.937 29.0007   2 
   0   5  -2 885.860 29.0151   2 
   0   5  -2 881.788 28.9098  12 
   0   5  -2 882.703 26.4873  11 
   0   5  -2 870.205 28.9385   2 
   0   5  -2 900.242 27.6748   3 
   0  -5   2 824.894 29.1462   6 
   0  -5   2 850.773 27.0915   5 
   0  -5   2 849.109 29.8403   4 
   0  -5   2 876.851 28.7871  12 
   0  -5   2 831.891 26.6563  14 
   0  -5   2 775.785 29.7386   9 
   0  -5   2 815.150 26.6324  14 
   0  -5   2 848.066 27.1467   5 
  -1   5  -2 66.8251 4.07973  11 
  -1   5  -2 58.1424 4.76605   2 
  -1   5  -2 67.4338 4.38940   1 
  -1   5  -2 61.5968 4.05979   3 
  -1   5  -2 70.6569 5.24101  12 
  -1   5  -2 65.3609 4.95887   2 
  -1   5  -2 70.4342 4.65721   8 
   1  -5   2 82.2848 5.36790  13 
   1  -5   2 82.1027 3.94708  14 
   1  -5   2 79.8650 4.98631   3 
   1  -5   2 82.7107 4.80506   3 
   1  -5   2 88.1362 5.33643   4 
   1  -5   2 83.5247 5.76610   9 
   1  -5   2 87.2910 3.95095  14 
   1  -5   2 82.1972 4.11964   5 
   1  -5   2 80.8420 4.96527   6 
   1  -5   2 86.3920 3.63807   1 
   1  -5   2 86.8578 4.22879   5 
  -2   5  -2 156.045 7.62985   3 
  -2   5  -2 163.897 8.51540   2 
  -2   5  -2 159.592 7.62348  13 
  -2   5  -2 160.829 8.95663  12 
  -2   5  -2 160.174 8.53270   2 
  -2   5  -2 161.111 7.75646   1 
   2  -5   2 156.729 7.27394   4 
   2  -5   2 161.699 7.08896  14 
   2  -5   2 162.774 7.00592   1 
   2  -5   2 155.547 7.67420  13 
   2  -5   2 151.879 8.56459   9 
   2  -5   2 156.132 6.92170   1 
   2  -5   2 167.304 8.00273   2 
   2  -5   2 164.617 8.09731   3 
   2  -5   2 154.165 7.26671   5 
   2  -5   2 155.603 7.51036   6 
   2  -5   2 161.887 7.45397   5 
   2  -5   2 153.134 8.11738   3 
  -3   5  -2 1105.57 37.3794   1 
  -3   5  -2 1110.97 38.6060   2 
  -3   5  -2 1088.04 38.9057  12 
  -3   5  -2 1169.71 37.2895  14 
  -3   5  -2 1146.87 38.6798   2 
  -3   5  -2 1122.53 37.3453   3 
  -3   5  -2 1167.38 37.7166   5 
   3  -5   2 1136.59 36.9631   8 
   3  -5   2 1158.08 38.3007   2 
   3  -5   2 1075.72 37.6202   3 
   3  -5   2 1069.50 37.7962   3 
   3  -5   2 1079.37 36.1272  13 
   3  -5   2 1100.97 36.7250   6 
   3  -5   2 1100.09 36.4260  14 
   3  -5   2 1100.80 37.0085   5 
   3  -5   2 1082.58 36.8732   5 
   3  -5   2 1084.61 36.4956   1 
   3  -5   2 1085.46 35.0460   4 
  -4   5  -2 105.641 7.22444   5 
  -4   5  -2 104.011 7.09665   3 
  -4   5  -2 102.894 6.87837  14 
  -4   5  -2 114.077 6.93857   7 
  -4   5  -2 110.589 8.19617   2 
  -4   5  -2 115.836 8.34567  12 
  -4   5  -2 101.151 7.78445   2 
  -4   5  -2 99.6436 7.08007   1 
   4  -5   2 96.9352 7.45107   3 
   4  -5   2 95.8593 7.03037   3 
   4  -5   2 103.363 7.15371   5 
   4  -5   2 100.280 6.76127   5 
   4  -5   2 105.589 6.80700   1 
   4  -5   2 102.319 6.58143   6 
   4  -5   2 106.312 6.59161  14 
   4  -5   2 96.5887 5.84966  13 
  -5   5  -2 73.4381 7.48014  12 
  -5   5  -2 77.5465 7.73328   2 
  -5   5  -2 73.4572 6.76433   3 
  -5   5  -2 84.4398 7.10286   1 
  -5   5  -2 75.2288 8.24714  14 
  -5   5  -2 79.2650 6.42963   7 
   5  -5   2 69.9582 5.17971  13 
   5  -5   2 85.4868 7.11787   5 
   5  -5   2 73.8411 6.50844   1 
   5  -5   2 75.8009 7.25134   3 
  -6   5  -2 53.7036 6.52790   1 
  -6   5  -2 41.1749 5.89756   3 
  -6   5  -2 47.9808 7.01461   2 
  -6   5  -2 50.3357 5.85191   7 
   6  -5   2 39.4413 6.39336   3 
   6  -5   2 28.8311 5.46875   5 
   6  -5   2 37.3502 5.57230   1 
   6  -5   2 39.9731 4.49854  13 
  -7   5  -2 104.839 9.21279   7 
  -7   5  -2 94.5331 9.45359   1 
  -7   5  -2 96.1859 9.64434   3 
   7  -5   2 81.1189 9.28616   3 
   7  -5   2 103.034 9.29367   1 
  -8   5  -2 31.3855 7.30990   1 
  -8   5  -2 30.5553 6.72650   7 
   8  -5   2 33.1328 7.71545   3 
   8  -5   2 36.3935 7.30146   1 
  -9   5  -2 -2.6423 3.81716   1 
   9  -5   2 0.05456 4.11030   1 
   9  -5   2 7.67179 5.53654   3 
   8   4  -2 15.4641 6.11491   1 
   8   4  -2 21.0016 7.56679   2 
  -8  -4   2 13.2817 4.28229  14 
  -8  -4   2 8.96665 4.45461   5 
  -8  -4   2 13.2338 5.19455   7 
  -8  -4   2 12.1146 5.50331   4 
   7   4  -2 31.7664 6.98805   1 
   7   4  -2 32.8265 7.86976   2 
  -7  -4   2 38.1295 7.47419   3 
  -7  -4   2 32.3378 5.83133  14 
  -7  -4   2 32.1277 5.25325   1 
  -7  -4   2 30.3451 6.16226   5 
  -7  -4   2 45.9879 6.83168   7 
  -7  -4   2 39.0033 7.04611   4 
   6   4  -2 201.504 13.2470   1 
   6   4  -2 193.958 14.3736   2 
  -6  -4   2 189.590 12.6866   4 
  -6  -4   2 205.499 11.2736  14 
  -6  -4   2 233.623 12.3396   5 
  -6  -4   2 213.990 12.1780   7 
  -6  -4   2 206.450 11.7881   5 
  -6  -4   2 215.990 13.6157   3 
  -6  -4   2 223.045 11.1882   1 
   5   4  -2 105.867 8.40706   1 
   5   4  -2 113.471 9.64071   2 
  -5  -4   2 114.623 7.33931  14 
  -5  -4   2 124.226 8.01635   5 
  -5  -4   2 113.404 7.78215   7 
  -5  -4   2 111.029 8.81358   3 
  -5  -4   2 112.525 7.05559   1 
  -5  -4   2 117.401 8.92405   4 
  -5  -4   2 111.976 7.21795  14 
  -5  -4   2 119.428 7.80148   5 
   4   4  -2 87.1655 7.36855   2 
   4   4  -2 106.728 8.01682   2 
   4   4  -2 97.0764 7.02794   1 
   4   4  -2 99.4672 6.62119   3 
  -4  -4   2 80.5745 7.05413   4 
  -4  -4   2 69.2735 5.08969   1 
  -4  -4   2 67.9931 5.49109   5 
  -4  -4   2 66.7431 5.10932  14 
  -4  -4   2 73.9792 5.37188  14 
  -4  -4   2 82.4179 6.53211   3 
  -4  -4   2 71.1388 5.54655   5 
  -4  -4   2 79.8751 5.76002   7 
   3   4  -2 126.541 8.06917   2 
   3   4  -2 116.949 6.81094   3 
   3   4  -2 117.698 7.84711   2 
   3   4  -2 134.185 7.51490   1 
   3   4  -2 125.133 6.34505  10 
  -3  -4   2 122.044 6.33894  14 
  -3  -4   2 126.501 8.08389   4 
  -3  -4   2 129.224 6.53493   7 
  -3  -4   2 124.453 6.14100   1 
  -3  -4   2 121.086 6.60403   5 
  -3  -4   2 126.044 6.15574   1 
  -3  -4   2 123.481 6.32983  14 
  -3  -4   2 121.418 6.71421   5 
  -3  -4   2 126.080 7.44662   3 
   2   4  -2 815.427 28.2352   3 
   2   4  -2 815.108 28.4673   1 
   2   4  -2 819.377 29.5011   2 
   2   4  -2 802.817 29.3606   2 
   2   4  -2 825.494 28.2628  10 
  -2  -4   2 848.572 29.0024   3 
  -2  -4   2 894.326 27.5909   7 
  -2  -4   2 887.923 27.4447   1 
  -2  -4   2 884.362 30.2724   4 
  -2  -4   2 875.052 27.7503  14 
  -2  -4   2 857.204 27.5641  14 
  -2  -4   2 868.603 28.1037   5 
  -2  -4   2 841.828 27.8708   5 
  -2  -4   2 875.688 27.3755   1 
   1   4  -2 925.120 30.4848   2 
   1   4  -2 968.773 29.0151  12 
   1   4  -2 932.178 30.2874  10 
   1   4  -2 949.481 29.6062   3 
   1   4  -2 922.102 30.4609   2 
   1   4  -2 912.162 29.6625   1 
  -1  -4   2 914.903 27.9480  11 
  -1  -4   2 901.420 31.1782   4 
  -1  -4   2 885.285 28.8297  14 
  -1  -4   2 939.344 29.0067   1 
  -1  -4   2 905.395 28.8226  12 
  -1  -4   2 876.698 29.0091   5 
  -1  -4   2 892.806 28.3828   7 
  -1  -4   2 892.484 28.4855   1 
  -1  -4   2 889.363 28.7600  14 
  -1  -4   2 888.122 29.1209   5 
  -1  -4   2 921.293 30.0829   3 
   0   4  -2 453.509 15.6734  11 
   0   4  -2 479.452 16.5867   3 
   0   4  -2 458.419 17.6338  13 
   0   4  -2 461.315 16.7885   8 
   0   4  -2 464.043 17.2344   2 
   0   4  -2 466.234 16.6914   1 
   0   4  -2 480.146 17.1064  12 
   0   4  -2 459.123 17.2559   2 
   0   4  -2 478.281 16.6489   3 
   0   4  -2 478.145 17.4040   2 
   0  -4   2 517.768 15.9249   1 
   0  -4   2 509.188 16.1144  14 
   0  -4   2 472.705 18.0666   9 
   0  -4   2 483.855 16.0565  14 
   0  -4   2 527.698 16.4680   5 
   0  -4   2 497.577 15.4733   7 
   0  -4   2 492.226 17.0338   3 
   0  -4   2 527.272 17.0363   2 
   0  -4   2 489.099 17.2123   6 
   0  -4   2 481.835 16.3300   5 
   0  -4   2 491.096 15.8694   1 
   0  -4   2 499.409 17.8285   4 
   0  -4   2 504.906 17.1481  12 
  -1   4  -2 381.753 14.4283   1 
  -1   4  -2 386.280 15.2239   2 
  -1   4  -2 388.993 14.7684   8 
  -1   4  -2 390.639 14.5929   5 
  -1   4  -2 382.955 14.2256  11 
  -1   4  -2 398.646 15.4741  12 
  -1   4  -2 402.751 14.6906  13 
  -1   4  -2 380.014 15.1927   2 
  -1   4  -2 391.172 14.4865   3 
  -1   4  -2 401.611 14.6028   3 
   1  -4   2 423.153 14.3705   5 
   1  -4   2 409.531 14.3915   6 
   1  -4   2 412.139 14.9896   3 
   1  -4   2 417.092 14.7763  13 
   1  -4   2 409.574 13.8938   1 
   1  -4   2 418.253 14.7647   2 
   1  -4   2 407.190 13.9323  14 
   1  -4   2 410.208 14.2350   5 
   1  -4   2 415.995 14.8887   3 
   1  -4   2 441.258 15.6359  12 
   1  -4   2 414.426 14.0504  14 
   1  -4   2 411.948 13.9666   1 
   1  -4   2 414.685 15.6517   9 
  -2   4  -2 488.294 17.6059   1 
  -2   4  -2 469.496 18.4339   2 
  -2   4  -2 483.341 16.7022  13 
  -2   4  -2 474.748 18.6818   3 
  -2   4  -2 503.367 18.5141   2 
  -2   4  -2 503.886 17.5129  14 
  -2   4  -2 493.095 18.8510  12 
  -2   4  -2 493.814 17.7537   3 
  -2   4  -2 493.502 17.7187   5 
   2  -4   2 502.437 17.2747   1 
   2  -4   2 489.231 17.1702   1 
   2  -4   2 473.602 16.8476   6 
   2  -4   2 475.409 18.3767   9 
   2  -4   2 475.881 16.6751  13 
   2  -4   2 508.896 18.2707   2 
   2  -4   2 489.016 17.3775   5 
   2  -4   2 480.459 17.1440   1 
   2  -4   2 468.806 17.3925   5 
   2  -4   2 502.901 17.2066  14 
   2  -4   2 436.454 17.2367   8 
   2  -4   2 483.769 17.9267   3 
   2  -4   2 458.208 17.8644   3 
  -3   4  -2 418.091 17.4216  12 
  -3   4  -2 410.924 16.4437   1 
  -3   4  -2 419.995 15.8819   7 
  -3   4  -2 410.847 17.4692   2 
  -3   4  -2 417.997 17.3299   2 
  -3   4  -2 415.971 16.1953  14 
  -3   4  -2 422.312 16.5978   5 
  -3   4  -2 409.686 16.5400   3 
   3  -4   2 412.293 16.2365   5 
   3  -4   2 429.697 16.1926   1 
   3  -4   2 414.430 14.8839  13 
   3  -4   2 420.088 16.8303   3 
   3  -4   2 430.707 16.0431  14 
   3  -4   2 411.054 16.9257   3 
   3  -4   2 430.230 15.6939   6 
   3  -4   2 442.202 16.7014   5 
  -4   4  -2 192.454 10.1436   1 
  -4   4  -2 181.350 10.1945   3 
  -4   4  -2 195.184 11.2217   2 
  -4   4  -2 197.350 11.0710   2 
  -4   4  -2 173.191 9.89104   5 
  -4   4  -2 201.034 10.0149  14 
  -4   4  -2 192.165 9.67239   7 
   4  -4   2 203.834 10.9905   2 
   4  -4   2 190.920 10.1281   5 
   4  -4   2 176.122 9.62543   5 
   4  -4   2 187.563 10.5736   3 
   4  -4   2 187.125 9.82413   1 
   4  -4   2 188.680 8.32382  13 
   4  -4   2 194.024 10.4422   3 
  -5   4  -2 166.599 9.86374  14 
  -5   4  -2 179.344 11.5145   2 
  -5   4  -2 177.523 10.6418   3 
  -5   4  -2 158.260 10.0324   5 
  -5   4  -2 171.884 10.2567   1 
  -5   4  -2 168.181 9.74244   7 
   5  -4   2 160.873 10.6468   2 
   5  -4   2 162.241 9.81226   5 
   5  -4   2 172.935 10.3891   5 
   5  -4   2 174.283 10.8911   3 
   5  -4   2 156.761 9.62456   1 
  -6   4  -2 216.197 13.0704   3 
  -6   4  -2 204.721 12.3924  14 
  -6   4  -2 192.057 11.7134   7 
  -6   4  -2 214.344 12.5871   1 
  -6   4  -2 197.157 13.4887   2 
   6  -4   2 191.896 12.8195   3 
   6  -4   2 203.178 12.0349   1 
   6  -4   2 218.676 12.8524   5 
  -7   4  -2 48.5408 7.51802   3 
  -7   4  -2 56.8374 7.66699   1 
  -7   4  -2 54.4911 7.07991   7 
   7  -4   2 63.7719 8.40536   3 
   7  -4   2 58.4328 7.42382   1 
  -8   4  -2 -0.4459 3.39182   7 
  -8   4  -2 -0.3510 3.47364   3 
  -8   4  -2 1.67755 3.51398   1 
   8  -4   2 -1.1057 3.08060   1 
   8  -4   2 0.58898 3.68112   3 
  -9   4  -2 28.3291 6.79853   1 
   9  -4   2 16.6654 5.96265   1 
   8   3  -2 37.2423 8.24307   1 
   8   3  -2 39.0091 9.20008   2 
  -8  -3   2 35.7833 8.41343   4 
  -8  -3   2 35.0212 7.17292   5 
  -8  -3   2 41.5048 7.49454   7 
  -8  -3   2 46.3467 7.17562   1 
  -8  -3   2 46.7300 7.19345  14 
   7   3  -2 66.5242 8.68646   1 
   7   3  -2 60.0071 9.06287   2 
  -7  -3   2 60.1005 7.13584  14 
  -7  -3   2 73.6064 9.07249   3 
  -7  -3   2 75.4533 8.24330   7 
  -7  -3   2 75.2370 7.89127   4 
  -7  -3   2 67.5078 7.72700   5 
  -7  -3   2 80.0979 7.63456   1 
   6   3  -2 107.129 9.37573   1 
   6   3  -2 104.891 10.2587   2 
  -6  -3   2 129.658 9.10212   5 
  -6  -3   2 110.465 8.54177   5 
  -6  -3   2 113.248 8.27612  14 
  -6  -3   2 108.951 9.50492   3 
  -6  -3   2 124.016 9.15669   4 
  -6  -3   2 125.517 9.07008   7 
  -6  -3   2 125.783 8.59213   1 
   5   3  -2 39.6319 6.01170   2 
   5   3  -2 45.9984 5.60660   1 
   5   3  -2 43.2403 5.33721   3 
  -5  -3   2 31.4832 4.90980   4 
  -5  -3   2 32.1130 5.16463   3 
  -5  -3   2 34.3120 4.46080   1 
  -5  -3   2 30.2684 4.53132   7 
  -5  -3   2 30.6468 4.57116   5 
  -5  -3   2 45.7470 4.76166  14 
  -5  -3   2 27.4401 3.94097  14 
  -5  -3   2 30.7080 4.39788   5 
   4   3  -2 145.996 8.42807   1 
   4   3  -2 157.764 9.54465   2 
   4   3  -2 151.270 8.38957   3 
   4   3  -2 155.248 9.33846   2 
  -4  -3   2 124.494 7.50324   5 
  -4  -3   2 113.055 7.79730   4 
  -4  -3   2 118.399 7.10942  14 
  -4  -3   2 124.129 7.54079   5 
  -4  -3   2 128.188 8.18500   2 
  -4  -3   2 118.620 8.04436   3 
  -4  -3   2 112.715 6.96000  14 
  -4  -3   2 118.742 7.13428   1 
  -4  -3   2 130.966 7.33618   1 
  -4  -3   2 135.767 7.53238   7 
   3   3  -2 716.058 25.7283   3 
   3   3  -2 731.609 26.9071   2 
   3   3  -2 737.174 27.0034   2 
   3   3  -2 749.265 25.9147   1 
   3   3  -2 738.979 23.9164  10 
  -3  -3   2 763.722 25.1842   1 
  -3  -3   2 737.447 24.9970  14 
  -3  -3   2 716.960 26.2882   4 
  -3  -3   2 728.978 25.3139   5 
  -3  -3   2 706.229 25.2912   5 
  -3  -3   2 722.178 25.0184  14 
  -3  -3   2 736.186 25.0129   1 
  -3  -3   2 726.707 24.9227   7 
  -3  -3   2 716.665 26.1180   3 
  -3  -3   2 761.812 26.4261   2 
   2   3  -2 1717.93 56.7115   2 
   2   3  -2 1738.51 55.8754   1 
   2   3  -2 1756.37 56.1082   5 
   2   3  -2 1762.96 55.0406  10 
   2   3  -2 1777.80 57.0019   2 
   2   3  -2 1740.31 55.9588   3 
  -2  -3   2 1755.45 55.5212   5 
  -2  -3   2 1770.52 55.7472   5 
  -2  -3   2 1807.04 55.3455   1 
  -2  -3   2 1788.65 55.2980  14 
  -2  -3   2 1812.41 55.3063   1 
  -2  -3   2 1826.40 56.4314   3 
  -2  -3   2 1791.46 55.3933  14 
  -2  -3   2 1776.36 56.8595   4 
  -2  -3   2 1805.11 56.3607   2 
  -2  -3   2 1840.10 55.1536   7 
   1   3  -2 1698.52 52.6252   1 
   1   3  -2 1673.82 52.8056   5 
   1   3  -2 1645.09 52.6211   3 
   1   3  -2 1692.90 53.3355   2 
   1   3  -2 1707.52 53.3230   2 
  -1  -3   2 1670.66 52.2584  14 
  -1  -3   2 1643.71 52.3288   5 
  -1  -3   2 1727.54 51.7432   7 
  -1  -3   2 1750.25 53.1311   2 
  -1  -3   2 1706.53 51.5617  11 
  -1  -3   2 1750.18 52.2536   1 
  -1  -3   2 1682.61 52.9762   3 
  -1  -3   2 1699.21 52.1582  14 
  -1  -3   2 1695.89 52.5556   5 
  -1  -3   2 1695.05 51.4879  12 
  -1  -3   2 1668.30 52.0719   1 
   0  -3   2 10.4332 1.74599   6 
   0  -3   2 10.1798 1.65035  14 
   0  -3   2 11.5256 1.64999  14 
   0  -3   2 11.8197 1.68151   1 
   0  -3   2 9.86054 1.80765  12 
   0  -3   2 10.3910 1.49382  11 
   0  -3   2 11.2251 1.81427   5 
   0  -3   2 9.59030 1.54522   1 
   0  -3   2 12.1812 1.91348   2 
   0  -3   2 12.1918 2.25813   9 
   0  -3   2 9.02369 1.85164   3 
   0  -3   2 11.8651 1.72469   5 
  -1   3  -2 357.764 13.5478  11 
  -1   3  -2 339.752 14.0844   2 
  -1   3  -2 369.547 13.5234  14 
  -1   3  -2 345.919 13.6156   3 
  -1   3  -2 350.715 12.7496   6 
  -1   3  -2 354.972 13.6178   5 
  -1   3  -2 363.238 13.6747   5 
  -1   3  -2 350.143 14.1233  12 
  -1   3  -2 367.344 13.8508   3 
  -1   3  -2 342.927 13.4892   1 
  -1   3  -2 342.997 13.7373   8 
  -1   3  -2 351.920 12.9268  13 
  -1   3  -2 373.166 14.3069   2 
   1  -3   2 406.261 13.5241  14 
   1  -3   2 390.085 12.8750   6 
   1  -3   2 404.699 13.1297  13 
   1  -3   2 418.459 14.3062   3 
   1  -3   2 421.702 15.2968   2 
   1  -3   2 396.436 13.4720   1 
   1  -3   2 434.831 13.8944   8 
   1  -3   2 407.190 13.4957   1 
   1  -3   2 409.094 14.0548   3 
   1  -3   2 395.681 13.6186   5 
   1  -3   2 406.340 13.7518   5 
   1  -3   2 389.011 14.3182   9 
   1  -3   2 405.397 14.4661  12 
  -2   3  -2 355.611 13.9554   2 
  -2   3  -2 329.809 12.9356   1 
  -2   3  -2 333.735 13.7843   2 
  -2   3  -2 337.979 13.0780   5 
  -2   3  -2 349.387 13.8616  12 
  -2   3  -2 350.080 13.3874   3 
  -2   3  -2 336.609 13.1068   5 
  -2   3  -2 356.210 12.9574  14 
  -2   3  -2 341.325 13.3329   3 
   2  -3   2 328.765 13.2526   3 
   2  -3   2 336.670 13.7960  14 
   2  -3   2 316.946 12.7517   1 
   2  -3   2 327.244 13.3779   3 
   2  -3   2 311.808 11.3536  13 
   2  -3   2 337.985 13.0579   5 
   2  -3   2 339.933 14.8378  12 
   2  -3   2 327.664 12.8241   5 
  -3   3  -2 1535.10 49.8605   5 
  -3   3  -2 1597.48 49.5357  14 
  -3   3  -2 1559.32 49.7314   1 
  -3   3  -2 1593.68 50.9565   2 
  -3   3  -2 1559.22 49.8444   5 
  -3   3  -2 1584.94 51.0658   2 
  -3   3  -2 1534.36 50.0006   3 
  -3   3  -2 1586.39 49.3005   7 
   3  -3   2 1500.29 49.9462   3 
   3  -3   2 1521.34 50.6027   2 
   3  -3   2 1510.29 50.1797   3 
   3  -3   2 1412.43 49.2178   1 
   3  -3   2 1537.72 49.7739   5 
   3  -3   2 1468.93 49.5135   5 
   3  -3   2 1464.49 47.3217  13 
  -4   3  -2 378.122 16.4007   1 
  -4   3  -2 397.263 16.2071   7 
  -4   3  -2 389.019 16.2143  14 
  -4   3  -2 389.707 16.8907   3 
  -4   3  -2 400.296 17.8517   2 
  -4   3  -2 382.383 16.5939   5 
   4  -3   2 413.526 16.2601  14 
   4  -3   2 385.998 16.5891   5 
   4  -3   2 383.307 16.2282   1 
   4  -3   2 406.874 17.2897   3 
   4  -3   2 412.931 17.6920   2 
  -5   3  -2 123.103 8.09757  14 
  -5   3  -2 111.995 7.76828   7 
  -5   3  -2 105.110 7.88133   1 
  -5   3  -2 115.574 9.04960   2 
  -5   3  -2 110.730 8.44573   3 
   5  -3   2 99.9176 8.26246   3 
   5  -3   2 112.062 8.63116   2 
   5  -3   2 101.857 7.72323   1 
   5  -3   2 111.299 8.29510   5 
  -6   3  -2 25.2257 5.33974   3 
  -6   3  -2 24.0140 4.75510   5 
  -6   3  -2 19.1665 4.16351  14 
  -6   3  -2 26.2089 5.22721   1 
  -6   3  -2 28.4696 5.00224   7 
  -6   3  -2 28.7616 5.48100   2 
   6  -3   2 30.2531 5.56645   2 
   6  -3   2 31.3212 5.51118   1 
   6  -3   2 27.4659 5.75347   3 
  -7   3  -2 59.3792 8.32844   3 
  -7   3  -2 62.5485 7.84795   1 
  -7   3  -2 59.0875 7.40340   7 
  -7   3  -2 58.7533 7.27659  14 
   7  -3   2 61.6052 7.94794   1 
   7  -3   2 71.9423 8.81948   3 
  -8   3  -2 43.3083 7.59935   7 
  -8   3  -2 26.6349 6.61545   3 
  -8   3  -2 42.4295 7.81492   1 
   8  -3   2 29.6153 6.97437   1 
   8  -3   2 34.3813 8.89151   3 
  -9   3  -2 25.8149 7.53112   3 
  -9   3  -2 41.6405 8.38667   1 
   9  -3   2 35.2493 7.78344   1 
   9   2  -2 14.3998 6.37469   1 
  -9  -2   2 18.2561 5.96247   1 
  -9  -2   2 15.5463 5.24849  14 
  -9  -2   2 13.2900 5.85439   7 
   8   2  -2 8.75345 5.00481   2 
   8   2  -2 18.4657 6.29165   1 
  -8  -2   2 17.2992 4.98754  14 
  -8  -2   2 28.0818 6.14052   5 
  -8  -2   2 18.3520 5.08536   1 
  -8  -2   2 8.19762 4.77994   7 
  -8  -2   2 9.15993 4.32880   3 
   7   2  -2 38.9403 7.19657   1 
   7   2  -2 42.7223 7.64730   2 
  -7  -2   2 29.0883 5.68595  14 
  -7  -2   2 32.8056 5.58346   4 
  -7  -2   2 50.0378 7.47205   3 
  -7  -2   2 40.6582 6.35653   5 
  -7  -2   2 46.2031 6.60762   1 
  -7  -2   2 44.4641 6.81728   7 
   6   2  -2 5.58350 3.47673   1 
   6   2  -2 8.33894 3.33662   3 
   6   2  -2 8.95585 4.02730   2 
  -6  -2   2 13.4802 3.76464   1 
  -6  -2   2 9.41989 3.85079   3 
  -6  -2   2 11.4298 3.20897  14 
  -6  -2   2 17.2657 3.92014   4 
  -6  -2   2 9.70672 3.31890   5 
  -6  -2   2 8.79314 3.36198   7 
   5   2  -2 424.843 17.9086   3 
   5   2  -2 424.758 17.7722   1 
   5   2  -2 413.513 19.0734   2 
  -5  -2   2 382.643 17.0326   5 
  -5  -2   2 383.795 16.6543   1 
  -5  -2   2 390.507 17.0291   5 
  -5  -2   2 383.115 16.5721   1 
  -5  -2   2 381.667 17.6429   3 
  -5  -2   2 385.847 16.6566   7 
  -5  -2   2 372.133 16.4826   4 
  -5  -2   2 376.369 16.4186  14 
  -5  -2   2 407.571 16.8149  14 
   4   2  -2 456.430 19.3166   3 
   4   2  -2 495.888 20.7731   2 
   4   2  -2 509.278 19.4415  14 
   4   2  -2 487.593 19.3944   1 
   4   2  -2 496.184 20.5382   2 
  -4  -2   2 514.625 19.0811   1 
  -4  -2   2 513.584 19.4544   5 
  -4  -2   2 513.292 18.8724  14 
  -4  -2   2 480.970 19.0839   5 
  -4  -2   2 497.352 18.8152   7 
  -4  -2   2 505.274 18.9851  14 
  -4  -2   2 492.914 19.0549   4 
  -4  -2   2 491.087 19.9263   3 
   3   2  -2 937.462 32.7223   3 
   3   2  -2 918.095 33.4948   2 
   3   2  -2 933.400 33.4125   2 
   3   2  -2 939.429 32.5057   1 
   3   2  -2 938.270 32.3573  14 
  -3  -2   2 976.753 32.6114   4 
  -3  -2   2 971.510 32.2574   5 
  -3  -2   2 1000.11 32.6769   5 
  -3  -2   2 997.192 32.2249  14 
  -3  -2   2 1025.06 33.2923   3 
  -3  -2   2 992.738 32.1849   1 
  -3  -2   2 996.396 32.0304  14 
  -3  -2   2 960.492 31.9134   7 
   2   2  -2 220.254 9.58419   1 
   2   2  -2 222.474 9.81674   3 
   2   2  -2 240.226 9.67120  14 
   2   2  -2 228.869 10.3215   2 
   2   2  -2 232.796 9.83961   5 
   2   2  -2 214.491 8.21618  10 
   2   2  -2 210.807 10.1192   2 
  -2  -2   2 248.004 10.0461   3 
  -2  -2   2 253.359 9.78122   5 
  -2  -2   2 251.424 9.47222   1 
  -2  -2   2 240.958 9.12123   7 
  -2  -2   2 243.777 9.34762  14 
  -2  -2   2 252.515 9.57600   1 
  -2  -2   2 250.157 9.60466   5 
  -2  -2   2 251.834 9.51234  14 
   1   2  -2 154.933 6.45830  14 
   1   2  -2 151.803 6.61530   3 
   1   2  -2 159.628 6.05698  11 
   1   2  -2 147.617 6.46889   5 
   1   2  -2 158.804 7.51241   9 
   1   2  -2 147.453 6.41831   5 
   1   2  -2 148.458 6.91677   2 
   1   2  -2 148.984 6.48310   1 
   1   2  -2 160.727 6.50339   1 
   1   2  -2 140.054 6.78096   2 
  -1  -2   2 156.346 6.00292   7 
  -1  -2   2 155.113 6.35102  14 
  -1  -2   2 145.353 6.22031  14 
  -1  -2   2 151.869 6.31080   1 
  -1  -2   2 147.411 6.82138   9 
  -1  -2   2 153.821 6.45230   5 
  -1  -2   2 147.692 6.33859   1 
  -1  -2   2 148.836 6.64590   3 
  -1  -2   2 143.997 6.39873   5 
  -1  -2   2 153.418 5.96624  11 
   0   2  -2 1545.82 47.8353   6 
   0   2  -2 1582.10 48.5647  11 
   0   2  -2 1583.73 49.1649   9 
   0   2  -2 1551.97 49.0000   8 
   0   2  -2 1566.63 48.9508   3 
   0   2  -2 1591.42 48.7414  14 
   0   2  -2 1568.32 49.3649   2 
   0   2  -2 1547.49 49.2802   2 
   0   2  -2 1529.19 48.7619   5 
   0   2  -2 1571.27 48.7043   1 
   0   2  -2 1589.47 48.8393   1 
   0   2  -2 1588.40 48.8835   5 
   0  -2   2 1626.75 48.6845  14 
   0  -2   2 1597.71 48.7090   1 
   0  -2   2 1568.71 48.5538   1 
   0  -2   2 1345.73 48.6278   8 
   0  -2   2 1684.19 49.2646  11 
   0  -2   2 1616.40 49.0651   3 
   0  -2   2 1645.30 49.4433   2 
   0  -2   2 1548.27 49.0507   9 
   0  -2   2 1611.47 48.8344   5 
   0  -2   2 1633.82 48.6320  14 
   0  -2   2 1595.37 48.7439   5 
  -1   2  -2 1454.37 45.2626   5 
  -1   2  -2 1511.81 45.2772   1 
  -1   2  -2 1467.93 45.8890   2 
  -1   2  -2 1437.13 43.5132  13 
  -1   2  -2 1472.30 45.3693  11 
  -1   2  -2 1393.55 45.0585   1 
  -1   2  -2 1423.93 45.8403   2 
  -1   2  -2 1441.80 45.2964   5 
  -1   2  -2 1509.26 45.6334   3 
  -1   2  -2 1471.15 45.0974  14 
  -1   2  -2 1434.42 45.3750   3 
   1  -2   2 1422.94 45.7726   2 
   1  -2   2 1404.52 45.4381   3 
   1  -2   2 1468.11 43.7617   6 
   1  -2   2 1441.52 45.2081   5 
   1  -2   2 1449.16 45.1014   1 
   1  -2   2 1470.28 45.8854   2 
   1  -2   2 1421.00 45.3584   8 
   1  -2   2 1438.22 45.2067   5 
   1  -2   2 1426.15 45.5835  12 
   1  -2   2 1459.55 45.1228   1 
   1  -2   2 1335.63 45.1865   3 
  -2   2  -2 440.331 16.2146   1 
  -2   2  -2 445.746 16.0147  14 
  -2   2  -2 445.603 16.6037   3 
  -2   2  -2 450.291 17.0495   2 
  -2   2  -2 456.524 16.6077   3 
  -2   2  -2 463.059 17.0594   2 
  -2   2  -2 425.736 16.1479   5 
  -2   2  -2 442.082 16.3111   5 
   2  -2   2 429.643 16.8159   2 
   2  -2   2 442.911 16.7813  12 
   2  -2   2 434.199 16.2597   5 
   2  -2   2 447.712 15.9897  14 
   2  -2   2 433.901 16.5265   3 
   2  -2   2 474.682 18.3035   2 
   2  -2   2 437.409 16.1624   1 
   2  -2   2 450.180 16.4970   3 
  -3   2  -2 801.742 28.4426   3 
  -3   2  -2 799.241 29.0528   2 
  -3   2  -2 816.653 28.0939   5 
  -3   2  -2 824.677 28.5378   3 
  -3   2  -2 816.902 27.7127  14 
  -3   2  -2 788.830 27.6285   7 
   3  -2   2 820.499 28.2358   5 
   3  -2   2 807.703 29.0163   2 
   3  -2   2 790.175 27.8415   1 
   3  -2   2 818.046 28.3821   3 
   3  -2   2 784.444 28.3974   3 
  -4   2  -2 521.268 21.0222   1 
  -4   2  -2 543.069 22.4488   2 
  -4   2  -2 540.409 21.3312   5 
  -4   2  -2 530.998 20.7971  14 
  -4   2  -2 530.458 21.6687   3 
  -4   2  -2 542.037 20.9550   7 
   4  -2   2 584.846 21.6123   5 
   4  -2   2 562.687 22.5516   2 
   4  -2   2 560.103 21.9678   3 
   4  -2   2 571.572 21.7574   5 
   4  -2   2 552.243 21.2266   1 
  -5   2  -2 226.243 13.1862   2 
  -5   2  -2 214.166 11.5899  14 
  -5   2  -2 208.056 11.5870   7 
  -5   2  -2 218.143 12.5449   3 
  -5   2  -2 221.284 12.0149   1 
  -5   2  -2 217.017 12.0458   5 
   5  -2   2 241.214 12.9224   3 
   5  -2   2 244.750 12.7338   5 
   5  -2   2 240.277 13.4512   2 
   5  -2   2 251.156 12.4695   1 
  -6   2  -2 41.6850 5.87214   1 
  -6   2  -2 49.4669 6.62666   3 
  -6   2  -2 36.4752 5.50085   7 
  -6   2  -2 32.0565 5.26446  14 
  -6   2  -2 35.8533 5.53508   5 
   6  -2   2 29.1557 5.43973   1 
   6  -2   2 26.7969 5.54089   3 
   6  -2   2 26.0494 5.59384   2 
  -7   2  -2 68.7385 7.93757   7 
  -7   2  -2 69.3817 7.74917  14 
  -7   2  -2 62.2990 7.85202   1 
  -7   2  -2 70.0321 8.59370   3 
   7  -2   2 74.1550 8.55776   1 
   7  -2   2 71.2409 8.66901   3 
  -8   2  -2 59.0999 9.33618   3 
  -8   2  -2 64.0865 8.78521   1 
  -8   2  -2 60.5740 8.50491  14 
   8  -2   2 68.9955 9.51581   1 
  -9   2  -2 16.7365 6.14094   1 
   9  -2   2 19.5840 7.00602   1 
   9   1  -2 16.4000 5.95761   1 
  -9  -1   2 27.9144 6.71013   1 
  -9  -1   2 20.0897 6.49300   7 
  -9  -1   2 34.7767 7.35078  14 
   8   1  -2 35.9488 7.44967   1 
  -8  -1   2 36.7330 7.05446   1 
  -8  -1   2 34.9773 7.71946   3 
  -8  -1   2 28.6820 6.00154  14 
  -8  -1   2 25.1931 6.13652   7 
   7   1  -2 59.2511 8.36366   3 
   7   1  -2 58.5729 7.97664   2 
   7   1  -2 61.6908 7.75631   1 
  -7  -1   2 49.9103 6.82327   5 
  -7  -1   2 55.3979 6.96270   1 
  -7  -1   2 60.1158 6.99259   7 
  -7  -1   2 54.7689 5.70547   4 
  -7  -1   2 42.5245 6.88547   3 
  -7  -1   2 51.2913 6.42695  14 
   6   1  -2 32.6805 5.52443   1 
   6   1  -2 23.6522 5.14497   3 
   6   1  -2 27.9922 5.58600   2 
  -6  -1   2 28.0533 4.86401   1 
  -6  -1   2 24.9890 5.14653   3 
  -6  -1   2 25.5346 3.88551   4 
  -6  -1   2 18.9290 3.96120   7 
  -6  -1   2 27.0395 4.82709   1 
  -6  -1   2 23.7704 4.65981   5 
  -6  -1   2 28.0617 4.73678  14 
   5   1  -2 252.471 10.1383  12 
   5   1  -2 238.867 13.5293   2 
   5   1  -2 260.818 12.8496   1 
   5   1  -2 266.810 13.1466   3 
   5   1  -2 271.696 12.7492  14 
  -5  -1   2 244.468 11.8577  14 
  -5  -1   2 250.842 12.3367   5 
  -5  -1   2 224.287 11.8276   1 
  -5  -1   2 238.905 13.1697   2 
  -5  -1   2 244.953 11.2638   4 
  -5  -1   2 243.333 12.0048   7 
  -5  -1   2 240.380 12.1971  14 
  -5  -1   2 247.057 12.8152   3 
   4   1  -2 744.564 26.9203   3 
   4   1  -2 768.904 26.4591  14 
   4   1  -2 744.049 23.9498  12 
   4   1  -2 711.908 26.2754   1 
   4   1  -2 740.340 27.5212   2 
   4   1  -2 737.021 27.8218   2 
  -4  -1   2 718.638 25.9900   1 
  -4  -1   2 713.437 25.3372   4 
  -4  -1   2 709.399 25.7352  14 
  -4  -1   2 725.951 27.3642   2 
  -4  -1   2 744.901 27.0630   3 
  -4  -1   2 735.467 25.9300   7 
   3   1  -2 283.280 11.2700   5 
   3   1  -2 250.163 11.7220   2 
   3   1  -2 266.408 11.4490   3 
   3   1  -2 248.294 10.9195   1 
   3   1  -2 249.088 10.8557  14 
  -3  -1   2 253.899 10.6060   7 
  -3  -1   2 282.735 11.7223   3 
  -3  -1   2 254.416 10.7908   1 
  -3  -1   2 258.297 11.1072   5 
  -3  -1   2 265.046 11.0067   5 
  -3  -1   2 265.286 10.7658  14 
  -3  -1   2 258.404 11.6863   2 
  -3  -1   2 261.367 9.27132  12 
   2   1  -2 21.8395 2.62310  14 
   2   1  -2 19.7250 2.85036   2 
   2   1  -2 18.0118 2.80602   2 
   2   1  -2 20.9874 2.48046   5 
   2   1  -2 19.2401 2.49778   1 
   2   1  -2 21.1076 2.66213   3 
  -2  -1   2 30.9341 2.91776   3 
  -2  -1   2 28.5269 2.60167  14 
  -2  -1   2 28.9159 2.68347   5 
  -2  -1   2 26.7511 2.63143   1 
  -2  -1   2 26.8352 1.71201  12 
  -2  -1   2 28.8368 2.67683   5 
  -2  -1   2 29.6177 2.54537   7 
  -2  -1   2 27.9446 3.00782   2 
  -2  -1   2 29.1473 2.71772   1 
   1   1  -2 1308.98 39.8563  14 
   1   1  -2 1310.76 39.9307   5 
   1   1  -2 1316.76 39.7758  11 
   1   1  -2 1344.26 40.5298   2 
   1   1  -2 1280.61 40.0979  14 
   1   1  -2 1343.14 39.9078   1 
   1   1  -2 1292.74 40.1526   3 
   1   1  -2 1304.68 39.8021   9 
   1   1  -2 1319.97 39.9548   1 
   1   1  -2 1278.40 40.4089   2 
  -1  -1   2 1198.93 39.8031   5 
  -1  -1   2 1265.81 40.4744   2 
  -1  -1   2 1285.71 39.9442   1 
  -1  -1   2 1256.30 39.7895   1 
  -1  -1   2 1226.41 40.3239   2 
  -1  -1   2 1256.28 39.7060  14 
  -1  -1   2 1237.43 40.0990   3 
  -1  -1   2 1199.30 39.4577   7 
   0   1  -2 271.468 10.9131  11 
   0   1  -2 276.314 11.0100   3 
   0   1  -2 287.112 10.8533   1 
   0   1  -2 296.455 10.9885   1 
   0   1  -2 292.112 11.3756   2 
   0   1  -2 279.527 11.3021   2 
   0   1  -2 277.346 10.8435  14 
   0   1  -2 282.395 11.0618   8 
   0  -1   2 339.291 11.5606   2 
   0  -1   2 352.190 11.0797  14 
   0  -1   2 322.781 10.8756   9 
   0  -1   2 350.958 11.4004   8 
   0  -1   2 343.492 11.0435   1 
   0  -1   2 358.489 11.2218   1 
   0  -1   2 345.352 11.1552   5 
   0  -1   2 350.151 11.6790   2 
   0  -1   2 345.337 11.2871   3 
  -1   1  -2 2120.25 64.2578   5 
  -1   1  -2 2159.58 64.9702   2 
  -1   1  -2 2104.74 64.1742   1 
  -1   1  -2 2053.73 64.3355   3 
  -1   1  -2 2138.65 64.1455   1 
  -1   1  -2 2185.48 64.6421   3 
  -1   1  -2 2126.32 64.7626   2 
  -1   1  -2 2116.20 64.5588  11 
  -1   1  -2 2171.50 64.1533  14 
   1  -1   2 2026.73 64.2282   5 
   1  -1   2 2031.04 64.1030   1 
   1  -1   2 2057.59 64.4627   3 
   1  -1   2 2189.09 66.9056  14 
   1  -1   2 2001.92 64.7002   2 
   1  -1   2 2064.43 64.1562   1 
   1  -1   2 1947.38 64.2283   3 
   1  -1   2 2028.01 64.1950   5 
   1  -1   2 2063.29 64.8321   2 
  -2   1  -2 608.261 21.0050  14 
  -2   1  -2 587.744 21.1696   5 
  -2   1  -2 634.414 21.8128   3 
  -2   1  -2 613.179 21.6228   3 
  -2   1  -2 618.524 22.0954   2 
  -2   1  -2 604.797 21.1653   1 
   2  -1   2 617.886 21.5213   3 
   2  -1   2 615.423 22.0662   2 
   2  -1   2 627.847 22.2233   2 
   2  -1   2 625.643 21.7092   3 
   2  -1   2 616.199 21.3509   5 
   2  -1   2 618.002 21.3208   1 
   2  -1   2 623.533 21.4784   5 
  -3   1  -2 133.265 7.37246   5 
  -3   1  -2 130.999 7.63594   3 
  -3   1  -2 139.189 7.40620   1 
  -3   1  -2 127.947 7.02098  14 
  -3   1  -2 133.366 7.92298   2 
  -3   1  -2 139.695 7.38146   7 
  -3   1  -2 136.527 7.70854   3 
   3  -1   2 145.237 7.88366   3 
   3  -1   2 144.605 8.37560   2 
   3  -1   2 124.524 7.37589   5 
   3  -1   2 139.076 8.14223   2 
   3  -1   2 144.542 7.58852   1 
  -4   1  -2 115.016 8.85660   3 
  -4   1  -2 122.119 7.71196   5 
  -4   1  -2 122.524 7.42477  14 
  -4   1  -2 104.299 7.66528   3 
  -4   1  -2 116.666 7.53759   7 
  -4   1  -2 115.118 6.13687   4 
  -4   1  -2 117.121 7.48278   1 
  -4   1  -2 129.707 8.52404   2 
   4  -1   2 137.476 8.79846   2 
   4  -1   2 143.920 8.65407   3 
   4  -1   2 145.863 9.28944   2 
   4  -1   2 142.028 8.20600   1 
   4  -1   2 135.619 8.25659   5 
  -5   1  -2 19.2784 3.78688  14 
  -5   1  -2 21.0323 2.90945   4 
  -5   1  -2 19.5958 3.95351   1 
  -5   1  -2 18.3089 3.95784   7 
  -5   1  -2 20.2664 4.11053   2 
  -5   1  -2 21.3099 4.45047   3 
  -5   1  -2 21.9687 4.31967   5 
   5  -1   2 11.1735 3.39526   1 
   5  -1   2 13.4678 3.84431   5 
   5  -1   2 10.5426 3.49005   3 
  -6   1  -2 98.7403 9.02528   3 
  -6   1  -2 92.1647 8.22137   5 
  -6   1  -2 88.6910 7.74545  14 
  -6   1  -2 93.0676 8.11381   7 
  -6   1  -2 104.533 8.42947   1 
   6  -1   2 84.9424 8.38246   3 
   6  -1   2 81.0770 8.09731   1 
   6  -1   2 96.2820 9.21328   2 
  -7   1  -2 82.9929 8.29410  14 
  -7   1  -2 76.2148 8.25121   1 
  -7   1  -2 82.5561 9.36007   3 
  -7   1  -2 78.5488 8.54635   7 
  -7   1  -2 66.5287 7.88333   5 
   7  -1   2 72.6401 9.03098   2 
   7  -1   2 67.8055 8.51517   1 
  -8   1  -2 27.2715 6.83396   3 
  -8   1  -2 36.8840 7.26791  14 
  -8   1  -2 34.9772 7.34179   1 
   8  -1   2 44.4657 8.41663   1 
  -9   1  -2 7.74921 5.06125   1 
  -9   1  -2 6.33574 6.11537  11 
  -9   1  -2 7.01476 4.38498  14 
   9  -1   2 11.1954 6.32322   1 
   9   0  -2 22.7260 6.06694   1 
  -9   0   2 18.9264 5.54027   1 
  -9   0   2 31.0932 7.01844  14 
  -9   0   2 24.7779 7.10172   7 
  -9   0   2 22.3586 6.46285   3 
   8   0  -2 4.68303 3.89161   1 
  -8   0   2 10.2394 4.43604   1 
  -8   0   2 5.14103 3.86978   7 
  -8   0   2 6.32554 3.30570  14 
  -8   0   2 0.08308 3.28380   3 
   7   0  -2 23.5831 5.93781   3 
   7   0  -2 20.3523 5.66625   2 
   7   0  -2 27.2487 5.71509   1 
  -7   0   2 13.5031 4.25269   7 
  -7   0   2 13.6001 4.45176   3 
  -7   0   2 15.1115 4.36163   5 
  -7   0   2 9.67610 3.51444  14 
  -7   0   2 9.05913 2.71995   4 
  -7   0   2 25.2896 5.49172   1 
   6   0  -2 331.438 17.3139   2 
   6   0  -2 317.691 15.9073   1 
   6   0  -2 313.802 16.2920   3 
  -6   0   2 317.642 15.4833   1 
  -6   0   2 336.637 15.6343  14 
  -6   0   2 328.568 15.5801   7 
  -6   0   2 329.536 15.6255   1 
  -6   0   2 327.161 13.5663   4 
  -6   0   2 342.309 17.4871   2 
  -6   0   2 332.149 15.9151   5 
  -6   0   2 342.604 16.7518   3 
   5   0  -2 264.230 13.6207   3 
   5   0  -2 257.419 11.4700  12 
   5   0  -2 271.440 14.1736   2 
   5   0  -2 266.753 13.1410   1 
   5   0  -2 288.151 13.4580   5 
  -5   0   2 265.754 12.7522   7 
  -5   0   2 278.683 11.5166   4 
  -5   0   2 275.455 13.0896   1 
  -5   0   2 289.780 13.0006  14 
  -5   0   2 283.121 11.8609  12 
  -5   0   2 288.460 13.3743   5 
  -5   0   2 279.700 13.6830   3 
  -5   0   2 294.998 14.5309   2 
  -5   0   2 291.515 13.1429  14 
   4   0  -2 1167.21 38.6559  14 
   4   0  -2 1126.14 38.6621   1 
   4   0  -2 1108.85 39.7738   2 
   4   0  -2 1142.10 39.3157   3 
   4   0  -2 1129.36 37.1371  12 
   4   0  -2 1187.35 38.9355   5 
  -4   0   2 1166.75 38.4066   7 
  -4   0   2 1174.30 38.5995  14 
  -4   0   2 1155.25 39.2161   3 
  -4   0   2 1151.20 37.2485  12 
  -4   0   2 1134.70 38.1834  14 
  -4   0   2 1154.67 38.6251   1 
  -4   0   2 1140.06 39.8168   2 
  -4   0   2 1154.62 38.6896   5 
  -4   0   2 1189.80 39.5178   3 
   3   0  -2 259.319 10.4330  14 
   3   0  -2 238.350 10.8882   2 
   3   0  -2 249.158 10.7632   3 
   3   0  -2 232.265 10.1411   1 
   3   0  -2 256.330 10.4033   5 
  -3   0   2 237.433 9.30151  12 
  -3   0   2 244.240 10.2158  14 
  -3   0   2 231.133 10.8347   2 
  -3   0   2 230.772 10.0690   1 
  -3   0   2 235.771 10.2003   5 
   2   0  -2 54.8676 3.29288  14 
   2   0  -2 56.7474 3.95405   2 
   2   0  -2 55.9382 3.49479   1 
   2   0  -2 54.5507 3.91697   2 
   2   0  -2 48.9605 2.05477  10 
   2   0  -2 54.1550 3.47810  14 
   2   0  -2 48.5884 3.37539   1 
  -2   0   2 38.3498 3.57354   2 
  -2   0   2 39.2671 2.76539  12 
  -2   0   2 38.5433 3.11015   1 
  -2   0   2 42.5821 3.34592   3 
  -2   0   2 38.1300 3.07471   5 
  -2   0   2 39.9913 3.02675  14 
  -2   0   2 40.5799 3.49392   1 
  -2   0   2 38.8148 3.04089   7 
  -2   0   2 39.1904 3.47820   2 
   1   0  -2 3069.73 93.0546   8 
   1   0  -2 3117.40 95.7438   3 
   1   0  -2 3103.70 92.7822   1 
   1   0  -2 3042.41 94.8851   1 
   1   0  -2 3088.75 93.3200   2 
   1   0  -2 3137.47 92.8408  14 
   1   0  -2 3055.85 93.1697  11 
   1   0  -2 3071.13 93.6727   9 
   1   0  -2 3057.02 94.6386   5 
   1   0  -2 3045.12 95.8464   2 
  -1   0   2 2985.22 96.5308   5 
  -1   0   2 3066.06 94.7441   1 
  -1   0   2 3027.75 95.8400   2 
  -1   0   2 3085.23 96.0290   2 
  -1   0   2 3058.89 95.1471   3 
  -1   0   2 2962.03 92.7323   1 
  -1   0   2 3098.49 92.9827   5 
  -1   0   2 3101.30 94.7903   7 
  -1   0   2 3169.18 94.4398  14 
   0   0  -2 6823.63 216.669   5 
   0   0  -2 6842.61 218.769   5 
   0   0  -2 6975.04 218.833   1 
   0   0  -2 7381.49 220.047   2 
   0   0  -2 6971.81 216.922   3 
   0   0  -2 7031.34 216.761  13 
   0   0  -2 7187.52 215.950   6 
   0   0  -2 7388.60 221.754  11 
   0   0  -2 7357.10 217.655   1 
   0   0  -2 7013.72 216.893  14 
   0   0   2 7272.10 219.887   5 
   0   0   2 7180.38 219.408   3 
   0   0   2 7243.99 217.179   1 
   0   0   2 7396.41 218.665   1 
   0   0   2 6992.70 220.121   2 
   0   0   2 7137.03 219.551   5 
   0   0   2 7063.33 216.107   6 
   0   0   2 7122.52 219.868   2 
  -1   0  -2 1789.55 55.0294  11 
  -1   0  -2 1748.53 54.1983  14 
  -1   0  -2 1765.86 54.4653   5 
  -1   0  -2 1759.04 54.6863   3 
  -1   0  -2 1784.66 54.2609   1 
  -1   0  -2 1813.35 54.8444   3 
  -1   0  -2 1730.72 54.3672   5 
  -1   0  -2 1760.12 54.2803   1 
   1   0   2 1748.19 53.6177  13 
   1   0   2 1749.44 55.0619   2 
   1   0   2 1752.44 54.4033   1 
   1   0   2 1791.04 54.5454   5 
   1   0   2 1721.35 53.8866   6 
   1   0   2 1767.99 54.6611   3 
   1   0   2 1810.55 54.5149   1 
   1   0   2 1686.76 54.8449   2 
   1   0   2 1809.03 54.6074   5 
   1   0   2 1750.92 54.5382   3 
  -2   0  -2 817.071 26.8778   5 
  -2   0  -2 821.788 26.7294   1 
  -2   0  -2 830.758 26.7314   1 
  -2   0  -2 817.925 26.5422   4 
  -2   0  -2 821.707 27.4105   3 
  -2   0  -2 816.962 27.5346  11 
  -2   0  -2 809.495 27.2425   3 
  -2   0  -2 813.164 26.6173  14 
   2   0   2 794.264 27.7487   2 
   2   0   2 782.737 26.8086   1 
   2   0   2 816.020 27.1869   3 
   2   0   2 763.780 27.4735   2 
   2   0   2 794.374 27.0120   5 
   2   0   2 786.532 26.9704   3 
  -3   0  -2 135.391 7.48988   5 
  -3   0  -2 141.702 7.03678   4 
  -3   0  -2 141.642 8.00422   3 
  -3   0  -2 129.550 7.10620  14 
  -3   0  -2 136.019 7.85718   3 
  -3   0  -2 137.679 7.34770   1 
   3   0   2 159.015 8.10787   5 
   3   0   2 152.482 7.74694   1 
   3   0   2 145.558 8.49469   2 
   3   0   2 150.685 8.62845   2 
   3   0   2 159.624 8.21500   3 
  -4   0  -2 91.5597 6.95428   3 
  -4   0  -2 97.0879 6.00212   4 
  -4   0  -2 91.5845 6.70552   7 
  -4   0  -2 85.9045 6.48535   5 
  -4   0  -2 101.190 7.29699   3 
  -4   0  -2 93.5887 6.43012   1 
  -4   0  -2 92.8755 6.29900  14 
  -4   0  -2 90.0508 6.29285  14 
   4   0   2 121.428 7.63595   5 
   4   0   2 103.476 7.73975   2 
   4   0   2 101.741 6.89407   1 
   4   0   2 105.574 7.87927   2 
   4   0   2 117.944 7.57753   3 
  -5   0  -2 546.608 21.6026  14 
  -5   0  -2 569.612 20.8110   4 
  -5   0  -2 557.178 21.8346   1 
  -5   0  -2 569.634 22.3372   5 
  -5   0  -2 556.265 22.3898   7 
  -5   0  -2 586.739 23.5897   3 
   5   0   2 527.461 22.5707   3 
   5   0   2 509.783 22.0469   1 
   5   0   2 486.126 23.3449   2 
  -6   0  -2 118.772 9.10958   5 
  -6   0  -2 120.068 8.83342  14 
  -6   0  -2 126.481 7.92602   4 
  -6   0  -2 131.661 10.4244   3 
  -6   0  -2 125.661 9.09628   1 
   6   0   2 102.202 10.0186   2 
   6   0   2 118.452 9.54377   1 
   6   0   2 108.788 9.31924   3 
  -7   0  -2 51.7685 6.96582  14 
  -7   0  -2 48.0850 7.08092   5 
  -7   0  -2 54.2225 8.18611   3 
  -7   0  -2 46.2214 7.99678  11 
  -7   0  -2 48.5123 7.08584   1 
   7   0   2 50.6161 7.94934   1 
   7   0   2 52.7616 8.35401   2 
  -8   0  -2 6.05141 4.12850  14 
  -8   0  -2 10.9282 4.72354   5 
  -8   0  -2 8.72789 4.10582   1 
  -8   0  -2 5.11065 5.06605  11 
  -8   0  -2 12.3056 5.70141   3 
   8   0   2 7.39272 4.65251   1 
  -9   0  -2 0.72650 4.51532  11 
  -9   0  -2 2.69133 4.10224  14 
  -9   0  -2 4.33117 4.18378   1 
   9   0   2 -2.4459 4.21038   1 
  10  -1  -2 2.54990 4.85903   1 
 -10   1   2 9.72253 5.28927   1 
 -10   1   2 9.60688 6.31232   7 
   9  -1  -2 35.5850 7.57010   1 
  -9   1   2 34.1647 7.80252   7 
  -9   1   2 24.3580 6.43075   3 
  -9   1   2 40.5224 8.04509   1 
   8  -1  -2 77.3845 9.33129   3 
   8  -1  -2 73.4221 8.97067   1 
  -8   1   2 65.6338 8.03957   7 
  -8   1   2 70.0078 8.43856   1 
  -8   1   2 71.1519 8.62385   3 
  -8   1   2 49.8834 7.28853  14 
   7  -1  -2 2.94165 2.93466   1 
   7  -1  -2 2.84005 3.66875   2 
   7  -1  -2 -1.0531 2.65988   3 
  -7   1   2 -1.8069 2.24881   1 
  -7   1   2 0.84883 2.60525   1 
  -7   1   2 3.97788 3.07123   7 
  -7   1   2 1.00735 2.79291   3 
  -7   1   2 -1.3210 1.70967  14 
   6  -1  -2 139.162 9.79962   1 
   6  -1  -2 128.311 9.99009   3 
   6  -1  -2 135.095 10.4797   2 
  -6   1   2 156.908 9.77852   7 
  -6   1   2 187.779 10.3083  14 
  -6   1   2 163.984 10.2261   5 
  -6   1   2 175.892 7.84480   4 
  -6   1   2 161.091 10.5431   3 
  -6   1   2 157.140 10.0335   1 
  -6   1   2 183.429 9.69630  12 
  -6   1   2 173.448 7.00125  10 
  -6   1   2 162.008 11.1229   2 
   5  -1  -2 254.979 13.3158   2 
   5  -1  -2 251.365 12.9443   3 
   5  -1  -2 244.391 12.2417   1 
  -5   1   2 252.286 12.8016   3 
  -5   1   2 260.404 13.5563   2 
  -5   1   2 263.917 10.1731   4 
  -5   1   2 238.242 11.8156   7 
  -5   1   2 260.184 11.7071  12 
  -5   1   2 260.564 12.4872   5 
  -5   1   2 259.585 8.95667  10 
  -5   1   2 242.077 11.8933  14 
   4  -1  -2 271.956 12.1869   3 
   4  -1  -2 259.475 11.4684   1 
   4  -1  -2 270.690 11.1076  12 
   4  -1  -2 281.187 12.5962   2 
  -4   1   2 255.998 11.4267   1 
  -4   1   2 255.353 12.3992   2 
  -4   1   2 255.246 11.1804  14 
  -4   1   2 254.224 11.3923   5 
  -4   1   2 235.457 11.0390   7 
  -4   1   2 245.648 10.9051  12 
  -4   1   2 245.157 11.6537   3 
  -4   1   2 246.522 8.86880  10 
   3  -1  -2 271.429 11.2748  14 
   3  -1  -2 279.764 12.0620   2 
   3  -1  -2 272.475 11.2993   5 
   3  -1  -2 274.587 11.3511   1 
   3  -1  -2 271.560 11.8208   3 
  -3   1   2 302.661 11.9278   3 
  -3   1   2 284.299 11.2170  14 
  -3   1   2 275.049 11.1928   7 
  -3   1   2 281.092 9.74016  10 
  -3   1   2 284.133 11.4130   1 
  -3   1   2 294.729 11.8335   3 
  -3   1   2 287.995 11.4715   5 
  -3   1   2 288.466 11.3319  12 
  -3   1   2 309.091 12.4642   2 
  -3   1   2 287.350 12.2394   2 
   2  -1  -2 791.387 26.9260   5 
   2  -1  -2 800.515 26.8285   1 
   2  -1  -2 789.525 26.8220  14 
   2  -1  -2 744.523 26.7278   1 
   2  -1  -2 810.615 26.7750  14 
   2  -1  -2 774.177 26.2647  10 
   2  -1  -2 789.491 27.3157   3 
  -2   1   2 883.242 27.1448   7 
  -2   1   2 869.020 27.3298   3 
  -2   1   2 895.518 27.2028   1 
  -2   1   2 886.588 26.9675  14 
  -2   1   2 870.857 27.8015   2 
  -2   1   2 863.451 26.3998  10 
  -2   1   2 878.038 27.8809   2 
  -2   1   2 888.382 27.2107   5 
  -2   1   2 855.494 27.4144  12 
   1  -1  -2 209.505 7.29396  14 
   1  -1  -2 210.640 7.87949  10 
   1  -1  -2 211.787 7.26936   1 
   1  -1  -2 220.706 7.76788   2 
   1  -1  -2 214.825 7.71790   3 
   1  -1  -2 216.596 8.19394  11 
   1  -1  -2 208.277 8.17562  13 
   1  -1  -2 212.844 7.23794  14 
   1  -1  -2 211.404 7.20687   1 
   1  -1  -2 208.141 7.24775   8 
   1  -1  -2 208.249 7.88829   6 
   1  -1  -2 213.358 7.40545   5 
  -1   1   2 204.845 7.89351  10 
  -1   1   2 199.301 7.43434   1 
  -1   1   2 193.240 7.46105   3 
  -1   1   2 188.196 7.26346  14 
  -1   1   2 187.480 7.28657   1 
  -1   1   2 193.866 7.48920   8 
  -1   1   2 201.401 7.51973   5 
  -1   1   2 197.630 7.65585   7 
  -1   1   2 196.758 7.42435   5 
  -1   1   2 189.972 7.72711   2 
  -1   1   2 193.663 7.76265   2 
   0  -1  -2 3857.05 114.856  14 
   0  -1  -2 3688.31 115.089  10 
   0  -1  -2 3768.20 114.487   1 
   0  -1  -2 3701.19 114.524   6 
   0  -1  -2 3780.33 115.011   2 
   0  -1  -2 3781.38 114.862  11 
   0  -1  -2 3647.13 116.736   3 
   0  -1  -2 3820.87 114.811   5 
   0  -1  -2 3757.87 116.885   5 
   0  -1  -2 3781.30 116.962  13 
   0  -1  -2 3698.91 114.981   4 
   0   1   2 3903.46 114.607   6 
   0   1   2 3987.53 118.760   2 
   0   1   2 3803.66 114.921   1 
   0   1   2 3886.06 114.826   3 
   0   1   2 3781.00 115.763   1 
   0   1   2 3897.29 114.735  13 
   0   1   2 3873.68 115.192   5 
   0   1   2 3775.73 115.792   2 
  -1  -1  -2 209.483 8.44408  14 
  -1  -1  -2 220.326 8.42698   1 
  -1  -1  -2 225.057 9.57453   4 
  -1  -1  -2 217.855 9.04286   2 
  -1  -1  -2 211.412 8.99328   3 
  -1  -1  -2 223.977 9.21003  13 
  -1  -1  -2 217.429 8.67850   5 
  -1  -1  -2 214.683 8.32496   1 
  -1  -1  -2 217.057 9.06406   3 
  -1  -1  -2 219.070 9.45507  11 
   1   1   2 268.240 9.44527  13 
   1   1   2 282.890 9.71387   1 
   1   1   2 263.163 8.97659   1 
   1   1   2 262.586 9.00241   3 
   1   1   2 263.054 9.57707   2 
   1   1   2 259.579 9.62174   2 
   1   1   2 273.600 9.25682   5 
  -2  -1  -2 318.994 11.7759   1 
  -2  -1  -2 288.515 11.6598  14 
  -2  -1  -2 297.091 12.4436   3 
  -2  -1  -2 290.344 12.4882   4 
  -2  -1  -2 304.251 12.5356   3 
  -2  -1  -2 302.530 11.7743  14 
  -2  -1  -2 286.736 11.8858   5 
  -2  -1  -2 308.171 11.7878   1 
  -2  -1  -2 321.552 12.6834   2 
  -2  -1  -2 303.168 12.7686  11 
   2   1   2 338.504 13.1523   2 
   2   1   2 331.574 12.3050   3 
   2   1   2 363.027 12.7788   5 
   2   1   2 342.874 12.4039   1 
   2   1   2 346.604 12.5306  13 
   2   1   2 349.763 13.3412   2 
   2   1   2 347.037 12.5689   3 
  -3  -1  -2 235.939 10.3616   5 
  -3  -1  -2 233.103 10.5702   4 
  -3  -1  -2 221.832 10.8786  11 
  -3  -1  -2 250.824 10.1986  14 
  -3  -1  -2 239.026 11.0154   2 
  -3  -1  -2 228.350 11.2407   1 
  -3  -1  -2 258.496 11.3771   3 
  -3  -1  -2 248.295 10.1749  14 
  -3  -1  -2 236.707 10.9858   3 
  -3  -1  -2 240.213 10.0448   1 
   3   1   2 214.773 11.1710   2 
   3   1   2 221.325 10.5152   3 
   3   1   2 211.253 10.2738   1 
   3   1   2 216.564 11.3320   2 
  -4  -1  -2 208.199 10.1214   1 
  -4  -1  -2 209.449 11.2497  11 
  -4  -1  -2 206.697 11.2584   2 
  -4  -1  -2 225.942 10.6816   5 
  -4  -1  -2 210.837 10.1647  14 
  -4  -1  -2 207.570 11.1968   3 
  -4  -1  -2 216.125 10.5684   4 
  -4  -1  -2 207.879 10.0647  14 
  -4  -1  -2 216.565 11.3804   3 
   4   1   2 214.304 10.9022   3 
   4   1   2 205.609 11.7998   2 
   4   1   2 218.895 12.0325   2 
   4   1   2 198.017 10.6159   1 
  -5  -1  -2 303.703 15.1076  11 
  -5  -1  -2 261.050 12.9555  14 
  -5  -1  -2 270.290 13.0633  14 
  -5  -1  -2 281.339 13.6882   5 
  -5  -1  -2 270.638 13.1089  10 
  -5  -1  -2 288.149 14.8640   3 
  -5  -1  -2 294.643 13.4403   1 
  -5  -1  -2 272.070 13.1350   4 
   5   1   2 282.469 14.3727   1 
   5   1   2 268.210 15.2874   2 
   5   1   2 299.824 14.4327   3 
  -6  -1  -2 206.689 11.6093   1 
  -6  -1  -2 186.637 11.1815  14 
  -6  -1  -2 194.356 11.8317   5 
  -6  -1  -2 191.964 10.7317  10 
  -6  -1  -2 181.561 10.9530   4 
  -6  -1  -2 202.051 13.2708   3 
  -6  -1  -2 177.755 12.5155  11 
   6   1   2 207.119 14.2519   2 
   6   1   2 204.644 12.7012   1 
  -7  -1  -2 -0.3936 3.38812  11 
  -7  -1  -2 -3.2010 2.54785   5 
  -7  -1  -2 2.34681 3.01149  14 
  -7  -1  -2 2.50024 3.57360   3 
  -7  -1  -2 -0.3608 2.54488   1 
   7   1   2 5.86765 3.98830   1 
   7   1   2 3.42648 3.99539   2 
  -8  -1  -2 8.49570 4.35753   1 
  -8  -1  -2 6.12977 4.83989  11 
  -8  -1  -2 12.4614 4.72402  14 
  -8  -1  -2 7.11933 4.20354   5 
   8   1   2 8.72840 5.32014   1 
  10  -2  -2 33.7006 8.19963   1 
 -10   2   2 28.1484 7.02298   1 
 -10   2   2 29.5240 8.34104   7 
   9  -2  -2 21.5712 6.17788   1 
   9  -2  -2 22.1473 6.84061   3 
  -9   2   2 17.5110 5.83862   7 
  -9   2   2 22.5732 6.40673   3 
  -9   2   2 21.6174 6.18126   1 
   8  -2  -2 27.4717 6.13060   1 
   8  -2  -2 34.8221 7.24035   3 
  -8   2   2 31.2172 6.70030   1 
  -8   2   2 33.2381 6.64970   3 
  -8   2   2 23.6431 5.28028   7 
   7  -2  -2 39.6755 6.72222   3 
   7  -2  -2 25.8799 5.53954   1 
  -7   2   2 37.1143 5.80148   1 
  -7   2   2 34.1953 5.45710  14 
  -7   2   2 31.0370 5.29092   7 
  -7   2   2 44.9542 6.70826   2 
  -7   2   2 32.6048 5.04591  12 
  -7   2   2 35.2855 5.95711   3 
  -7   2   2 36.2776 5.82899   1 
   6  -2  -2 136.743 9.12487   1 
   6  -2  -2 146.327 10.1543   3 
   6  -2  -2 138.379 9.96608   2 
  -6   2   2 145.315 9.40027   5 
  -6   2   2 138.001 9.31214   1 
  -6   2   2 145.682 9.10080  14 
  -6   2   2 139.187 6.16312   4 
  -6   2   2 130.823 9.97730   2 
  -6   2   2 139.753 9.54340   3 
  -6   2   2 126.085 8.79301   7 
  -6   2   2 136.133 6.25461  10 
  -6   2   2 134.789 8.83083  12 
   5  -2  -2 313.026 14.7812   3 
   5  -2  -2 304.311 13.9287   5 
   5  -2  -2 317.045 15.0887   2 
   5  -2  -2 301.691 13.8985   1 
  -5   2   2 302.779 13.9366   1 
  -5   2   2 302.529 13.7237   7 
  -5   2   2 315.270 14.2037   5 
  -5   2   2 306.459 15.1907   2 
  -5   2   2 309.188 11.4915  10 
  -5   2   2 318.243 14.0554  12 
  -5   2   2 316.554 14.5146   3 
  -5   2   2 314.963 13.8193  14 
   4  -2  -2 653.185 22.7984   1 
   4  -2  -2 661.518 23.7793   2 
   4  -2  -2 626.063 23.3751   3 
   4  -2  -2 650.655 22.7605   5 
  -4   2   2 615.527 22.6514   1 
  -4   2   2 611.655 22.4867   7 
  -4   2   2 603.856 22.7832  12 
  -4   2   2 613.764 22.9772   3 
  -4   2   2 611.532 23.8730   2 
  -4   2   2 622.694 22.4200  14 
  -4   2   2 629.615 23.7354   2 
  -4   2   2 641.246 20.9413  10 
  -4   2   2 618.415 22.6653   5 
   3  -2  -2 74.8955 5.14882   3 
   3  -2  -2 73.6518 4.79010   1 
   3  -2  -2 83.6009 4.81648   1 
   3  -2  -2 78.9031 4.77263   5 
   3  -2  -2 79.2265 4.64315  14 
  -3   2   2 84.4160 4.93453   7 
  -3   2   2 82.6607 4.94606   1 
  -3   2   2 88.9970 5.22453   3 
  -3   2   2 85.9013 5.20845   3 
  -3   2   2 89.7753 4.90921  14 
  -3   2   2 84.8404 5.36860  12 
  -3   2   2 83.3939 4.96218   5 
  -3   2   2 81.3458 5.49657   2 
  -3   2   2 78.2891 5.35638   2 
  -3   2   2 86.7824 4.42766  10 
   2  -2  -2 732.929 25.3048   6 
   2  -2  -2 731.347 24.7243  10 
   2  -2  -2 745.209 23.9651  14 
   2  -2  -2 714.573 24.6717   3 
   2  -2  -2 715.306 23.9555   1 
   2  -2  -2 750.098 24.0001   8 
   2  -2  -2 751.055 24.2101   5 
   2  -2  -2 782.710 24.8094   2 
   2  -2  -2 752.744 23.9528   1 
   2  -2  -2 753.232 25.5890  13 
  -2   2   2 772.211 25.1343   2 
  -2   2   2 771.511 24.4389   1 
  -2   2   2 747.716 24.9521   2 
  -2   2   2 769.175 24.7085   7 
  -2   2   2 777.241 24.5416   5 
  -2   2   2 763.226 24.8147  10 
  -2   2   2 768.818 24.5466   3 
  -2   2   2 776.479 25.6928  12 
  -2   2   2 752.671 24.4488   3 
   1  -2  -2 936.306 28.9831  13 
   1  -2  -2 947.792 28.8326  10 
   1  -2  -2 906.760 27.3295   3 
   1  -2  -2 900.456 28.4830   4 
   1  -2  -2 937.400 28.5064  11 
   1  -2  -2 923.439 28.6059   6 
  -1   2   2 857.753 27.4269   2 
  -1   2   2 858.202 26.9206   1 
  -1   2   2 849.822 26.6425   9 
  -1   2   2 861.725 27.4207   2 
  -1   2   2 857.763 28.5402  10 
  -1   2   2 842.857 26.7750   3 
  -1   2   2 815.681 26.8401   1 
  -1   2   2 855.819 27.4580   2 
  -1   2   2 841.857 26.7895   3 
  -1   2   2 839.226 27.6558   7 
  -1   2   2 843.479 26.7963   8 
   0  -2  -2 235.947 9.15180   6 
   0  -2  -2 217.413 8.58963  11 
   0  -2  -2 214.892 9.13475  13 
   0  -2  -2 222.532 9.33315  10 
   0  -2  -2 221.926 9.26276   4 
   0  -2  -2 226.674 7.75495   3 
   0   2   2 223.850 9.34022  10 
   0   2   2 206.903 9.03775  13 
   0   2   2 217.760 7.25954   1 
   0   2   2 205.248 7.71897   2 
   0   2   2 209.634 7.22771   1 
   0   2   2 211.917 7.74856   2 
  -1  -2  -2 1017.27 33.5150  13 
  -1  -2  -2 995.295 30.9160  14 
  -1  -2  -2 1021.56 33.7351   4 
  -1  -2  -2 992.511 30.9319  14 
  -1  -2  -2 1014.55 33.6052  10 
  -1  -2  -2 1040.11 32.9819  11 
  -1  -2  -2 995.595 31.2813   5 
  -1  -2  -2 998.233 32.1926   3 
  -1  -2  -2 1021.06 33.4376   6 
   1   2   2 1009.45 32.5674   2 
   1   2   2 995.960 32.4627   2 
   1   2   2 1051.66 33.5206  13 
   1   2   2 1018.03 31.8681   1 
  -2  -2  -2 129.097 6.67326  11 
  -2  -2  -2 129.832 5.43659  14 
  -2  -2  -2 119.649 5.08515   1 
  -2  -2  -2 128.946 6.55949   3 
  -2  -2  -2 128.024 6.51947   3 
  -2  -2  -2 123.473 6.89003  10 
  -2  -2  -2 120.645 5.40590  14 
  -2  -2  -2 124.117 5.11000   1 
  -2  -2  -2 116.747 5.58555   5 
  -2  -2  -2 124.065 7.12539   4 
   2   2   2 104.210 5.84603   1 
   2   2   2 105.851 6.42649   2 
   2   2   2 106.881 5.74892   3 
   2   2   2 96.1424 6.22957   2 
  -3  -2  -2 110.884 6.94763   3 
  -3  -2  -2 115.956 5.91059  14 
  -3  -2  -2 104.107 7.02444   4 
  -3  -2  -2 110.753 6.89426  11 
  -3  -2  -2 106.387 5.54896   1 
  -3  -2  -2 113.826 5.67180   1 
  -3  -2  -2 104.722 6.78497  10 
  -3  -2  -2 122.328 7.19287   3 
  -3  -2  -2 113.376 6.14580   5 
  -3  -2  -2 108.628 5.81822  14 
   3   2   2 107.708 6.36796   3 
   3   2   2 96.4451 6.30920   1 
   3   2   2 96.3267 6.96695   2 
   3   2   2 96.7989 7.05314   2 
  -4  -2  -2 216.657 10.6343  10 
  -4  -2  -2 206.512 11.0013  11 
  -4  -2  -2 192.329 10.8958   3 
  -4  -2  -2 190.614 9.38293  14 
  -4  -2  -2 193.836 10.7151   4 
  -4  -2  -2 182.046 9.68416   5 
  -4  -2  -2 196.413 9.46297  14 
  -4  -2  -2 187.930 10.8539   3 
  -4  -2  -2 210.095 9.46088   1 
   4   2   2 205.274 10.7524   1 
   4   2   2 215.900 11.9403   2 
   4   2   2 204.609 10.4089   3 
   4   2   2 195.666 11.6473   2 
  -5  -2  -2 52.9522 5.99959   4 
  -5  -2  -2 52.8018 6.22400  11 
  -5  -2  -2 49.3453 5.09377  14 
  -5  -2  -2 48.7363 5.41485   5 
  -5  -2  -2 49.7505 4.97429   1 
  -5  -2  -2 52.3913 6.38332   3 
  -5  -2  -2 46.7789 4.84724  14 
  -5  -2  -2 50.2383 5.16863  10 
   5   2   2 45.0068 5.87898   1 
   5   2   2 50.0219 6.93445   2 
  -6  -2  -2 59.2602 5.90968   1 
  -6  -2  -2 51.7694 7.18228  11 
  -6  -2  -2 54.1589 6.20407  14 
  -6  -2  -2 58.7675 6.61439   5 
  -6  -2  -2 50.6724 6.43213   4 
  -6  -2  -2 57.3420 7.71516   3 
   6   2   2 58.9673 8.78203   2 
   6   2   2 67.4731 7.85573   1 
  -7  -2  -2 7.15708 4.50063   3 
  -7  -2  -2 5.85639 3.63453   4 
  -7  -2  -2 4.93653 3.29828  14 
  -7  -2  -2 3.98108 4.27561  11 
  -7  -2  -2 10.1183 3.53305   1 
  -7  -2  -2 8.10800 3.81701   5 
   7   2   2 1.22190 4.29167   2 
   7   2   2 8.81767 4.46150   1 
  -8  -2  -2 -0.0821 3.18734  14 
  -8  -2  -2 0.05270 3.82303  11 
  -8  -2  -2 2.22699 3.91137   5 
   8   2   2 -1.8839 3.84925   2 
   8   2   2 3.90537 4.65128   1 
  10  -3  -2 30.4564 7.63086   1 
 -10   3   2 43.6144 9.35092   1 
 -10   3   2 34.7120 8.73966   7 
   9  -3  -2 41.1114 7.92966   1 
   9  -3  -2 45.3096 9.20871   3 
  -9   3   2 41.8982 8.10691   1 
  -9   3   2 44.7609 8.32762   7 
   8  -3  -2 56.7822 8.45747   3 
   8  -3  -2 41.3286 6.88095   1 
  -8   3   2 42.5139 7.02483   1 
  -8   3   2 32.0570 6.75510   3 
  -8   3   2 45.0743 6.98075   7 
  -8   3   2 35.0172 6.12641  12 
  -8   3   2 40.0277 6.94361   1 
   7  -3  -2 31.6107 5.61219   1 
   7  -3  -2 36.9575 6.56383   3 
  -7   3   2 37.3085 5.86420   3 
  -7   3   2 38.3909 5.79722   1 
  -7   3   2 36.7926 5.55633   7 
  -7   3   2 39.4901 6.48402   2 
  -7   3   2 28.4008 5.44781   1 
  -7   3   2 39.2799 6.03232  12 
   6  -3  -2 159.211 9.81056   5 
   6  -3  -2 160.370 13.0310   2 
   6  -3  -2 170.883 10.0704   1 
   6  -3  -2 157.646 10.7311   3 
  -6   3   2 164.919 10.2898  12 
  -6   3   2 174.044 11.4965   2 
  -6   3   2 154.105 9.86004   7 
  -6   3   2 161.977 9.80080  14 
  -6   3   2 160.778 7.79830  10 
  -6   3   2 160.206 10.1523   1 
  -6   3   2 175.572 10.5910   3 
   5  -3  -2 193.957 9.82273   1 
   5  -3  -2 200.855 10.8155   3 
   5  -3  -2 185.882 9.38110  14 
   5  -3  -2 202.165 10.0170   5 
  -5   3   2 176.826 9.86637   5 
  -5   3   2 177.434 8.36711  10 
  -5   3   2 183.221 9.77801   7 
  -5   3   2 183.167 10.9919   2 
  -5   3   2 187.613 10.0332   1 
  -5   3   2 188.953 9.77616  14 
  -5   3   2 186.851 10.2374   3 
  -5   3   2 177.203 10.2452  12 
  -5   3   2 188.259 10.9095   2 
   4  -3  -2 739.142 26.9443   5 
   4  -3  -2 770.943 28.0574   2 
   4  -3  -2 754.576 27.9264   3 
   4  -3  -2 736.227 26.7261   1 
   4  -3  -2 731.425 26.5138  14 
  -4   3   2 798.884 28.3760  12 
  -4   3   2 800.162 27.3517   7 
  -4   3   2 822.781 28.5652   2 
  -4   3   2 822.562 26.6668  10 
  -4   3   2 795.205 28.7607   2 
  -4   3   2 807.384 27.7389   3 
  -4   3   2 795.731 27.4569   5 
  -4   3   2 781.666 27.3297   1 
  -4   3   2 841.010 27.3479  14 
   3  -3  -2 395.788 15.2110   3 
   3  -3  -2 377.931 14.0475   1 
   3  -3  -2 401.738 14.1187   1 
   3  -3  -2 407.078 15.1228   2 
   3  -3  -2 399.775 14.4562   5 
   3  -3  -2 379.972 15.7711  13 
   3  -3  -2 396.582 15.7961   6 
   3  -3  -2 397.344 14.2072  14 
  -3   3   2 412.329 15.6744   2 
  -3   3   2 420.483 15.0892  10 
  -3   3   2 391.500 15.9809  12 
  -3   3   2 402.683 14.7141   1 
  -3   3   2 413.704 15.0976   3 
  -3   3   2 398.716 15.4273   2 
  -3   3   2 416.601 14.9024   3 
  -3   3   2 404.230 14.8058   7 
   2  -3  -2 1240.45 39.1426   4 
   2  -3  -2 1226.63 37.3649  14 
   2  -3  -2 1244.46 37.6812   5 
   2  -3  -2 1259.18 38.0938   9 
   2  -3  -2 1218.94 39.7471  10 
   2  -3  -2 1241.30 38.7499   3 
   2  -3  -2 1205.16 40.3194  13 
   2  -3  -2 1225.77 40.0570   6 
   2  -3  -2 1240.16 37.7652   5 
  -2   3   2 1199.90 38.8988   2 
  -2   3   2 1266.78 38.0763   3 
  -2   3   2 1212.08 38.7269   7 
  -2   3   2 1191.85 38.7529   2 
  -2   3   2 1236.50 38.2437   1 
  -2   3   2 1280.66 39.9705  10 
  -2   3   2 1213.70 40.4668  12 
  -2   3   2 1175.45 37.8921   3 
   1  -3  -2 184.563 8.56476   6 
   1  -3  -2 181.953 6.64282   3 
   1  -3  -2 183.018 8.80461  13 
   1  -3  -2 195.321 8.57603   4 
   1  -3  -2 184.845 8.69865  10 
  -1   3   2 195.151 7.13859   9 
  -1   3   2 181.526 6.66417   2 
  -1   3   2 194.539 7.37963   7 
  -1   3   2 194.216 6.70664   2 
   0  -3  -2 166.951 8.16801   6 
   0  -3  -2 163.957 6.07318   3 
   0  -3  -2 169.286 8.37926  10 
   0  -3  -2 161.049 7.16221  11 
   0  -3  -2 154.687 8.22593  13 
   0  -3  -2 169.404 8.33437   4 
   0   3   2 172.265 6.10102   2 
   0   3   2 175.918 6.13248   2 
   0   3   2 179.772 8.43699  10 
   0   3   2 176.558 7.26312   9 
  -1  -3  -2 264.343 11.9310  13 
  -1  -3  -2 265.982 11.8290  10 
  -1  -3  -2 268.313 10.6917  11 
  -1  -3  -2 256.312 11.9030   4 
  -1  -3  -2 266.971 10.1218   3 
  -1  -3  -2 268.168 11.8769   6 
  -1  -3  -2 266.385 10.0724   3 
   1   3   2 271.510 10.2636   2 
   1   3   2 281.774 9.72805   1 
   1   3   2 282.774 10.4829   2 
  -2  -3  -2 1272.24 40.7770  11 
  -2  -3  -2 1295.37 42.4201   4 
  -2  -3  -2 1241.80 40.4118   3 
  -2  -3  -2 1231.33 41.6480  10 
   2   3   2 1167.82 40.5857   2 
   2   3   2 1237.39 41.0093   2 
   2   3   2 1271.50 40.0413   1 
  -3  -3  -2 219.379 10.7947  10 
  -3  -3  -2 218.866 10.3424  11 
  -3  -3  -2 213.891 8.46115  14 
  -3  -3  -2 215.739 8.45050  14 
  -3  -3  -2 206.481 11.1236   4 
  -3  -3  -2 213.915 7.51439   1 
  -3  -3  -2 208.001 10.3440   3 
  -3  -3  -2 207.224 8.79291   5 
  -3  -3  -2 217.249 10.5333   3 
   3   3   2 192.022 10.6705   2 
   3   3   2 201.468 9.96175   1 
   3   3   2 184.919 10.4836   2 
   3   3   2 199.279 9.22255   3 
  -4  -3  -2 51.8767 4.34114  14 
  -4  -3  -2 54.2570 5.53573  11 
  -4  -3  -2 64.8640 6.25336   3 
  -4  -3  -2 66.7456 6.01894  10 
  -4  -3  -2 54.9913 4.33417  14 
  -4  -3  -2 62.9513 5.03228   5 
  -4  -3  -2 67.7057 6.60320   4 
  -4  -3  -2 62.0270 3.95459   1 
   4   3   2 67.7657 6.01472   1 
   4   3   2 74.9178 7.05208   2 
  -5  -3  -2 56.7475 4.41813   1 
  -5  -3  -2 60.9061 5.73647   5 
  -5  -3  -2 71.4912 6.78731  11 
  -5  -3  -2 61.7828 7.07474   3 
  -5  -3  -2 61.2915 5.43680  14 
  -5  -3  -2 61.8519 6.96676   4 
  -5  -3  -2 60.5720 5.11563  14 
  -5  -3  -2 65.8079 6.33346  10 
   5   3   2 71.6171 8.14505   2 
   5   3   2 76.8815 7.50601   1 
  -6  -3  -2 17.0052 3.61549  14 
  -6  -3  -2 17.6583 4.02920   5 
  -6  -3  -2 12.9490 4.42878   4 
  -6  -3  -2 16.9126 5.00502   3 
  -6  -3  -2 20.0018 4.43316   5 
  -6  -3  -2 19.0140 4.00712  14 
  -6  -3  -2 21.6311 5.08053  11 
   6   3   2 9.70588 4.65275   2 
   6   3   2 14.2916 4.74682   1 
  -7  -3  -2 35.8797 6.13790   5 
  -7  -3  -2 41.4349 7.35685   4 
  -7  -3  -2 42.6335 6.05068  14 
   7   3   2 32.4173 7.77290   2 
   7   3   2 35.7955 7.82180   1 
  10  -4  -2 5.97332 4.83981   1 
  10  -4  -2 4.15892 6.23607   3 
 -10   4   2 12.7759 5.97170   7 
 -10   4   2 4.11420 4.51982   1 
   9  -4  -2 -2.8200 3.20356   1 
   9  -4  -2 2.37822 4.58107   3 
  -9   4   2 1.23211 4.03378   1 
  -9   4   2 6.09719 4.61620   7 
   8  -4  -2 56.7495 8.18548   3 
   8  -4  -2 46.3518 7.18345   1 
  -8   4   2 44.7795 6.98709   7 
  -8   4   2 45.5410 7.43540   1 
  -8   4   2 42.2236 7.26023  12 
  -8   4   2 52.0161 7.58228   1 
   7  -4  -2 213.468 13.6286   3 
   7  -4  -2 205.393 12.6435   5 
   7  -4  -2 205.334 12.2528   1 
  -7   4   2 218.566 14.3003   2 
  -7   4   2 206.419 12.2990   7 
  -7   4   2 192.657 12.4985   3 
  -7   4   2 210.178 12.7625   1 
  -7   4   2 201.205 12.8458  12 
  -7   4   2 190.494 12.3720   1 
   6  -4  -2 142.700 8.98606   5 
   6  -4  -2 150.510 9.51777   5 
   6  -4  -2 136.458 8.97881   1 
   6  -4  -2 152.937 10.4414   3 
  -6   4   2 149.107 9.66741   3 
  -6   4   2 152.615 10.8198   2 
  -6   4   2 137.210 9.14635   7 
  -6   4   2 144.986 9.58449   1 
  -6   4   2 157.940 10.5102  12 
   5  -4  -2 90.3908 5.90556  14 
   5  -4  -2 100.028 7.05503   2 
   5  -4  -2 98.8979 6.46007   5 
   5  -4  -2 93.7791 6.29056   1 
   5  -4  -2 91.2049 6.60368   5 
   5  -4  -2 90.5867 7.15652   3 
  -5   4   2 90.6264 7.31102  12 
  -5   4   2 87.1629 6.55526   3 
  -5   4   2 80.6572 7.14851   2 
  -5   4   2 86.2252 6.98945   2 
  -5   4   2 90.3655 6.64124   5 
  -5   4   2 93.8480 6.46012  14 
  -5   4   2 80.5852 6.35789   7 
  -5   4   2 88.4886 6.53999   1 
   4  -4  -2 168.713 9.65077   6 
   4  -4  -2 183.681 9.18006   2 
   4  -4  -2 182.548 9.45739   3 
   4  -4  -2 180.334 8.66557   5 
   4  -4  -2 177.244 8.08497   1 
   4  -4  -2 170.401 7.97017  14 
   4  -4  -2 172.912 8.39205   5 
   4  -4  -2 170.467 9.58236  13 
   4  -4  -2 171.412 7.90976   1 
  -4   4   2 186.605 9.84684   2 
  -4   4   2 198.264 9.12913   7 
  -4   4   2 187.483 10.1810  12 
  -4   4   2 184.865 9.64993   2 
  -4   4   2 177.846 8.76571   1 
  -4   4   2 184.932 8.76027   3 
   3  -4  -2 637.685 21.9645   9 
   3  -4  -2 646.457 23.7800   6 
   3  -4  -2 613.439 23.7476  13 
   3  -4  -2 636.783 20.5394   1 
   3  -4  -2 665.733 21.3912   5 
   3  -4  -2 611.789 22.4579   3 
   3  -4  -2 653.634 21.5280   5 
   3  -4  -2 632.361 20.8905  14 
  -3   4   2 669.104 22.1104   1 
  -3   4   2 657.072 23.0396   2 
  -3   4   2 667.342 21.7233   3 
  -3   4   2 666.214 22.3164   7 
  -3   4   2 676.218 23.0420   2 
  -3   4   2 644.037 24.2064  12 
   2  -4  -2 1205.12 38.5941   4 
   2  -4  -2 1243.68 37.4827   9 
   2  -4  -2 1224.05 39.5366   6 
   2  -4  -2 1224.63 39.4792  10 
   2  -4  -2 1211.15 39.9314  13 
   2  -4  -2 1221.31 37.3235   3 
  -2   4   2 1137.72 36.6043   1 
  -2   4   2 1148.57 39.8403  12 
  -2   4   2 1137.48 37.2965   2 
  -2   4   2 1119.03 37.3204   2 
  -2   4   2 1154.40 37.4369   7 
   1  -4  -2 466.491 17.2513   6 
   1  -4  -2 449.922 17.4310  13 
   1  -4  -2 462.873 17.3568  10 
   1  -4  -2 468.923 17.1114   4 
  -1   4   2 395.972 15.1417   9 
  -1   4   2 403.578 14.7534   7 
   0  -4  -2 608.681 22.4294   4 
   0  -4  -2 572.824 22.1275   6 
   0  -4  -2 614.104 20.4383  11 
   0  -4  -2 606.878 22.3444  10 
   0  -4  -2 586.035 22.4337  13 
  -1  -4  -2 620.024 20.7664   3 
  -1  -4  -2 622.000 20.7225   3 
  -1  -4  -2 615.484 21.3578  11 
  -1  -4  -2 613.876 23.6828   4 
  -1  -4  -2 628.263 23.6393   6 
  -1  -4  -2 628.508 23.4267  10 
   1   4   2 628.110 21.0273   2 
   1   4   2 650.484 20.2985   1 
   1   4   2 606.731 20.9956   2 
  -2  -4  -2 263.738 11.4655   3 
  -2  -4  -2 269.417 13.5030   4 
  -2  -4  -2 247.331 12.8305  10 
  -2  -4  -2 279.546 11.7418  11 
   2   4   2 287.063 11.2687   1 
   2   4   2 309.988 12.5082   2 
   2   4   2 282.666 11.9977   2 
  -3  -4  -2 24.8573 3.42208  11 
  -3  -4  -2 27.7959 4.67726   4 
  -3  -4  -2 27.5113 4.02906   3 
  -3  -4  -2 30.2176 4.63675  10 
   3   4   2 16.3757 3.29415   1 
   3   4   2 18.4104 3.70989   2 
   3   4   2 19.7895 3.86717   2 
  -4  -4  -2 73.7407 4.01990  14 
  -4  -4  -2 76.2955 4.07991  14 
  -4  -4  -2 69.9269 6.13673  11 
  -4  -4  -2 80.4716 7.80186   4 
  -4  -4  -2 86.4854 7.24382  10 
  -4  -4  -2 78.1104 6.90800   3 
  -4  -4  -2 81.6452 5.03282   5 
   4   4   2 73.3567 7.34906   2 
   4   4   2 64.0138 6.36690   1 
  -5  -4  -2 40.7758 4.53253   5 
  -5  -4  -2 31.8923 3.59302  14 
  -5  -4  -2 33.1705 3.59815  14 
  -5  -4  -2 33.8404 5.21180  10 
  -5  -4  -2 34.7323 5.04257  11 
  -5  -4  -2 37.8878 4.32531   5 
  -5  -4  -2 36.2979 5.99569   3 
  -5  -4  -2 40.8817 6.48408   4 
   5   4   2 41.3468 7.09691   2 
   5   4   2 53.6286 6.63566   1 
  -6  -4  -2 61.3783 5.94496   5 
  -6  -4  -2 60.9195 5.99310   5 
  -6  -4  -2 66.2849 8.54388   4 
  -6  -4  -2 60.6189 8.20126   3 
  -6  -4  -2 57.4478 5.01612  14 
  -6  -4  -2 66.2164 5.25048  14 
   6   4   2 77.1519 10.1625   2 
  -7  -4  -2 17.3872 4.19379   5 
  -7  -4  -2 13.7962 3.14877  14 
  -7  -4  -2 10.3924 3.09379  14 
  -7  -4  -2 18.5673 5.81877   4 
  -7  -4  -2 9.71226 3.55702   5 
   7   4   2 3.53230 4.65839   2 
  10  -5  -2 7.83077 4.80948   1 
 -10   5   2 4.59678 4.33014   1 
 -10   5   2 7.10043 5.43171   7 
   9  -5  -2 11.7068 5.02508   1 
   9  -5  -2 10.5546 4.98956   3 
  -9   5   2 11.6459 5.17126   7 
  -9   5   2 10.9324 5.12481  12 
  -9   5   2 7.32355 4.33257   1 
   8  -5  -2 44.4025 7.23870   5 
   8  -5  -2 46.8608 7.70165   3 
   8  -5  -2 48.7187 6.91091   1 
  -8   5   2 64.0232 8.19832   1 
  -8   5   2 70.9187 9.26848   2 
  -8   5   2 58.5813 8.25319  12 
  -8   5   2 50.4100 7.75956   1 
  -8   5   2 53.7530 7.41757   7 
   7  -5  -2 95.1542 8.50440   5 
   7  -5  -2 100.230 9.51205   3 
   7  -5  -2 94.5048 8.71914  13 
   7  -5  -2 109.942 8.45141   1 
  -7   5   2 99.8563 9.84013   2 
  -7   5   2 98.9987 8.78716   1 
  -7   5   2 102.906 9.49897  12 
  -7   5   2 107.887 9.08494   1 
  -7   5   2 90.7647 8.13255   7 
   6  -5  -2 84.9805 6.76102   5 
   6  -5  -2 90.3939 6.84684   1 
   6  -5  -2 89.7910 7.25389   5 
   6  -5  -2 90.9224 8.13287   3 
   6  -5  -2 88.9333 7.80796  13 
   6  -5  -2 90.1444 6.49806  14 
  -6   5   2 91.7575 7.47820   7 
  -6   5   2 93.3958 8.53528  12 
  -6   5   2 89.3098 7.27593   3 
  -6   5   2 88.3557 7.46758   1 
  -6   5   2 93.9209 8.63780   2 
   5  -5  -2 37.2500 4.43940   5 
   5  -5  -2 33.8546 3.79422   1 
   5  -5  -2 41.1053 4.24149   5 
   5  -5  -2 45.7155 5.43546   6 
   5  -5  -2 36.7017 5.18306  13 
   5  -5  -2 45.6127 5.34308   3 
   5  -5  -2 38.9481 3.85060  14 
  -5   5   2 54.5693 5.57751   2 
  -5   5   2 55.9377 5.98867   2 
  -5   5   2 55.9417 5.16871   1 
  -5   5   2 54.1177 6.21175  12 
  -5   5   2 52.1145 5.02600   7 
  -5   5   2 50.7351 4.76539   3 
   4  -5  -2 587.968 20.3259   5 
   4  -5  -2 584.208 19.8216  14 
   4  -5  -2 569.359 22.9990  13 
   4  -5  -2 586.864 19.4096   1 
   4  -5  -2 575.961 20.3698   5 
   4  -5  -2 570.539 22.8435   6 
   4  -5  -2 575.192 21.8477   3 
   4  -5  -2 577.055 19.3207   1 
  -4   5   2 595.958 21.3469   7 
  -4   5   2 593.994 22.6155   2 
  -4   5   2 591.919 21.3180   1 
  -4   5   2 584.540 22.3288   2 
  -4   5   2 595.853 20.7381   3 
  -4   5   2 581.665 23.5217  12 
   3  -5  -2 520.559 20.6148  13 
   3  -5  -2 491.704 17.9959   9 
   3  -5  -2 519.310 18.6073   4 
   3  -5  -2 484.445 18.1434   3 
   3  -5  -2 482.530 19.9170   6 
  -3   5   2 507.803 17.6568   1 
  -3   5   2 497.768 18.5727   2 
  -3   5   2 498.623 17.9075   7 
  -3   5   2 520.569 16.5577   3 
  -3   5   2 508.157 20.5755  12 
  -3   5   2 524.640 18.6463   2 
   2  -5  -2 581.943 20.9788   4 
   2  -5  -2 551.691 21.5776   6 
   2  -5  -2 566.184 22.1616  13 
   2  -5  -2 585.163 19.7250   9 
   2  -5  -2 590.045 21.9775  10 
   2  -5  -2 571.764 18.6674   3 
   2  -5  -2 580.904 18.8155   3 
  -2   5   2 550.546 19.0125   7 
  -2   5   2 541.200 18.7726   2 
  -2   5   2 545.379 18.8775   2 
  -2   5   2 558.056 22.0501  12 
  -2   5   2 559.903 18.1153   1 
   1  -5  -2 236.514 11.4769   4 
   1  -5  -2 227.392 11.4774   6 
   1  -5  -2 233.777 11.9897  13 
   1  -5  -2 248.843 11.9667  10 
  -1   5   2 254.233 9.10596   7 
  -1   5   2 248.850 11.8337  12 
   0  -5  -2 217.340 11.3248  10 
   0  -5  -2 212.162 11.2686   4 
   0  -5  -2 204.155 11.3468  13 
   0  -5  -2 223.963 11.4957   6 
   0  -5  -2 216.377 9.05803  11 
   0   5   2 254.401 8.82132   7 
  -1  -5  -2 390.942 14.6548  11 
  -1  -5  -2 394.269 14.2365   3 
  -1  -5  -2 398.230 14.1934   3 
  -1  -5  -2 386.578 17.3071  10 
  -1  -5  -2 386.077 17.5727   4 
  -1  -5  -2 405.838 17.7092   6 
   1   5   2 400.840 14.4277   2 
   1   5   2 413.179 14.6052   2 
   1   5   2 419.721 13.7227   1 
  -2  -5  -2 410.237 15.4776   3 
  -2  -5  -2 409.188 18.4484   4 
  -2  -5  -2 399.158 15.2335  11 
  -2  -5  -2 403.093 15.4031   3 
  -2  -5  -2 422.433 18.0564  10 
   2   5   2 381.344 14.8080   1 
   2   5   2 379.747 15.8337   2 
   2   5   2 372.641 15.5971   2 
  -3  -5  -2 82.6764 8.07314   4 
  -3  -5  -2 104.359 8.07686  10 
  -3  -5  -2 90.1867 6.11827  11 
  -3  -5  -2 88.9419 6.67111   3 
   3   5   2 83.9992 6.27339   1 
   3   5   2 76.9903 6.59086   2 
   3   5   2 78.5173 6.75936   2 
  -4  -5  -2 36.0593 5.54092  10 
  -4  -5  -2 43.4156 6.92993   4 
  -4  -5  -2 28.7317 5.19717   3 
   4   5   2 37.9693 6.05883   2 
  -5  -5  -2 40.3276 7.47919   4 
  -5  -5  -2 44.8622 6.63643   3 
   5   5   2 48.1475 7.82052   2 
  -6  -5  -2 51.1861 8.86879   4 
   6   5   2 43.7175 9.03829   2 
  10  -6  -2 6.94709 4.15419   1 
 -10   6   2 0.60737 4.32577   7 
 -10   6   2 4.70702 4.90488   1 
 -10   6   2 3.03632 5.05158  12 
   9  -6  -2 4.50463 4.53711   5 
   9  -6  -2 2.53656 4.13899  13 
   9  -6  -2 6.82335 5.16744   3 
   9  -6  -2 7.82983 4.08172   1 
  -9   6   2 1.29517 3.62514   1 
  -9   6   2 1.33911 4.42414  12 
  -9   6   2 3.76720 3.99318   7 
   8  -6  -2 37.7547 6.06763   1 
   8  -6  -2 41.4556 7.85347   3 
   8  -6  -2 30.2310 6.28953   5 
   8  -6  -2 45.2842 7.14882  13 
  -8   6   2 36.6255 7.45693   1 
  -8   6   2 24.6475 6.52538   2 
  -8   6   2 25.9577 5.82556   7 
  -8   6   2 46.8568 8.05474  12 
  -8   6   2 38.7453 7.11594   1 
   7  -6  -2 80.0515 6.83958   1 
   7  -6  -2 77.6385 8.60297   6 
   7  -6  -2 80.6648 7.74645   5 
   7  -6  -2 80.2767 7.01820   5 
   7  -6  -2 92.8949 9.31256   3 
   7  -6  -2 71.1086 7.92454  13 
  -7   6   2 89.7755 8.31582   1 
  -7   6   2 72.2226 7.35450   7 
  -7   6   2 85.5482 8.23300   1 
  -7   6   2 79.1679 9.18305   2 
  -7   6   2 73.9322 8.79328  12 
   6  -6  -2 161.532 9.35833   5 
   6  -6  -2 161.196 10.6421  13 
   6  -6  -2 151.098 10.5199   6 
   6  -6  -2 160.957 9.09563   5 
   6  -6  -2 158.219 8.43029   1 
   6  -6  -2 146.720 10.4892   3 
   6  -6  -2 140.528 8.18167  14 
  -6   6   2 138.131 11.0069  12 
  -6   6   2 140.297 9.60467   1 
  -6   6   2 128.917 10.3503   2 
  -6   6   2 140.773 9.31807   7 
   5  -6  -2 29.2869 4.96282  13 
   5  -6  -2 27.9708 3.94947   9 
   5  -6  -2 24.3063 3.09251  14 
   5  -6  -2 26.7212 3.72947   5 
   5  -6  -2 27.8631 4.96272   6 
   5  -6  -2 29.9527 4.63511   3 
   5  -6  -2 37.3001 3.74210   5 
   5  -6  -2 27.5687 2.72670   1 
  -5   6   2 27.2718 3.60183   3 
  -5   6   2 26.8395 4.77741   2 
  -5   6   2 26.7548 4.04235   7 
  -5   6   2 25.4137 4.38236   2 
  -5   6   2 25.7671 5.22439  12 
  -5   6   2 23.8775 3.99876   1 
   4  -6  -2 57.3384 5.84348   6 
   4  -6  -2 58.5012 4.82224   9 
   4  -6  -2 55.9776 4.79806   3 
   4  -6  -2 53.1205 6.18287  13 
   4  -6  -2 52.6074 5.11805   3 
  -4   6   2 78.9752 5.39031   7 
  -4   6   2 75.6525 5.97828   2 
  -4   6   2 80.9188 4.36998   3 
  -4   6   2 78.5891 5.96383   2 
  -4   6   2 69.7505 5.05505   1 
  -4   6   2 73.8800 6.96852  12 
   3  -6  -2 218.739 11.4099   6 
   3  -6  -2 211.158 9.15075   3 
   3  -6  -2 211.334 10.1619   4 
   3  -6  -2 221.419 9.81690   9 
   3  -6  -2 223.586 9.45406   3 
  -3   6   2 208.367 8.76224   1 
  -3   6   2 201.541 9.43982   2 
  -3   6   2 213.483 9.12329   7 
  -3   6   2 210.706 11.8611  12 
  -3   6   2 196.217 9.46619   2 
   2  -6  -2 371.660 16.4992   6 
   2  -6  -2 376.501 16.5758  10 
   2  -6  -2 380.892 12.8732   3 
   2  -6  -2 386.838 14.5892   9 
   2  -6  -2 381.298 12.7778   3 
   2  -6  -2 381.545 15.8995   4 
  -2   6   2 369.856 12.2210   1 
  -2   6   2 339.799 12.8370   2 
  -2   6   2 358.866 13.0911   7 
  -2   6   2 351.275 16.4827  12 
  -2   6   2 352.525 12.8748   2 
   1  -6  -2 152.141 9.53796  10 
   1  -6  -2 142.029 9.14853   6 
   1  -6  -2 138.932 9.06254   4 
   1  -6  -2 153.512 9.85919  13 
  -1   6   2 162.400 6.34371   7 
  -1   6   2 160.530 9.53019  12 
   0  -6  -2 194.588 11.9142  13 
   0  -6  -2 212.192 11.8945   4 
   0  -6  -2 197.272 11.5712  10 
   0  -6  -2 201.606 11.6907   6 
   0   6   2 227.589 8.29541   7 
   0   6   2 231.291 11.5344  12 
  -1  -6  -2 18.8839 4.41709   4 
  -1  -6  -2 31.6531 5.33320   6 
  -1  -6  -2 31.4564 2.84683   3 
  -1  -6  -2 25.5666 2.66421  11 
  -1  -6  -2 25.3115 4.73184  10 
  -1  -6  -2 27.8905 2.61110   3 
  -2  -6  -2 103.920 8.66194  10 
  -2  -6  -2 110.405 9.29156   4 
  -2  -6  -2 120.585 6.78364   3 
   2   6   2 110.009 6.91970   2 
   2   6   2 103.830 6.96745   2 
  -3  -6  -2 116.351 9.98934   4 
  -3  -6  -2 105.812 8.95574  10 
  -3  -6  -2 107.330 7.45980   3 
   3   6   2 103.018 7.92447   2 
  -4  -6  -2 46.6160 7.79131   4 
  -4  -6  -2 40.2488 5.81485   3 
  -4  -6  -2 36.0320 5.88896  10 
   4   6   2 45.7575 6.66544   2 
  -5  -6  -2 19.2990 6.16237   4 
   5   6   2 21.3900 6.15471   2 
  -6  -6  -2 8.73125 5.32269   4 
   6   6   2 14.2948 5.98590   2 
  10  -7  -2 32.0740 8.66703   6 
  10  -7  -2 33.0929 7.25764   1 
 -10   7   2 37.0763 8.48945   1 
 -10   7   2 24.8423 7.40454   7 
   9  -7  -2 11.8267 4.42982   1 
   9  -7  -2 9.11021 4.87320   5 
   9  -7  -2 10.6587 4.91991  13 
   9  -7  -2 6.26879 4.66923   6 
  -9   7   2 7.75509 4.31315   1 
  -9   7   2 15.6025 5.28916   7 
  -9   7   2 12.0271 6.04509  12 
  -9   7   2 3.38277 3.87949   2 
   8  -7  -2 64.9289 8.14144  13 
   8  -7  -2 55.6108 6.46334   1 
   8  -7  -2 56.4322 8.47596   6 
   8  -7  -2 57.0591 7.63689   5 
   8  -7  -2 50.2855 8.53300   3 
  -8   7   2 52.4130 9.10528  12 
  -8   7   2 52.1913 7.80555   1 
  -8   7   2 57.3198 8.22751   1 
  -8   7   2 69.9164 9.79426   2 
  -8   7   2 51.7057 7.39873   7 
   7  -7  -2 138.638 10.9080  13 
   7  -7  -2 119.883 9.00644   5 
   7  -7  -2 125.912 10.5631   3 
   7  -7  -2 122.730 7.81034   1 
   7  -7  -2 115.691 8.40194   5 
   7  -7  -2 120.976 10.5738   6 
  -7   7   2 122.424 9.80012   1 
  -7   7   2 130.495 9.84375   7 
  -7   7   2 111.525 11.2576  12 
  -7   7   2 126.715 11.5765   2 
  -7   7   2 141.553 10.2970   1 
   6  -7  -2 158.755 8.78896   5 
   6  -7  -2 170.327 7.64085   1 
   6  -7  -2 162.400 11.1488   3 
   6  -7  -2 164.975 9.12834   5 
   6  -7  -2 159.547 8.25249  14 
   6  -7  -2 159.390 11.3526  13 
   6  -7  -2 169.402 10.1678   9 
   6  -7  -2 174.172 11.7833   6 
  -6   7   2 144.234 11.7918  12 
  -6   7   2 156.614 11.5512   2 
  -6   7   2 159.332 10.3606   1 
  -6   7   2 176.846 10.3121   7 
   5  -7  -2 122.900 8.68104   3 
   5  -7  -2 129.591 5.46871  14 
   5  -7  -2 133.842 10.0397  13 
   5  -7  -2 131.146 9.75237   6 
   5  -7  -2 137.875 8.30689   9 
  -5   7   2 118.848 7.95320   1 
  -5   7   2 127.274 10.3602  12 
  -5   7   2 126.846 8.00513   7 
  -5   7   2 127.577 9.11703   2 
   4  -7  -2 131.026 7.57241   4 
   4  -7  -2 135.154 7.72221   9 
   4  -7  -2 125.159 9.26393   6 
   4  -7  -2 152.143 10.1031  13 
   4  -7  -2 137.790 7.89360   3 
  -4   7   2 114.115 7.60690   2 
  -4   7   2 104.998 9.18284  12 
  -4   7   2 128.041 7.15049   7 
  -4   7   2 115.166 7.76263   2 
  -4   7   2 116.268 6.99280   1 
   3  -7  -2 314.120 15.3330   6 
   3  -7  -2 291.803 11.7139   3 
   3  -7  -2 291.620 15.2014  13 
   3  -7  -2 282.190 12.7474   9 
   3  -7  -2 298.769 13.7186   4 
   3  -7  -2 294.528 11.8869   3 
  -3   7   2 299.525 11.6311   7 
  -3   7   2 298.290 12.3807   2 
  -3   7   2 282.890 15.2801  12 
  -3   7   2 291.752 11.3662   1 
  -3   7   2 298.695 12.2435   2 
   2  -7  -2 459.167 20.8186  13 
   2  -7  -2 462.728 15.3928   3 
   2  -7  -2 462.339 20.2987  10 
   2  -7  -2 466.814 20.2155   6 
   2  -7  -2 460.713 19.4939   4 
   2  -7  -2 467.408 15.5346   3 
  -2   7   2 439.287 20.0496  12 
  -2   7   2 470.637 15.6660   7 
  -2   7   2 441.498 15.5746   2 
  -2   7   2 447.259 15.6998   2 
   1  -7  -2 68.4200 6.81802   4 
   1  -7  -2 68.8727 7.18549  13 
   1  -7  -2 65.5000 6.97950  10 
   1  -7  -2 75.2819 7.12543   6 
  -1   7   2 62.8243 6.52413  12 
   0  -7  -2 69.8219 7.24004  10 
   0  -7  -2 62.4413 6.75784   4 
   0  -7  -2 69.4774 7.01646   6 
   0  -7  -2 54.2302 7.01665  13 
   0   7   2 48.4016 5.72013  12 
  -1  -7  -2 193.323 12.8718   4 
  -1  -7  -2 215.063 12.8267  10 
  -1  -7  -2 206.437 8.52772   3 
   1   7   2 204.804 11.5011  12 
   1   7   2 203.877 8.92219   2 
   1   7   2 201.034 8.99810   2 
  -2  -7  -2 140.349 10.2927  10 
  -2  -7  -2 130.418 10.8330   4 
  -2  -7  -2 125.850 7.22990   3 
   2   7   2 119.324 7.64701   2 
   2   7   2 113.096 8.35429  12 
   2   7   2 115.893 7.46868   2 
  -3  -7  -2 42.3691 7.56340   4 
  -3  -7  -2 46.6934 5.42921   3 
  -3  -7  -2 51.2526 7.21760  10 
   3   7   2 49.5749 6.10335   2 
  -4  -7  -2 8.66918 4.88499   4 
  -4  -7  -2 2.67698 2.94806  10 
  -4  -7  -2 5.58038 3.05711   3 
   4   7   2 3.06906 3.36901   2 
  -5  -7  -2 4.01302 5.20554   4 
   5   7   2 -0.7039 3.58298   2 
   9  -8  -2 2.84776 4.59981   6 
   9  -8  -2 -3.3190 3.66376  13 
   9  -8  -2 -1.1137 3.22270   5 
  -9   8   2 -0.1564 4.12895   2 
  -9   8   2 -1.8393 3.50488   1 
  -9   8   2 -0.6171 3.47842   7 
   8  -8  -2 24.1575 6.28394  13 
   8  -8  -2 11.3284 5.27440   3 
   8  -8  -2 13.3235 4.31854   5 
   8  -8  -2 10.8249 3.38820   5 
   8  -8  -2 16.0910 5.63314   6 
  -8   8   2 17.5167 5.44929   1 
  -8   8   2 19.0204 6.83016  12 
  -8   8   2 16.5696 6.14070   2 
  -8   8   2 12.3264 4.81025   7 
   7  -8  -2 171.318 9.06384  14 
   7  -8  -2 164.194 12.7939   6 
   7  -8  -2 163.067 9.64357   5 
   7  -8  -2 176.318 12.9409   3 
   7  -8  -2 182.678 11.7362   9 
   7  -8  -2 172.794 12.9685  13 
   7  -8  -2 182.631 10.3731   5 
  -7   8   2 183.672 12.2360   1 
  -7   8   2 193.008 12.4991   1 
  -7   8   2 175.205 14.3556  12 
  -7   8   2 185.665 11.7577   7 
  -7   8   2 186.040 14.1365   2 
   6  -8  -2 100.611 9.50985   6 
   6  -8  -2 91.7336 9.20722  13 
   6  -8  -2 88.3530 8.31665   3 
   6  -8  -2 93.3193 5.82131   5 
   6  -8  -2 88.9963 4.53322  14 
   6  -8  -2 77.3254 5.28036   5 
   6  -8  -2 89.4955 7.49892   9 
  -6   8   2 104.713 9.71243   2 
  -6   8   2 93.2137 10.0204  12 
  -6   8   2 98.9855 8.07757   1 
  -6   8   2 83.6339 7.34325   7 
   5  -8  -2 5.10152 2.35819   9 
   5  -8  -2 1.55412 3.10824  13 
   5  -8  -2 3.09565 2.60479   3 
   5  -8  -2 7.79006 4.05426   6 
  -5   8   2 4.91245 3.57309  12 
  -5   8   2 1.75698 2.34708   2 
  -5   8   2 3.05454 2.22654   7 
   4  -8  -2 74.9228 8.00910   6 
   4  -8  -2 77.0202 7.99123  13 
   4  -8  -2 77.8360 6.31452   9 
   4  -8  -2 65.7818 5.90976   4 
   4  -8  -2 72.4435 5.82281   3 
  -4   8   2 81.0623 6.24163   2 
  -4   8   2 88.6809 5.70374   7 
  -4   8   2 70.8269 6.14694   2 
  -4   8   2 70.4954 8.20521  12 
   3  -8  -2 299.264 12.2785   3 
   3  -8  -2 301.839 13.8792   9 
   3  -8  -2 325.626 16.3739   6 
   3  -8  -2 295.136 14.6452   4 
   3  -8  -2 299.274 16.5363  13 
  -3   8   2 295.078 12.5923   2 
  -3   8   2 324.018 16.8836  12 
  -3   8   2 299.441 12.5136   2 
   2  -8  -2 425.149 20.5589   6 
   2  -8  -2 453.062 20.1341   4 
   2  -8  -2 448.173 21.5189  13 
  -2   8   2 453.042 20.8837  12 
   1  -8  -2 107.163 8.95381   4 
   1  -8  -2 113.005 9.75615  13 
   1  -8  -2 98.6877 9.09456  10 
   1  -8  -2 99.2151 9.12648   6 
  -1   8   2 106.369 8.73903  12 
   0  -8  -2 91.2375 8.82413   4 
   0  -8  -2 96.7187 9.09717   6 
   0  -8  -2 88.4050 8.61902  10 
   0   8   2 86.2634 7.78762  12 
  -1  -8  -2 128.521 10.7548  10 
  -1  -8  -2 126.078 6.22777   3 
  -1  -8  -2 113.992 10.5133   4 
   1   8   2 137.783 7.02387   2 
   1   8   2 129.949 6.80277   2 
   1   8   2 136.391 9.65684  12 
  -2  -8  -2 118.277 11.3010   4 
  -2  -8  -2 129.726 7.50142   3 
  -2  -8  -2 129.902 11.1357  10 
   2   8   2 131.644 8.28783   2 
   2   8   2 129.647 8.21894   2 
  -3  -8  -2 22.5802 4.47344   3 
  -3  -8  -2 21.2140 6.35226   4 
  -3  -8  -2 24.0020 6.43622  10 
   3   8   2 19.6116 4.53891   2 
  -4  -8  -2 47.4111 9.74058   4 
   4   8   2 38.9567 7.00238   2 
   9  -9  -2 3.54356 4.70728   6 
   9  -9  -2 4.06220 4.90000  13 
   9  -9  -2 10.8441 4.40653   5 
  -9   9   2 3.40744 5.06511   2 
  -9   9   2 7.63180 4.88256   7 
  -9   9   2 1.68257 4.30529   1 
   8  -9  -2 11.3268 5.58654   6 
   8  -9  -2 8.38921 3.42566   5 
   8  -9  -2 8.71823 5.21549  13 
   8  -9  -2 7.07439 2.90520   5 
   8  -9  -2 10.1551 2.89993  14 
  -8   9   2 8.57100 5.73642  12 
  -8   9   2 13.9822 4.63519   7 
  -8   9   2 11.2471 5.35580   2 
   7  -9  -2 58.3964 8.78844   6 
   7  -9  -2 58.2367 8.16932   3 
   7  -9  -2 67.5602 8.88223  13 
  -7   9   2 69.1878 10.1867  12 
  -7   9   2 66.7056 7.35213   7 
  -7   9   2 75.2136 9.51317   2 
   6  -9  -2 67.2015 6.94405   9 
   6  -9  -2 66.5904 7.36894   3 
   6  -9  -2 57.2976 8.41414  13 
   6  -9  -2 57.9692 8.25463   6 
  -6   9   2 71.8408 9.58789  12 
  -6   9   2 53.6708 7.65695   2 
  -6   9   2 50.5529 5.95768   7 
   5  -9  -2 72.5820 8.76289  13 
   5  -9  -2 84.1532 9.02834   6 
   5  -9  -2 75.4356 6.88443   9 
   5  -9  -2 81.5250 7.09627   3 
  -5   9   2 61.8994 8.48470  12 
  -5   9   2 66.4495 7.14646   2 
   4  -9  -2 51.2176 7.47158   6 
   4  -9  -2 38.7626 6.92866  13 
   4  -9  -2 40.2381 5.25908   4 
   4  -9  -2 43.5808 4.76532   3 
   4  -9  -2 46.3144 5.14616   9 
  -4   9   2 29.9544 6.34687  12 
  -4   9   2 40.3035 5.00664   2 
  -4   9   2 44.2336 4.84054   2 
   3  -9  -2 167.430 12.1988   6 
   3  -9  -2 164.701 10.9619   4 
   3  -9  -2 176.137 12.7807  13 
   3  -9  -2 155.438 9.75888   9 
   3  -9  -2 170.495 8.07411   3 
  -3   9   2 164.357 12.3493  12 
  -3   9   2 167.219 8.32717   2 
  -3   9   2 167.993 8.41559   2 
   2  -9  -2 30.7962 5.65462   4 
   2  -9  -2 29.5210 6.64157  13 
   2  -9  -2 25.4281 5.81912   6 
  -2   9   2 21.1635 5.31605  12 
   1  -9  -2 32.0778 6.65730   6 
   1  -9  -2 25.6086 6.05580   4 
   1  -9  -2 35.9604 7.11096  13 
  -1   9   2 25.4606 5.47591  12 
   0  -9  -2 100.858 10.1276   4 
   0  -9  -2 92.4257 9.98324   6 
   0   9   2 87.2301 8.15452  12 
  -1  -9  -2 71.4471 9.33988   4 
  -1  -9  -2 85.9127 9.91373  10 
   1   9   2 79.2576 5.33383   2 
  -2  -9  -2 25.4264 6.26362  10 
  -2  -9  -2 9.46850 5.17413   4 
  -2  -9  -2 18.5385 3.60787   3 
   2   9   2 25.4411 4.46029   2 
  -3  -9  -2 4.89915 4.70935  10 
  -3  -9  -2 11.5236 6.09911   4 
  -3  -9  -2 5.08798 3.33566   3 
   3   9   2 10.7489 3.91548   2 
   8 -10  -2 23.2208 6.87895  13 
   8 -10  -2 18.0147 6.29304   6 
  -8  10   2 30.0662 7.98964   2 
   7 -10  -2 36.7900 8.33965  13 
   7 -10  -2 39.0565 8.00293   6 
  -7  10   2 56.7189 8.95439   2 
  -7  10   2 36.9421 8.89255  12 
   6 -10  -2 56.1891 7.31632   3 
   6 -10  -2 66.1006 8.92097   6 
   6 -10  -2 55.0009 8.32469  13 
  -6  10   2 53.3344 9.44931  12 
  -6  10   2 49.2250 7.66540   2 
   5 -10  -2 43.4345 7.46938  13 
   5 -10  -2 41.4988 5.70306   3 
   5 -10  -2 56.3469 8.49029   6 
  -5  10   2 48.6653 6.55352   2 
  -5  10   2 47.2979 8.34459  12 
   4 -10  -2 81.3482 7.83369   4 
   4 -10  -2 79.3273 6.31126   3 
   4 -10  -2 93.5827 10.1406  13 
   4 -10  -2 100.941 10.0817   6 
  -4  10   2 83.3916 6.88705   2 
  -4  10   2 90.2456 10.3210  12 
  -4  10   2 72.4695 7.88254   2 
   3 -10  -2 105.725 11.0155  13 
   3 -10  -2 110.511 10.6592   6 
   3 -10  -2 96.4366 9.17687   4 
   3 -10  -2 96.2166 5.65408   3 
  -3  10   2 99.3265 6.22602   2 
  -3  10   2 113.539 10.5807  12 
  -3  10   2 88.7542 5.97879   2 
   2 -10  -2 84.9250 9.90225   6 
   2 -10  -2 80.2756 8.96600   4 
   2 -10  -2 88.2506 10.3782  13 
  -2  10   2 63.7197 8.53972  12 
   1 -10  -2 69.2713 9.19258   6 
   1 -10  -2 66.4878 8.80164   4 
  -1  10   2 56.8936 7.73712  12 
   0 -10  -2 70.2226 9.38807   6 
   0 -10  -2 60.3849 8.96802   4 
  -1 -10  -2 26.7524 7.43015   4 
  -2 -10  -2 -0.0318 4.55857   4 
   2  10   2 3.65805 2.55387   2 
   8 -11  -2 1.09106 4.56726   6 
  -8  11   2 10.3247 5.72805   2 
   7 -11  -2 45.3586 9.30310   6 
   7 -11  -2 50.1469 9.09698  13 
  -7  11   2 39.8111 8.31351   2 
   6 -11  -2 43.4684 8.51596  13 
   6 -11  -2 65.3088 9.78937   6 
  -6  11   2 41.1700 9.77258  12 
  -6  11   2 41.3909 7.43824   2 
   5 -11  -2 37.3350 8.10106   6 
   5 -11  -2 33.5793 8.14663  13 
   5 -11  -2 34.8549 5.40189   3 
  -5  11   2 37.8981 6.35144   2 
  -5  11   2 49.3037 9.38057  12 
   4 -11  -2 33.8933 4.37991   3 
   4 -11  -2 33.8033 7.97749  13 
   4 -11  -2 23.8023 6.72905   6 
   4 -11  -2 34.7708 6.32464   4 
  -4  11   2 31.0069 5.01696   2 
  -4  11   2 22.3408 6.69754  12 
   3 -11  -2 98.9305 11.5186  13 
   3 -11  -2 114.194 11.8943   6 
   3 -11  -2 104.499 10.3645   4 
  -3  11   2 94.0639 10.9047  12 
   2 -11  -2 13.2306 5.26331   4 
   2 -11  -2 18.3023 6.75825  13 
   2 -11  -2 17.9756 6.39181   6 
  -2  11   2 19.7349 6.20529  12 
   1 -11  -2 56.9061 9.66123   6 
   1 -11  -2 28.0882 7.36653   4 
   0 -11  -2 64.3705 10.2586   4 
  -1 -11  -2 25.4237 8.21355   4 
   6 -12  -2 20.9436 6.95357   6 
  -6  12   2 41.5601 7.44361   2 
   5 -12  -2 67.8599 10.6742   6 
  -5  12   2 61.7190 7.55515   2 
   4 -12  -2 89.0686 11.4567   6 
  -4  12   2 66.0238 10.5465  12 
  -4  12   2 70.8644 6.62360   2 
   3 -12  -2 81.4131 10.1090   4 
   3 -12  -2 87.2675 11.9925   6 
  -3  12   2 89.8574 11.2863  12 
   2 -12  -2 34.5495 8.70982   6 
   2 -12  -2 31.5860 8.31773   4 
   1 -12  -2 51.7717 10.3760   6 
   1 -12  -2 26.1742 8.15545   4 
   0  13  -3 34.9502 6.80027   2 
   0 -13   3 35.1973 8.74728   4 
  -1  13  -3 3.96397 3.76761   2 
   1 -13   3 7.59548 5.07421   4 
  -2  13  -3 9.10807 4.35057   2 
   2 -13   3 12.8736 5.78869   6 
   2 -13   3 6.36526 4.71011   4 
  -3  13  -3 49.0509 8.21626   2 
   3 -13   3 50.2370 8.71788   6 
   3 -13   3 43.1826 8.73200   9 
  -4  13  -3 33.6119 8.55037  12 
  -4  13  -3 36.8600 8.19223   2 
   4 -13   3 44.2574 8.22646   6 
   4 -13   3 43.7129 9.09974   9 
  -5  13  -3 27.0849 7.58879   2 
   5 -13   3 24.3401 7.61330   9 
   2  12  -3 51.3829 8.38350   2 
  -2 -12   3 55.6968 10.2155   4 
   1  12  -3 54.7542 7.67715   2 
  -1 -12   3 62.9450 9.87871   4 
   0  12  -3 32.6532 6.19827   2 
   0 -12   3 19.8024 7.05616   4 
  -1  12  -3 55.3217 7.29102   2 
   1 -12   3 35.9735 7.78218   4 
  -2  12  -3 117.556 10.3566   2 
  -2  12  -3 159.680 19.6273  12 
   2 -12   3 121.616 11.0958   6 
   2 -12   3 125.955 11.2842   4 
   2 -12   3 122.022 11.8389   9 
  -3  12  -3 184.015 13.4005   2 
  -3  12  -3 212.729 15.5241  12 
   3 -12   3 213.077 14.3150   6 
   3 -12   3 190.955 14.8301   9 
   3 -12   3 195.662 13.0402   4 
  -4  12  -3 77.0404 10.5770  12 
  -4  12  -3 71.8136 9.61860   2 
   4 -12   3 79.7888 9.38604   6 
   4 -12   3 81.1552 10.4228   9 
  -5  12  -3 13.0452 5.03510   2 
  -5  12  -3 11.6669 6.31340  12 
   5 -12   3 5.49969 4.68661   9 
   5 -12   3 11.0719 4.90072   6 
  -6  12  -3 34.9554 8.51027   2 
   6 -12   3 27.7424 8.06307   9 
   3  11  -3 8.86805 4.84891   2 
  -3 -11   3 11.1531 6.32056   4 
   2  11  -3 101.295 9.49014   2 
  -2 -11   3 87.5210 11.6544   4 
   1  11  -3 99.9295 9.00379   2 
  -1 -11   3 94.2023 11.2930   4 
   0  11  -3 38.0217 6.05028   2 
   0 -11   3 35.5737 7.59648   4 
  -1  11  -3 60.3810 7.07608   2 
   1 -11   3 73.2732 8.94074   4 
   1 -11   3 69.5428 8.80932   9 
  -2  11  -3 35.6418 6.18795   2 
  -2  11  -3 32.2038 6.90819  12 
   2 -11   3 37.1301 6.38960   6 
   2 -11   3 28.3272 6.07152   4 
   2 -11   3 37.0792 7.85892   9 
  -3  11  -3 103.137 10.7130  12 
  -3  11  -3 89.9845 9.41103   2 
   3 -11   3 102.316 9.19671   6 
   3 -11   3 97.3744 8.55784   4 
   3 -11   3 104.159 10.2353   9 
  -4  11  -3 88.1032 9.72320   2 
  -4  11  -3 87.3820 10.2151  12 
   4 -11   3 94.2727 10.3431   9 
   4 -11   3 92.1528 9.04769   6 
  -5  11  -3 49.0408 9.04363  12 
  -5  11  -3 51.8836 8.91440   2 
   5 -11   3 53.8811 8.75055   9 
   5 -11   3 62.4067 7.97603   6 
   5 -11   3 65.0422 8.41990   3 
  -6  11  -3 24.3086 7.62680  12 
  -6  11  -3 26.0240 7.17047   2 
  -6  11  -3 20.0097 6.01366  11 
   6 -11   3 10.8842 3.00807   5 
   6 -11   3 18.0773 3.58088  14 
   6 -11   3 14.2264 2.92581  14 
   6 -11   3 23.5926 6.17854   6 
   6 -11   3 24.0026 6.83354   9 
   6 -11   3 14.9285 3.66030   5 
  -7  11  -3 46.8581 9.36053  11 
  -7  11  -3 48.4031 10.6924   2 
   7 -11   3 35.0221 6.08470   5 
   7 -11   3 47.4360 5.88411  14 
   7 -11   3 43.9847 8.87333   9 
   7 -11   3 41.7070 6.10522   5 
   4  10  -3 6.52480 4.46304   2 
  -4 -10   3 2.57176 5.10353   4 
   3  10  -3 27.8761 6.57067   2 
  -3 -10   3 29.2674 8.08335   4 
   2  10  -3 29.0300 6.23946   2 
  -2 -10   3 27.8005 6.88177   4 
   1  10  -3 45.5855 6.40531   2 
  -1 -10   3 41.8200 7.55015   4 
   0  10  -3 132.866 9.34258   2 
   0 -10   3 127.469 10.8938   4 
  -1  10  -3 164.781 10.6708   2 
  -1  10  -3 171.240 11.4069  12 
   1 -10   3 186.534 11.9272   6 
   1 -10   3 165.312 11.8523   4 
   1 -10   3 160.263 12.2256   9 
  -2  10  -3 119.557 9.31409   2 
  -2  10  -3 121.913 10.3950  12 
   2 -10   3 136.937 9.92758   6 
   2 -10   3 129.268 9.67523   4 
   2 -10   3 131.609 10.7787   9 
  -3  10  -3 84.9140 8.65861   2 
  -3  10  -3 86.5826 9.41123  12 
   3 -10   3 91.5394 9.29492   9 
   3 -10   3 85.5771 7.41307   4 
   3 -10   3 97.2738 8.31453   6 
  -4  10  -3 90.7922 9.26219   2 
  -4  10  -3 93.2990 10.1253  12 
  -4  10  -3 74.1881 7.13333  11 
   4 -10   3 95.0203 8.69907   3 
   4 -10   3 87.6146 8.09102   6 
   4 -10   3 87.2992 9.17317   9 
   4 -10   3 77.8975 7.85280  13 
  -5  10  -3 55.6967 8.47994   2 
  -5  10  -3 46.2640 8.24767  12 
  -5  10  -3 46.0275 6.76725   1 
  -5  10  -3 47.0220 6.82700  11 
   5 -10   3 38.9837 4.16983  14 
   5 -10   3 45.3549 7.00852   3 
   5 -10   3 35.0079 4.56990   5 
   5 -10   3 37.9304 6.10331   6 
   5 -10   3 35.6151 4.76354   5 
   5 -10   3 33.8321 4.15152  14 
   5 -10   3 33.6154 6.81141   9 
  -6  10  -3 59.3727 9.73617   2 
  -6  10  -3 50.4898 7.77588   1 
   6 -10   3 49.1951 5.66381  14 
   6 -10   3 42.6683 7.66792   3 
   6 -10   3 42.4620 5.53149   5 
   6 -10   3 47.7396 8.23877   9 
   6 -10   3 49.2456 6.98454   6 
   6 -10   3 43.7961 5.83979   5 
  -7  10  -3 129.998 13.5617   2 
  -7  10  -3 107.442 11.2790   1 
   7 -10   3 116.684 11.9739   9 
   7 -10   3 118.576 9.93694   5 
  -8  10  -3 20.0536 6.83546   1 
   8 -10   3 21.7823 7.60237   9 
   8 -10   3 17.9756 5.71937   5 
   5   9  -3 9.00810 5.16189   2 
  -5  -9   3 6.48135 5.28085   4 
   4   9  -3 23.5503 6.16424   2 
  -4  -9   3 13.9279 6.36826   4 
   3   9  -3 52.0582 7.22633   2 
  -3  -9   3 55.8546 8.52591   4 
   2   9  -3 67.3453 7.23753   2 
  -2  -9   3 65.7496 8.35568   4 
   1   9  -3 68.9449 6.85386   2 
  -1  -9   3 68.2080 8.12650   4 
   0   9  -3 132.311 8.97705   2 
   0   9  -3 148.800 9.33523   2 
   0   9  -3 134.255 8.88570  12 
   0  -9   3 134.997 10.3413   4 
  -1   9  -3 148.515 10.0617  12 
  -1   9  -3 148.665 9.48096   2 
  -1   9  -3 159.856 9.82814   2 
   1  -9   3 145.574 10.1976   4 
   1  -9   3 145.302 10.8489   9 
   1  -9   3 132.805 9.36278   6 
  -2   9  -3 7.14481 2.73162   1 
  -2   9  -3 5.98607 3.40145  12 
  -2   9  -3 5.32149 3.03593   2 
   2  -9   3 16.0852 4.01541   6 
   2  -9   3 17.4243 4.56147   9 
   2  -9   3 18.5877 4.08415   4 
  -3   9  -3 60.3254 6.97889   2 
  -3   9  -3 61.5359 5.65973  11 
  -3   9  -3 59.1497 5.99944   1 
  -3   9  -3 66.9250 8.11868  12 
   3  -9   3 55.4686 6.28603   3 
   3  -9   3 64.1186 5.84229   4 
   3  -9   3 63.7149 6.41791   6 
   3  -9   3 56.0553 7.06087   9 
  -4   9  -3 157.947 12.2671  12 
  -4   9  -3 153.434 11.7092   2 
  -4   9  -3 147.797 10.1488   1 
  -4   9  -3 152.680 10.2212  11 
   4  -9   3 154.506 7.80794  14 
   4  -9   3 179.201 11.3999   3 
   4  -9   3 168.880 10.3279   6 
   4  -9   3 163.091 8.66166   5 
   4  -9   3 152.738 9.93328  13 
   4  -9   3 174.713 12.1259   9 
   4  -9   3 156.021 7.97095  14 
   4  -9   3 155.064 8.55975   5 
  -5   9  -3 150.520 12.7463  12 
  -5   9  -3 162.845 10.9991   1 
  -5   9  -3 152.034 12.2795   2 
   5  -9   3 134.953 11.3744   9 
   5  -9   3 138.298 8.80582   5 
   5  -9   3 145.584 9.83246   6 
   5  -9   3 137.146 9.27299  13 
   5  -9   3 137.844 7.76385   1 
   5  -9   3 144.755 8.28879  14 
   5  -9   3 138.345 8.44338  14 
   5  -9   3 142.167 9.18058   5 
   5  -9   3 139.592 11.0157   3 
  -6   9  -3 40.2060 7.00275   1 
  -6   9  -3 50.4046 8.63243   2 
   6  -9   3 38.5229 7.21960   3 
   6  -9   3 41.3160 6.23985   5 
   6  -9   3 36.3945 4.79351   1 
   6  -9   3 38.8608 6.22267   6 
   6  -9   3 51.0133 7.76936   9 
  -7   9  -3 11.9724 5.28399   2 
  -7   9  -3 7.50929 4.73466   1 
   7  -9   3 19.0566 5.35857   5 
   7  -9   3 15.7996 5.08136   6 
   7  -9   3 26.1885 5.28553   1 
   7  -9   3 12.7276 5.78980   3 
   7  -9   3 16.2402 5.91331   9 
  -8   9  -3 22.6660 7.12541   1 
   8  -9   3 31.0233 6.64985   1 
   8  -9   3 32.6070 8.08453   9 
   8  -9   3 22.7547 6.12708   5 
   6   8  -3 10.7662 5.92518   2 
  -6  -8   3 12.1224 6.72112   4 
   5   8  -3 61.2467 9.09321   2 
  -5  -8   3 57.0254 9.46558   4 
   4   8  -3 210.323 14.1049   2 
  -4  -8   3 200.908 14.7219   4 
   3   8  -3 45.4233 6.57914   2 
  -3  -8   3 38.7954 7.58133   4 
   2   8  -3 17.3782 4.14715   2 
  -2  -8   3 17.6261 4.99657   4 
   1   8  -3 116.444 8.19607   2 
   1   8  -3 113.314 7.34956   1 
   1   8  -3 126.804 8.46537   2 
   1   8  -3 125.278 8.37855   2 
   1   8  -3 114.419 6.93523  12 
  -1  -8   3 114.837 9.63613   4 
   0   8  -3 437.595 18.7699   2 
   0   8  -3 474.614 18.9255  12 
   0   8  -3 460.145 19.0287   2 
   0   8  -3 490.605 18.2563   1 
   0  -8   3 423.119 20.0176   4 
   0  -8   3 461.739 20.7745   9 
  -1   8  -3 281.605 10.3325  11 
  -1   8  -3 284.024 12.9230   8 
  -1   8  -3 274.947 13.3518   2 
  -1   8  -3 263.013 13.2686   2 
  -1   8  -3 289.506 14.0600  12 
  -1   8  -3 281.450 12.5406   1 
   1  -8   3 252.509 12.9166   6 
   1  -8   3 281.320 13.9209   4 
   1  -8   3 268.071 14.4425   9 
  -2   8  -3 65.1656 6.42614   2 
  -2   8  -3 73.0967 7.12420  12 
  -2   8  -3 74.6324 5.20903  11 
  -2   8  -3 81.2278 6.41286   8 
  -2   8  -3 73.3255 5.86571   1 
  -2   8  -3 68.9361 6.48869   2 
   2  -8   3 55.9287 3.95547   5 
   2  -8   3 58.1256 6.62566   9 
   2  -8   3 59.5796 5.63747   6 
   2  -8   3 58.6337 3.48938  14 
   2  -8   3 61.5354 3.52813  14 
   2  -8   3 56.2013 4.00057   5 
   2  -8   3 63.4489 5.81089   4 
  -3   8  -3 118.234 9.40663  12 
  -3   8  -3 110.933 8.71126   2 
  -3   8  -3 112.156 7.50647  11 
  -3   8  -3 103.551 7.51368   1 
   3  -8   3 98.2448 6.71006   4 
   3  -8   3 105.705 8.60371   9 
   3  -8   3 95.8375 7.76849   3 
   3  -8   3 96.5567 4.93105   1 
   3  -8   3 99.9934 7.36431  13 
   3  -8   3 102.127 5.78905  14 
   3  -8   3 95.0188 6.07925   5 
   3  -8   3 100.226 5.69560  14 
   3  -8   3 105.193 7.35818   6 
   3  -8   3 96.5350 6.12673   5 
  -4   8  -3 241.529 14.1990   2 
  -4   8  -3 230.055 12.4378   1 
  -4   8  -3 222.911 14.0981  12 
   4  -8   3 209.371 11.3701   6 
   4  -8   3 210.670 11.0412   5 
   4  -8   3 222.294 10.3784  14 
   4  -8   3 225.953 13.5182   9 
   4  -8   3 221.277 10.0578   4 
   4  -8   3 210.351 10.4526  14 
   4  -8   3 225.909 13.0217   3 
   4  -8   3 223.828 10.9957   5 
   4  -8   3 214.207 11.2560  13 
   4  -8   3 230.416 10.2501   1 
  -5   8  -3 77.0403 7.76378   1 
  -5   8  -3 87.9841 9.43984  12 
  -5   8  -3 84.3244 9.15352   2 
   5  -8   3 86.6297 6.65289  13 
   5  -8   3 74.7220 6.60356   5 
   5  -8   3 90.9083 7.36339   6 
   5  -8   3 78.6719 8.33976   3 
   5  -8   3 81.7540 8.61223   9 
   5  -8   3 92.2516 6.73107   1 
   5  -8   3 89.9607 7.36466   5 
  -6   8  -3 25.9352 6.31385   2 
  -6   8  -3 36.1055 6.57856   1 
   6  -8   3 33.5113 5.40937   6 
   6  -8   3 38.4042 7.91078   9 
   6  -8   3 24.5532 6.42147   3 
   6  -8   3 22.9019 5.32393   5 
   6  -8   3 32.3203 5.24993   1 
  -7   8  -3 74.0185 9.97381   2 
  -7   8  -3 56.0155 8.61079   1 
   7  -8   3 43.2704 7.29444   5 
   7  -8   3 57.7972 8.85222   3 
   7  -8   3 43.5466 6.67373   6 
   7  -8   3 47.9285 6.95964   1 
  -8   8  -3 -1.2601 3.58703   1 
   8  -8   3 3.09742 3.87961   1 
   8  -8   3 -1.5588 3.49235   6 
  -9   8  -3 7.58346 5.63985   1 
   9  -8   3 0.73306 4.46400   1 
   7   7  -3 3.28481 4.77581   2 
  -7  -7   3 -1.0108 4.53370   4 
   6   7  -3 3.81366 4.20881   2 
  -6  -7   3 5.25515 5.12513   4 
   5   7  -3 74.3675 9.19937   2 
  -5  -7   3 60.4983 9.11733   4 
   4   7  -3 161.843 11.8068   2 
   4   7  -3 153.235 10.5362   1 
  -4  -7   3 165.287 12.3158   4 
   3   7  -3 72.3590 6.59146   1 
   3   7  -3 74.5911 7.47605   2 
  -3  -7   3 80.8240 8.25108   4 
   2   7  -3 53.7925 5.21967   1 
   2   7  -3 52.5177 5.72014   2 
   2   7  -3 50.0578 5.70259   2 
  -2  -7   3 82.0128 7.63076   4 
   1   7  -3 450.223 18.5283   2 
   1   7  -3 446.414 17.3931   1 
   1   7  -3 458.818 16.8146  12 
   1   7  -3 443.832 15.5668   3 
   1   7  -3 430.800 18.2911   2 
  -1  -7   3 423.281 19.5796   4 
  -1  -7   3 465.262 17.9045   3 
   0   7  -3 708.970 25.5851   8 
   0   7  -3 732.759 26.4566   2 
   0   7  -3 732.184 25.9627  12 
   0   7  -3 713.880 23.6707   3 
   0   7  -3 710.936 26.2359   2 
   0   7  -3 716.034 25.2349   1 
   0  -7   3 722.525 26.4436   6 
   0  -7   3 697.937 25.4646   3 
   0  -7   3 694.835 27.7728   9 
   0  -7   3 697.009 27.1599   4 
  -1   7  -3 111.071 7.14335   8 
  -1   7  -3 116.963 6.11891   3 
  -1   7  -3 115.269 5.82134  11 
  -1   7  -3 118.926 6.93286   1 
  -1   7  -3 121.026 7.96652  12 
  -1   7  -3 111.921 7.54206   2 
  -1   7  -3 95.3868 7.30175   2 
   1  -7   3 114.838 6.94585   3 
   1  -7   3 115.029 5.15232  14 
   1  -7   3 117.058 5.67545   5 
   1  -7   3 119.609 8.39588   9 
   1  -7   3 119.910 4.80767   7 
   1  -7   3 117.192 7.73526   4 
   1  -7   3 117.702 7.23202   6 
   1  -7   3 119.036 5.21860  14 
   1  -7   3 116.480 5.62557   5 
  -2   7  -3 138.910 7.40323   3 
  -2   7  -3 136.934 8.85380   2 
  -2   7  -3 133.405 8.74657   2 
  -2   7  -3 139.825 7.54588  11 
  -2   7  -3 135.574 8.37624   8 
  -2   7  -3 127.868 7.76061   1 
  -2   7  -3 130.862 9.09679  12 
   2  -7   3 150.881 8.38628   3 
   2  -7   3 140.820 7.02797   5 
   2  -7   3 129.950 8.99244   9 
   2  -7   3 136.199 7.81531   6 
   2  -7   3 136.375 6.07000   1 
   2  -7   3 142.925 7.08097   5 
   2  -7   3 140.093 6.10675   1 
   2  -7   3 139.269 7.92079   4 
   2  -7   3 142.604 6.61845  14 
   2  -7   3 137.292 8.30965   3 
   2  -7   3 136.860 6.56524  14 
  -3   7  -3 377.431 17.3412   2 
  -3   7  -3 375.792 17.1308   2 
  -3   7  -3 390.172 15.6345   3 
  -3   7  -3 359.484 17.3853  12 
  -3   7  -3 353.815 15.7751   1 
  -3   7  -3 375.317 15.9608  11 
   3  -7   3 348.798 14.7523   5 
   3  -7   3 360.226 17.1808   9 
   3  -7   3 373.043 14.2778   1 
   3  -7   3 360.183 14.4061  14 
   3  -7   3 367.318 14.4009  14 
   3  -7   3 343.760 14.9928   6 
   3  -7   3 356.305 14.8562   5 
   3  -7   3 363.460 15.1547  13 
   3  -7   3 353.777 14.4865   4 
   3  -7   3 381.931 16.4335   3 
   3  -7   3 364.774 13.9340   8 
   3  -7   3 350.597 16.2796   3 
  -4   7  -3 538.465 24.4178   2 
  -4   7  -3 534.170 24.5751  12 
  -4   7  -3 539.078 22.3436   3 
  -4   7  -3 585.784 23.2290   1 
   4  -7   3 581.969 19.9458   4 
   4  -7   3 564.772 23.8116   3 
   4  -7   3 576.387 22.2136   5 
   4  -7   3 578.461 21.8962   6 
   4  -7   3 579.197 21.2939  13 
   4  -7   3 573.588 22.2314   5 
   4  -7   3 585.705 21.6434   1 
   4  -7   3 582.998 24.4422   9 
   4  -7   3 569.005 21.5521  14 
  -5   7  -3 151.457 11.5940   2 
  -5   7  -3 149.480 12.7411   3 
  -5   7  -3 146.994 10.3135   1 
   5  -7   3 159.734 9.38847   6 
   5  -7   3 148.252 9.27923   1 
   5  -7   3 138.080 10.6391   3 
   5  -7   3 137.865 9.18565   5 
   5  -7   3 142.398 8.04625  13 
   5  -7   3 149.298 9.77333   5 
   5  -7   3 152.889 11.2039   9 
  -6   7  -3 22.4331 5.81646   2 
  -6   7  -3 28.9899 6.06986   1 
   6  -7   3 24.9390 5.49106   5 
   6  -7   3 22.4106 4.80600   6 
   6  -7   3 17.1796 5.31472   3 
   6  -7   3 24.2601 5.12532   1 
  -7   7  -3 52.1505 8.52435   2 
  -7   7  -3 44.6329 7.80981   1 
   7  -7   3 22.8374 6.39261   3 
   7  -7   3 43.9179 7.17884   5 
   7  -7   3 45.4510 6.50670   6 
   7  -7   3 55.3482 7.47620   1 
  -8   7  -3 80.6429 10.2636   1 
   8  -7   3 86.4258 9.27805   6 
   8  -7   3 80.6676 9.67170   1 
   8  -7   3 72.5883 10.6883   3 
  -9   7  -3 17.5805 6.71095   1 
   9  -7   3 25.9837 7.31434   1 
   7   6  -3 28.0783 7.99885   2 
  -7  -6   3 26.2687 5.09206   5 
  -7  -6   3 27.7453 4.93645  14 
  -7  -6   3 28.3493 7.46247   4 
  -7  -6   3 30.8771 5.94569   5 
   6   6  -3 57.1755 9.40692   2 
   6   6  -3 63.7213 8.28034   1 
  -6  -6   3 72.2719 6.77470   5 
  -6  -6   3 65.2014 5.93856  14 
  -6  -6   3 55.3651 8.46835   4 
  -6  -6   3 60.8568 5.62353  14 
  -6  -6   3 61.1747 8.19271   3 
  -6  -6   3 66.6845 6.34838   5 
   5   6  -3 155.743 12.1014   2 
   5   6  -3 146.743 10.7667   1 
  -5  -6   3 154.456 8.83006   5 
  -5  -6   3 151.766 8.18155  14 
  -5  -6   3 146.608 11.8008   4 
  -5  -6   3 141.184 7.98041  14 
  -5  -6   3 137.210 9.70581   7 
  -5  -6   3 150.772 8.81404   5 
   4   6  -3 37.6458 6.26634   2 
   4   6  -3 48.8729 5.88531   1 
  -4  -6   3 43.8150 4.52018   5 
  -4  -6   3 45.8727 6.78246   4 
  -4  -6   3 38.1912 4.40642   5 
  -4  -6   3 37.5656 3.84245  14 
  -4  -6   3 38.7167 4.15196   7 
  -4  -6   3 34.3198 3.68920  14 
  -4  -6   3 40.4395 3.22058   1 
   3   6  -3 0.20081 2.16540   2 
   3   6  -3 0.39815 1.91753   1 
   3   6  -3 5.64903 2.85106   2 
  -3  -6   3 4.31162 1.74296   5 
  -3  -6   3 3.85172 1.97078   5 
  -3  -6   3 4.14640 1.55259  14 
  -3  -6   3 5.11769 1.58658  14 
  -3  -6   3 2.85448 1.51953   7 
  -3  -6   3 7.96037 3.54273   4 
   2   6  -3 106.367 7.51360   2 
   2   6  -3 126.366 7.22609   1 
   2   6  -3 108.131 7.46118   2 
   2   6  -3 112.363 6.08522   3 
  -2  -6   3 112.522 8.36282   4 
  -2  -6   3 105.857 5.15166   7 
  -2  -6   3 102.358 5.08166  14 
  -2  -6   3 99.3690 6.80595   3 
  -2  -6   3 99.9438 5.10803  14 
  -2  -6   3 104.604 5.62281   5 
  -2  -6   3 104.476 5.54631   5 
   1   6  -3 253.581 11.8384   2 
   1   6  -3 268.314 10.3705   3 
   1   6  -3 261.812 11.0409   1 
   1   6  -3 261.256 11.8767   2 
  -1  -6   3 227.635 9.01806  14 
  -1  -6   3 243.191 12.5187   4 
  -1  -6   3 245.261 9.59332   5 
  -1  -6   3 234.212 10.9061   3 
  -1  -6   3 244.882 8.70068   7 
  -1  -6   3 238.121 9.56153   5 
  -1  -6   3 248.720 10.0502  12 
  -1  -6   3 230.305 9.04811  14 
   0   6  -3 425.890 17.1555   2 
   0   6  -3 460.162 16.5939   1 
   0   6  -3 428.211 14.4926  11 
   0   6  -3 432.750 16.7062  12 
   0   6  -3 428.135 15.6989   3 
   0   6  -3 419.110 16.6029   8 
   0   6  -3 414.421 17.1799   2 
   0  -6   3 430.199 14.7799  14 
   0  -6   3 422.659 14.0516   1 
   0  -6   3 430.465 17.7793   4 
   0  -6   3 439.943 15.3355   5 
   0  -6   3 429.720 18.1826   9 
   0  -6   3 448.926 14.1828   7 
   0  -6   3 436.023 17.0240   6 
   0  -6   3 433.750 16.7433   3 
   0  -6   3 446.897 15.3324   5 
   0  -6   3 419.475 14.7737  14 
  -1   6  -3 75.8171 5.01267   3 
  -1   6  -3 73.5514 5.87965  12 
  -1   6  -3 76.7874 5.36280   1 
  -1   6  -3 77.1702 6.01739   2 
  -1   6  -3 72.8713 5.99903   2 
  -1   6  -3 80.8865 5.83080   8 
  -1   6  -3 69.0420 4.64456  11 
   1  -6   3 85.5938 4.31911   1 
   1  -6   3 94.4270 4.40951   1 
   1  -6   3 83.4779 4.82087   5 
   1  -6   3 88.4659 4.37023   1 
   1  -6   3 91.5010 5.76539   3 
   1  -6   3 83.1079 4.56205  14 
   1  -6   3 82.9361 4.55259  14 
   1  -6   3 84.7810 4.88773   5 
   1  -6   3 91.8345 6.10243   4 
   1  -6   3 92.6569 5.63776   6 
  -2   6  -3 102.680 7.19577  12 
  -2   6  -3 84.4652 5.91257   1 
  -2   6  -3 91.7118 5.94242  11 
  -2   6  -3 83.0651 6.58027   2 
  -2   6  -3 91.9085 5.91549   3 
  -2   6  -3 94.3729 6.99807   2 
   2  -6   3 83.9203 4.97210   1 
   2  -6   3 95.2498 5.83208  13 
   2  -6   3 87.2628 5.48352   6 
   2  -6   3 85.6934 5.42644   5 
   2  -6   3 85.0933 6.03393   3 
   2  -6   3 78.7531 6.10735   3 
   2  -6   3 77.1672 4.88830   1 
   2  -6   3 97.9853 7.01614   9 
   2  -6   3 89.4931 5.57837   5 
   2  -6   3 88.0633 5.25221  14 
   2  -6   3 94.4931 5.38747  14 
   2  -6   3 91.1601 5.68486   4 
  -3   6  -3 373.671 15.7406   1 
  -3   6  -3 357.816 16.6624   2 
  -3   6  -3 372.723 15.5319   3 
  -3   6  -3 342.690 16.6576   2 
  -3   6  -3 379.663 17.2126  12 
   3  -6   3 370.743 14.6694  14 
   3  -6   3 339.945 15.9130   3 
   3  -6   3 366.531 14.6137   1 
   3  -6   3 345.771 13.6625   4 
   3  -6   3 380.592 15.2845   5 
   3  -6   3 357.405 14.3787   6 
   3  -6   3 354.888 14.9374   5 
   3  -6   3 374.209 16.2623   2 
   3  -6   3 355.840 16.6033   9 
   3  -6   3 373.544 14.8510   8 
   3  -6   3 375.763 16.1601   3 
   3  -6   3 354.893 14.1115  13 
  -4   6  -3 67.0998 6.32002   3 
  -4   6  -3 60.9991 6.23419   1 
  -4   6  -3 59.6788 7.01839   2 
   4  -6   3 78.8591 6.55983   5 
   4  -6   3 86.4438 4.42977   4 
   4  -6   3 86.1603 5.99420   6 
   4  -6   3 83.4124 6.34187   8 
   4  -6   3 84.5387 6.47453   5 
   4  -6   3 87.2548 7.01128   3 
   4  -6   3 80.9374 5.15443  13 
   4  -6   3 87.9735 6.36705   1 
   4  -6   3 88.9042 7.56755   3 
   4  -6   3 83.5048 6.01677  14 
  -5   6  -3 16.7273 4.12284   1 
  -5   6  -3 27.7987 5.05812   3 
  -5   6  -3 29.3449 5.78268   2 
   5  -6   3 28.8371 4.52934   5 
   5  -6   3 38.0344 5.47231   5 
   5  -6   3 39.7213 3.81134  13 
   5  -6   3 30.6248 4.81789   1 
   5  -6   3 32.0753 4.48335   6 
   5  -6   3 25.1749 5.47477   3 
  -6   6  -3 181.693 13.3443   2 
  -6   6  -3 165.983 11.6938   3 
  -6   6  -3 159.236 11.5582   1 
   6  -6   3 163.001 11.3968   5 
   6  -6   3 171.187 12.4834   3 
   6  -6   3 168.880 11.0590   1 
  -7   6  -3 72.2586 8.95397   1 
   7  -6   3 77.1946 8.59260   1 
   7  -6   3 93.9675 10.4868   3 
  -8   6  -3 38.9451 8.09952   1 
   8  -6   3 58.2976 8.92306   1 
   8  -6   3 47.0994 9.26502   3 
  -9   6  -3 1.52908 4.51440   1 
   9  -6   3 6.65719 5.22306   1 
   9  -6   3 2.41051 7.76324   3 
   8   5  -3 14.6925 6.67016   2 
   8   5  -3 19.5607 7.13066   1 
  -8  -5   3 13.5659 4.86228   5 
  -8  -5   3 10.4527 3.99824  14 
  -8  -5   3 16.4032 6.25291   4 
   7   5  -3 48.9287 9.58051   2 
   7   5  -3 39.1759 7.91576   1 
  -7  -5   3 42.3810 8.28097   4 
  -7  -5   3 49.2895 7.13237   7 
  -7  -5   3 46.2920 6.74207   5 
  -7  -5   3 46.2108 6.29243  14 
   6   5  -3 86.5076 8.96712   1 
   6   5  -3 87.3889 10.2482   2 
  -6  -5   3 93.0128 6.58271   1 
  -6  -5   3 87.7952 9.40795   4 
  -6  -5   3 72.7032 6.82842  14 
  -6  -5   3 77.5313 7.19539   5 
  -6  -5   3 78.5368 8.84667   3 
  -6  -5   3 93.2214 7.88824   5 
  -6  -5   3 93.3190 7.75044   7 
   5   5  -3 82.1610 8.80220   2 
   5   5  -3 86.7794 7.98366   1 
  -5  -5   3 74.0100 6.15520  14 
  -5  -5   3 89.3149 6.06006   1 
  -5  -5   3 71.3942 5.85504  14 
  -5  -5   3 88.0568 6.81472   7 
  -5  -5   3 73.7759 7.93937   4 
  -5  -5   3 100.198 7.29326   5 
  -5  -5   3 83.9281 6.66457   5 
   4   5  -3 61.4634 6.80914   2 
   4   5  -3 56.7692 5.94044   1 
  -4  -5   3 52.1858 4.65356   7 
  -4  -5   3 55.1097 4.70488  14 
  -4  -5   3 46.2417 4.71943   5 
  -4  -5   3 54.2201 4.61511  14 
  -4  -5   3 49.9485 6.23516   4 
  -4  -5   3 52.4923 4.98095   5 
  -4  -5   3 54.1715 4.33706   1 
   3   5  -3 164.621 8.29047   3 
   3   5  -3 155.303 7.60692  10 
   3   5  -3 156.026 8.74859   1 
   3   5  -3 167.310 9.87706   2 
   3   5  -3 160.925 9.65589   2 
  -3  -5   3 129.509 7.30603   5 
  -3  -5   3 138.433 9.29105   4 
  -3  -5   3 139.950 6.80301   1 
  -3  -5   3 127.323 7.01507  14 
  -3  -5   3 129.017 6.98705  14 
  -3  -5   3 134.385 8.37173   3 
  -3  -5   3 140.255 7.61673   5 
  -3  -5   3 130.776 6.93047   7 
  -3  -5   3 139.104 7.44986   1 
   2   5  -3 885.134 30.3905   3 
   2   5  -3 883.082 30.7271   1 
   2   5  -3 915.866 30.5821  10 
   2   5  -3 888.753 31.9056   2 
   2   5  -3 880.080 31.8494   2 
  -2  -5   3 880.032 32.4155   4 
  -2  -5   3 874.472 29.7671   5 
  -2  -5   3 896.391 29.4920  14 
  -2  -5   3 907.247 29.4412  14 
  -2  -5   3 882.000 29.9124   5 
  -2  -5   3 893.696 29.0548   1 
  -2  -5   3 926.456 29.2068   1 
  -2  -5   3 929.957 31.4669   3 
  -2  -5   3 926.214 29.1852   7 
   1   5  -3 657.675 24.0553   2 
   1   5  -3 659.404 24.1369   2 
   1   5  -3 660.329 23.1900   1 
   1   5  -3 683.197 27.9874  10 
   1   5  -3 670.357 22.9253   3 
  -1  -5   3 682.551 21.4811   7 
  -1  -5   3 669.044 22.4761   5 
  -1  -5   3 653.899 22.0806  12 
  -1  -5   3 640.824 21.6894   1 
  -1  -5   3 638.412 24.7586   9 
  -1  -5   3 655.157 22.1043  14 
  -1  -5   3 659.247 22.4584   5 
  -1  -5   3 672.308 23.5945   3 
  -1  -5   3 648.422 22.0210  14 
  -1  -5   3 680.364 21.8741   1 
  -1  -5   3 692.998 21.2382  11 
  -1  -5   3 639.047 24.5549   4 
   0   5  -3 276.230 10.2707  11 
   0   5  -3 275.666 11.2109   3 
   0   5  -3 268.078 11.3684   1 
   0   5  -3 277.946 11.6966   8 
   0   5  -3 269.094 12.1894   2 
   0   5  -3 268.293 12.0182   2 
   0  -5   3 279.300 12.7109   9 
   0  -5   3 279.882 10.8843   5 
   0  -5   3 277.998 9.84503   7 
   0  -5   3 280.839 10.5856  14 
   0  -5   3 283.091 10.4319   1 
   0  -5   3 276.061 10.8908   5 
   0  -5   3 283.685 10.4490   1 
   0  -5   3 282.539 10.6206  14 
   0  -5   3 296.053 11.6543  12 
   0  -5   3 284.840 11.7538   3 
   0  -5   3 273.831 11.3746   6 
  -1   5  -3 132.274 7.68869   2 
  -1   5  -3 128.622 6.95074   1 
  -1   5  -3 125.422 6.43142  11 
  -1   5  -3 122.532 7.45873  12 
  -1   5  -3 127.113 6.82541   3 
  -1   5  -3 120.444 6.57151  13 
  -1   5  -3 118.234 7.53487   2 
  -1   5  -3 123.820 7.20161   8 
   1  -5   3 143.111 7.26454   2 
   1  -5   3 136.441 6.31243   1 
   1  -5   3 132.522 6.41152   6 
   1  -5   3 142.234 6.47719  14 
   1  -5   3 136.068 6.62629   5 
   1  -5   3 136.474 6.74483   5 
   1  -5   3 143.913 6.47345  14 
   1  -5   3 124.613 7.02078   3 
   1  -5   3 141.511 7.23131   2 
   1  -5   3 133.176 6.22778   1 
   1  -5   3 128.740 7.64189   9 
  -2   5  -3 529.165 19.5491   1 
  -2   5  -3 520.854 20.4711   2 
  -2   5  -3 542.421 19.5717  11 
  -2   5  -3 531.792 18.2216  13 
  -2   5  -3 554.900 19.4918  14 
  -2   5  -3 531.280 20.6705   2 
  -2   5  -3 530.284 19.5828   3 
  -2   5  -3 535.762 19.6648   5 
   2  -5   3 501.182 18.9698   5 
   2  -5   3 509.397 19.7707   3 
   2  -5   3 519.442 20.3190   9 
   2  -5   3 519.249 19.9729   2 
   2  -5   3 506.171 18.9956   5 
   2  -5   3 495.791 18.0247   6 
   2  -5   3 474.602 18.3938   1 
   2  -5   3 531.877 19.0808   8 
   2  -5   3 498.115 19.8550   3 
   2  -5   3 528.516 18.7621  14 
   2  -5   3 492.963 18.0638  13 
  -3   5  -3 317.896 13.6952   1 
  -3   5  -3 315.173 13.4460  14 
  -3   5  -3 331.536 15.1011   2 
  -3   5  -3 331.444 13.9940   3 
  -3   5  -3 318.870 14.7510   2 
  -3   5  -3 335.705 13.9927   5 
   3  -5   3 292.082 12.9425   1 
   3  -5   3 300.046 13.8453   3 
   3  -5   3 275.607 11.3480  13 
   3  -5   3 294.765 13.3335   5 
   3  -5   3 292.477 13.1641   5 
   3  -5   3 289.569 13.9339   3 
   3  -5   3 284.676 12.0107   6 
   3  -5   3 297.054 12.9081  14 
   3  -5   3 305.047 13.3685   8 
  -4   5  -3 302.810 14.4970   1 
  -4   5  -3 322.346 14.8705   3 
  -4   5  -3 299.240 15.6864   2 
  -4   5  -3 314.291 15.7493   2 
  -4   5  -3 316.338 14.5963   5 
  -4   5  -3 313.512 14.2080  14 
   4  -5   3 305.156 11.6986  13 
   4  -5   3 291.169 14.8040   3 
   4  -5   3 314.679 14.4682   5 
   4  -5   3 296.044 14.0479   5 
   4  -5   3 305.339 12.9955   6 
   4  -5   3 301.107 13.9955   1 
   4  -5   3 301.150 13.7043  14 
   4  -5   3 317.276 14.6919   8 
  -5   5  -3 37.1303 5.52956   3 
  -5   5  -3 34.6062 5.31707   1 
  -5   5  -3 37.1441 5.89042   2 
   5  -5   3 20.1780 2.85308  13 
   5  -5   3 28.0281 4.69612   1 
   5  -5   3 25.0344 5.37477   3 
   5  -5   3 23.0385 4.68468   5 
  -6   5  -3 67.5858 7.84057   1 
  -6   5  -3 85.8186 8.53192   3 
  -6   5  -3 74.9012 8.77212   2 
   6  -5   3 85.5882 8.13116   1 
   6  -5   3 75.3043 8.64030   3 
   6  -5   3 77.4024 8.11117   5 
  -7   5  -3 66.5076 8.77991   3 
  -7   5  -3 80.0234 8.98215   1 
   7  -5   3 64.7735 8.97859   3 
   7  -5   3 71.7563 8.53514   1 
  -8   5  -3 5.36672 4.25916   1 
   8  -5   3 -2.1315 3.57300   1 
   8  -5   3 0.07408 3.95475   3 
  -9   5  -3 4.73383 4.57931   1 
  -9   5  -3 3.15811 5.55768  11 
   9  -5   3 2.83441 5.35207   1 
   8   4  -3 44.3305 8.93037   1 
   8   4  -3 37.2632 8.63243   2 
  -8  -4   3 34.5412 7.13868   5 
  -8  -4   3 43.3963 7.32352   1 
  -8  -4   3 37.2861 7.60848   4 
  -8  -4   3 40.4712 7.10263  14 
  -8  -4   3 43.0386 8.10179   7 
   7   4  -3 63.1382 8.70254   1 
   7   4  -3 57.0847 9.41315   2 
  -7  -4   3 81.6877 8.77728   4 
  -7  -4   3 64.6731 7.73995   7 
  -7  -4   3 56.9993 8.36748   3 
  -7  -4   3 68.1617 7.08442   1 
  -7  -4   3 64.6313 7.44242  14 
  -7  -4   3 77.9235 8.10174   5 
   6   4  -3 118.987 11.2831   2 
   6   4  -3 111.956 9.82770   1 
  -6  -4   3 120.731 9.82261   4 
  -6  -4   3 119.614 9.08721   7 
  -6  -4   3 131.447 8.75626   1 
  -6  -4   3 125.166 10.3616   3 
  -6  -4   3 116.795 8.53399  14 
  -6  -4   3 130.458 9.22999   5 
  -6  -4   3 139.313 9.64024   5 
   5   4  -3 48.4387 6.69774   2 
   5   4  -3 45.7144 5.92840   1 
  -5  -4   3 29.2321 4.43217   7 
  -5  -4   3 35.5627 4.64755   5 
  -5  -4   3 39.2530 5.76001   4 
  -5  -4   3 35.0043 4.52646   1 
  -5  -4   3 34.2150 4.89460   5 
  -5  -4   3 31.9320 4.19596  14 
  -5  -4   3 30.4291 4.38228  14 
   4   4  -3 94.7934 6.84325   3 
   4   4  -3 102.692 8.25886   2 
   4   4  -3 99.9638 5.02033  10 
   4   4  -3 102.618 8.21345   2 
   4   4  -3 99.8228 7.34771   1 
  -4  -4   3 82.3531 5.94791  14 
  -4  -4   3 96.2797 6.24342   7 
  -4  -4   3 88.0647 6.38337   5 
  -4  -4   3 84.9156 6.01154   1 
  -4  -4   3 82.4423 6.75020   3 
  -4  -4   3 86.8283 7.36588   4 
  -4  -4   3 86.9385 6.43728   5 
  -4  -4   3 91.2653 6.13970  14 
   3   4  -3 480.121 17.7245  10 
   3   4  -3 506.429 19.7764   1 
   3   4  -3 487.413 20.5777   2 
   3   4  -3 484.124 19.3406   3 
   3   4  -3 502.945 20.8755   2 
  -3  -4   3 520.421 20.6414   4 
  -3  -4   3 524.753 18.4992   7 
  -3  -4   3 547.499 20.8501   1 
  -3  -4   3 505.706 18.9724   5 
  -3  -4   3 517.057 19.1655   5 
  -3  -4   3 522.922 20.1712   3 
  -3  -4   3 505.078 18.5593  14 
  -3  -4   3 531.383 20.1875   2 
  -3  -4   3 513.137 18.5563   1 
  -3  -4   3 500.171 18.6142  14 
   2   4  -3 420.730 16.2721   1 
   2   4  -3 422.152 15.4685  10 
   2   4  -3 422.196 17.2071   2 
   2   4  -3 415.883 16.2098   3 
   2   4  -3 441.225 17.3793   2 
  -2  -4   3 404.152 17.0852   4 
  -2  -4   3 451.624 15.7046   1 
  -2  -4   3 411.397 15.3625  14 
  -2  -4   3 416.717 15.3602   1 
  -2  -4   3 425.045 15.0612   7 
  -2  -4   3 431.416 16.6404   2 
  -2  -4   3 419.367 15.7394   5 
  -2  -4   3 422.348 15.9860   5 
  -2  -4   3 441.391 16.8226   3 
  -2  -4   3 435.214 15.7103  14 
   1   4  -3 138.925 7.07731   3 
   1   4  -3 144.811 6.15502  11 
   1   4  -3 132.789 7.64860   2 
   1   4  -3 140.824 7.13228   1 
   1   4  -3 137.406 7.64657   2 
  -1  -4   3 132.890 7.77542   9 
  -1  -4   3 148.975 6.98723   5 
  -1  -4   3 154.601 7.59160   2 
  -1  -4   3 149.501 6.66337   1 
  -1  -4   3 153.316 7.47489   3 
  -1  -4   3 154.039 6.75053   1 
  -1  -4   3 153.104 6.23489   7 
  -1  -4   3 149.601 6.97346   5 
  -1  -4   3 153.635 6.74955  14 
  -1  -4   3 153.744 6.35268  12 
  -1  -4   3 154.772 6.81352  14 
   0   4  -3 259.919 10.7021   3 
   0   4  -3 251.678 9.86974  11 
   0   4  -3 259.367 10.6680  13 
   0   4  -3 255.124 11.3529   2 
   0   4  -3 255.977 10.6846   3 
   0   4  -3 260.285 11.3342   2 
   0   4  -3 266.928 10.9962   8 
   0   4  -3 273.968 10.9600   5 
   0   4  -3 265.246 10.7335   1 
   0  -4   3 248.893 10.1782   5 
   0  -4   3 265.181 10.9064   3 
   0  -4   3 249.792 9.94589  14 
   0  -4   3 255.578 10.0333   1 
   0  -4   3 259.363 10.5956  12 
   0  -4   3 251.758 11.3885   9 
   0  -4   3 256.690 10.1204  14 
   0  -4   3 255.318 9.48431   7 
   0  -4   3 261.487 10.8785   2 
   0  -4   3 274.978 10.2622   1 
   0  -4   3 270.311 10.4709   5 
  -1   4  -3 596.990 22.4259   2 
  -1   4  -3 614.361 21.4197  14 
  -1   4  -3 606.767 21.5829   1 
  -1   4  -3 586.393 20.4821  13 
  -1   4  -3 618.258 23.0815   3 
  -1   4  -3 600.962 21.8689   8 
  -1   4  -3 605.716 22.5710   2 
  -1   4  -3 595.701 21.5801   3 
  -1   4  -3 608.829 20.1576   6 
  -1   4  -3 605.598 21.6050   5 
  -1   4  -3 584.612 21.1728  11 
   1  -4   3 610.499 21.2838   5 
   1  -4   3 626.899 21.4497   5 
   1  -4   3 631.622 22.4297   9 
   1  -4   3 623.409 22.0259   2 
   1  -4   3 646.609 21.2882   1 
   1  -4   3 624.839 20.1970   6 
   1  -4   3 630.790 21.9411   3 
   1  -4   3 618.854 21.3570   8 
   1  -4   3 632.940 21.1381  14 
   1  -4   3 622.667 21.0663  14 
   1  -4   3 597.898 21.0150   1 
  -2   4  -3 616.766 21.7239  14 
  -2   4  -3 592.817 19.6673  13 
  -2   4  -3 606.373 22.0821   3 
  -2   4  -3 600.224 22.7729   2 
  -2   4  -3 595.172 21.8322   1 
  -2   4  -3 584.639 21.9411  11 
  -2   4  -3 610.517 22.0108   5 
  -2   4  -3 603.403 22.9413   2 
   2  -4   3 595.243 21.6418   5 
   2  -4   3 604.263 19.7461  13 
   2  -4   3 596.722 21.4704   1 
   2  -4   3 647.694 22.2351   8 
   2  -4   3 602.517 21.7945   5 
   2  -4   3 602.984 20.0658   6 
   2  -4   3 595.630 22.1304   3 
   2  -4   3 588.922 22.2320   3 
   2  -4   3 623.434 21.4689  14 
   2  -4   3 613.325 22.6286   9 
  -3   4  -3 404.622 16.1384   5 
  -3   4  -3 392.413 15.8943   1 
  -3   4  -3 416.583 17.2256   2 
  -3   4  -3 420.209 16.4818   3 
  -3   4  -3 420.961 15.9011  14 
  -3   4  -3 392.754 17.0727   2 
   3  -4   3 380.272 16.7400   2 
   3  -4   3 369.024 15.9822   3 
   3  -4   3 348.054 12.8358  13 
   3  -4   3 359.118 15.4538   5 
   3  -4   3 348.396 15.3014   1 
   3  -4   3 371.354 15.7544   5 
   3  -4   3 351.384 16.0901   3 
  -4   4  -3 327.156 15.0262   5 
  -4   4  -3 319.193 15.2936   3 
  -4   4  -3 305.389 14.7969   1 
  -4   4  -3 322.279 14.6404  14 
  -4   4  -3 320.549 16.1792   2 
   4  -4   3 342.414 14.9721   1 
   4  -4   3 351.301 15.3446   5 
   4  -4   3 335.156 15.7524   3 
   4  -4   3 332.890 16.0358   2 
   4  -4   3 329.510 11.9120  13 
   4  -4   3 333.246 14.9768   5 
  -5   4  -3 262.658 13.9743   1 
  -5   4  -3 280.605 15.4764   2 
  -5   4  -3 262.384 13.5289  14 
  -5   4  -3 257.382 14.2581   3 
   5  -4   3 265.140 10.7694  13 
   5  -4   3 260.241 13.7354   1 
   5  -4   3 286.407 14.3456   5 
   5  -4   3 282.362 14.9527   3 
   5  -4   3 260.241 14.7783   2 
  -6   4  -3 85.5045 8.56066   3 
  -6   4  -3 81.4888 8.11504  14 
  -6   4  -3 91.4951 8.59009   1 
  -6   4  -3 97.0868 11.5315   2 
   6  -4   3 94.8967 8.47965   1 
   6  -4   3 84.1091 8.73515   3 
  -7   4  -3 11.8621 4.81535   3 
  -7   4  -3 9.26092 4.54845   1 
   7  -4   3 8.88881 4.15917   1 
   7  -4   3 9.68014 4.79562   3 
  -8   4  -3 42.0904 8.03387   1 
  -8   4  -3 24.1437 6.62064   3 
   8  -4   3 14.0274 5.68253   3 
   8  -4   3 15.8096 5.65470   1 
  -9   4  -3 9.22522 5.16661   1 
  -9   4  -3 7.13125 6.27181  11 
   9  -4   3 5.07583 4.96767   1 
   9   3  -3 16.6838 6.87155   1 
  -9  -3   3 6.63157 4.70322   5 
  -9  -3   3 8.90735 4.69624  14 
  -9  -3   3 7.49083 4.30828   1 
  -9  -3   3 8.28796 5.12525   7 
   8   3  -3 44.9037 9.67294   2 
   8   3  -3 29.1744 7.39239   1 
  -8  -3   3 33.2829 7.01093   5 
  -8  -3   3 39.1281 7.52042   7 
  -8  -3   3 31.9744 6.68207   4 
  -8  -3   3 39.8811 9.37095   3 
  -8  -3   3 30.8074 6.33927  14 
  -8  -3   3 37.1066 6.84528   1 
   7   3  -3 80.9446 9.86214   2 
   7   3  -3 70.2071 8.62548   1 
  -7  -3   3 62.5320 7.53403   4 
  -7  -3   3 65.4965 8.42885   3 
  -7  -3   3 80.2070 8.35811   5 
  -7  -3   3 64.8174 7.29427  14 
  -7  -3   3 67.9909 8.00742   7 
  -7  -3   3 78.0963 7.78702   1 
   6   3  -3 34.2123 6.06125   1 
   6   3  -3 27.1287 6.46385   2 
  -6  -3   3 46.0198 5.62910  14 
  -6  -3   3 35.1244 5.45569   4 
  -6  -3   3 42.2340 5.68209   5 
  -6  -3   3 33.0260 5.83536   3 
  -6  -3   3 52.2294 5.93748   7 
  -6  -3   3 40.5658 5.61966   1 
   5   3  -3 49.5035 6.43465   2 
   5   3  -3 49.6743 5.87183   1 
   5   3  -3 51.7173 5.77067   3 
  -5  -3   3 41.8247 5.28929   4 
  -5  -3   3 35.4809 4.68068  14 
  -5  -3   3 47.7849 4.88928  14 
  -5  -3   3 42.3088 4.94322   7 
  -5  -3   3 46.9669 5.22565   5 
  -5  -3   3 39.9541 4.93080   5 
  -5  -3   3 39.2641 4.85010   1 
   4   3  -3 355.395 15.4703  14 
   4   3  -3 355.592 15.7266   3 
   4   3  -3 390.201 17.4760   2 
   4   3  -3 365.809 16.9692   2 
   4   3  -3 364.369 15.9036   1 
  -4  -3   3 363.706 14.9712  14 
  -4  -3   3 356.678 14.9044   7 
  -4  -3   3 361.614 15.8968   4 
  -4  -3   3 351.527 14.8240  14 
  -4  -3   3 361.806 16.1542   3 
  -4  -3   3 370.110 16.4449   2 
  -4  -3   3 356.740 15.2439   5 
  -4  -3   3 358.984 15.3460   5 
  -4  -3   3 366.735 15.0495   1 
   3   3  -3 490.465 18.7426  14 
   3   3  -3 485.758 19.8784   2 
   3   3  -3 476.259 18.8826   3 
   3   3  -3 470.481 19.7126   2 
   3   3  -3 462.733 16.2708  10 
   3   3  -3 458.990 18.6569   1 
  -3  -3   3 498.598 19.2108   3 
  -3  -3   3 503.859 19.3069   4 
  -3  -3   3 503.646 18.1229  14 
  -3  -3   3 498.745 18.2721  14 
  -3  -3   3 506.959 18.5334   5 
  -3  -3   3 493.766 17.7959   7 
  -3  -3   3 508.334 18.2651   1 
  -3  -3   3 502.314 19.4305   2 
  -3  -3   3 496.289 18.6043   5 
   2   3  -3 835.396 29.8952   2 
   2   3  -3 857.064 29.0539   1 
   2   3  -3 875.096 29.3101   3 
   2   3  -3 857.982 28.9058  14 
   2   3  -3 855.367 29.8797   2 
   2   3  -3 874.038 29.3615   5 
  -2  -3   3 846.006 28.7586   5 
  -2  -3   3 855.825 28.4811  14 
  -2  -3   3 825.767 28.7608   5 
  -2  -3   3 857.830 29.7054   2 
  -2  -3   3 855.148 29.4534   3 
  -2  -3   3 827.941 28.4139   1 
  -2  -3   3 860.865 28.5880  14 
  -2  -3   3 946.055 30.2482   1 
  -2  -3   3 855.361 28.0410   7 
   1   3  -3 132.754 6.22966   5 
   1   3  -3 129.752 5.49801  11 
   1   3  -3 127.232 6.21541   3 
   1   3  -3 130.138 6.00070  14 
   1   3  -3 127.850 6.06683   1 
   1   3  -3 121.023 6.47470   2 
   1   3  -3 118.106 6.51417   2 
  -1  -3   3 98.7500 5.49104   5 
  -1  -3   3 102.635 5.78937   3 
  -1  -3   3 95.5399 5.97959   9 
  -1  -3   3 100.265 5.34991  14 
  -1  -3   3 96.0292 4.82560  12 
  -1  -3   3 99.4371 4.93344   7 
  -1  -3   3 91.7701 5.25890  14 
  -1  -3   3 98.9546 6.98432   2 
  -1  -3   3 104.908 5.51592   1 
  -1  -3   3 96.4250 5.53723   5 
  -1  -3   3 99.9405 5.43849   1 
   0   3  -3 744.219 24.9122   5 
   0   3  -3 730.491 25.0921   8 
   0   3  -3 712.782 24.7404   1 
   0   3  -3 749.364 25.0472   5 
   0   3  -3 714.803 25.5046   2 
   0   3  -3 752.612 24.7909  14 
   0   3  -3 724.479 24.3278  11 
   0   3  -3 721.568 23.3608   6 
   0   3  -3 737.130 25.6158   2 
   0   3  -3 723.084 24.8842   3 
   0  -3   3 712.455 24.5705   5 
   0  -3   3 746.977 24.6248   1 
   0  -3   3 744.183 24.5089   1 
   0  -3   3 723.758 24.3678  14 
   0  -3   3 772.819 24.9309   8 
   0  -3   3 756.299 24.4186  14 
   0  -3   3 751.288 24.6945   5 
   0  -3   3 744.777 25.1324   3 
   0  -3   3 760.994 24.7665  12 
   0  -3   3 739.326 25.2765   9 
  -1   3  -3 410.977 15.9536   2 
  -1   3  -3 401.927 15.1756   3 
  -1   3  -3 418.375 15.4092   3 
  -1   3  -3 417.531 15.8914   2 
  -1   3  -3 399.265 13.1782  13 
  -1   3  -3 409.388 15.0166   1 
  -1   3  -3 397.099 14.9076  11 
  -1   3  -3 407.291 15.0585   5 
  -1   3  -3 411.755 14.8805  14 
  -1   3  -3 386.164 14.8956   5 
   1  -3   3 416.969 15.2342   8 
   1  -3   3 385.185 12.8958   6 
   1  -3   3 394.433 15.3084   9 
   1  -3   3 387.737 15.1095   3 
   1  -3   3 376.327 14.6920   5 
   1  -3   3 377.702 15.2167  12 
   1  -3   3 388.257 14.8240   5 
   1  -3   3 407.735 15.5667   2 
   1  -3   3 391.997 14.6638   1 
  -2   3  -3 695.262 23.9794  14 
  -2   3  -3 720.352 25.2153   2 
  -2   3  -3 675.218 24.3789  11 
  -2   3  -3 691.573 24.1508   1 
  -2   3  -3 686.561 24.4260   3 
  -2   3  -3 672.128 25.1138   2 
  -2   3  -3 721.028 24.8273   3 
  -2   3  -3 731.210 24.4635   5 
   2  -3   3 681.710 25.0457   2 
   2  -3   3 669.724 24.0821   5 
   2  -3   3 668.571 24.3822   3 
   2  -3   3 637.439 24.3656   3 
   2  -3   3 696.676 24.6380   8 
   2  -3   3 642.808 23.8315   1 
  -3   3  -3 479.016 19.3274   5 
  -3   3  -3 492.848 19.9492  11 
  -3   3  -3 494.098 20.4914   2 
  -3   3  -3 513.236 19.9263   3 
  -3   3  -3 494.894 19.1038  14 
  -3   3  -3 516.575 19.7189   5 
   3  -3   3 530.419 19.2754  14 
   3  -3   3 495.403 19.9130   3 
   3  -3   3 489.117 19.2452   1 
   3  -3   3 500.261 19.5152   5 
   3  -3   3 503.639 20.4625   2 
   3  -3   3 506.162 16.1284  13 
   3  -3   3 522.846 21.2371   3 
  -4   3  -3 305.868 15.4687   2 
  -4   3  -3 311.298 14.3339   5 
  -4   3  -3 322.921 14.9622   3 
  -4   3  -3 312.653 14.2747   1 
  -4   3  -3 328.024 14.2114  14 
   4  -3   3 317.425 14.5657   5 
   4  -3   3 304.219 14.8476   3 
   4  -3   3 287.531 13.9100   1 
   4  -3   3 289.824 14.9962   2 
  -5   3  -3 36.1326 5.69997   2 
  -5   3  -3 33.7231 5.40235   3 
  -5   3  -3 40.4484 5.46630   1 
  -5   3  -3 32.8042 4.96362  14 
   5  -3   3 52.1583 6.23219   2 
   5  -3   3 57.0022 6.63533   3 
   5  -3   3 46.4830 5.93977   5 
   5  -3   3 50.0547 5.74583   1 
  -6   3  -3 39.9239 6.57813   3 
  -6   3  -3 31.6447 5.45821  14 
  -6   3  -3 35.9236 5.93781   1 
   6  -3   3 32.9253 5.80687   1 
   6  -3   3 34.9612 5.94661   2 
   6  -3   3 25.8731 5.60846   3 
  -7   3  -3 82.8539 9.68153   3 
  -7   3  -3 85.0033 8.69195  14 
  -7   3  -3 90.5922 9.25981   1 
   7  -3   3 68.2486 9.10665   3 
   7  -3   3 71.4557 8.51373   1 
  -8   3  -3 47.0543 8.58530   3 
  -8   3  -3 53.6785 9.55083  11 
  -8   3  -3 59.2529 8.90596   1 
   8  -3   3 57.4818 8.77320   1 
  -9   3  -3 12.4310 6.80810  11 
  -9   3  -3 17.8005 6.27939   1 
   9  -3   3 14.4516 6.14944   1 
   9   2  -3 14.8507 6.33676   1 
  -9  -2   3 19.8144 5.73351  14 
  -9  -2   3 25.0911 7.24058   7 
  -9  -2   3 19.6591 5.65274   1 
   8   2  -3 3.15597 4.16455   1 
  -8  -2   3 3.54734 3.40817   5 
  -8  -2   3 6.11358 3.67584  14 
  -8  -2   3 10.4450 5.01228   3 
  -8  -2   3 3.36828 4.20020   7 
  -8  -2   3 0.82298 3.22744   1 
   7   2  -3 41.9404 7.18108   1 
   7   2  -3 36.3427 7.15860   2 
  -7  -2   3 58.4458 7.18176   1 
  -7  -2   3 43.5661 6.64566   5 
  -7  -2   3 49.0040 6.51032  14 
  -7  -2   3 45.3652 6.07841   4 
  -7  -2   3 46.7210 6.69653   7 
  -7  -2   3 48.3184 7.42526   3 
   6   2  -3 102.518 9.41851   2 
   6   2  -3 106.539 8.78799   3 
   6   2  -3 98.9860 8.55196   1 
  -6  -2   3 77.8032 7.02426  14 
  -6  -2   3 81.2901 7.29978   1 
  -6  -2   3 90.5385 7.48224   1 
  -6  -2   3 85.2491 7.35097   7 
  -6  -2   3 83.0229 6.95958   4 
  -6  -2   3 85.5868 7.63089   5 
  -6  -2   3 87.9869 8.17908   3 
   5   2  -3 58.2642 5.92387   1 
   5   2  -3 64.3193 6.16227  14 
   5   2  -3 64.2114 6.20251   3 
   5   2  -3 57.0775 6.48287   2 
  -5  -2   3 50.9480 5.42793   5 
  -5  -2   3 51.9966 5.34414   4 
  -5  -2   3 55.0393 5.53289   1 
  -5  -2   3 55.5807 5.37971  14 
  -5  -2   3 50.7632 5.16771   7 
  -5  -2   3 54.0771 5.15808  14 
   4   2  -3 287.180 14.2242   2 
   4   2  -3 289.782 14.3499   2 
   4   2  -3 273.996 12.9930   1 
   4   2  -3 267.654 12.7610  14 
   4   2  -3 284.450 13.4180   3 
  -4  -2   3 296.351 13.6583   3 
  -4  -2   3 295.450 12.7672  14 
  -4  -2   3 293.432 12.8245   1 
  -4  -2   3 279.641 12.4599   7 
  -4  -2   3 290.637 12.5936  14 
  -4  -2   3 291.079 12.8780   4 
  -4  -2   3 291.578 13.1314   5 
  -4  -2   3 302.529 13.0598   5 
   3   2  -3 423.599 13.7627  10 
   3   2  -3 422.982 16.6903  14 
   3   2  -3 419.578 17.1184   3 
   3   2  -3 405.873 16.7187   1 
   3   2  -3 418.477 17.6408   2 
   3   2  -3 433.856 17.9012   2 
  -3  -2   3 448.994 16.2112   7 
  -3  -2   3 451.326 16.5813  14 
  -3  -2   3 461.750 17.4499   3 
  -3  -2   3 442.150 16.3475  14 
  -3  -2   3 457.277 16.9627   5 
  -3  -2   3 443.722 16.6381   5 
  -3  -2   3 439.341 16.5091   1 
   2   2  -3 87.8614 5.70808   2 
   2   2  -3 72.8268 4.98454   3 
   2   2  -3 78.5527 5.05377   5 
   2   2  -3 81.6879 5.59933   2 
   2   2  -3 81.5394 4.98467   5 
   2   2  -3 79.2174 5.06038   1 
   2   2  -3 88.2299 5.11270  14 
  -2  -2   3 74.4088 5.21416   2 
  -2  -2   3 75.4169 4.72281   1 
  -2  -2   3 76.5973 4.63289  14 
  -2  -2   3 73.5878 4.46298   7 
  -2  -2   3 75.1370 4.91941   5 
   1   2  -3 1090.43 35.5893   1 
   1   2  -3 1123.61 36.4345   2 
   1   2  -3 1129.63 36.1232   8 
   1   2  -3 1148.23 35.7099   5 
   1   2  -3 1104.00 36.3044   2 
   1   2  -3 1099.02 35.2060  11 
   1   2  -3 1105.01 35.7631   5 
   1   2  -3 1143.75 35.5752  14 
   1   2  -3 1134.98 35.9571   3 
  -1  -2   3 1098.94 36.1941   2 
  -1  -2   3 1125.80 35.5985   1 
  -1  -2   3 1111.48 35.3180  14 
  -1  -2   3 1086.22 35.7818   3 
  -1  -2   3 1081.43 35.3408   1 
  -1  -2   3 1089.94 35.6796   9 
  -1  -2   3 1076.27 35.5885   5 
  -1  -2   3 1086.44 34.9181   7 
  -1  -2   3 1064.18 35.4309   5 
   0   2  -3 1685.58 54.2463   5 
   0   2  -3 1683.98 54.6062   8 
   0   2  -3 1662.18 54.2204   1 
   0   2  -3 1680.29 54.4259   3 
   0   2  -3 1729.17 55.0086   2 
   0   2  -3 1707.82 54.3973   5 
   0   2  -3 1670.55 54.1008  11 
   0   2  -3 1725.18 54.2102  14 
   0   2  -3 1672.63 54.9490   2 
   0  -2   3 1835.48 55.2369   2 
   0  -2   3 1704.25 54.7737   2 
   0  -2   3 1781.70 54.1467   1 
   0  -2   3 1790.39 54.5901   8 
   0  -2   3 1706.99 54.1438   9 
   0  -2   3 1766.78 54.2269   5 
   0  -2   3 1867.51 54.4094   1 
   0  -2   3 1800.11 54.0503  14 
   0  -2   3 1789.77 54.6001   3 
  -1   2  -3 477.958 18.2682  11 
  -1   2  -3 487.833 18.1870   5 
  -1   2  -3 506.757 18.5842   3 
  -1   2  -3 523.504 19.0576   2 
  -1   2  -3 479.460 18.0745   1 
  -1   2  -3 488.933 18.1740   5 
  -1   2  -3 478.824 18.2767   3 
  -1   2  -3 503.972 19.0880   2 
  -1   2  -3 482.922 17.9743  14 
   1  -2   3 540.062 19.0967   2 
   1  -2   3 557.533 19.3335   2 
   1  -2   3 535.552 18.2227   1 
   1  -2   3 521.801 18.3419   5 
   1  -2   3 558.484 18.8152   8 
   1  -2   3 544.793 18.1926  14 
   1  -2   3 538.086 18.5576   3 
  -2   2  -3 962.981 32.4290  11 
  -2   2  -3 995.263 32.6337   3 
  -2   2  -3 970.210 31.7205  14 
  -2   2  -3 950.188 32.2546   3 
  -2   2  -3 944.143 31.9332   5 
  -2   2  -3 965.705 32.9885   2 
  -2   2  -3 947.363 31.8353   1 
   2  -2   3 908.143 32.1925   3 
   2  -2   3 917.350 32.7728   2 
   2  -2   3 940.001 32.0063   5 
   2  -2   3 928.124 32.1464   3 
   2  -2   3 914.945 31.7490   1 
   2  -2   3 940.873 32.0566   5 
   2  -2   3 991.850 34.4132   2 
  -3   2  -3 276.015 12.9747  11 
  -3   2  -3 252.616 12.0362   1 
  -3   2  -3 264.267 12.2222   5 
  -3   2  -3 259.694 11.9463  14 
  -3   2  -3 257.348 12.5386   3 
  -3   2  -3 273.698 12.8186   3 
  -3   2  -3 260.882 13.0708   2 
   3  -2   3 301.576 13.1219   3 
   3  -2   3 284.758 13.3426   2 
   3  -2   3 294.928 12.5667   5 
   3  -2   3 293.540 12.4648   1 
   3  -2   3 308.713 12.9142   5 
  -4   2  -3 585.831 24.5032   2 
  -4   2  -3 586.949 23.0955   1 
  -4   2  -3 598.652 23.3494   5 
  -4   2  -3 591.164 22.7978  14 
  -4   2  -3 579.442 23.7208   3 
   4  -2   3 634.827 23.7485   5 
   4  -2   3 611.105 24.6073   2 
   4  -2   3 625.169 24.1748   3 
   4  -2   3 589.399 23.1269   1 
   4  -2   3 602.670 23.5713   5 
  -5   2  -3 74.6481 6.75546   1 
  -5   2  -3 69.4838 6.50427   5 
  -5   2  -3 65.7114 6.30545  14 
  -5   2  -3 73.6657 7.46575   2 
  -5   2  -3 84.6181 7.79962   3 
   5  -2   3 59.6063 6.41918   1 
   5  -2   3 56.7375 6.93327   2 
   5  -2   3 64.9902 6.84429   3 
  -6   2  -3 74.8990 7.50235   5 
  -6   2  -3 58.9655 6.99471   1 
  -6   2  -3 64.1638 7.15966  14 
  -6   2  -3 67.2017 8.11804   3 
   6  -2   3 60.9278 7.35102   1 
   6  -2   3 71.3298 8.17439   2 
   6  -2   3 60.3894 7.60888   3 
  -7   2  -3 46.3785 7.31163   1 
  -7   2  -3 39.8393 7.69505  11 
  -7   2  -3 59.7223 8.63552   3 
  -7   2  -3 39.6862 6.82664  14 
   7  -2   3 57.4427 8.05923   1 
  -8   2  -3 63.0184 8.77332  14 
  -8   2  -3 40.0914 8.76121   3 
  -8   2  -3 73.4683 9.27360   1 
  -8   2  -3 49.2229 9.89159  11 
   8  -2   3 59.9480 9.14816   1 
  -9   2  -3 8.18586 7.88430  14 
  -9   2  -3 14.2224 5.26177   1 
  -9   2  -3 15.1738 7.21109  11 
   9  -2   3 16.5379 6.48052   1 
   9   1  -3 13.9088 6.17068   1 
  -9  -1   3 8.29462 4.55394  14 
  -9  -1   3 16.5760 5.64840   1 
  -9  -1   3 3.99781 4.53423   3 
  -9  -1   3 7.30964 4.76059   7 
   8   1  -3 38.8274 7.84624   1 
  -8  -1   3 49.0505 7.61279   1 
  -8  -1   3 25.3504 6.37867   3 
  -8  -1   3 39.2839 7.26407   7 
  -8  -1   3 34.2183 6.48221  14 
   7   1  -3 30.4220 6.22014   1 
   7   1  -3 29.5066 6.63618   2 
   7   1  -3 26.5952 6.16834   3 
  -7  -1   3 26.3151 5.59186   1 
  -7  -1   3 36.0432 5.96938   5 
  -7  -1   3 34.2974 5.73444   7 
  -7  -1   3 22.7094 4.38101   4 
  -7  -1   3 27.6530 5.40366  14 
  -7  -1   3 34.5300 6.02366   1 
  -7  -1   3 28.0950 6.07484   3 
   6   1  -3 151.173 10.5778   3 
   6   1  -3 150.212 10.3582   1 
  -6  -1   3 142.721 9.68841   1 
  -6  -1   3 147.683 10.3369   3 
  -6  -1   3 153.199 9.65575  14 
  -6  -1   3 136.903 9.65432   5 
  -6  -1   3 154.031 9.79965   7 
  -6  -1   3 143.245 8.57669   4 
   5   1  -3 83.4803 6.85676   1 
   5   1  -3 80.3023 7.36610   2 
   5   1  -3 95.1075 7.08429  14 
   5   1  -3 86.3588 7.19718   3 
  -5  -1   3 86.7962 6.45057  14 
  -5  -1   3 83.6577 4.86732  12 
  -5  -1   3 85.6546 6.59627   1 
  -5  -1   3 85.4488 6.68546   5 
  -5  -1   3 74.8467 6.97862   2 
  -5  -1   3 74.7723 5.76078   4 
  -5  -1   3 89.0267 6.76185   5 
  -5  -1   3 83.3333 6.50542   7 
   4   1  -3 358.129 15.0452   1 
   4   1  -3 371.719 15.0374  14 
   4   1  -3 363.173 15.9990   2 
   4   1  -3 363.151 15.5141   3 
   4   1  -3 360.102 15.0161   5 
  -4  -1   3 354.752 14.5693  14 
  -4  -1   3 328.215 14.4773   1 
  -4  -1   3 339.731 15.6802   2 
  -4  -1   3 351.235 15.0351   5 
  -4  -1   3 341.339 14.3451   7 
  -4  -1   3 354.454 14.8241   5 
  -4  -1   3 356.710 12.8078  12 
   3   1  -3 575.752 21.3548   1 
   3   1  -3 601.892 22.4973   2 
   3   1  -3 615.214 21.4545  14 
   3   1  -3 585.264 21.8426   3 
   3   1  -3 613.602 21.5517   5 
   3   1  -3 603.161 22.5885   2 
  -3  -1   3 605.288 21.3082  14 
  -3  -1   3 604.600 21.9056   3 
  -3  -1   3 576.427 21.1144   1 
  -3  -1   3 577.389 20.9679  14 
  -3  -1   3 607.851 22.4875   2 
  -3  -1   3 590.970 20.9350   7 
  -3  -1   3 583.078 19.5085  12 
   2   1  -3 312.030 12.4469   2 
   2   1  -3 308.171 12.4534   2 
   2   1  -3 306.391 11.7644   1 
   2   1  -3 331.387 12.0778   5 
   2   1  -3 317.262 11.7197  14 
   2   1  -3 322.381 11.8121   5 
  -2  -1   3 272.073 12.1415   2 
  -2  -1   3 277.727 11.1537   7 
  -2  -1   3 280.241 11.4351   1 
  -2  -1   3 273.684 11.4573   5 
  -2  -1   3 284.676 11.3654  14 
  -2  -1   3 279.254 12.0987   2 
  -2  -1   3 273.035 11.2745  14 
   1   1  -3 106.547 5.34173  14 
   1   1  -3 108.064 6.07059   2 
   1   1  -3 99.7162 5.91581   2 
   1   1  -3 103.054 5.99749   2 
   1   1  -3 102.034 5.13809   9 
   1   1  -3 101.998 5.72603   8 
   1   1  -3 106.107 5.63736  11 
   1   1  -3 111.646 5.58333   1 
   1   1  -3 103.538 5.46753  14 
   1   1  -3 95.7571 5.43355   1 
  -1  -1   3 135.178 6.39797   2 
  -1  -1   3 141.801 5.90885  14 
  -1  -1   3 141.499 5.74239   7 
  -1  -1   3 141.538 5.53973   9 
  -1  -1   3 134.638 5.81787   5 
  -1  -1   3 139.358 6.01114   5 
  -1  -1   3 138.952 5.73174  14 
   0   1  -3 1750.41 54.5846   5 
   0   1  -3 1804.52 54.4704   1 
   0   1  -3 1780.05 54.8248  11 
   0   1  -3 1749.58 55.1044   2 
   0   1  -3 1768.82 54.7734   8 
   0   1  -3 1839.53 55.2665   2 
   0   1  -3 1768.73 54.7527   3 
   0   1  -3 1830.44 54.4719  14 
   0   1  -3 1772.50 54.4517   1 
   0  -1   3 1687.46 55.0651   2 
   0  -1   3 1720.50 54.5005   5 
   0  -1   3 1708.96 55.0907   2 
   0  -1   3 1696.87 54.6188   3 
   0  -1   3 1710.74 53.9999   9 
   0  -1   3 1689.92 54.3005   1 
   0  -1   3 1788.83 54.9552   8 
   0  -1   3 1712.73 54.4942   5 
  -1   1  -3 99.3683 5.88203  11 
  -1   1  -3 101.812 5.51187  14 
  -1   1  -3 103.893 6.17923   2 
  -1   1  -3 88.7188 5.48772   5 
  -1   1  -3 92.5568 5.48485   1 
  -1   1  -3 94.0257 5.44595   5 
  -1   1  -3 96.7423 5.82530   3 
   1  -1   3 119.634 5.97372   3 
   1  -1   3 117.155 6.44919   2 
   1  -1   3 116.953 5.81827   1 
   1  -1   3 116.805 6.39847   2 
   1  -1   3 123.406 4.39093   6 
   1  -1   3 121.691 5.91920   5 
   1  -1   3 130.980 6.08186   5 
  -2   1  -3 246.884 11.0394   5 
  -2   1  -3 259.767 11.8193   2 
  -2   1  -3 246.503 10.9497   5 
  -2   1  -3 256.490 10.9574   1 
  -2   1  -3 260.164 11.5176   3 
  -2   1  -3 254.769 10.8704  14 
  -2   1  -3 251.461 11.4980  11 
  -2   1  -3 255.038 11.4295   3 
   2  -1   3 263.704 9.00724  13 
   2  -1   3 276.796 12.1949   2 
   2  -1   3 270.134 11.4076   3 
   2  -1   3 273.387 11.5403   3 
   2  -1   3 269.716 11.3088   5 
   2  -1   3 266.401 11.9488   2 
   2  -1   3 286.187 11.4802   5 
   2  -1   3 259.820 11.0247   1 
  -3   1  -3 312.006 14.4470   2 
  -3   1  -3 303.174 13.2468   1 
  -3   1  -3 314.654 13.2536  14 
  -3   1  -3 305.843 14.1251  11 
  -3   1  -3 319.824 14.1193   3 
  -3   1  -3 330.987 14.3158   3 
  -3   1  -3 301.249 13.4205   5 
   3  -1   3 318.903 13.8045   5 
   3  -1   3 316.493 11.5285  13 
   3  -1   3 333.054 13.7954   1 
   3  -1   3 323.772 14.6705   2 
   3  -1   3 322.684 14.1054   3 
   3  -1   3 331.413 14.8780   2 
  -4   1  -3 35.4963 4.25301  14 
  -4   1  -3 24.6693 3.82717   1 
  -4   1  -3 31.2437 4.75132  11 
  -4   1  -3 22.2668 3.81346   5 
  -4   1  -3 24.1813 4.24028   3 
  -4   1  -3 26.7011 4.14300   2 
   4  -1   3 15.3545 3.85635   2 
   4  -1   3 15.9531 3.68202   1 
   4  -1   3 13.7904 3.53403   3 
   4  -1   3 18.9404 3.87981   5 
   4  -1   3 17.2116 4.03213   2 
  -5   1  -3 72.7278 6.86108   5 
  -5   1  -3 68.7968 6.45845  14 
  -5   1  -3 76.0791 7.61571   3 
  -5   1  -3 71.1833 7.33214  11 
  -5   1  -3 78.5400 6.90403   1 
   5  -1   3 68.5106 6.87757   1 
   5  -1   3 68.8291 7.51629   2 
   5  -1   3 73.4480 7.14035   3 
  -6   1  -3 67.6594 8.40267   3 
  -6   1  -3 76.5970 7.76818   5 
  -6   1  -3 75.0892 7.48531  14 
  -6   1  -3 69.7034 8.27711  11 
  -6   1  -3 79.1839 7.76337   1 
   6  -1   3 75.4665 8.19486   3 
   6  -1   3 71.9076 8.51868   2 
   6  -1   3 81.2898 8.27009   1 
  -7   1  -3 12.1084 5.40254   3 
  -7   1  -3 8.40872 4.22421   5 
  -7   1  -3 14.0902 4.42155   1 
  -7   1  -3 23.9199 6.53775  11 
  -7   1  -3 18.9900 5.45031  14 
   7  -1   3 22.5113 6.47635   2 
   7  -1   3 16.6750 5.45317   1 
  -8   1  -3 15.9134 6.38486  11 
  -8   1  -3 13.0432 4.72753   1 
  -8   1  -3 16.8317 5.32672  14 
  -8   1  -3 9.92288 5.30652   3 
   8  -1   3 13.3528 5.51350   1 
 -10   0   3 17.1601 7.02669   7 
 -10   0   3 14.2699 6.56058   1 
   9   0  -3 -2.2427 3.40026   1 
  -9   0   3 1.59496 4.06594   3 
  -9   0   3 4.06904 4.01737   1 
  -9   0   3 -3.4311 4.25714   7 
   8   0  -3 4.74991 4.38729   3 
   8   0  -3 4.49426 4.20586   1 
  -8   0   3 5.68861 3.70522   7 
  -8   0   3 7.52219 4.12020   1 
  -8   0   3 7.92956 4.51881   3 
  -8   0   3 6.08138 3.40347  14 
   7   0  -3 141.026 10.8828   1 
   7   0  -3 131.615 11.2507   2 
   7   0  -3 118.943 10.6216   3 
  -7   0   3 144.304 10.4263   1 
  -7   0   3 146.750 10.3216   7 
  -7   0   3 134.697 9.95002  14 
  -7   0   3 149.829 8.48245   4 
  -7   0   3 143.911 11.0612   3 
  -7   0   3 152.344 10.6725   1 
   6   0  -3 127.916 9.97485   2 
   6   0  -3 121.324 9.38992   3 
   6   0  -3 124.383 9.18844   1 
  -6   0   3 118.368 8.72751   1 
  -6   0   3 117.546 8.50131   7 
  -6   0   3 120.556 7.30171  12 
  -6   0   3 139.864 10.2943   2 
  -6   0   3 133.412 8.91816  14 
  -6   0   3 137.868 9.61910   3 
  -6   0   3 115.512 7.20602   4 
   5   0  -3 371.786 16.8844   3 
   5   0  -3 360.599 16.0077  14 
   5   0  -3 379.633 16.3714   1 
   5   0  -3 359.959 16.1181   5 
   5   0  -3 370.622 17.3779   2 
  -5   0   3 365.755 14.4658  12 
  -5   0   3 361.657 16.0034   5 
  -5   0   3 351.249 15.8869   1 
  -5   0   3 363.241 15.6235  14 
  -5   0   3 402.757 17.7610   2 
  -5   0   3 354.649 16.4490   3 
   4   0  -3 389.849 16.3608   3 
   4   0  -3 369.567 15.5955   1 
   4   0  -3 388.319 15.9011   5 
   4   0  -3 402.185 15.8613  14 
   4   0  -3 376.676 16.5313   2 
  -4   0   3 405.296 16.9523   2 
  -4   0   3 374.652 15.5032   1 
  -4   0   3 382.575 15.7121   5 
  -4   0   3 381.382 15.3001   7 
  -4   0   3 379.247 15.3330  14 
  -4   0   3 389.013 14.4564  12 
   3   0  -3 531.539 18.9275  14 
   3   0  -3 525.022 20.0413   2 
   3   0  -3 509.824 19.0235   1 
   3   0  -3 516.155 18.9392  14 
   3   0  -3 515.803 19.6140   3 
   3   0  -3 504.800 16.4433  10 
  -3   0   3 522.435 18.8549   7 
  -3   0   3 532.875 19.5506   3 
  -3   0   3 541.244 18.9892  14 
  -3   0   3 527.156 20.1850   2 
  -3   0   3 551.942 20.2865   2 
  -3   0   3 509.044 19.2505   5 
  -3   0   3 528.918 18.2991  12 
  -3   0   3 547.013 19.2929   5 
  -3   0   3 531.594 19.1042   1 
   2   0  -3 1792.14 55.8540  14 
   2   0  -3 1796.95 54.6667  10 
   2   0  -3 1742.70 56.6602   2 
   2   0  -3 1692.99 56.1132   3 
   2   0  -3 1745.32 56.1748   8 
   2   0  -3 1867.05 56.5296   5 
   2   0  -3 1678.35 55.7865   1 
  -2   0   3 1801.53 55.8268   7 
  -2   0   3 1794.34 55.9775   5 
  -2   0   3 1770.26 56.8051   2 
  -2   0   3 1846.91 56.3682   3 
  -2   0   3 1829.98 55.7458  14 
  -2   0   3 1821.93 56.8254   2 
  -2   0   3 1825.26 56.2139   5 
  -2   0   3 1827.97 55.9725   1 
   1   0  -3 287.041 10.5507   1 
   1   0  -3 282.459 10.8000   5 
   1   0  -3 290.834 10.7269   1 
   1   0  -3 289.166 10.9213   8 
   1   0  -3 281.715 10.4810  14 
   1   0  -3 282.888 10.6975   5 
   1   0  -3 286.445 11.2090  11 
   1   0  -3 292.796 10.6879  14 
   1   0  -3 284.648 9.69704   9 
   1   0  -3 282.337 10.9697   3 
  -1   0   3 293.839 10.8224   5 
  -1   0   3 284.315 10.7238   7 
  -1   0   3 281.810 10.6794   1 
  -1   0   3 286.799 10.5986  14 
  -1   0   3 295.893 11.3839   2 
  -1   0   3 289.770 11.3768   2 
  -1   0   3 291.315 10.9818   3 
  -1   0   3 280.578 9.68289   9 
  -1   0   3 298.310 11.1089   8 
  -1   0   3 285.707 10.8641   5 
   0   0  -3 1428.30 45.2988   5 
   0   0  -3 1446.36 45.3504   5 
   0   0  -3 1441.08 44.4408   6 
   0   0  -3 1528.38 45.2825   1 
   0   0  -3 1431.80 45.1580   1 
   0   0  -3 1360.52 45.8484  11 
   0   0  -3 1426.35 45.0704  14 
   0   0  -3 1424.21 45.5265   3 
   0   0  -3 1425.73 44.7532  13 
   0   0   3 1475.99 45.4112   5 
   0   0   3 1504.11 45.4826   5 
   0   0   3 1424.14 45.2293   1 
   0   0   3 1489.27 44.4580   6 
   0   0   3 1462.21 46.0365   2 
   0   0   3 1479.19 45.7180   8 
   0   0   3 1467.59 46.0414   2 
   0   0   3 1455.01 45.4899   3 
  -1   0  -3 2079.23 64.2632  11 
  -1   0  -3 2056.71 63.1593   1 
  -1   0  -3 2062.82 63.4318   5 
  -1   0  -3 1980.27 63.5898   3 
  -1   0  -3 2120.04 63.2179   1 
  -1   0  -3 2055.96 63.0743  14 
  -1   0  -3 2022.52 62.3167  13 
  -1   0  -3 2107.51 63.9575   3 
  -1   0  -3 2100.42 63.4315   5 
   1   0   3 1958.02 63.3804   5 
   1   0   3 2025.43 63.3470   1 
   1   0   3 2043.22 62.3071  13 
   1   0   3 2056.45 62.6010   6 
   1   0   3 2015.66 64.2255   2 
   1   0   3 1996.22 64.1017   2 
   1   0   3 1995.64 63.4799   3 
  -2   0  -3 636.876 23.0598  11 
  -2   0  -3 691.887 23.1453   3 
  -2   0  -3 639.594 21.8524  14 
  -2   0  -3 628.265 21.9314   1 
  -2   0  -3 633.936 24.4319   2 
  -2   0  -3 650.892 22.2670   5 
  -2   0  -3 659.362 22.8767   3 
   2   0   3 603.915 23.0184   2 
   2   0   3 620.970 21.0052  13 
   2   0   3 607.283 23.1884   2 
   2   0   3 611.566 22.2464   1 
   2   0   3 623.729 22.5305   3 
   2   0   3 619.540 22.4137   5 
  -3   0  -3 193.382 9.27733   1 
  -3   0  -3 173.550 9.23508   5 
  -3   0  -3 197.164 10.3150  11 
  -3   0  -3 191.667 10.0333   3 
  -3   0  -3 182.245 9.07849  14 
  -3   0  -3 190.725 10.0673   3 
  -3   0  -3 181.455 8.98743   4 
  -3   0  -3 189.118 10.4386   2 
   3   0   3 214.767 10.1454   3 
   3   0   3 197.651 8.52827  13 
   3   0   3 199.265 9.72385   1 
   3   0   3 182.190 10.3669   2 
   3   0   3 205.491 10.7496   2 
   3   0   3 204.610 10.1726   5 
  -4   0  -3 316.488 14.4217   5 
  -4   0  -3 318.369 14.0012  14 
  -4   0  -3 321.571 14.1007   1 
  -4   0  -3 348.252 15.6774   3 
  -4   0  -3 316.886 13.7031   4 
  -4   0  -3 328.048 15.4315  11 
  -4   0  -3 326.425 14.1115  14 
  -4   0  -3 328.664 15.6082   2 
  -4   0  -3 330.264 15.4589   3 
   4   0   3 302.356 14.5037   1 
   4   0   3 303.520 14.6835   3 
   4   0   3 316.789 15.8220   2 
   4   0   3 307.776 14.7923   5 
   4   0   3 325.854 16.1725   2 
  -5   0  -3 59.4761 6.75828  11 
  -5   0  -3 55.8161 5.29075   4 
  -5   0  -3 53.7442 5.83058  14 
  -5   0  -3 49.4297 5.79897   5 
  -5   0  -3 61.0191 6.98228   3 
  -5   0  -3 63.3304 5.97555   1 
   5   0   3 49.3334 6.02962   3 
   5   0   3 59.9613 6.59657   1 
   5   0   3 48.7038 6.79450   2 
  -6   0  -3 137.485 11.2007   3 
  -6   0  -3 119.629 9.30393  14 
  -6   0  -3 142.330 10.0932   5 
  -6   0  -3 136.473 9.59105   1 
  -6   0  -3 134.709 8.73622   4 
  -6   0  -3 127.893 10.7190  11 
   6   0   3 122.805 11.1609   2 
   6   0   3 114.715 10.0265   1 
  -7   0  -3 15.5759 4.65253  14 
  -7   0  -3 12.7537 4.42923   5 
  -7   0  -3 10.8042 4.99026   3 
  -7   0  -3 13.9403 5.64208  11 
  -7   0  -3 12.9757 4.60853   1 
   7   0   3 20.3198 5.58274   1 
   7   0   3 17.4485 5.83406   2 
  -8   0  -3 -1.4311 3.17871  14 
  -8   0  -3 4.98763 3.83073   1 
  -8   0  -3 0.53234 3.90032   5 
  -8   0  -3 -4.2325 3.53109  11 
   8   0   3 0.91155 4.46684   1 
  10  -1  -3 4.04640 4.89506   1 
 -10   1   3 8.41654 5.91048   7 
 -10   1   3 3.31069 4.34800   1 
   9  -1  -3 18.1893 6.33434   1 
  -9   1   3 18.1428 5.96020   7 
  -9   1   3 14.1087 5.33765   3 
  -9   1   3 15.4491 5.37233   1 
   8  -1  -3 58.2448 8.06285   1 
   8  -1  -3 54.3164 8.53810   3 
  -8   1   3 59.4099 8.22816   3 
  -8   1   3 53.4670 7.48607   7 
  -8   1   3 70.9789 8.57080   1 
  -8   1   3 49.3614 7.53659   1 
   7  -1  -3 84.8232 8.91803   3 
   7  -1  -3 78.7601 8.27732   1 
  -7   1   3 78.7006 8.02521   1 
  -7   1   3 87.8747 7.09607  12 
  -7   1   3 96.1419 6.30486   4 
  -7   1   3 85.1144 7.98326   7 
  -7   1   3 96.5231 8.80582   3 
   6  -1  -3 21.7510 4.71248   3 
   6  -1  -3 13.4747 3.85726   2 
   6  -1  -3 19.5442 4.20254   1 
  -6   1   3 18.9700 3.66556  12 
  -6   1   3 27.3465 5.02132   2 
  -6   1   3 23.1645 4.29674   7 
  -6   1   3 24.5380 4.85021   3 
  -6   1   3 23.2376 4.23586   5 
  -6   1   3 26.8729 4.39415  14 
  -6   1   3 29.3637 4.79427   1 
  -6   1   3 24.0036 3.11404   4 
   5  -1  -3 121.929 7.44940  14 
   5  -1  -3 105.057 7.51917   1 
   5  -1  -3 124.984 8.71391   2 
   5  -1  -3 104.111 7.98870   3 
  -5   1   3 127.588 7.92306   5 
  -5   1   3 114.912 7.56252   7 
  -5   1   3 128.253 7.98726   1 
  -5   1   3 121.130 8.12055   3 
  -5   1   3 131.830 7.44661  12 
  -5   1   3 127.108 7.70436  14 
  -5   1   3 124.310 8.87278   2 
   4  -1  -3 358.483 14.7972   5 
   4  -1  -3 344.150 14.5800   1 
   4  -1  -3 356.448 15.5921   2 
   4  -1  -3 356.199 14.5343  14 
  -4   1   3 362.652 15.8165   2 
  -4   1   3 364.814 14.4949  14 
  -4   1   3 354.654 12.0299  10 
  -4   1   3 350.770 14.4205   7 
  -4   1   3 346.696 14.6122   5 
  -4   1   3 360.409 14.3259  12 
  -4   1   3 355.727 14.6751   1 
  -4   1   3 374.587 15.9812   2 
   3  -1  -3 151.317 7.47908   1 
   3  -1  -3 162.742 7.64632   5 
   3  -1  -3 148.100 8.63769  14 
   3  -1  -3 140.750 8.48277   2 
   3  -1  -3 146.083 7.83426   3 
   3  -1  -3 141.662 6.19367  10 
   3  -1  -3 157.461 7.55811  14 
  -3   1   3 153.147 6.33344  10 
  -3   1   3 159.261 8.37191   2 
  -3   1   3 169.846 8.59027   2 
  -3   1   3 157.308 7.66259  12 
  -3   1   3 161.492 7.71354   5 
  -3   1   3 162.358 7.62565   7 
  -3   1   3 154.582 7.78595   3 
  -3   1   3 165.716 7.50375  14 
   2  -1  -3 174.744 6.76669   1 
   2  -1  -3 169.357 6.70097  14 
   2  -1  -3 162.473 6.82856   5 
   2  -1  -3 157.680 6.64847  14 
   2  -1  -3 155.496 6.53133  10 
   2  -1  -3 152.714 6.65019   1 
   2  -1  -3 155.601 6.84507   8 
   2  -1  -3 158.687 7.13974   3 
  -2   1   3 136.114 7.20472   2 
  -2   1   3 138.418 6.63839   1 
  -2   1   3 138.979 6.66589   5 
  -2   1   3 137.212 7.18240   2 
  -2   1   3 134.587 6.76193   3 
  -2   1   3 130.046 6.65334   7 
  -2   1   3 140.591 6.55621  14 
   1  -1  -3 1815.56 58.0245   3 
   1  -1  -3 1862.11 58.8376  11 
   1  -1  -3 1830.00 57.4658   1 
   1  -1  -3 1907.94 57.4723   1 
   1  -1  -3 1802.34 57.5869   5 
   1  -1  -3 1860.07 58.5488  13 
   1  -1  -3 1823.36 57.6989   5 
   1  -1  -3 1801.17 57.4568  14 
   1  -1  -3 1799.77 58.3897  10 
   1  -1  -3 1905.50 58.2190   2 
   1  -1  -3 1794.56 57.9265   6 
  -1   1   3 1977.93 57.9831   5 
  -1   1   3 1950.50 58.5302   2 
  -1   1   3 1900.67 58.5010   2 
  -1   1   3 1924.58 58.2387   7 
  -1   1   3 1931.33 58.0794   8 
  -1   1   3 1923.29 58.5148   2 
  -1   1   3 1931.30 57.7846   1 
  -1   1   3 1971.66 58.0223   3 
   0  -1  -3 276.282 10.8888   3 
   0  -1  -3 281.847 10.5412   5 
   0  -1  -3 285.380 10.2358   1 
   0  -1  -3 278.000 10.2229   1 
   0  -1  -3 284.933 10.9514   6 
   0  -1  -3 296.757 11.8871  10 
   0  -1  -3 293.942 10.4236  14 
   0  -1  -3 290.019 10.5928   5 
   0  -1  -3 298.112 10.9700   2 
   0  -1  -3 283.565 11.6076  11 
   0  -1  -3 282.843 11.1171  13 
   0   1   3 320.224 10.8866   3 
   0   1   3 308.163 10.7958   1 
   0   1   3 312.944 11.4076   2 
   0   1   3 316.282 11.3257  13 
   0   1   3 320.835 10.9954   5 
   0   1   3 316.754 11.4873   2 
  -1  -1  -3 829.956 28.2036  13 
  -1  -1  -3 842.994 29.0468   4 
  -1  -1  -3 808.824 27.7619   5 
  -1  -1  -3 843.160 27.4836   1 
  -1  -1  -3 839.506 27.6564  14 
  -1  -1  -3 841.669 28.4652   3 
  -1  -1  -3 850.667 28.5675   3 
  -1  -1  -3 875.281 28.4624   2 
  -1  -1  -3 872.401 27.5231   1 
  -1  -1  -3 848.710 29.1694  11 
   1   1   3 871.621 28.8590   2 
   1   1   3 885.550 29.0504   2 
   1   1   3 898.051 28.2430   1 
   1   1   3 895.384 28.3565  13 
   1   1   3 903.905 28.1596   3 
  -2  -1  -3 413.743 16.2338   4 
  -2  -1  -3 420.490 15.3806   5 
  -2  -1  -3 420.063 16.2346   3 
  -2  -1  -3 415.242 14.9839   1 
  -2  -1  -3 404.077 16.0945   3 
  -2  -1  -3 411.311 15.0770  14 
  -2  -1  -3 432.930 15.0757   1 
  -2  -1  -3 408.231 16.4569  11 
  -2  -1  -3 434.084 16.3098   2 
   2   1   3 426.381 15.8264   3 
   2   1   3 412.356 15.4183  13 
   2   1   3 390.109 16.3779   2 
   2   1   3 419.069 16.6955   2 
   2   1   3 403.322 15.6207   1 
  -3  -1  -3 116.678 7.69035  11 
  -3  -1  -3 118.628 6.65547  14 
  -3  -1  -3 124.846 7.74002   3 
  -3  -1  -3 119.299 6.87374   5 
  -3  -1  -3 130.896 7.67272   2 
  -3  -1  -3 119.868 6.56361  14 
  -3  -1  -3 122.455 7.32921   4 
  -3  -1  -3 123.989 6.64292   1 
  -3  -1  -3 130.042 7.84093   3 
   3   1   3 110.864 7.75120   2 
   3   1   3 112.447 6.99321   3 
   3   1   3 104.139 7.54937   2 
   3   1   3 119.242 7.20765   1 
  -4  -1  -3 201.423 10.1679  14 
  -4  -1  -3 216.263 11.8092   3 
  -4  -1  -3 210.927 11.6579   3 
  -4  -1  -3 204.783 10.2188  14 
  -4  -1  -3 208.300 10.8299   4 
  -4  -1  -3 192.979 10.3591   5 
  -4  -1  -3 202.976 11.6210  11 
  -4  -1  -3 207.565 10.2184   1 
   4   1   3 207.635 11.0088   3 
   4   1   3 208.670 11.1125   1 
   4   1   3 206.229 12.1196   2 
  -5  -1  -3 114.658 8.40033   5 
  -5  -1  -3 134.277 8.39559   1 
  -5  -1  -3 121.686 8.57148   4 
  -5  -1  -3 122.811 8.75070  10 
  -5  -1  -3 114.343 9.49364  11 
  -5  -1  -3 128.217 11.4001  14 
  -5  -1  -3 135.053 9.98627   3 
  -5  -1  -3 118.179 8.11165  14 
   5   1   3 124.582 9.28458   1 
   5   1   3 126.237 10.3004   2 
  -6  -1  -3 46.8110 7.42677   3 
  -6  -1  -3 52.9478 6.22590   1 
  -6  -1  -3 51.7137 6.42025   4 
  -6  -1  -3 39.6960 5.96359  14 
  -6  -1  -3 53.2993 7.73665  11 
  -6  -1  -3 47.8397 6.42114   5 
  -6  -1  -3 49.3992 5.98856  10 
   6   1   3 61.8956 7.74594   1 
   6   1   3 35.6014 7.31090   2 
  -7  -1  -3 32.2736 7.12188   3 
  -7  -1  -3 32.2453 7.57487  11 
  -7  -1  -3 39.4431 6.06986   1 
  -7  -1  -3 36.1036 6.48834   5 
  -7  -1  -3 31.7582 6.23985  14 
   7   1   3 29.5781 6.96158   1 
   7   1   3 37.3856 8.23689   2 
  -8  -1  -3 14.0949 6.40155  11 
  -8  -1  -3 8.14491 4.61727   5 
  -8  -1  -3 9.73585 4.63665  14 
  -8  -1  -3 10.4575 6.36718   1 
   8   1   3 14.3456 5.98226   1 
  10  -2  -3 13.9208 5.78755   1 
 -10   2   3 23.0206 6.55832   1 
 -10   2   3 3.38679 4.82752   7 
   9  -2  -3 25.1720 6.44386   1 
   9  -2  -3 19.9451 6.34800   3 
  -9   2   3 9.29663 4.83705   3 
  -9   2   3 16.4489 5.72795   1 
  -9   2   3 18.0816 5.82830   7 
   8  -2  -3 36.3731 6.93217   1 
   8  -2  -3 29.6026 6.92157   3 
  -8   2   3 28.0858 5.16120  12 
  -8   2   3 22.8761 5.38909   7 
  -8   2   3 28.2304 6.05685   1 
  -8   2   3 39.7071 6.89622   1 
  -8   2   3 34.2681 6.58928   3 
   7  -2  -3 104.719 8.74907   1 
   7  -2  -3 99.3255 9.67141   3 
  -7   2   3 104.777 9.84664   2 
  -7   2   3 104.576 8.60135   7 
  -7   2   3 95.8278 7.87362  12 
  -7   2   3 113.504 9.30158   3 
  -7   2   3 83.0257 8.25968   1 
   6  -2  -3 70.1147 7.57279   5 
   6  -2  -3 70.4751 7.07622   3 
   6  -2  -3 65.6451 6.47610   1 
   6  -2  -3 63.8423 6.83710   2 
  -6   2   3 66.7225 4.17116  10 
  -6   2   3 60.1453 6.26724   1 
  -6   2   3 55.9939 5.77508   7 
  -6   2   3 63.0706 6.95153   2 
  -6   2   3 63.0148 5.97072  14 
  -6   2   3 64.0676 6.01423  12 
  -6   2   3 62.6419 6.41212   3 
   5  -2  -3 130.548 8.60856   3 
   5  -2  -3 136.978 8.04865   1 
   5  -2  -3 129.439 7.84825   5 
   5  -2  -3 148.776 9.07297   2 
  -5   2   3 127.999 8.87729   2 
  -5   2   3 115.897 8.61654   2 
  -5   2   3 112.656 7.95273   3 
  -5   2   3 123.115 7.57534  14 
  -5   2   3 120.280 7.74600  12 
  -5   2   3 111.493 5.54019  10 
  -5   2   3 110.782 7.60968   1 
  -5   2   3 115.057 7.64406   5 
   4  -2  -3 340.061 15.0669   3 
   4  -2  -3 372.585 14.5300   5 
   4  -2  -3 326.686 14.0248   1 
   4  -2  -3 376.570 14.1872  14 
  -4   2   3 356.539 14.5636   5 
  -4   2   3 348.240 15.5053   2 
  -4   2   3 365.912 15.7394   2 
  -4   2   3 365.508 14.3020  14 
  -4   2   3 357.627 12.9463  10 
  -4   2   3 353.482 14.7495  12 
  -4   2   3 335.169 14.3381   1 
  -4   2   3 355.722 14.3703   7 
  -4   2   3 364.074 14.8523   3 
   3  -2  -3 990.559 32.3988   2 
   3  -2  -3 994.021 31.2396   1 
   3  -2  -3 945.992 31.4996   8 
   3  -2  -3 928.765 31.1583   1 
   3  -2  -3 936.266 31.0112  10 
   3  -2  -3 937.982 31.2430  14 
   3  -2  -3 956.289 31.4738   5 
   3  -2  -3 985.443 31.2036  14 
   3  -2  -3 916.780 32.0521   3 
  -3   2   3 941.974 31.0226  10 
  -3   2   3 949.015 32.5303   2 
  -3   2   3 950.636 32.6633   2 
  -3   2   3 959.998 31.6421   1 
  -3   2   3 940.704 32.5202  12 
  -3   2   3 980.904 31.4849  14 
  -3   2   3 960.526 31.8094   3 
  -3   2   3 974.800 31.8046   5 
  -3   2   3 946.405 31.7377   7 
   2  -2  -3 871.559 27.0814   5 
   2  -2  -3 848.766 26.7804  14 
   2  -2  -3 866.722 26.6598   8 
   2  -2  -3 855.806 26.8909  14 
   2  -2  -3 842.570 26.6236   1 
   2  -2  -3 823.618 28.6255  13 
   2  -2  -3 891.727 27.6467   2 
   2  -2  -3 859.831 28.3305   6 
   2  -2  -3 853.983 26.7405   1 
   2  -2  -3 837.833 27.6723   3 
   2  -2  -3 874.419 28.0505  10 
  -2   2   3 808.820 28.0530   2 
  -2   2   3 815.904 27.2115   1 
  -2   2   3 802.368 27.6078   7 
  -2   2   3 818.866 28.0415   2 
  -2   2   3 802.713 27.1925   3 
  -2   2   3 806.456 27.8413  10 
   1  -2  -3 127.173 5.75746   5 
   1  -2  -3 132.288 7.24884  11 
   1  -2  -3 124.289 7.21442  10 
   1  -2  -3 130.430 6.39540   3 
  -1   2   3 169.187 6.21351   3 
  -1   2   3 164.365 6.86315   2 
  -1   2   3 171.321 6.93221   2 
  -1   2   3 177.931 7.89714  10 
  -1   2   3 167.529 6.34948   1 
  -1   2   3 170.256 6.47836   8 
  -1   2   3 164.565 7.01803   7 
  -1   2   3 179.016 7.92254  13 
  -1   2   3 184.724 6.91097   1 
   0  -2  -3 578.967 20.8326  13 
   0  -2  -3 604.018 21.3902   4 
   0  -2  -3 608.541 20.8224  11 
   0  -2  -3 588.620 19.6912   3 
   0  -2  -3 617.512 20.8380   6 
   0  -2  -3 611.433 21.5076  10 
   0   2   3 596.538 20.0437   2 
   0   2   3 577.853 18.8941   3 
   0   2   3 594.987 20.9021  13 
   0   2   3 578.710 19.2510   1 
   0   2   3 573.048 19.9037   2 
  -1  -2  -3 807.631 25.8670  14 
  -1  -2  -3 836.594 28.8517   4 
  -1  -2  -3 840.264 25.9287  14 
  -1  -2  -3 843.514 26.3322   5 
  -1  -2  -3 826.949 28.2714   6 
  -1  -2  -3 866.585 28.4795  11 
  -1  -2  -3 840.255 27.4653   3 
  -1  -2  -3 804.724 28.7350  10 
  -1  -2  -3 821.024 28.2986  13 
   1   2   3 778.286 27.5702   2 
   1   2   3 820.020 26.9772   1 
   1   2   3 803.074 27.7999   2 
   1   2   3 864.114 29.4199  13 
   1   2   3 820.471 26.5278   3 
  -2  -2  -3 269.140 10.1302  14 
  -2  -2  -3 254.632 11.4265   3 
  -2  -2  -3 266.059 10.4718   5 
  -2  -2  -3 270.419 12.3900  10 
  -2  -2  -3 263.100 11.5388   3 
  -2  -2  -3 270.249 9.65555   1 
  -2  -2  -3 277.164 10.1596  14 
  -2  -2  -3 268.358 11.9919  11 
  -2  -2  -3 271.125 12.4291   4 
  -2  -2  -3 270.895 10.6978   1 
   2   2   3 256.600 10.9328   1 
   2   2   3 256.286 11.8599   2 
   2   2   3 258.110 11.7845   2 
  -3  -2  -3 80.4824 6.48855  10 
  -3  -2  -3 71.8186 4.82854  14 
  -3  -2  -3 74.6431 6.01349   3 
  -3  -2  -3 68.3442 5.88160  11 
  -3  -2  -3 79.2711 5.99741   3 
  -3  -2  -3 68.9476 4.43792   1 
  -3  -2  -3 71.2802 4.41134   1 
  -3  -2  -3 69.2815 6.14291   4 
  -3  -2  -3 74.6625 4.82106  14 
  -3  -2  -3 70.6227 5.03469   5 
   3   2   3 95.7305 6.92697   2 
   3   2   3 101.333 6.27874   1 
   3   2   3 94.7386 5.87252   3 
   3   2   3 95.1717 6.97566   2 
  -4  -2  -3 35.4422 5.04134   4 
  -4  -2  -3 38.6610 3.78490   1 
  -4  -2  -3 35.9176 3.95830  14 
  -4  -2  -3 38.6218 5.12295  11 
  -4  -2  -3 34.2152 4.13225   5 
  -4  -2  -3 35.3076 3.80210  14 
  -4  -2  -3 38.5014 5.22490   3 
  -4  -2  -3 35.8956 4.83409  10 
   4   2   3 20.5585 4.13765   1 
   4   2   3 18.3592 4.30849   2 
  -5  -2  -3 126.445 7.92160  14 
  -5  -2  -3 123.693 7.41507   1 
  -5  -2  -3 121.730 8.86567  10 
  -5  -2  -3 113.407 8.07780   5 
  -5  -2  -3 123.569 9.67719   3 
  -5  -2  -3 112.595 9.37705  11 
  -5  -2  -3 119.224 9.15765   4 
  -5  -2  -3 115.174 7.73983  14 
   5   2   3 123.870 9.26337   1 
   5   2   3 107.907 9.93042   2 
  -6  -2  -3 20.4696 5.01623   5 
  -6  -2  -3 30.8907 6.57184   3 
  -6  -2  -3 31.3149 6.41501  11 
  -6  -2  -3 34.8243 5.32378  14 
  -6  -2  -3 31.5592 4.39920   1 
  -6  -2  -3 31.3995 5.46805  10 
  -6  -2  -3 32.6559 6.07422   4 
   6   2   3 33.3361 6.75223   1 
   6   2   3 34.7437 7.44234   2 
  -7  -2  -3 9.62082 3.98698   5 
  -7  -2  -3 11.9582 5.12049  11 
  -7  -2  -3 5.89819 3.22560  14 
   7   2   3 4.01437 4.96980   2 
   7   2   3 1.43758 4.01891   1 
  -8  -2  -3 0.68697 3.33630  14 
  -8  -2  -3 -0.9117 3.12019   5 
   8   2   3 -1.7182 4.16300   1 
   8   2   3 3.60881 5.00571   2 
  10  -3  -3 23.1472 7.06683   1 
 -10   3   3 22.0495 6.93078   1 
 -10   3   3 12.9156 6.02266   7 
   9  -3  -3 45.7140 9.20071   3 
   9  -3  -3 50.5292 8.33431   1 
  -9   3   3 58.5081 8.96618   7 
  -9   3   3 65.5619 9.03826   1 
  -9   3   3 51.6679 8.51454   1 
   8  -3  -3 47.2091 8.14656   3 
   8  -3  -3 59.2869 7.73345   1 
  -8   3   3 54.4240 7.70808   3 
  -8   3   3 55.4592 7.82297   1 
  -8   3   3 49.2286 6.80792  12 
  -8   3   3 47.6016 7.03762   7 
  -8   3   3 54.3172 7.66599   1 
   7  -3  -3 62.1191 6.82006   1 
   7  -3  -3 64.1403 8.00410   3 
  -7   3   3 57.7879 6.99924   1 
  -7   3   3 59.1065 7.67831   2 
  -7   3   3 61.4771 6.94585  12 
  -7   3   3 66.7182 7.44775   3 
  -7   3   3 57.1647 6.63665   7 
   6  -3  -3 15.2416 4.12235   3 
   6  -3  -3 16.1453 3.76882   1 
   6  -3  -3 15.2837 3.23094   5 
  -6   3   3 9.47795 3.45667   2 
  -6   3   3 7.98495 2.97436   7 
  -6   3   3 6.84840 2.84011   1 
  -6   3   3 8.99133 3.07905   3 
  -6   3   3 5.07257 1.68809  10 
  -6   3   3 11.0955 3.49943  12 
   5  -3  -3 234.436 12.6244   3 
   5  -3  -3 241.665 11.8866   5 
   5  -3  -3 247.673 11.4867  14 
   5  -3  -3 227.030 11.4695   1 
  -5   3   3 264.167 10.7581  10 
  -5   3   3 252.222 12.3507   3 
  -5   3   3 261.600 12.3810   5 
  -5   3   3 258.110 12.0034  14 
  -5   3   3 267.892 12.9563  12 
  -5   3   3 265.257 13.4751   2 
  -5   3   3 278.279 12.5305   1 
  -5   3   3 252.867 13.4215   2 
   4  -3  -3 764.718 26.9641   2 
   4  -3  -3 744.485 25.6416   1 
   4  -3  -3 737.694 26.9747   3 
   4  -3  -3 764.083 26.0279   5 
   4  -3  -3 749.968 25.5648  14 
  -4   3   3 758.261 27.4704   2 
  -4   3   3 721.890 26.0893   1 
  -4   3   3 748.433 26.3224   3 
  -4   3   3 718.566 26.0499   7 
  -4   3   3 720.781 27.3187   2 
  -4   3   3 721.517 27.1429  12 
  -4   3   3 768.519 26.4626   5 
  -4   3   3 763.809 25.6186  10 
   3  -3  -3 1006.31 33.9404   3 
   3  -3  -3 1021.22 33.8735  10 
   3  -3  -3 994.849 34.5953   6 
   3  -3  -3 968.686 34.8887  13 
   3  -3  -3 1013.70 32.8166   5 
   3  -3  -3 1001.85 32.3940   1 
   3  -3  -3 991.524 32.2043   8 
   3  -3  -3 1040.24 32.4617   1 
   3  -3  -3 1034.33 32.5981  14 
  -3   3   3 1050.17 33.9789  10 
  -3   3   3 1017.70 33.2602   3 
  -3   3   3 1009.34 35.2009  12 
  -3   3   3 1033.43 34.3431   2 
  -3   3   3 1055.22 33.5083   1 
  -3   3   3 1026.35 34.4456   2 
  -3   3   3 1040.81 33.7646   7 
   2  -3  -3 119.992 5.34160   5 
   2  -3  -3 130.195 7.31860  10 
   2  -3  -3 126.472 6.31036   3 
   2  -3  -3 122.735 7.55613  13 
   2  -3  -3 125.531 5.03461   9 
  -2   3   3 143.356 6.79501   7 
  -2   3   3 160.109 5.97947   3 
  -2   3   3 149.572 5.84753   3 
  -2   3   3 160.053 7.68290  10 
  -2   3   3 154.721 6.22034   1 
  -2   3   3 162.039 6.98602   2 
  -2   3   3 156.209 6.98285   2 
   1  -3  -3 161.631 8.63700  13 
   1  -3  -3 155.639 8.32572   4 
   1  -3  -3 170.050 8.10625  11 
   1  -3  -3 162.601 6.81695   3 
   1  -3  -3 155.116 8.26213   6 
   1  -3  -3 160.440 8.55577  10 
  -1   3   3 178.129 6.46059   1 
  -1   3   3 181.050 7.54710   7 
  -1   3   3 176.097 7.07991   2 
  -1   3   3 178.236 7.08647   2 
  -1   3   3 179.817 6.42624   9 
  -1   3   3 193.796 6.65057   1 
   0  -3  -3 179.145 9.26144  10 
   0  -3  -3 178.922 7.29679   3 
   0  -3  -3 179.913 9.25057   4 
   0  -3  -3 183.677 9.01035   6 
   0  -3  -3 183.983 9.27609  13 
   0  -3  -3 175.869 8.36832  11 
   0   3   3 188.581 7.58115   2 
   0   3   3 186.273 7.49938   2 
   0   3   3 185.210 6.84695   1 
  -1  -3  -3 680.254 22.6320   3 
  -1  -3  -3 658.643 24.6669  10 
  -1  -3  -3 667.229 24.5045  13 
  -1  -3  -3 671.810 23.5437  11 
  -1  -3  -3 657.993 24.6789   4 
  -1  -3  -3 679.393 23.7153   3 
  -1  -3  -3 657.711 24.2804   6 
   1   3   3 654.506 22.0223   1 
   1   3   3 671.418 22.9803   2 
   1   3   3 636.117 22.7418   2 
  -2  -3  -3 327.073 13.9084  11 
  -2  -3  -3 318.119 13.3785   3 
  -2  -3  -3 332.074 14.9341   4 
  -2  -3  -3 341.583 14.8880  10 
   2   3   3 319.787 12.8721   1 
   2   3   3 333.165 13.9969   2 
   2   3   3 311.786 13.7626   2 
  -3  -3  -3 76.0280 4.73924   5 
  -3  -3  -3 76.6860 4.26795  14 
  -3  -3  -3 68.6744 7.63367   3 
  -3  -3  -3 74.9358 4.27768  14 
  -3  -3  -3 75.9402 6.12364  11 
  -3  -3  -3 86.0691 7.14892   4 
  -3  -3  -3 79.2313 6.23733   3 
  -3  -3  -3 66.6647 6.27167  10 
   3   3   3 77.5111 6.65523   2 
   3   3   3 69.6127 6.39864   2 
   3   3   3 75.5679 5.74707   1 
  -4  -3  -3 53.3003 3.21461   1 
  -4  -3  -3 58.6752 6.39255  10 
  -4  -3  -3 56.2547 5.97463  11 
  -4  -3  -3 47.3171 5.81898   3 
  -4  -3  -3 53.5708 4.28166  14 
  -4  -3  -3 55.6739 4.27978  14 
  -4  -3  -3 49.2569 4.59857   5 
  -4  -3  -3 46.9526 6.14865   4 
   4   3   3 46.4344 6.35431   2 
   4   3   3 43.0214 5.41436   1 
  -5  -3  -3 19.2702 5.11380   4 
  -5  -3  -3 25.6713 5.00512  11 
  -5  -3  -3 29.3291 3.91677  14 
  -5  -3  -3 27.2823 4.35012   5 
  -5  -3  -3 35.9794 6.20919   3 
  -5  -3  -3 24.9694 4.90588  10 
  -5  -3  -3 27.6360 3.70725  14 
   5   3   3 27.2197 6.40402   2 
   5   3   3 26.2048 5.54885   1 
  -6  -3  -3 41.9250 7.40965   3 
  -6  -3  -3 45.5242 5.82177   5 
  -6  -3  -3 47.4306 5.48133  14 
  -6  -3  -3 43.0506 5.02291  14 
  -6  -3  -3 58.2004 7.37171  11 
  -6  -3  -3 48.2579 5.89820   5 
  -6  -3  -3 47.7325 7.31361   4 
   6   3   3 55.6578 9.01243   2 
   6   3   3 72.8991 8.40713   1 
  -7  -3  -3 11.1258 4.15507   5 
  -7  -3  -3 21.1005 5.93892   4 
  -7  -3  -3 12.7615 4.19393   5 
  -7  -3  -3 18.8069 4.02218  14 
   7   3   3 18.4728 6.41951   2 
  10  -4  -3 3.34062 4.30940   1 
 -10   4   3 10.1139 5.55880   1 
 -10   4   3 -0.9832 4.99989   7 
   9  -4  -3 18.3791 5.64870   1 
   9  -4  -3 7.01334 4.78353   3 
  -9   4   3 17.8686 5.88369   1 
  -9   4   3 23.0398 6.16702  12 
  -9   4   3 24.7166 6.96565   1 
  -9   4   3 13.6172 5.74765   7 
   8  -4  -3 34.9884 6.24027   1 
   8  -4  -3 36.6990 7.51729   3 
   8  -4  -3 36.2305 6.74025   5 
  -8   4   3 44.9154 7.12002   1 
  -8   4   3 44.4284 7.61781   2 
  -8   4   3 38.8998 6.82988  12 
  -8   4   3 29.7499 6.12547   7 
   7  -4  -3 54.2360 7.53078   3 
   7  -4  -3 60.1691 6.42389   1 
  -7   4   3 49.4446 6.35368   3 
  -7   4   3 44.1265 6.09529   7 
  -7   4   3 45.6577 6.40971   1 
  -7   4   3 44.5695 6.52457  12 
  -7   4   3 43.0032 6.83844   2 
   6  -4  -3 264.088 12.7800   5 
   6  -4  -3 260.048 13.9203   3 
   6  -4  -3 253.567 12.1224  14 
   6  -4  -3 268.066 12.4521   1 
  -6   4   3 234.662 12.8065   1 
  -6   4   3 213.246 13.0331  12 
  -6   4   3 222.383 12.5137   3 
  -6   4   3 228.223 13.9203   2 
  -6   4   3 238.082 12.6302   7 
   5  -4  -3 219.173 12.1551  13 
   5  -4  -3 224.646 11.8751   2 
   5  -4  -3 223.847 10.7072   5 
   5  -4  -3 231.425 10.5252   1 
   5  -4  -3 223.662 11.9409   3 
   5  -4  -3 232.794 10.5109  14 
  -5   4   3 217.363 11.0727   7 
  -5   4   3 222.359 11.1038   3 
  -5   4   3 229.508 11.2540   1 
  -5   4   3 223.005 12.2624  12 
  -5   4   3 209.682 12.1944   2 
  -5   4   3 230.759 12.3469   2 
   4  -4  -3 579.109 20.0008   1 
   4  -4  -3 558.466 19.9939  14 
   4  -4  -3 595.225 20.6539   5 
   4  -4  -3 549.235 22.6473  13 
   4  -4  -3 597.402 19.9973   1 
   4  -4  -3 566.840 19.6299   8 
   4  -4  -3 573.498 21.9167   3 
   4  -4  -3 572.887 22.6219   6 
  -4   4   3 596.409 23.1482  12 
  -4   4   3 609.924 22.4672   2 
  -4   4   3 583.893 21.3320   7 
  -4   4   3 586.694 21.2221   1 
  -4   4   3 597.763 21.0592   3 
  -4   4   3 577.718 22.4377   2 
   3  -4  -3 345.912 12.1521   5 
   3  -4  -3 340.638 13.6519   3 
   3  -4  -3 340.292 12.2348   5 
   3  -4  -3 341.379 14.8944   6 
   3  -4  -3 343.290 14.4803  10 
   3  -4  -3 346.581 12.3431   9 
   3  -4  -3 357.830 15.4588  13 
   3  -4  -3 334.081 11.6689  14 
  -3   4   3 353.881 15.5099  12 
  -3   4   3 349.775 13.9675   2 
  -3   4   3 361.414 13.2652   1 
  -3   4   3 349.672 14.0692   2 
  -3   4   3 355.667 12.5737   3 
  -3   4   3 350.290 13.5804   7 
   2  -4  -3 129.362 4.97999   9 
   2  -4  -3 131.992 7.09552   4 
   2  -4  -3 126.071 7.24238   6 
   2  -4  -3 134.331 5.72348   3 
  -2   4   3 105.476 5.76154   7 
  -2   4   3 100.965 4.88940   1 
  -2   4   3 92.1034 5.40325   2 
  -2   4   3 96.7551 5.41998   2 
   1  -4  -3 351.887 11.5765   3 
   1  -4  -3 353.790 14.4223   6 
   1  -4  -3 349.377 14.3535   4 
   1  -4  -3 336.748 14.4325  10 
   1  -4  -3 320.242 14.3881  13 
   1  -4  -3 367.051 13.6061  11 
  -1   4   3 300.292 11.5005   2 
  -1   4   3 322.300 12.3752   7 
  -1   4   3 330.332 11.9147   9 
  -1   4   3 318.473 10.8404   1 
  -1   4   3 338.233 10.9210   1 
  -1   4   3 323.728 11.5751   2 
   0  -4  -3 683.381 25.4370   4 
   0  -4  -3 699.837 25.7393  13 
   0  -4  -3 683.244 25.4743  10 
   0  -4  -3 706.307 23.9012  11 
   0  -4  -3 673.576 22.0130   3 
   0  -4  -3 718.842 25.4498   6 
   0   4   3 665.065 22.2772   2 
   0   4   3 672.390 21.4310   1 
   0   4   3 634.902 22.0673   2 
  -1  -4  -3 566.047 22.2612   6 
  -1  -4  -3 563.101 20.5486  11 
  -1  -4  -3 558.957 19.5989   3 
  -1  -4  -3 549.140 22.2862  10 
  -1  -4  -3 542.275 22.3756   4 
  -1  -4  -3 561.836 22.4209  13 
  -1  -4  -3 553.368 19.5453   3 
   1   4   3 550.679 19.7896   2 
   1   4   3 591.795 19.1566   1 
   1   4   3 590.568 20.0989   2 
  -2  -4  -3 26.0698 3.56785  11 
  -2  -4  -3 30.1190 4.92136   4 
  -2  -4  -3 30.3939 4.69360  10 
  -2  -4  -3 26.9287 3.62215   3 
   2   4   3 40.0648 3.72001   1 
   2   4   3 37.4399 4.17295   2 
   2   4   3 42.1326 4.27248   2 
  -3  -4  -3 110.679 8.41808  10 
  -3  -4  -3 102.023 7.44522   3 
  -3  -4  -3 112.261 7.44591  11 
  -3  -4  -3 110.986 8.73147   4 
   3   4   3 95.2786 7.67433   2 
   3   4   3 111.698 8.02587   2 
   3   4   3 98.0421 6.84510   1 
  -4  -4  -3 57.3913 6.70454  10 
  -4  -4  -3 61.1993 6.14282  11 
  -4  -4  -3 55.0001 7.10508   4 
  -4  -4  -3 69.8015 6.91081   3 
   4   4   3 52.9804 6.87931   2 
   4   4   3 52.8318 5.93308   1 
  -5  -4  -3 41.1130 6.01863  11 
  -5  -4  -3 57.5426 7.04284  10 
  -5  -4  -3 61.0198 8.06512   4 
  -5  -4  -3 50.6690 6.99364   3 
   5   4   3 54.2913 8.11314   2 
  -6  -4  -3 11.7672 5.08985   4 
   6   4   3 16.1977 5.89589   2 
  -7  -4  -3 16.2996 6.18347   4 
   7   4   3 11.6797 6.11523   2 
  10  -5  -3 1.08740 4.34983   1 
 -10   5   3 7.45056 5.91922   7 
 -10   5   3 5.64179 4.52405   1 
   9  -5  -3 17.4522 5.17792   1 
   9  -5  -3 19.3601 6.28619   3 
  -9   5   3 10.2703 4.93410   7 
  -9   5   3 24.5799 6.86590  12 
  -9   5   3 31.5122 7.42540   1 
  -9   5   3 27.0841 6.72407   1 
   8  -5  -3 29.4598 7.02632   3 
   8  -5  -3 31.7796 6.53140   5 
   8  -5  -3 20.6575 5.04469   1 
  -8   5   3 26.4978 6.59030  12 
  -8   5   3 23.7136 6.06593   2 
  -8   5   3 25.0934 5.77661   7 
  -8   5   3 27.2828 6.24534   1 
   7  -5  -3 100.602 9.46800   3 
   7  -5  -3 101.326 8.59042   5 
   7  -5  -3 98.8678 7.81228   1 
   7  -5  -3 106.459 9.50647  13 
  -7   5   3 102.802 9.54694  12 
  -7   5   3 90.2971 8.28947   7 
  -7   5   3 88.7138 9.45339   2 
  -7   5   3 92.7633 8.55523   1 
   6  -5  -3 96.8334 6.68934  14 
   6  -5  -3 90.1243 8.36570   6 
   6  -5  -3 102.774 8.64266   3 
   6  -5  -3 96.7627 7.46283   5 
   6  -5  -3 91.9305 6.84442   5 
   6  -5  -3 98.2888 6.84244   1 
   6  -5  -3 96.1902 8.51845  13 
  -6   5   3 92.7565 8.67003   2 
  -6   5   3 103.492 8.19839   3 
  -6   5   3 99.0478 8.75235  12 
  -6   5   3 89.2337 7.58927   1 
  -6   5   3 93.8648 7.65805   7 
   5  -5  -3 433.325 17.0157   5 
   5  -5  -3 442.519 16.5662  14 
   5  -5  -3 414.605 19.3108  13 
   5  -5  -3 425.135 15.7154   8 
   5  -5  -3 430.272 17.2200   5 
   5  -5  -3 438.316 16.2665   1 
   5  -5  -3 423.894 19.2856   6 
   5  -5  -3 439.216 18.8387   3 
  -5   5   3 443.386 19.4487   2 
  -5   5   3 455.670 19.2526   2 
  -5   5   3 459.688 17.6362   3 
  -5   5   3 426.535 17.9217   7 
  -5   5   3 452.122 18.0873   1 
  -5   5   3 451.462 20.0503  12 
   4  -5  -3 195.921 8.58013   5 
   4  -5  -3 181.401 10.8288   6 
   4  -5  -3 188.062 9.92773   3 
   4  -5  -3 192.177 7.89188  14 
   4  -5  -3 204.970 11.5478  13 
   4  -5  -3 190.330 8.34304   5 
   4  -5  -3 196.270 8.87301   9 
  -4   5   3 212.052 8.88669   3 
  -4   5   3 219.571 9.91779   7 
  -4   5   3 215.173 9.71008   1 
  -4   5   3 224.498 10.6403   2 
  -4   5   3 213.771 11.8079  12 
  -4   5   3 202.313 10.4863   2 
   3  -5  -3 209.361 10.9219  10 
   3  -5  -3 220.354 11.7812  13 
   3  -5  -3 222.981 9.54052   3 
   3  -5  -3 208.997 11.1191   6 
   3  -5  -3 221.199 8.71010   9 
  -3   5   3 210.514 11.6637  12 
  -3   5   3 205.426 9.42079   2 
  -3   5   3 199.932 8.74673   1 
  -3   5   3 197.528 9.26264   7 
  -3   5   3 197.835 9.56517   2 
   2  -5  -3 411.540 17.7348  13 
   2  -5  -3 403.419 16.6313   4 
   2  -5  -3 405.232 17.1568   6 
   2  -5  -3 408.466 14.1668   3 
   2  -5  -3 420.035 17.4212  10 
  -2   5   3 396.038 13.5315   1 
  -2   5   3 414.858 14.8950   7 
  -2   5   3 393.429 14.3598   2 
  -2   5   3 390.787 14.2515   2 
  -2   5   3 387.044 17.4136  12 
   1  -5  -3 355.371 11.8811   3 
   1  -5  -3 354.565 15.6747   6 
   1  -5  -3 349.306 15.8515  10 
   1  -5  -3 354.320 15.6433   4 
  -1   5   3 342.628 12.9708   7 
   0  -5  -3 212.500 11.6962  10 
   0  -5  -3 204.347 8.06472   3 
   0  -5  -3 209.650 8.10705   3 
   0  -5  -3 214.660 11.8149  13 
   0  -5  -3 230.669 11.9616   4 
   0  -5  -3 215.628 9.76551  11 
   0  -5  -3 214.713 11.6234   6 
   0   5   3 233.260 9.31043   7 
   0   5   3 211.414 8.24773   2 
   0   5   3 220.444 7.56379   1 
   0   5   3 215.712 8.36714   2 
  -1  -5  -3 215.225 12.0434   6 
  -1  -5  -3 209.099 8.97534   3 
  -1  -5  -3 208.568 9.71590  11 
  -1  -5  -3 200.894 11.6472  10 
  -1  -5  -3 203.750 12.0602   4 
  -1  -5  -3 206.348 8.97427   3 
   1   5   3 213.035 9.37271   2 
   1   5   3 226.027 8.70933   1 
   1   5   3 213.168 9.33960   2 
  -2  -5  -3 206.346 12.8717   4 
  -2  -5  -3 217.660 10.4112  11 
  -2  -5  -3 212.561 10.1773   3 
  -2  -5  -3 218.773 12.4764  10 
   2   5   3 212.009 10.6365   2 
   2   5   3 214.023 10.8201   2 
  -3  -5  -3 199.082 10.5336   3 
  -3  -5  -3 172.439 11.4287  10 
  -3  -5  -3 175.382 9.82635  11 
  -3  -5  -3 176.006 12.3049   4 
   3   5   3 165.274 10.5408   2 
  -4  -5  -3 24.5939 5.14228   3 
  -4  -5  -3 29.6163 6.60383   4 
  -4  -5  -3 24.7233 5.33018  10 
   4   5   3 26.3612 5.96740   2 
  -5  -5  -3 22.8091 6.37798   4 
  -5  -5  -3 32.0339 6.46550   3 
   5   5   3 33.5932 7.36219   2 
  -6  -5  -3 42.4151 8.79415   4 
   6   5   3 49.3927 9.31746   2 
  10  -6  -3 2.46433 4.82320  13 
  10  -6  -3 0.77298 3.55735   1 
 -10   6   3 2.43641 5.27416  12 
 -10   6   3 4.10548 5.10861   7 
 -10   6   3 0.94747 4.12492   1 
   9  -6  -3 -1.2608 3.64059   3 
   9  -6  -3 0.25842 3.05785   1 
   9  -6  -3 1.27807 4.13128  13 
   9  -6  -3 2.17936 3.99074   6 
   9  -6  -3 5.71537 4.26234   5 
  -9   6   3 8.12338 5.02505  12 
  -9   6   3 0.95473 3.90728   1 
  -9   6   3 0.69365 3.96223   7 
  -9   6   3 -0.4210 3.60610   1 
   8  -6  -3 16.7726 4.77098   5 
   8  -6  -3 22.2216 6.00834   6 
   8  -6  -3 19.6676 6.02347   3 
   8  -6  -3 30.9755 7.09106  13 
   8  -6  -3 17.6500 4.52574   1 
  -8   6   3 25.4609 6.86070   2 
  -8   6   3 16.2581 4.97304   7 
  -8   6   3 20.9332 5.19964   1 
  -8   6   3 20.5457 5.98331  12 
   7  -6  -3 222.012 12.1588   5 
   7  -6  -3 228.811 11.5860   1 
   7  -6  -3 242.604 14.6955  13 
   7  -6  -3 233.695 14.5564   3 
   7  -6  -3 251.223 14.8766   6 
   7  -6  -3 232.232 12.9530   5 
  -7   6   3 214.165 13.0348   7 
  -7   6   3 225.603 13.5136   1 
  -7   6   3 187.393 14.2629  12 
  -7   6   3 238.622 15.3686   2 
   6  -6  -3 121.130 9.39618   3 
   6  -6  -3 115.833 5.96676   8 
   6  -6  -3 118.679 9.58375   6 
   6  -6  -3 127.232 9.79600  13 
   6  -6  -3 120.373 7.55875   5 
   6  -6  -3 128.969 6.96746   1 
   6  -6  -3 125.195 7.20466  14 
   6  -6  -3 127.874 8.16794   5 
  -6   6   3 111.818 9.93549  12 
  -6   6   3 106.146 8.32510   1 
  -6   6   3 120.838 8.60373   7 
  -6   6   3 122.374 9.91000   2 
   5  -6  -3 47.0425 3.64770  14 
   5  -6  -3 38.1400 5.97302  13 
   5  -6  -3 48.8451 4.06995   5 
   5  -6  -3 47.4236 5.50928   3 
   5  -6  -3 46.7362 4.51481   9 
   5  -6  -3 47.7507 6.12673   6 
   5  -6  -3 47.6851 4.27055   5 
  -5   6   3 68.3524 6.26072   2 
  -5   6   3 65.9960 5.67455   7 
  -5   6   3 70.5389 7.37077  12 
  -5   6   3 69.3291 6.65121   2 
  -5   6   3 70.3779 5.78741   1 
   4  -6  -3 14.4938 3.98524   6 
   4  -6  -3 11.8595 2.37334   9 
   4  -6  -3 22.7320 4.89084  13 
  -4   6   3 22.9027 5.04327  12 
  -4   6   3 20.0253 3.59248   2 
  -4   6   3 24.5218 3.21634   1 
  -4   6   3 20.1490 3.46674   2 
  -4   6   3 26.5407 3.59705   7 
  -4   6   3 21.3479 2.09141   3 
   3  -6  -3 194.041 10.9124  10 
   3  -6  -3 193.404 8.36376   9 
   3  -6  -3 200.529 11.6839  13 
   3  -6  -3 188.186 8.56909   3 
   3  -6  -3 182.633 9.81920   4 
   3  -6  -3 206.381 11.2355   6 
  -3   6   3 175.554 8.52870   2 
  -3   6   3 173.896 11.0687  12 
  -3   6   3 178.833 8.50570   7 
  -3   6   3 163.462 8.49822   2 
  -3   6   3 174.602 7.87568   1 
   2  -6  -3 493.727 20.7979  10 
   2  -6  -3 482.834 19.9409   4 
   2  -6  -3 486.923 21.1458  13 
   2  -6  -3 517.913 20.9461   6 
   2  -6  -3 500.819 16.6601   3 
  -2   6   3 458.209 20.8515  12 
  -2   6   3 486.906 16.7747   2 
  -2   6   3 500.340 17.4855   7 
  -2   6   3 476.255 16.8505   2 
  -2   6   3 487.735 15.9895   1 
   1  -6  -3 358.357 16.4847   6 
   1  -6  -3 329.817 16.0246   4 
   1  -6  -3 339.349 16.5626  10 
   1  -6  -3 346.429 16.9318  13 
  -1   6   3 361.879 16.6285  12 
  -1   6   3 361.342 13.0846   7 
   0  -6  -3 16.0091 1.86541   3 
   0  -6  -3 9.98288 3.88708  13 
   0  -6  -3 15.7107 4.10306   6 
   0  -6  -3 16.2005 3.97787  10 
   0  -6  -3 16.2898 2.59836  11 
   0  -6  -3 20.6880 4.61656   4 
   0   6   3 29.0186 2.92122   7 
  -1  -6  -3 89.1506 5.34446   3 
  -1  -6  -3 83.0996 8.39187   4 
  -1  -6  -3 100.559 8.44602   6 
  -1  -6  -3 87.6316 5.82110  11 
  -1  -6  -3 88.0399 8.17551  10 
   1   6   3 96.9598 5.72609   2 
   1   6   3 107.674 5.94450   2 
  -2  -6  -3 74.8190 7.94456  10 
  -2  -6  -3 84.7542 8.84183   4 
  -2  -6  -3 87.0415 6.12012   3 
   2   6   3 85.6431 6.52332   2 
   2   6   3 97.6954 6.76976   2 
  -3  -6  -3 108.549 7.82647   3 
  -3  -6  -3 117.533 10.0319  10 
  -3  -6  -3 97.2705 10.1421   4 
   3   6   3 93.2035 8.12205   2 
  -4  -6  -3 10.9026 4.40370  10 
  -4  -6  -3 11.4380 4.96854   4 
  -4  -6  -3 15.0748 4.25279   3 
   4   6   3 13.1082 4.61325   2 
  -5  -6  -3 18.8012 6.81956   4 
   5   6   3 18.9132 5.94461   2 
  10  -7  -3 6.08416 4.52359   5 
  10  -7  -3 4.85831 5.26737   6 
  10  -7  -3 4.95676 4.08431   1 
 -10   7   3 11.2461 5.70219   1 
 -10   7   3 9.06120 5.55194   7 
   9  -7  -3 8.89356 4.68565   5 
   9  -7  -3 13.3565 5.65848   6 
   9  -7  -3 13.0759 5.70067  13 
   9  -7  -3 13.6469 4.27543   1 
  -9   7   3 15.8652 6.10852   1 
  -9   7   3 10.0497 5.66765   2 
  -9   7   3 16.3918 5.98792  12 
  -9   7   3 15.5630 5.91350   1 
  -9   7   3 16.2715 5.78145   7 
   8  -7  -3 43.7813 8.49236   6 
   8  -7  -3 48.5266 7.01826   5 
   8  -7  -3 42.3081 7.57949  13 
   8  -7  -3 57.0071 8.72634   3 
   8  -7  -3 54.9226 5.30427   8 
   8  -7  -3 55.9432 5.92857   1 
  -8   7   3 46.4504 8.73982  12 
  -8   7   3 45.6058 7.34131   7 
  -8   7   3 59.6593 8.03957   1 
  -8   7   3 58.0219 8.14802   1 
  -8   7   3 52.7954 9.35906   2 
   7  -7  -3 179.101 9.69038  14 
   7  -7  -3 193.457 9.27601   1 
   7  -7  -3 183.857 10.4117   5 
   7  -7  -3 199.344 11.1788   5 
   7  -7  -3 202.307 13.5345   6 
   7  -7  -3 190.412 13.1299   3 
   7  -7  -3 178.589 13.1989  13 
  -7   7   3 184.127 13.7015   2 
  -7   7   3 182.593 11.9004   7 
  -7   7   3 181.097 14.1059  12 
  -7   7   3 179.756 12.1760   1 
   6  -7  -3 113.750 9.18108   3 
   6  -7  -3 110.896 6.15958  14 
   6  -7  -3 124.955 10.3803  13 
   6  -7  -3 116.177 7.20188   5 
   6  -7  -3 123.393 8.06362   9 
   6  -7  -3 97.4871 9.37065   6 
   6  -7  -3 118.202 6.86211   5 
  -6   7   3 107.465 10.3236  12 
  -6   7   3 131.375 8.81398   7 
  -6   7   3 140.221 10.4837   2 
  -6   7   3 135.595 9.17054   1 
   5  -7  -3 65.2051 7.44606  13 
   5  -7  -3 67.7541 5.40425   9 
   5  -7  -3 67.8731 7.40001   6 
   5  -7  -3 69.3005 6.46125   3 
  -5   7   3 56.4048 5.50973   7 
  -5   7   3 52.6376 5.33515   1 
  -5   7   3 49.5563 6.07501   2 
  -5   7   3 49.0473 7.08559  12 
   4  -7  -3 176.271 8.57098   9 
   4  -7  -3 173.077 8.95059   3 
   4  -7  -3 167.481 10.8237   6 
   4  -7  -3 165.980 11.4457  13 
  -4   7   3 150.224 8.32126   7 
  -4   7   3 146.307 8.83383   2 
  -4   7   3 154.520 11.2971  12 
  -4   7   3 152.942 8.78551   2 
  -4   7   3 140.974 7.87608   1 
   3  -7  -3 417.715 19.8568  13 
   3  -7  -3 426.481 16.1178   9 
   3  -7  -3 417.698 18.1178   4 
   3  -7  -3 445.045 19.6685   6 
   3  -7  -3 427.307 15.6452   3 
  -3   7   3 416.010 15.6523   7 
  -3   7   3 395.464 15.7716   2 
  -3   7   3 390.225 19.4310  12 
  -3   7   3 407.860 15.7287   2 
   2  -7  -3 366.958 18.1013  13 
   2  -7  -3 332.459 17.1442  10 
   2  -7  -3 346.256 12.3478   3 
   2  -7  -3 350.458 16.7117   4 
   2  -7  -3 344.196 17.1684   6 
  -2   7   3 369.306 13.3404   7 
  -2   7   3 360.212 17.6937  12 
   1  -7  -3 66.4716 6.83103   4 
   1  -7  -3 68.2805 7.24387  10 
   1  -7  -3 57.2611 6.78743   6 
   1  -7  -3 53.0364 6.87219  13 
  -1   7   3 54.4337 6.67950  12 
  -1   7   3 53.4814 3.99403   7 
   0  -7  -3 42.8315 6.40359  10 
   0  -7  -3 47.1539 6.53893   4 
   0  -7  -3 52.5838 6.85427  13 
   0  -7  -3 41.1962 6.12435   6 
   0   7   3 32.7452 5.13591  12 
  -1  -7  -3 110.553 9.50542  10 
  -1  -7  -3 95.7899 5.41132   3 
  -1  -7  -3 93.4036 9.17168   4 
   1   7   3 93.5186 5.77220   2 
   1   7   3 86.7886 5.60928   2 
  -2  -7  -3 134.982 11.5434   4 
  -2  -7  -3 108.557 10.0522  10 
  -2  -7  -3 126.933 7.60544   3 
   2   7   3 115.766 7.88832   2 
   2   7   3 121.875 8.00888   2 
  -3  -7  -3 37.2644 7.68754   4 
  -3  -7  -3 39.3739 5.38147   3 
  -3  -7  -3 22.7482 5.94626  10 
   3   7   3 24.9841 5.24044   2 
  -4  -7  -3 6.98511 4.30591  10 
  -4  -7  -3 11.5374 5.63719   4 
   4   7   3 2.91408 3.55166   2 
  -5  -7  -3 19.2805 7.39277   4 
   5   7   3 17.1720 6.06875   2 
   9  -8  -3 4.95380 3.78449   5 
   9  -8  -3 3.73956 4.72683   6 
   9  -8  -3 7.82848 5.44621  13 
  -9   8   3 9.62169 5.03644   1 
  -9   8   3 4.19161 4.48778   7 
  -9   8   3 13.2259 6.18245   2 
  -9   8   3 2.39555 4.19577   1 
   8  -8  -3 58.1712 6.06839   5 
   8  -8  -3 69.3113 9.68954   6 
   8  -8  -3 58.5608 11.2553   3 
   8  -8  -3 52.7575 8.51501  13 
   8  -8  -3 49.3275 6.53723   5 
  -8   8   3 50.4217 7.67036   1 
  -8   8   3 60.2770 8.08169   7 
  -8   8   3 60.5439 9.94152   2 
  -8   8   3 53.5856 7.86889   1 
  -8   8   3 48.0116 9.13296  12 
   7  -8  -3 105.867 10.1356   3 
   7  -8  -3 104.085 6.09819  14 
   7  -8  -3 111.213 7.42714   5 
   7  -8  -3 115.932 11.0807  13 
   7  -8  -3 107.283 7.03086   5 
   7  -8  -3 122.306 11.1799   6 
  -7   8   3 115.884 11.9268  12 
  -7   8   3 112.617 9.83346   1 
  -7   8   3 127.348 9.58757   7 
  -7   8   3 109.156 11.0670   2 
   6  -8  -3 27.4307 6.37082  13 
   6  -8  -3 34.6639 6.57691   6 
   6  -8  -3 27.5706 5.68504   3 
  -6   8   3 26.9271 6.60542  12 
  -6   8   3 45.2754 6.73233   2 
  -6   8   3 44.7834 5.70443   7 
   5  -8  -3 31.0622 5.93165   6 
   5  -8  -3 30.5145 4.93040   3 
   5  -8  -3 20.9940 5.84810  13 
  -5   8   3 28.2084 5.04731   2 
  -5   8   3 22.0188 5.82743  12 
  -5   8   3 21.8457 4.17333   7 
   4  -8  -3 79.6367 6.98465   4 
   4  -8  -3 94.8467 6.37124   9 
   4  -8  -3 83.5589 8.54618   6 
   4  -8  -3 84.2310 8.78024  13 
   4  -8  -3 77.6788 6.12214   3 
  -4   8   3 80.6752 6.51467   2 
  -4   8   3 94.6503 9.24170  12 
  -4   8   3 84.4578 5.91926   7 
  -4   8   3 83.2429 6.32449   2 
   3  -8  -3 425.850 15.5346   3 
   3  -8  -3 414.911 20.2592   6 
   3  -8  -3 419.834 18.9777   4 
   3  -8  -3 407.608 20.5020  13 
  -3   8   3 398.500 15.5429   2 
  -3   8   3 413.842 15.9731   2 
  -3   8   3 412.443 20.4727  12 
   2  -8  -3 209.109 12.8185   4 
   2  -8  -3 192.968 13.5463  13 
   2  -8  -3 217.013 13.5649   6 
   2  -8  -3 216.805 13.6783  10 
  -2   8   3 221.558 13.6081  12 
   1  -8  -3 88.1665 9.29043  13 
   1  -8  -3 109.813 9.57752   6 
   1  -8  -3 101.018 9.58418  10 
   1  -8  -3 101.348 9.08364   4 
  -1   8   3 88.5642 8.70889  12 
   0  -8  -3 64.0415 8.12528  10 
   0  -8  -3 58.9641 7.80764   4 
   0  -8  -3 65.4959 8.23145   6 
   0   8   3 58.6959 6.99871  12 
  -1  -8  -3 98.9174 10.4144   4 
  -1  -8  -3 114.772 10.4904  10 
  -1  -8  -3 109.296 5.82413   3 
   1   8   3 111.662 6.47097   2 
   1   8   3 118.065 9.57860  12 
   1   8   3 113.745 6.57060   2 
  -2  -8  -3 72.2699 9.75347   4 
  -2  -8  -3 69.1390 5.69416   3 
  -2  -8  -3 58.8782 8.34184  10 
   2   8   3 69.5483 6.18802   2 
  -3  -8  -3 43.9628 8.73395   4 
  -3  -8  -3 31.3562 6.93420  10 
  -3  -8  -3 47.7099 5.90079   3 
   3   8   3 30.9734 5.70316   2 
  -4  -8  -3 26.6018 8.01009   4 
   4   8   3 33.8917 7.01486   2 
   9  -9  -3 10.5780 3.66537   5 
   9  -9  -3 16.1013 6.62260   6 
   9  -9  -3 13.1396 4.30705   5 
  -9   9   3 10.0632 5.03516   7 
  -9   9   3 10.5847 6.24194   2 
   8  -9  -3 10.8836 3.01190   5 
   8  -9  -3 7.78103 2.00612  14 
   8  -9  -3 8.89009 5.44558   6 
   8  -9  -3 13.1349 3.31366   5 
   8  -9  -3 -0.9739 3.75250  13 
  -8   9   3 19.3699 6.46225   2 
  -8   9   3 20.4139 5.55438   7 
  -8   9   3 15.0283 6.63920  12 
   7  -9  -3 20.1282 5.74608   6 
   7  -9  -3 16.3708 6.11421  13 
   7  -9  -3 12.2171 4.72941   3 
  -7   9   3 16.8883 4.64702   7 
  -7   9   3 18.5649 6.02502   2 
  -7   9   3 17.8204 6.55532  12 
   6  -9  -3 105.222 8.84476   3 
   6  -9  -3 97.0046 10.1842   6 
   6  -9  -3 102.656 10.6809  13 
  -6   9   3 101.498 9.71943   2 
  -6   9   3 89.7593 10.6038  12 
   5  -9  -3 66.5313 8.89377  13 
   5  -9  -3 59.3134 6.13199   3 
   5  -9  -3 62.5998 8.44554   6 
  -5   9   3 63.0466 9.12764  12 
  -5   9   3 50.4760 6.39736   2 
   4  -9  -3 48.3176 6.08691   4 
   4  -9  -3 50.5590 4.89615   3 
   4  -9  -3 50.4922 7.66651   6 
   4  -9  -3 45.0694 7.72328  13 
  -4   9   3 63.8927 8.35454  12 
  -4   9   3 42.5468 4.76527   2 
  -4   9   3 52.7690 5.43610   2 
   3  -9  -3 54.9953 4.11615   3 
   3  -9  -3 70.2150 8.93528  13 
   3  -9  -3 43.3234 6.69458   4 
   3  -9  -3 53.8388 7.79618   6 
  -3   9   3 65.3405 8.32438  12 
  -3   9   3 58.1325 4.62210   2 
  -3   9   3 59.3265 4.58233   2 
   2  -9  -3 22.9225 5.62644   4 
   2  -9  -3 17.4137 5.61914  13 
   2  -9  -3 27.6041 6.26784   6 
  -2   9   3 25.9908 6.06010  12 
   1  -9  -3 25.0885 6.13407  10 
   1  -9  -3 31.6589 6.69720   6 
   1  -9  -3 25.6327 6.87372  13 
   1  -9  -3 25.0748 6.25624   4 
  -1   9   3 17.3791 5.06874  12 
   0  -9  -3 97.5071 10.1793   4 
   0  -9  -3 86.7316 9.68769  10 
   0  -9  -3 70.1086 9.45973   6 
   0   9   3 73.1181 8.32235  12 
  -1  -9  -3 72.5102 9.95998   4 
  -1  -9  -3 84.1218 9.80545  10 
   1   9   3 70.5778 5.27752   2 
  -2  -9  -3 -0.8125 3.95316   4 
  -2  -9  -3 11.1391 5.29402  10 
   2   9   3 8.40866 2.97744   2 
  -3  -9  -3 32.3110 8.30739   4 
   3   9   3 36.2143 6.11740   2 
   8 -10  -3 16.9519 6.52221   6 
  -8  10   3 18.9833 6.48587   2 
   7 -10  -3 56.8899 9.68300  13 
   7 -10  -3 43.6657 8.66980   6 
  -7  10   3 42.3025 14.1248  12 
  -7  10   3 34.4984 7.65357   2 
   6 -10  -3 65.5838 7.38049   3 
   6 -10  -3 51.0538 8.94703   6 
   6 -10  -3 58.6928 9.30828  13 
  -6  10   3 57.9447 7.90312   2 
  -6  10   3 51.6129 9.62271  12 
   5 -10  -3 54.0520 6.10355   3 
   5 -10  -3 53.2261 8.64786   6 
   5 -10  -3 43.1639 8.28058  13 
  -5  10   3 54.6824 6.65773   2 
  -5  10   3 60.2870 9.28091  12 
   4 -10  -3 40.9896 8.49437  13 
   4 -10  -3 42.3721 4.70913   3 
   4 -10  -3 55.3071 8.88529   6 
   4 -10  -3 40.5883 6.32482   4 
  -4  10   3 44.2380 5.13737   2 
  -4  10   3 44.3500 5.22422   2 
  -4  10   3 43.9674 8.02009  12 
   3 -10  -3 85.2381 9.14619   4 
   3 -10  -3 79.5002 10.3894  13 
   3 -10  -3 93.6965 10.4579   6 
  -3  10   3 90.3797 10.0531  12 
  -3  10   3 82.7005 5.42297   2 
   2 -10  -3 81.5672 9.38727   4 
   2 -10  -3 77.8379 10.2040  13 
   2 -10  -3 61.9795 9.06584   6 
  -2  10   3 77.0467 9.30442  12 
   1 -10  -3 63.3834 9.54934   6 
   1 -10  -3 64.5746 9.43878   4 
  -1  10   3 55.1225 8.13373  12 
   0 -10  -3 75.3094 10.7840   4 
  -1 -10  -3 21.7223 7.25185   4 
  -2 -10  -3 2.24066 5.43578   4 
   2  10   3 6.75546 2.69453   2 
   7 -11  -3 44.0962 9.74142   6 
  -7  11   3 41.4682 8.65208   2 
   6 -11  -3 60.5405 12.5270  13 
   6 -11  -3 71.7675 10.5778   6 
  -6  11   3 60.4384 8.23872   2 
   5 -11  -3 29.3465 5.08440   3 
   5 -11  -3 24.8774 7.38772   6 
   5 -11  -3 28.4154 8.01274  13 
  -5  11   3 21.3636 6.94617  12 
  -5  11   3 20.1716 4.88393   2 
   4 -11  -3 51.0808 9.85365   6 
   4 -11  -3 58.1885 5.44743   3 
   4 -11  -3 57.0824 7.69385   4 
   4 -11  -3 68.9089 10.5345  13 
  -4  11   3 39.5969 5.35936   2 
  -4  11   3 32.6088 8.43564  12 
   3 -11  -3 41.2740 7.95226   4 
   3 -11  -3 54.3539 9.98255  13 
   3 -11  -3 40.1208 9.01919   6 
  -3  11   3 37.3821 8.22738  12 
   2 -11  -3 13.0730 5.84006   4 
   2 -11  -3 24.4808 7.19666   6 
  -2  11   3 24.2450 6.61062  12 
   1 -11  -3 51.6179 9.79753   4 
   1 -11  -3 49.2002 9.35096   6 
   0 -11  -3 87.4550 11.9789   4 
   6 -12  -3 52.2909 10.6302   6 
  -6  12   3 64.6647 8.48524   2 
   5 -12  -3 29.0101 8.28522   6 
  -5  12   3 40.8931 6.24050   2 
   4 -12  -3 84.3239 11.8804   6 
  -4  12   3 72.0497 6.09013   2 
   3 -12  -3 43.5729 9.01565   4 
   3 -12  -3 43.7518 10.2080   6 
   2 -12  -3 52.1175 10.5572   6 
   2 -12  -3 49.0768 9.78103   4 
   0  13  -4 31.5031 7.31718   2 
   0 -13   4 22.2482 7.54955   4 
  -1  13  -4 5.74405 4.00982   2 
   1 -13   4 -0.0255 4.70264   4 
  -2  13  -4 12.4989 5.08163   2 
   2 -13   4 17.5486 5.84445   4 
   2 -13   4 11.8297 6.31411   9 
  -3  13  -4 52.5230 9.13461   2 
   3 -13   4 51.3059 9.73955   9 
  -4  13  -4 31.4252 7.76149   2 
   4 -13   4 49.5978 9.02184   9 
  -5  13  -4 3.95234 5.13321   2 
   5 -13   4 13.2887 6.62020   9 
   2  12  -4 72.8576 9.26058   2 
  -2 -12   4 91.9858 12.3534   4 
   1  12  -4 33.2870 7.30735   2 
  -1 -12   4 27.6444 7.80233   4 
   0  12  -4 34.7362 7.00388   2 
   0 -12   4 17.7192 6.69940   4 
  -1  12  -4 66.0406 8.46497   2 
   1 -12   4 47.4644 8.73895   4 
  -2  12  -4 108.028 10.7031   2 
   2 -12   4 124.809 12.0804   9 
   2 -12   4 122.733 10.8832   6 
   2 -12   4 107.850 10.6383   4 
  -3  12  -4 171.512 13.4013   2 
   3 -12   4 163.835 12.1242   6 
   3 -12   4 160.468 13.7996   9 
  -4  12  -4 79.7278 10.4146   2 
   4 -12   4 75.8561 10.4080   9 
  -5  12  -4 11.1449 5.63568   2 
   5 -12   4 1.60579 4.86458   9 
  -6  12  -4 15.7999 6.48808   2 
   6 -12   4 11.0796 5.77344   9 
   3  11  -4 11.9675 5.39492   2 
  -3 -11   4 13.6920 6.64186   4 
   2  11  -4 94.0218 9.95293   2 
  -2 -11   4 99.9809 11.7983   4 
   1  11  -4 60.6303 8.08169   2 
  -1 -11   4 62.0607 9.84653   4 
   0  11  -4 57.1144 7.49440   2 
   0 -11   4 64.7306 9.06357   4 
  -1  11  -4 46.2646 7.17465   2 
   1 -11   4 50.1321 7.94423   9 
   1 -11   4 48.6695 7.85068   4 
  -2  11  -4 88.7601 9.31648   2 
   2 -11   4 105.290 10.5089   9 
   2 -11   4 111.770 9.79827   4 
   2 -11   4 87.3083 8.48959   6 
  -3  11  -4 45.9620 7.93174   2 
   3 -11   4 54.3970 6.94703   6 
   3 -11   4 64.3689 6.99187   4 
   3 -11   4 63.9555 8.64408   9 
  -4  11  -4 80.6619 10.1969   2 
   4 -11   4 101.559 10.9674   9 
   4 -11   4 86.3661 8.28235   6 
  -5  11  -4 37.1148 8.14947   2 
   5 -11   4 28.2051 3.92588  14 
   5 -11   4 19.4207 3.47559  14 
   5 -11   4 22.2109 6.90004   9 
   5 -11   4 18.1027 3.82249   5 
   5 -11   4 26.3997 4.32705   5 
  -6  11  -4 60.8637 10.5006   2 
  -6  11  -4 50.0522 8.52571  11 
   6 -11   4 54.8255 9.41257   9 
   6 -11   4 35.0381 5.93588   5 
   6 -11   4 45.1776 5.90714  14 
   6 -11   4 40.7589 5.83307   5 
  -7  11  -4 44.9375 10.1752   2 
  -7  11  -4 49.2195 9.32162   1 
  -7  11  -4 58.0547 9.77901  11 
   7 -11   4 48.4560 9.69597   9 
   7 -11   4 46.4635 6.82655  14 
   7 -11   4 39.1661 6.93167   5 
   4  10  -4 21.3708 6.76329   2 
  -4 -10   4 14.5311 6.43062   4 
   3  10  -4 56.4133 8.42981   2 
  -3 -10   4 63.0490 10.3155   4 
   2  10  -4 29.1368 6.45894   2 
  -2 -10   4 9.61688 5.15313   4 
   1  10  -4 28.9773 5.89054   2 
  -1 -10   4 16.1610 5.31382   4 
   0  10  -4 142.341 10.4962   2 
   0 -10   4 138.730 11.3838   4 
  -1  10  -4 206.504 12.8255   2 
   1 -10   4 209.788 14.2200   9 
   1 -10   4 215.472 13.3892   4 
  -2  10  -4 70.6527 7.98693   2 
   2 -10   4 78.5455 8.84550   9 
   2 -10   4 82.4263 7.77318   4 
   2 -10   4 82.8860 7.39218   6 
  -3  10  -4 68.6811 8.52868   2 
  -3  10  -4 69.5740 7.31903   1 
   3 -10   4 77.4500 9.21174   9 
   3 -10   4 72.7500 7.07948   6 
   3 -10   4 69.4112 6.69494   4 
  -4  10  -4 91.6090 9.86003   2 
  -4  10  -4 91.0390 8.71091   1 
  -4  10  -4 96.3249 8.19522  11 
   4 -10   4 91.6123 9.06110   3 
   4 -10   4 89.8648 6.57477   5 
   4 -10   4 107.663 8.44396   6 
   4 -10   4 83.5442 5.72669  14 
   4 -10   4 94.6703 5.93393  14 
   4 -10   4 92.7687 6.67514   5 
   4 -10   4 97.5914 10.0665   9 
  -5  10  -4 49.4363 7.26006   1 
  -5  10  -4 68.1837 7.89646  11 
  -5  10  -4 51.7083 8.75168   2 
   5 -10   4 46.4403 5.57307   5 
   5 -10   4 51.5378 7.20865   6 
   5 -10   4 42.3378 5.12106  14 
   5 -10   4 39.9790 5.60073   5 
   5 -10   4 47.6633 8.15903   9 
   5 -10   4 49.1638 5.05524  14 
   5 -10   4 48.4080 7.75462   3 
  -6  10  -4 72.5609 9.15072   1 
  -6  10  -4 59.3496 8.68325  11 
  -6  10  -4 58.2829 10.0872   2 
   6 -10   4 58.1902 7.13838   5 
   6 -10   4 74.6025 7.30166  14 
   6 -10   4 61.5944 9.74209   3 
   6 -10   4 84.6587 10.3286   9 
  -7  10  -4 55.5051 9.75864   1 
  -7  10  -4 48.7608 10.1669   2 
  -7  10  -4 60.5245 9.87026  11 
   7 -10   4 57.7167 9.31653   9 
   7 -10   4 59.8396 8.12925   5 
  -8  10  -4 19.9976 6.80230   1 
  -8  10  -4 10.2100 6.58085  11 
   8 -10   4 18.7816 5.81642   5 
   8 -10   4 21.6757 7.79673   9 
   5   9  -4 1.89341 4.16311   2 
  -5  -9   4 5.10444 5.17895   4 
   4   9  -4 33.9690 7.37694   2 
  -4  -9   4 30.9976 8.07717   4 
   3   9  -4 31.4536 6.75528   2 
  -3  -9   4 25.4199 6.63523   4 
   2   9  -4 33.1494 6.40106   2 
  -2  -9   4 33.3483 6.96901   4 
   1   9  -4 77.9977 7.70237   2 
  -1  -9   4 68.0538 8.25965   4 
   0   9  -4 348.659 16.0366   1 
   0   9  -4 316.266 16.0654   2 
   0  -9   4 316.509 17.4532   9 
   0  -9   4 336.467 17.2903   4 
  -1   9  -4 71.1684 6.63803   1 
  -1   9  -4 83.0345 7.81788   2 
   1  -9   4 91.6600 7.38845   6 
   1  -9   4 89.9028 8.58991   9 
   1  -9   4 97.5027 8.29198   4 
  -2   9  -4 2.48024 2.90256   2 
  -2   9  -4 4.05176 2.76610   1 
  -2   9  -4 4.75025 2.37117  11 
   2  -9   4 5.64190 3.57097   9 
   2  -9   4 2.50664 1.69402   5 
   2  -9   4 1.88899 1.35632  14 
   2  -9   4 2.84791 2.47646   4 
   2  -9   4 2.00499 1.73205   5 
   2  -9   4 3.50840 1.39360  14 
   2  -9   4 1.42376 1.98842   6 
  -3   9  -4 38.5284 6.78223   2 
  -3   9  -4 36.1762 4.99323  11 
  -3   9  -4 38.0552 5.65867   1 
   3  -9   4 44.3223 4.58707   5 
   3  -9   4 51.1438 3.58744   1 
   3  -9   4 53.3287 4.33027  14 
   3  -9   4 46.4522 6.85780   9 
   3  -9   4 46.6853 5.26626   4 
   3  -9   4 45.6991 4.10604  14 
   3  -9   4 52.7853 5.55851   6 
   3  -9   4 51.1240 4.85410   5 
  -4   9  -4 238.671 15.4513   2 
  -4   9  -4 256.855 14.0635   1 
  -4   9  -4 253.285 13.7139  11 
   4  -9   4 260.113 15.6085   9 
   4  -9   4 227.276 11.9519   5 
   4  -9   4 234.321 14.2367   3 
   4  -9   4 250.711 12.1840   5 
   4  -9   4 225.523 12.2412   6 
   4  -9   4 233.934 11.2519  14 
   4  -9   4 231.769 11.3314  14 
   4  -9   4 238.831 10.7723   1 
  -5   9  -4 135.629 12.0996   2 
  -5   9  -4 129.510 10.6264   1 
  -5   9  -4 108.194 9.94923  11 
   5  -9   4 127.082 8.14139   1 
   5  -9   4 131.506 11.1511   3 
   5  -9   4 125.579 8.74386   6 
   5  -9   4 118.093 8.69999   5 
   5  -9   4 132.580 9.41727   5 
   5  -9   4 115.125 11.0647   9 
  -6   9  -4 17.9513 5.86161  11 
  -6   9  -4 28.8945 6.76421   1 
  -6   9  -4 15.5506 5.49726   2 
   6  -9   4 17.7075 4.22630   1 
   6  -9   4 28.3166 5.93352   5 
   6  -9   4 16.2953 5.37768   3 
   6  -9   4 32.0746 7.60402   9 
  -7   9  -4 4.62655 4.67084   1 
  -7   9  -4 1.77238 3.86868   2 
  -7   9  -4 10.8849 5.42480  11 
   7  -9   4 16.6645 6.27714   9 
   7  -9   4 8.83373 4.78947   5 
   7  -9   4 16.9072 4.77412   1 
  -8   9  -4 4.62731 5.17351   1 
  -8   9  -4 9.60760 6.40296  11 
   8  -9   4 12.1393 6.41566   9 
   8  -9   4 9.99836 4.66876   1 
   6   8  -4 7.03305 5.25412   2 
  -6  -8   4 2.22533 5.42117   4 
   5   8  -4 85.4617 10.4979   2 
  -5  -8   4 93.9277 11.3077   4 
   4   8  -4 118.909 11.0393   2 
  -4  -8   4 124.990 11.6551   4 
   3   8  -4 89.8715 8.85466   2 
  -3  -8   4 63.4012 8.69442   4 
   2   8  -4 11.9923 4.07868   2 
   2   8  -4 11.1650 3.34932   1 
  -2  -8   4 3.10910 3.14765   4 
   1   8  -4 192.934 11.6629   2 
   1   8  -4 207.645 10.8839   1 
  -1  -8   4 211.558 13.0352   4 
   0   8  -4 505.269 21.3233   2 
   0   8  -4 502.244 20.8120   8 
   0   8  -4 503.125 21.4537   2 
   0   8  -4 534.820 20.4871   1 
   0  -8   4 505.220 21.9348   4 
   0  -8   4 510.389 16.6947  14 
   0  -8   4 484.859 16.6047  14 
   0  -8   4 521.025 22.9049   9 
   0  -8   4 510.545 17.6378   5 
  -1   8  -4 116.843 7.99990   8 
  -1   8  -4 107.692 5.73855  11 
  -1   8  -4 104.139 8.09439   2 
  -1   8  -4 96.9532 7.84961   2 
  -1   8  -4 104.944 7.17778   1 
   1  -8   4 83.3694 6.49529   6 
   1  -8   4 84.4304 4.86675  14 
   1  -8   4 81.0430 4.82643  14 
   1  -8   4 80.8867 5.22798   5 
   1  -8   4 83.1713 5.30020   5 
   1  -8   4 88.3825 7.42941   4 
   1  -8   4 76.4341 7.74477   9 
  -2   8  -4 77.1003 6.38821   1 
  -2   8  -4 82.3179 5.88097  11 
  -2   8  -4 86.4440 7.75068   2 
   2  -8   4 61.2183 3.99271   1 
   2  -8   4 60.8947 7.05817   9 
   2  -8   4 60.1187 4.94584   5 
   2  -8   4 57.6859 4.44729  14 
   2  -8   4 62.5648 5.99786   4 
   2  -8   4 60.2351 4.82309   5 
   2  -8   4 57.8213 4.44908  14 
   2  -8   4 63.7331 5.53049   6 
  -3   8  -4 202.597 12.7495   2 
  -3   8  -4 207.441 11.0911  11 
  -3   8  -4 209.265 11.6808   1 
   3  -8   4 196.367 10.1276   4 
   3  -8   4 201.481 9.71820  14 
   3  -8   4 198.600 11.9320   3 
   3  -8   4 202.453 10.2516   6 
   3  -8   4 201.066 12.6452   9 
   3  -8   4 202.901 10.2677   5 
   3  -8   4 201.917 10.3556   5 
   3  -8   4 184.600 9.60282  14 
   3  -8   4 192.748 9.34066   1 
  -4   8  -4 203.521 13.6850   2 
  -4   8  -4 199.307 12.1540   1 
  -4   8  -4 211.840 12.2902  11 
   4  -8   4 208.495 12.9008   3 
   4  -8   4 198.113 10.4343  14 
   4  -8   4 190.466 10.2167   1 
   4  -8   4 209.294 11.4241   5 
   4  -8   4 187.419 10.3194   6 
   4  -8   4 211.640 11.1531   5 
   4  -8   4 195.368 12.9846   9 
  -5   8  -4 7.66739 4.31175   2 
  -5   8  -4 7.23235 4.02369  11 
  -5   8  -4 14.3980 4.39606   1 
   5  -8   4 5.80896 2.81474   1 
   5  -8   4 11.8574 4.80336   9 
   5  -8   4 8.28137 3.46152   5 
   5  -8   4 6.81895 4.04214   3 
   5  -8   4 9.98414 2.97117   6 
  -6   8  -4 35.2567 7.22215  11 
  -6   8  -4 42.5006 7.48420   1 
  -6   8  -4 44.2135 8.04968   2 
   6  -8   4 32.9893 6.39300   5 
   6  -8   4 38.3061 6.20558   1 
   6  -8   4 43.5559 7.92925   9 
   6  -8   4 42.8202 7.38423   3 
   6  -8   4 33.0880 5.30189   6 
  -7   8  -4 31.0471 6.98995   1 
  -7   8  -4 35.8581 7.93299  11 
   7  -8   4 26.4729 5.99399   1 
   7  -8   4 29.2524 7.36230   3 
   7  -8   4 24.7914 6.25944   5 
  -8   8  -4 12.5945 6.63231  11 
  -8   8  -4 19.8813 6.88736   1 
   8  -8   4 16.8871 5.86893   1 
   7   7  -4 -0.6457 4.30306   2 
  -7  -7   4 1.69471 2.27329  14 
  -7  -7   4 1.29633 4.86309   4 
  -7  -7   4 -0.3033 2.01836  14 
  -7  -7   4 -1.5748 2.44069   5 
  -7  -7   4 -2.5790 2.49195   5 
   6   7  -4 6.97190 5.28495   2 
  -6  -7   4 11.8961 3.76435   5 
  -6  -7   4 2.14480 4.83114   4 
  -6  -7   4 6.24222 2.45428  14 
  -6  -7   4 10.9774 3.45368   5 
  -6  -7   4 6.72504 2.45737  14 
   5   7  -4 66.0191 8.08724   1 
   5   7  -4 60.9662 8.78801   2 
  -5  -7   4 60.4455 5.03504  14 
  -5  -7   4 65.8605 8.98993   4 
  -5  -7   4 62.6915 5.16675  14 
  -5  -7   4 64.4196 5.96618   5 
  -5  -7   4 70.6043 6.05313   5 
   4   7  -4 123.910 10.5490   2 
   4   7  -4 123.401 9.47412   1 
  -4  -7   4 111.178 6.30909  14 
  -4  -7   4 106.129 6.28987  14 
  -4  -7   4 112.072 7.13887   5 
  -4  -7   4 103.452 10.4119   4 
  -4  -7   4 112.210 7.08473   5 
   3   7  -4 69.2514 6.63414   1 
   3   7  -4 63.8926 7.36645   2 
  -3  -7   4 58.5823 4.87478   5 
  -3  -7   4 61.5969 4.27755  14 
  -3  -7   4 62.7295 7.55503   4 
  -3  -7   4 61.8655 4.93918   5 
  -3  -7   4 59.7195 4.31451  14 
   2   7  -4 167.746 10.6429   2 
   2   7  -4 163.713 9.52697   1 
  -2  -7   4 162.066 7.84671   5 
  -2  -7   4 175.727 11.3340   4 
  -2  -7   4 164.747 7.97002   5 
  -2  -7   4 163.502 7.35760  14 
  -2  -7   4 165.349 7.39392  14 
   1   7  -4 476.756 21.0136   2 
   1   7  -4 521.290 20.9060   8 
   1   7  -4 509.246 20.2669   1 
   1   7  -4 509.818 21.4189   2 
   1   7  -4 512.088 19.2433   3 
   1   7  -4 496.753 21.2787   2 
  -1  -7   4 540.568 22.3664   4 
  -1  -7   4 523.090 17.9606  14 
  -1  -7   4 525.973 17.9760  14 
  -1  -7   4 524.234 18.5514   5 
  -1  -7   4 538.595 17.3012   7 
  -1  -7   4 541.117 18.6960   5 
  -1  -7   4 539.112 22.7273   9 
   0   7  -4 344.341 12.7629  11 
   0   7  -4 366.359 16.2998   2 
   0   7  -4 341.295 15.3380   8 
   0   7  -4 332.799 13.9932   3 
   0   7  -4 364.505 15.2673   1 
   0   7  -4 331.570 15.8871   2 
   0  -7   4 354.562 13.1437  14 
   0  -7   4 356.749 13.7477   5 
   0  -7   4 361.593 12.3672   7 
   0  -7   4 360.435 12.4883   1 
   0  -7   4 365.511 13.8439   5 
   0  -7   4 344.188 16.1926   4 
   0  -7   4 351.505 16.7908   9 
   0  -7   4 361.207 15.4229   3 
   0  -7   4 367.220 13.2724  14 
  -1   7  -4 115.184 7.73790   8 
  -1   7  -4 108.133 6.18907  11 
  -1   7  -4 105.005 7.19684   1 
  -1   7  -4 106.013 6.58782   3 
  -1   7  -4 105.667 7.90348   2 
  -1   7  -4 99.8301 7.76798   2 
   1  -7   4 105.981 5.60886   1 
   1  -7   4 108.972 6.61957   6 
   1  -7   4 101.699 5.82671  14 
   1  -7   4 106.884 6.15899   5 
   1  -7   4 100.402 5.45245   1 
   1  -7   4 97.8521 7.91953   9 
   1  -7   4 112.680 5.93715  14 
   1  -7   4 114.339 6.41502   5 
   1  -7   4 102.811 7.43057   4 
   1  -7   4 100.174 7.05072   3 
  -2   7  -4 164.881 10.6023   2 
  -2   7  -4 178.107 10.7027   2 
  -2   7  -4 165.635 9.50093   1 
  -2   7  -4 170.967 8.97780  11 
  -2   7  -4 174.115 9.26618   3 
   2  -7   4 157.280 8.81275   4 
   2  -7   4 155.836 8.07534  14 
   2  -7   4 156.571 8.18688  14 
   2  -7   4 155.708 9.34640   3 
   2  -7   4 153.380 8.07862   6 
   2  -7   4 155.913 7.84234   1 
   2  -7   4 164.958 8.63232   5 
   2  -7   4 155.965 10.2217   9 
   2  -7   4 158.481 8.41853   5 
  -3   7  -4 625.710 26.5710   2 
  -3   7  -4 640.406 24.9021  11 
  -3   7  -4 640.500 25.0680   1 
  -3   7  -4 640.494 24.7281   3 
   3  -7   4 645.855 24.2324   5 
   3  -7   4 638.688 23.4528   1 
   3  -7   4 617.108 25.4725   3 
   3  -7   4 621.718 23.5103  14 
   3  -7   4 639.967 23.1773   4 
   3  -7   4 641.099 23.0059   6 
   3  -7   4 634.974 26.3085   9 
   3  -7   4 659.125 23.7092  14 
   3  -7   4 639.002 24.1654   5 
   3  -7   4 656.341 26.7478   3 
  -4   7  -4 268.939 14.2498   3 
  -4   7  -4 307.762 16.6925   2 
  -4   7  -4 279.492 14.8708  11 
  -4   7  -4 297.978 15.0944   1 
   4  -7   4 292.041 11.8427   4 
   4  -7   4 301.166 14.2510   5 
   4  -7   4 290.184 11.9585  13 
   4  -7   4 289.052 14.2380   5 
   4  -7   4 279.303 13.6111   1 
   4  -7   4 289.078 15.5301   3 
   4  -7   4 289.811 12.7861   6 
   4  -7   4 296.622 15.9761   9 
  -5   7  -4 32.3135 6.09429  11 
  -5   7  -4 33.3170 5.96239   1 
  -5   7  -4 48.6790 7.41925   2 
   5  -7   4 41.7372 6.59144   9 
   5  -7   4 43.0495 6.13103   5 
   5  -7   4 33.4837 5.36370   1 
   5  -7   4 29.2300 6.02203   3 
   5  -7   4 41.3034 4.93867   6 
  -6   7  -4 92.5076 9.38588   1 
  -6   7  -4 84.9467 9.74936  11 
  -6   7  -4 84.6806 9.73840   2 
   6  -7   4 69.7065 6.87877   6 
   6  -7   4 78.5349 8.22090   1 
   6  -7   4 79.7490 9.41774   3 
   6  -7   4 86.7123 8.61784   5 
  -7   7  -4 82.1900 9.93845   1 
  -7   7  -4 86.3659 10.5395  11 
   7  -7   4 77.0435 9.12444   1 
   7  -7   4 77.3763 10.3025   3 
  -8   7  -4 36.8349 8.47977   1 
  -8   7  -4 34.5951 8.63517  11 
   8  -7   4 37.0333 8.59944   3 
   8  -7   4 40.7407 8.39259   1 
  -9   7  -4 6.23176 5.93595  11 
   7   6  -4 16.6289 6.94891   2 
   7   6  -4 16.3529 6.10827   1 
  -7  -6   4 8.15935 3.60061  14 
  -7  -6   4 16.0761 6.31994   4 
  -7  -6   4 14.0130 4.40489   5 
   6   6  -4 8.78271 4.80205   2 
   6   6  -4 9.36886 4.47393   1 
  -6  -6   4 15.4017 5.86757   4 
  -6  -6   4 14.8906 3.78099  14 
  -6  -6   4 19.4245 4.30867   5 
  -6  -6   4 18.5507 4.52054   5 
   5   6  -4 99.8189 9.05978   1 
   5   6  -4 98.0153 9.98844   2 
  -5  -6   4 95.7909 7.52087   5 
  -5  -6   4 95.0572 9.62052   4 
  -5  -6   4 90.4624 7.08593   7 
  -5  -6   4 91.0651 6.72949  14 
  -5  -6   4 89.1397 6.04490   1 
  -5  -6   4 87.3250 7.05888   5 
  -5  -6   4 88.8559 6.78040  14 
   4   6  -4 108.027 8.57735   1 
   4   6  -4 116.131 9.66065   2 
  -4  -6   4 116.538 7.03793   7 
  -4  -6   4 109.153 7.40419   5 
  -4  -6   4 100.982 6.64859  14 
  -4  -6   4 102.746 6.16771   1 
  -4  -6   4 112.401 7.46834   5 
  -4  -6   4 94.9377 9.17402   4 
  -4  -6   4 106.974 6.83212  14 
   3   6  -4 43.1401 5.99257   2 
   3   6  -4 41.7514 5.18968   1 
  -3  -6   4 35.4171 3.37659   1 
  -3  -6   4 37.7584 4.13702   5 
  -3  -6   4 34.5129 3.54772   7 
  -3  -6   4 38.9667 3.81394  14 
  -3  -6   4 34.7195 3.81146  14 
  -3  -6   4 35.9567 4.06791   5 
  -3  -6   4 35.7935 5.62218   4 
   2   6  -4 42.4632 4.78769   1 
   2   6  -4 46.8157 5.68978   2 
   2   6  -4 42.7755 5.24948   2 
   2   6  -4 43.2710 4.55795   3 
  -2  -6   4 56.5899 5.18918   3 
  -2  -6   4 63.2840 4.37399  14 
  -2  -6   4 57.9244 4.65856   5 
  -2  -6   4 65.2192 6.42242   4 
  -2  -6   4 57.0549 3.78056   7 
  -2  -6   4 60.8739 4.64969   5 
  -2  -6   4 64.6328 4.40870  14 
  -2  -6   4 59.7068 3.96556   1 
   1   6  -4 60.1893 5.87567   2 
   1   6  -4 54.9867 5.55685   2 
   1   6  -4 67.1980 5.37416   1 
   1   6  -4 59.8694 5.41662   8 
   1   6  -4 61.7576 5.75751   2 
   1   6  -4 60.1811 4.79382   3 
  -1  -6   4 75.1141 4.29736   1 
  -1  -6   4 69.5678 4.51249  14 
  -1  -6   4 69.3806 4.77539   5 
  -1  -6   4 75.4442 4.64976  12 
  -1  -6   4 65.0250 6.25420   9 
  -1  -6   4 68.4618 3.91348   7 
  -1  -6   4 74.9078 5.61386   3 
  -1  -6   4 60.6726 4.57085   5 
  -1  -6   4 73.8164 6.29746   4 
  -1  -6   4 65.6172 4.41937  14 
  -1  -6   4 64.2589 4.08014   1 
   0   6  -4 171.841 9.08032   8 
   0   6  -4 170.265 8.75526   1 
   0   6  -4 167.128 8.33007   3 
   0   6  -4 169.423 9.49553   2 
   0   6  -4 162.441 9.36472   2 
   0   6  -4 171.720 7.35180  11 
   0  -6   4 147.927 6.56760   7 
   0  -6   4 147.168 7.63084   5 
   0  -6   4 148.969 7.65251   5 
   0  -6   4 143.683 7.22397  14 
   0  -6   4 147.848 7.14583   1 
   0  -6   4 143.643 8.37941   3 
   0  -6   4 156.264 9.50290   9 
   0  -6   4 147.195 7.32467  14 
   0  -6   4 150.265 7.17303   1 
  -1   6  -4 253.367 12.1797   8 
  -1   6  -4 255.697 11.0243  11 
  -1   6  -4 266.315 12.9992   2 
  -1   6  -4 256.930 11.5087   3 
  -1   6  -4 244.785 11.7318   1 
  -1   6  -4 247.898 12.6895   2 
   1  -6   4 241.017 10.4281   1 
   1  -6   4 249.642 11.1326   5 
   1  -6   4 242.617 10.3929   6 
   1  -6   4 251.434 10.7493  14 
   1  -6   4 253.174 11.9581   3 
   1  -6   4 253.059 12.1690   2 
   1  -6   4 262.672 10.6838   1 
   1  -6   4 260.857 12.8761   9 
   1  -6   4 260.369 10.7835  14 
   1  -6   4 253.882 11.0870   5 
  -2   6  -4 444.646 16.6466  13 
  -2   6  -4 471.002 19.7565   2 
  -2   6  -4 449.692 19.6819   2 
  -2   6  -4 427.648 17.8136  11 
  -2   6  -4 450.930 19.1503  14 
  -2   6  -4 433.862 18.2441   1 
  -2   6  -4 462.880 18.3502   3 
   2  -6   4 443.187 16.3265   6 
   2  -6   4 446.384 18.5859   2 
   2  -6   4 465.190 17.4272  14 
   2  -6   4 449.589 17.3782   1 
   2  -6   4 456.630 18.7182   3 
   2  -6   4 467.627 17.5198  14 
   2  -6   4 447.956 17.7317   5 
   2  -6   4 449.726 17.7493   5 
   2  -6   4 446.564 19.3274   9 
   2  -6   4 463.305 17.6303   8 
  -3   6  -4 96.8912 8.45860   2 
  -3   6  -4 101.881 7.47221   1 
  -3   6  -4 100.970 7.49761   5 
  -3   6  -4 109.372 8.46521   2 
  -3   6  -4 114.092 9.37871  14 
  -3   6  -4 94.3627 7.34675   3 
  -3   6  -4 98.0354 7.58814  11 
   3  -6   4 122.340 7.55561   8 
   3  -6   4 128.168 8.90682   9 
   3  -6   4 114.939 6.15985   6 
   3  -6   4 109.257 8.27020   3 
   3  -6   4 130.553 7.96530   5 
   3  -6   4 115.162 8.04115   3 
   3  -6   4 113.083 7.39671   5 
   3  -6   4 113.010 7.21717   1 
   3  -6   4 121.625 7.30285  14 
  -4   6  -4 13.1696 3.82829   1 
  -4   6  -4 23.8581 4.46407   3 
  -4   6  -4 16.2799 4.30925  11 
  -4   6  -4 18.4413 4.79383   2 
   4  -6   4 18.4499 4.42256   5 
   4  -6   4 14.5968 3.58070   5 
   4  -6   4 16.6116 4.18235   3 
   4  -6   4 15.4073 3.76727   1 
   4  -6   4 14.0413 2.26055  13 
   4  -6   4 17.6143 3.23244   6 
  -5   6  -4 63.2692 7.15247   1 
  -5   6  -4 48.9931 7.23335   2 
  -5   6  -4 62.3373 7.41749  11 
  -5   6  -4 56.0001 6.63313   3 
   5  -6   4 65.6758 6.79711   1 
   5  -6   4 66.2325 6.97659   5 
   5  -6   4 72.0620 5.79485   6 
   5  -6   4 65.9477 7.67226   3 
  -6   6  -4 218.499 14.2894   3 
  -6   6  -4 218.156 14.7497  11 
  -6   6  -4 207.010 15.0647   2 
  -6   6  -4 219.256 14.1214   1 
   6  -6   4 234.466 14.1862   5 
   6  -6   4 220.930 14.8870   3 
   6  -6   4 234.621 13.8938   1 
  -7   6  -4 88.5191 10.6508  11 
  -7   6  -4 88.7923 10.0321   1 
   7  -6   4 96.2329 9.70262   1 
   7  -6   4 95.4983 10.9456   3 
  -8   6  -4 2.09066 4.91161  11 
  -8   6  -4 -1.9443 3.70678   1 
   8  -6   4 1.11154 4.15622   1 
   8  -6   4 2.69226 4.42048   3 
  -9   6  -4 1.05876 5.82434  11 
   8   5  -4 53.8937 9.75498   1 
   8   5  -4 33.4270 8.83021   2 
  -8  -5   4 38.8856 6.90067  14 
  -8  -5   4 32.9405 7.98967   4 
  -8  -5   4 38.8970 7.43095   5 
   7   5  -4 40.8718 8.18654   1 
   7   5  -4 52.1327 9.75069   2 
  -7  -5   4 47.0202 5.96051   1 
  -7  -5   4 38.5563 7.78764   4 
  -7  -5   4 30.1142 6.07943  14 
  -7  -5   4 46.0622 7.02428   5 
  -7  -5   4 34.5886 6.22282   7 
   6   5  -4 32.7812 7.38189   2 
   6   5  -4 32.4371 6.38508   1 
  -6  -5   4 28.8241 5.23828  14 
  -6  -5   4 31.6892 5.33460   7 
  -6  -5   4 40.3743 5.90839   5 
  -6  -5   4 36.4411 5.15291   1 
  -6  -5   4 35.0163 6.62321   4 
   5   5  -4 73.6621 7.60130   1 
   5   5  -4 61.7961 8.25037   2 
  -5  -5   4 72.9196 7.95502   4 
  -5  -5   4 68.5187 6.57018   5 
  -5  -5   4 72.5184 6.18933  14 
  -5  -5   4 66.7368 6.38927  14 
  -5  -5   4 61.4184 5.75963   1 
  -5  -5   4 71.2527 6.10392   1 
  -5  -5   4 62.1282 5.91673   7 
  -5  -5   4 55.8479 5.91045   5 
   4   5  -4 195.473 11.1260   1 
   4   5  -4 168.006 11.4280   2 
  -4  -5   4 181.759 9.92916   5 
  -4  -5   4 181.409 9.27981   7 
  -4  -5   4 169.253 9.26321  14 
  -4  -5   4 180.073 11.5565   4 
  -4  -5   4 183.130 9.32280   1 
  -4  -5   4 170.737 9.69525   5 
  -4  -5   4 173.213 9.31830  14 
   3   5  -4 281.721 15.0705   2 
   3   5  -4 302.158 14.1770   1 
   3   5  -4 313.204 12.7608  10 
   3   5  -4 303.013 15.2667   2 
   3   5  -4 331.985 14.3917   3 
  -3  -5   4 325.439 13.1297   1 
  -3  -5   4 311.019 13.5123   5 
  -3  -5   4 304.162 13.0665  14 
  -3  -5   4 327.685 13.9356   5 
  -3  -5   4 304.719 15.1942   4 
  -3  -5   4 328.612 13.4585  14 
  -3  -5   4 328.090 12.9143   7 
  -3  -5   4 337.296 15.0491   3 
   2   5  -4 120.013 6.64936  10 
   2   5  -4 125.680 8.24430   2 
   2   5  -4 113.822 7.20741   1 
   2   5  -4 128.009 8.19792   2 
   2   5  -4 130.420 7.38132   3 
  -2  -5   4 113.552 6.40043   1 
  -2  -5   4 121.888 7.52641   3 
  -2  -5   4 118.081 6.79493   5 
  -2  -5   4 114.769 6.74098   5 
  -2  -5   4 111.690 5.89054   7 
  -2  -5   4 120.515 6.54372  14 
  -2  -5   4 113.431 6.38144  14 
  -2  -5   4 108.956 6.22541   1 
  -2  -5   4 114.106 4.90238  12 
   1   5  -4 408.542 17.1373   2 
   1   5  -4 420.265 14.6876  11 
   1   5  -4 411.358 16.0213   3 
   1   5  -4 413.522 17.1630   2 
   1   5  -4 409.090 17.1738   2 
   1   5  -4 418.779 16.7977   8 
   1   5  -4 409.931 16.1769   1 
  -1  -5   4 405.949 15.2943  14 
  -1  -5   4 407.864 15.0036  12 
  -1  -5   4 394.724 17.1716   9 
  -1  -5   4 409.928 16.5534   3 
  -1  -5   4 405.779 14.4792   7 
  -1  -5   4 382.635 15.0279   1 
  -1  -5   4 414.641 16.5354   2 
  -1  -5   4 403.449 15.6823   5 
  -1  -5   4 401.888 15.2209   1 
  -1  -5   4 400.729 15.2570  14 
  -1  -5   4 398.426 15.6237   5 
   0   5  -4 311.680 12.9573   1 
   0   5  -4 310.423 13.7826   2 
   0   5  -4 308.090 13.7975   2 
   0   5  -4 339.991 14.2999   5 
   0   5  -4 302.672 12.7375   3 
   0   5  -4 311.715 11.9066  11 
   0   5  -4 306.247 13.2030   8 
   0  -5   4 294.895 13.5826   9 
   0  -5   4 286.722 12.1408   5 
   0  -5   4 293.625 11.8477  14 
   0  -5   4 294.642 11.9863  14 
   0  -5   4 276.665 12.1349   5 
   0  -5   4 312.688 13.1586   1 
   0  -5   4 293.165 11.2377   7 
   0  -5   4 287.647 12.9171   3 
   0  -5   4 278.965 11.7489   1 
   0  -5   4 293.323 12.9200   2 
  -1   5  -4 577.929 21.0596  11 
  -1   5  -4 556.493 21.8797   8 
  -1   5  -4 568.612 21.5589   1 
  -1   5  -4 598.814 21.8236   5 
  -1   5  -4 581.941 22.7810   2 
  -1   5  -4 575.166 20.1795  13 
  -1   5  -4 580.819 21.6035   3 
  -1   5  -4 605.923 21.5089  14 
  -1   5  -4 588.043 22.9097   2 
   1  -5   4 600.704 22.1542   2 
   1  -5   4 556.597 22.1045   9 
   1  -5   4 558.405 21.7377   3 
   1  -5   4 583.131 20.7987  14 
   1  -5   4 575.960 20.7425   1 
   1  -5   4 575.722 20.6650  14 
   1  -5   4 588.782 22.1130   2 
   1  -5   4 596.796 21.2993   8 
   1  -5   4 557.595 19.4394   6 
   1  -5   4 589.039 21.2348   5 
   1  -5   4 589.625 21.2196   5 
  -2   5  -4 383.352 16.4683  11 
  -2   5  -4 415.292 16.9626   3 
  -2   5  -4 390.221 16.6255   1 
  -2   5  -4 406.584 17.8838   2 
  -2   5  -4 392.557 16.6253   5 
  -2   5  -4 396.503 16.3041  14 
  -2   5  -4 410.459 17.8512   2 
  -2   5  -4 415.029 14.3291  13 
   2  -5   4 428.674 16.7760   8 
   2  -5   4 404.685 17.3790   9 
   2  -5   4 405.367 16.4478   5 
   2  -5   4 406.954 17.0960   3 
   2  -5   4 433.898 16.2961  14 
   2  -5   4 406.257 16.1026   1 
   2  -5   4 411.887 16.4966   5 
   2  -5   4 407.964 17.2265   3 
   2  -5   4 409.890 14.3330   6 
  -3   5  -4 185.549 11.3043   2 
  -3   5  -4 203.222 10.6104   5 
  -3   5  -4 188.124 10.2222   1 
  -3   5  -4 216.690 11.7667   2 
  -3   5  -4 195.867 10.5412   3 
  -3   5  -4 202.767 10.3514  14 
  -3   5  -4 191.100 10.6165  11 
   3  -5   4 179.447 10.6605   3 
   3  -5   4 180.011 10.0981   5 
   3  -5   4 180.970 10.8015   2 
   3  -5   4 183.468 10.1999   8 
   3  -5   4 176.641 9.83269   5 
   3  -5   4 180.355 9.85378   1 
   3  -5   4 182.975 9.64998  14 
   3  -5   4 180.684 8.13578   6 
  -4   5  -4 84.2791 7.42139  11 
  -4   5  -4 79.0514 6.88772   1 
  -4   5  -4 66.5597 7.18970   2 
  -4   5  -4 73.8931 6.48089  14 
  -4   5  -4 86.0177 7.30879   3 
  -4   5  -4 77.4284 6.74962   5 
   4  -5   4 67.1631 6.92697   3 
   4  -5   4 61.3799 6.14956   1 
   4  -5   4 61.0064 6.57053   2 
   4  -5   4 67.3679 5.07338   6 
   4  -5   4 66.5499 6.45250   5 
  -5   5  -4 72.2944 7.43199   1 
  -5   5  -4 70.8268 7.81303  11 
  -5   5  -4 79.9161 8.49445   2 
  -5   5  -4 76.6315 7.72839   3 
   5  -5   4 70.6105 7.09123   1 
   5  -5   4 73.0345 7.96486   3 
   5  -5   4 76.5617 7.58126   5 
  -6   5  -4 62.6637 8.27609  11 
  -6   5  -4 65.8393 7.96821   1 
  -6   5  -4 59.6294 7.77678   3 
   6  -5   4 72.3475 8.71397   3 
   6  -5   4 75.3120 8.08928   1 
  -7   5  -4 20.4724 5.95390   1 
  -7   5  -4 27.1723 7.36957  11 
  -7   5  -4 15.4096 5.38689   3 
   7  -5   4 22.1993 6.65824   3 
   7  -5   4 32.4834 6.93867   1 
  -8   5  -4 13.9206 6.44127  11 
  -8   5  -4 16.4452 6.11061   1 
   8  -5   4 11.2422 5.69796   1 
   8  -5   4 5.47645 5.26018   3 
  -9   5  -4 -0.0363 5.02276  11 
   8   4  -4 7.75630 4.89272   1 
  -8  -4   4 9.65471 5.09562   4 
  -8  -4   4 22.0087 5.46133   1 
  -8  -4   4 18.4844 5.51875   5 
  -8  -4   4 14.8080 4.98940  14 
  -8  -4   4 14.2753 5.26256   7 
   7   4  -4 34.6807 7.57316   1 
   7   4  -4 37.8695 8.45517   2 
  -7  -4   4 25.5175 6.39754   3 
  -7  -4   4 30.2572 6.03591  14 
  -7  -4   4 35.7799 6.87800   4 
  -7  -4   4 27.9046 5.85086   1 
  -7  -4   4 33.9881 6.40259   5 
  -7  -4   4 29.8156 6.18431   7 
   6   4  -4 51.7385 7.85435   2 
   6   4  -4 44.0591 6.76045   1 
  -6  -4   4 53.0788 6.34092   7 
  -6  -4   4 59.8021 6.46993   1 
  -6  -4   4 57.1282 6.42393   1 
  -6  -4   4 56.3308 6.70971   5 
  -6  -4   4 47.3738 6.09890  14 
  -6  -4   4 56.6137 7.06750   4 
   5   4  -4 83.4778 7.64106   1 
   5   4  -4 77.9702 8.49097   3 
   5   4  -4 69.9575 8.20073   2 
  -5  -4   4 91.7463 6.87615   7 
  -5  -4   4 78.2846 6.64635  14 
  -5  -4   4 83.9215 7.02693   5 
  -5  -4   4 84.5838 7.81449   4 
  -5  -4   4 88.0973 6.97935   1 
  -5  -4   4 80.3447 7.00117   5 
   4   4  -4 154.123 9.52032   1 
   4   4  -4 134.782 6.12766  10 
   4   4  -4 135.821 9.89382   2 
   4   4  -4 150.333 9.25736   3 
  -4  -4   4 145.546 8.70571   5 
  -4  -4   4 153.948 8.34893   7 
  -4  -4   4 154.357 8.54559   1 
  -4  -4   4 157.965 9.87793   4 
  -4  -4   4 139.687 8.22998  14 
  -4  -4   4 142.666 8.69108   5 
  -4  -4   4 131.529 9.06154   3 
  -4  -4   4 144.487 8.26460  14 
   3   4  -4 127.423 8.80426   2 
   3   4  -4 129.041 8.27847   5 
   3   4  -4 127.698 6.33248  10 
   3   4  -4 128.372 8.21350   3 
   3   4  -4 124.924 8.05766   1 
   3   4  -4 127.168 8.90091   2 
   3   4  -4 132.181 7.98794  14 
  -3  -4   4 152.428 8.75286   2 
  -3  -4   4 142.022 7.94540   5 
  -3  -4   4 145.443 8.66124   3 
  -3  -4   4 143.453 7.64544   1 
  -3  -4   4 143.675 7.22441   7 
  -3  -4   4 145.653 7.71294  14 
  -3  -4   4 152.256 8.00607   5 
  -3  -4   4 142.237 7.54850  14 
   2   4  -4 257.234 12.0555   2 
   2   4  -4 252.068 12.1700   2 
   2   4  -4 259.427 11.2420   1 
   2   4  -4 256.748 11.4009   5 
   2   4  -4 276.531 11.3101  14 
   2   4  -4 264.672 11.3857   3 
  -2  -4   4 220.307 11.1432   3 
  -2  -4   4 234.532 11.4360   2 
  -2  -4   4 229.088 10.7512   5 
  -2  -4   4 219.285 10.1671  14 
  -2  -4   4 231.758 8.70893  12 
  -2  -4   4 225.882 10.2900   1 
  -2  -4   4 228.538 10.5440   5 
  -2  -4   4 233.521 10.5109  14 
  -2  -4   4 223.742 9.74995   7 
   1   4  -4 735.950 26.1611   2 
   1   4  -4 738.154 25.3011   5 
   1   4  -4 720.675 26.0693   2 
   1   4  -4 725.443 26.1127   2 
   1   4  -4 698.412 25.5107   8 
   1   4  -4 733.457 24.9160  14 
   1   4  -4 724.600 25.2440   3 
   1   4  -4 750.106 24.1198  11 
   1   4  -4 710.855 25.0362   1 
  -1  -4   4 697.850 25.6820   2 
  -1  -4   4 684.692 23.6142   7 
  -1  -4   4 714.109 23.9497  12 
  -1  -4   4 704.259 24.7375   5 
  -1  -4   4 707.705 25.4527   3 
  -1  -4   4 688.439 24.7406   5 
  -1  -4   4 695.643 24.4862   1 
  -1  -4   4 691.483 24.4280  14 
  -1  -4   4 675.956 25.6750   9 
  -1  -4   4 704.840 24.4131  14 
   0   4  -4 1382.39 46.0512   3 
   0   4  -4 1381.69 45.2997  11 
   0   4  -4 1430.76 44.0685   6 
   0   4  -4 1459.14 46.0598  14 
   0   4  -4 1396.05 46.2153   5 
   0   4  -4 1367.65 46.9181   2 
   0   4  -4 1428.55 46.1559   1 
   0   4  -4 1372.69 46.4000   8 
   0   4  -4 1406.95 47.0647   2 
   0  -4   4 1403.40 45.3727   1 
   0  -4   4 1425.32 45.3635  14 
   0  -4   4 1414.58 46.6859   9 
   0  -4   4 1480.36 46.0961  12 
   0  -4   4 1485.43 46.6007   3 
   0  -4   4 1455.71 45.6397  14 
   0  -4   4 1399.80 45.7495   5 
   0  -4   4 1388.96 45.6398   5 
  -1   4  -4 1256.28 42.4772   2 
  -1   4  -4 1211.23 40.9405  14 
  -1   4  -4 1205.92 39.0525  13 
  -1   4  -4 1165.87 41.5535   8 
  -1   4  -4 1196.95 40.9254  11 
  -1   4  -4 1228.91 41.3313   1 
  -1   4  -4 1235.13 41.3805   5 
  -1   4  -4 1185.53 41.3010   3 
  -1   4  -4 1233.16 42.5696   2 
   1  -4   4 1309.97 40.8804  14 
   1  -4   4 1287.44 38.3988   6 
   1  -4   4 1280.67 41.8731   9 
   1  -4   4 1311.31 41.4956   8 
   1  -4   4 1295.33 41.7345   3 
   1  -4   4 1253.84 40.7782   1 
   1  -4   4 1258.20 41.1227   5 
   1  -4   4 1222.34 40.9577   5 
   1  -4   4 1304.57 40.7710  14 
  -2   4  -4 127.785 8.19505   2 
  -2   4  -4 132.531 7.36120  14 
  -2   4  -4 136.786 7.78203  11 
  -2   4  -4 122.057 7.44344   1 
  -2   4  -4 130.147 8.25449   5 
  -2   4  -4 133.546 7.62319   5 
  -2   4  -4 121.672 7.61300   3 
  -2   4  -4 141.417 8.53859   2 
   2  -4   4 117.975 7.45812   8 
   2  -4   4 115.413 7.15098   5 
   2  -4   4 112.376 7.58756   3 
   2  -4   4 118.597 7.84991   2 
   2  -4   4 112.457 7.03825   5 
   2  -4   4 115.434 7.04441   1 
   2  -4   4 108.553 4.99794   6 
   2  -4   4 112.935 7.32289   3 
  -3   4  -4 243.302 11.8074   5 
  -3   4  -4 233.482 11.5731   5 
  -3   4  -4 244.704 12.7758   2 
  -3   4  -4 220.211 11.5428   3 
  -3   4  -4 242.113 11.4306  14 
  -3   4  -4 231.597 11.9174  11 
  -3   4  -4 212.010 11.1756   1 
   3  -4   4 214.205 11.6790   3 
   3  -4   4 217.294 12.0928   2 
   3  -4   4 219.901 11.3614   5 
   3  -4   4 200.451 10.9010   1 
   3  -4   4 225.266 11.2726   5 
  -4   4  -4 201.979 11.1993   5 
  -4   4  -4 203.274 10.9276  14 
  -4   4  -4 209.165 11.8986  11 
  -4   4  -4 188.993 12.0597   2 
  -4   4  -4 198.899 11.4460   3 
   4  -4   4 172.289 11.1038   3 
   4  -4   4 177.179 11.6211   2 
   4  -4   4 174.306 10.4615   1 
   4  -4   4 194.202 11.1364   5 
  -5   4  -4 353.976 18.0865   3 
  -5   4  -4 350.644 18.9286   2 
  -5   4  -4 358.278 17.5412   1 
  -5   4  -4 352.799 17.1211  14 
  -5   4  -4 349.284 18.3277  11 
   5  -4   4 394.365 18.1748   5 
   5  -4   4 368.079 18.9525   2 
   5  -4   4 398.075 19.0023   3 
   5  -4   4 358.697 17.3781   1 
  -6   4  -4 77.9942 8.30412   1 
  -6   4  -4 66.1070 8.24851   3 
  -6   4  -4 65.2816 8.06302  14 
  -6   4  -4 76.6716 9.04040  11 
   6  -4   4 69.4408 8.01314   1 
   6  -4   4 93.1535 9.35163   3 
  -7   4  -4 18.9719 5.39772   1 
  -7   4  -4 15.2310 5.29965   3 
  -7   4  -4 10.2268 5.40069  11 
   7  -4   4 10.4545 4.93152   3 
   7  -4   4 3.18362 3.92738   1 
  -8   4  -4 12.3133 6.24524   3 
  -8   4  -4 7.88263 5.91232  11 
  -8   4  -4 18.1666 6.16370   1 
   8  -4   4 13.5255 5.78425   1 
  -9   4  -4 -1.5873 4.64554  11 
   9   3  -4 13.2239 6.14447   1 
  -9  -3   4 12.5309 5.37772   1 
  -9  -3   4 7.96511 5.17997   7 
  -9  -3   4 18.6266 5.84424  14 
   8   3  -4 16.6445 5.67180   1 
  -8  -3   4 26.5185 5.94822  14 
  -8  -3   4 30.4544 6.62639   4 
  -8  -3   4 19.2505 6.69415   3 
  -8  -3   4 28.3197 6.79252   5 
  -8  -3   4 26.3897 6.10955   1 
  -8  -3   4 20.2455 5.37694   7 
   7   3  -4 60.8461 8.88869   2 
   7   3  -4 60.4983 8.30147   1 
  -7  -3   4 69.2660 7.72613   1 
  -7  -3   4 64.8399 7.44902   4 
  -7  -3   4 62.2015 7.71494   7 
  -7  -3   4 47.4067 6.77724  14 
  -7  -3   4 62.5865 7.60377   1 
  -7  -3   4 51.5776 7.96697   3 
  -7  -3   4 59.7332 7.42767   5 
   6   3  -4 27.6118 6.15402   2 
   6   3  -4 44.8705 6.48850   1 
  -6  -3   4 31.5907 5.19232  14 
  -6  -3   4 34.9305 5.53004   4 
  -6  -3   4 25.6153 4.89313   7 
  -6  -3   4 25.8514 5.14643   1 
  -6  -3   4 24.6118 4.98603   5 
   5   3  -4 66.9105 6.70914   3 
   5   3  -4 89.9235 7.64279   1 
   5   3  -4 77.8020 7.91979   2 
  -5  -3   4 88.1860 7.01142   5 
  -5  -3   4 87.2355 6.73962  14 
  -5  -3   4 91.3140 7.32620   4 
  -5  -3   4 73.8946 6.49366   5 
  -5  -3   4 69.8736 6.37846   7 
  -5  -3   4 82.5145 6.78852   1 
   4   3  -4 123.173 9.01326   2 
   4   3  -4 122.453 9.14275   2 
   4   3  -4 117.165 7.99125  14 
   4   3  -4 136.747 8.73538   3 
   4   3  -4 120.667 8.26286   1 
  -4  -3   4 132.043 7.52996   7 
  -4  -3   4 132.139 8.54841   3 
  -4  -3   4 127.679 7.71695  14 
  -4  -3   4 132.011 7.88462   1 
  -4  -3   4 141.502 8.32335   5 
  -4  -3   4 130.278 7.80564  14 
  -4  -3   4 130.976 8.01871   5 
   3   3  -4 822.456 29.7654   3 
   3   3  -4 836.046 29.5457   1 
   3   3  -4 846.266 29.3681  14 
   3   3  -4 834.054 30.7895   2 
   3   3  -4 822.311 26.5800  10 
   3   3  -4 838.674 30.7608   2 
   3   3  -4 853.280 29.9211   5 
  -3  -3   4 797.302 28.7210   1 
  -3  -3   4 845.741 28.9707  14 
  -3  -3   4 829.590 28.7564  14 
  -3  -3   4 809.705 29.0890   5 
  -3  -3   4 851.716 30.1265   3 
  -3  -3   4 842.472 28.4389   7 
  -3  -3   4 809.690 29.2362   5 
   2   3  -4 537.466 20.5568   3 
   2   3  -4 543.012 21.2958   2 
   2   3  -4 579.606 20.8167   5 
   2   3  -4 551.595 21.4393   2 
   2   3  -4 550.770 20.4533   1 
   2   3  -4 564.149 20.3893  14 
  -2  -3   4 555.726 20.9476   3 
  -2  -3   4 559.945 20.1658  14 
  -2  -3   4 522.594 19.9427   1 
  -2  -3   4 565.266 19.6123   7 
  -2  -3   4 546.868 19.9493  14 
  -2  -3   4 563.102 20.5359   5 
  -2  -3   4 578.418 20.4729   5 
   1   3  -4 590.092 22.0835   2 
   1   3  -4 569.064 21.0966   1 
   1   3  -4 577.484 21.3186   5 
   1   3  -4 588.323 21.5147   3 
   1   3  -4 564.829 21.5186   8 
   1   3  -4 589.828 21.0386  14 
   1   3  -4 592.010 21.2920   5 
   1   3  -4 579.707 22.0421   2 
   1   3  -4 595.135 20.7308  11 
   1   3  -4 600.203 22.2273   2 
  -1  -3   4 585.735 20.2944   7 
  -1  -3   4 612.957 20.8953  14 
  -1  -3   4 616.301 21.3481   5 
  -1  -3   4 579.753 20.8194   1 
  -1  -3   4 592.146 22.1785   2 
  -1  -3   4 639.914 21.9911  14 
  -1  -3   4 584.759 21.0290   5 
  -1  -3   4 636.077 21.8807   3 
  -1  -3   4 606.395 21.5148   9 
   0   3  -4 344.120 14.4518   3 
   0   3  -4 339.869 13.9512  11 
   0   3  -4 352.712 14.7399   8 
   0   3  -4 356.580 14.4546   5 
   0   3  -4 338.331 11.8151   6 
   0   3  -4 338.209 14.1330   5 
   0   3  -4 352.326 15.0410   2 
   0   3  -4 363.491 15.2605   2 
   0   3  -4 338.383 14.2221   1 
   0   3  -4 342.416 14.0608  14 
   0  -3   4 387.553 15.1653   2 
   0  -3   4 395.594 14.7764   8 
   0  -3   4 392.552 14.1011  14 
   0  -3   4 401.584 14.2854   1 
   0  -3   4 377.886 14.2633   5 
   0  -3   4 394.500 14.7532   3 
   0  -3   4 388.710 14.4090   5 
   0  -3   4 397.673 15.2607   2 
   0  -3   4 372.362 14.3839   9 
  -1   3  -4 176.285 8.94598   3 
  -1   3  -4 169.647 6.22333  13 
  -1   3  -4 178.410 9.59610   2 
  -1   3  -4 175.902 8.77921   5 
  -1   3  -4 175.510 8.51596  14 
  -1   3  -4 175.158 8.73259   1 
  -1   3  -4 174.079 9.44750   2 
  -1   3  -4 167.061 8.79372   3 
  -1   3  -4 177.305 8.78463  11 
   1  -3   4 179.401 8.91657   3 
   1  -3   4 169.835 8.44870   5 
   1  -3   4 181.202 9.27119   2 
   1  -3   4 172.883 8.46666   1 
   1  -3   4 185.624 9.14989   8 
   1  -3   4 169.860 8.69059   9 
  -2   3  -4 367.821 14.7821   5 
  -2   3  -4 355.567 14.7367   5 
  -2   3  -4 362.691 15.0814   3 
  -2   3  -4 351.268 14.6319   1 
  -2   3  -4 368.333 14.4261  14 
  -2   3  -4 348.620 14.9234  11 
   2  -3   4 346.447 15.0415   8 
   2  -3   4 349.348 14.8911   3 
   2  -3   4 322.071 14.8158   3 
   2  -3   4 363.644 14.5861  14 
   2  -3   4 339.511 15.4491   2 
   2  -3   4 329.130 14.2983   1 
   2  -3   4 332.845 14.4757   5 
  -3   3  -4 687.296 25.3783   5 
  -3   3  -4 687.956 25.8580   3 
  -3   3  -4 683.349 25.9441  11 
  -3   3  -4 675.223 25.3823   5 
  -3   3  -4 644.161 25.0067   1 
  -3   3  -4 712.849 25.1696  14 
   3  -3   4 659.161 25.0414   1 
   3  -3   4 666.386 25.6982   3 
   3  -3   4 661.306 25.1602   5 
   3  -3   4 678.948 26.5797   2 
   3  -3   4 644.890 25.1754   5 
  -4   3  -4 186.865 10.5135  14 
  -4   3  -4 195.751 10.8514   1 
  -4   3  -4 193.701 10.8778   5 
  -4   3  -4 189.093 11.3023   3 
  -4   3  -4 187.241 11.3913  11 
  -4   3  -4 186.815 11.7847   2 
   4  -3   4 187.330 11.6999   2 
   4  -3   4 192.292 11.3956   3 
   4  -3   4 177.780 10.6199   1 
   4  -3   4 190.710 10.9895   5 
  -5   3  -4 28.9716 5.11359   5 
  -5   3  -4 25.8178 5.54384  11 
  -5   3  -4 39.8920 5.71847   1 
  -5   3  -4 35.7756 5.84049   3 
  -5   3  -4 38.2040 5.41259  14 
   5  -3   4 42.1310 6.04153   3 
   5  -3   4 42.4282 5.90434   1 
  -6   3  -4 61.3615 7.53596   1 
  -6   3  -4 52.8577 7.80008  11 
  -6   3  -4 64.6719 8.29360   3 
  -6   3  -4 54.7868 7.01111  14 
   6  -3   4 66.9718 8.15802   3 
   6  -3   4 71.0213 8.06079   1 
  -7   3  -4 30.4008 7.17636  11 
  -7   3  -4 33.6047 6.70736  14 
  -7   3  -4 26.7257 6.20905   1 
  -7   3  -4 45.6050 7.87099   3 
   7  -3   4 41.1142 7.54681   1 
  -8   3  -4 21.6392 7.36953  11 
  -8   3  -4 27.6112 7.60281   3 
  -8   3  -4 40.8119 7.89618   1 
   8  -3   4 33.2863 7.97548   1 
   9   2  -4 0.00215 4.37475   1 
  -9  -2   4 -5.4709 2.52287  14 
  -9  -2   4 -0.9793 3.67586   1 
  -9  -2   4 -3.4636 4.38772   7 
   8   2  -4 2.39449 3.74456   1 
  -8  -2   4 9.15245 3.86810   4 
  -8  -2   4 15.1405 4.96565   1 
  -8  -2   4 11.3389 4.54691  14 
  -8  -2   4 9.06873 4.32698   7 
  -8  -2   4 5.74420 4.22327   3 
   7   2  -4 23.2002 5.78630   1 
   7   2  -4 33.3204 6.91636   2 
  -7  -2   4 27.5398 5.06319   4 
  -7  -2   4 39.1334 6.42147   1 
  -7  -2   4 31.0969 6.61836   3 
  -7  -2   4 29.8887 5.81976   7 
  -7  -2   4 33.6399 6.08528   1 
  -7  -2   4 35.9576 5.94792  14 
  -7  -2   4 33.0784 5.96047   5 
   6   2  -4 94.8388 8.46350   3 
   6   2  -4 80.1680 8.60012   2 
   6   2  -4 93.1675 8.41135   1 
  -6  -2   4 90.4757 7.43067   4 
  -6  -2   4 79.6558 7.35629   7 
  -6  -2   4 82.3912 7.63851   1 
  -6  -2   4 80.8851 7.31699  14 
  -6  -2   4 96.3670 7.98473   5 
   5   2  -4 64.2919 6.43118   3 
   5   2  -4 62.7677 6.19246  14 
   5   2  -4 65.2179 6.87240   2 
   5   2  -4 62.9530 6.38211   1 
  -5  -2   4 60.3151 5.91260   1 
  -5  -2   4 56.6085 5.75586   5 
  -5  -2   4 63.0256 5.82479   4 
  -5  -2   4 66.1659 5.89239  14 
  -5  -2   4 74.1683 6.23874   7 
  -5  -2   4 67.7007 6.79519   2 
  -5  -2   4 65.5744 6.01127   5 
   4   2  -4 61.8767 7.45549   2 
   4   2  -4 63.9762 6.31559   2 
   4   2  -4 53.9348 5.37154  14 
   4   2  -4 63.3670 5.97897   3 
   4   2  -4 61.0629 5.65682   1 
  -4  -2   4 67.1612 5.49199   1 
  -4  -2   4 78.0357 5.91015   5 
  -4  -2   4 80.0833 3.73817  12 
  -4  -2   4 72.3374 5.76807   5 
  -4  -2   4 76.8392 5.68373  14 
  -4  -2   4 68.3528 5.30417   7 
  -4  -2   4 81.5663 6.60951   2 
   3   2  -4 304.543 13.6144   1 
   3   2  -4 325.924 14.7401   2 
   3   2  -4 326.088 13.6155  14 
   3   2  -4 339.614 14.8730   2 
   3   2  -4 326.338 14.0869   3 
   3   2  -4 300.512 13.4701   5 
  -3  -2   4 306.185 13.0539  14 
  -3  -2   4 316.266 13.3511   1 
  -3  -2   4 318.220 14.0202   3 
  -3  -2   4 317.877 13.6052   5 
  -3  -2   4 325.108 14.5348   2 
  -3  -2   4 327.591 13.6083   5 
  -3  -2   4 326.376 13.0631   7 
   2   2  -4 785.041 27.9610   2 
   2   2  -4 772.670 27.8800   2 
   2   2  -4 776.032 26.6544  11 
   2   2  -4 765.088 26.7656  14 
   2   2  -4 769.383 27.1207   5 
   2   2  -4 764.120 26.9116   1 
   2   2  -4 780.637 26.8797   5 
   2   2  -4 766.863 27.3927   8 
   2   2  -4 759.040 27.1518   3 
  -2  -2   4 771.602 26.8454   5 
  -2  -2   4 809.993 28.1147   2 
  -2  -2   4 785.352 26.2949   7 
  -2  -2   4 770.239 26.4997  14 
  -2  -2   4 844.727 27.7273   3 
   1   2  -4 1461.58 47.6889   5 
   1   2  -4 1473.02 48.5670   2 
   1   2  -4 1451.09 47.8213   5 
   1   2  -4 1438.68 47.4775  14 
   1   2  -4 1431.09 48.4596   2 
   1   2  -4 1460.93 48.1548   8 
   1   2  -4 1523.07 48.2617   3 
   1   2  -4 1459.04 47.5776  11 
   1   2  -4 1439.34 47.6728   1 
  -1  -2   4 1590.87 47.8129  14 
  -1  -2   4 1497.74 47.5061   1 
  -1  -2   4 1547.22 48.7240   2 
  -1  -2   4 1582.84 48.3563   3 
  -1  -2   4 1510.51 47.1259   7 
  -1  -2   4 1491.45 47.6233   5 
  -1  -2   4 1518.44 47.4774   9 
  -1  -2   4 1483.86 47.2838  14 
   0   2  -4 76.2972 5.22164   8 
   0   2  -4 69.0192 4.86693   1 
   0   2  -4 73.1754 5.01419   5 
   0   2  -4 70.0421 5.09982   3 
   0   2  -4 77.6712 5.64169   2 
   0   2  -4 68.9533 4.74014   5 
   0   2  -4 75.7371 5.46146   2 
   0   2  -4 82.9811 5.24267  11 
   0  -2   4 73.3831 4.64006   9 
   0  -2   4 81.8884 5.30609  14 
   0  -2   4 78.5087 5.35318   5 
   0  -2   4 75.9244 4.77355  14 
   0  -2   4 83.2593 5.25787   3 
   0  -2   4 75.5186 4.88794   5 
   0  -2   4 79.7951 5.42944   2 
   0  -2   4 73.8345 4.85227   1 
   0  -2   4 82.5545 5.34145   8 
   0  -2   4 91.8713 6.32261   2 
  -1   2  -4 348.888 14.2870  11 
  -1   2  -4 328.434 13.9891   3 
  -1   2  -4 337.186 13.6541  14 
  -1   2  -4 352.914 14.4232   3 
  -1   2  -4 328.339 13.6962   1 
  -1   2  -4 346.607 14.8560   2 
  -1   2  -4 350.585 14.0444   5 
   1  -2   4 348.653 13.8882   5 
   1  -2   4 352.757 14.7926   2 
   1  -2   4 363.055 14.0872   5 
   1  -2   4 358.819 13.9202   1 
   1  -2   4 346.679 14.0731   3 
   1  -2   4 352.523 14.3323   8 
  -2   2  -4 429.778 16.6448   3 
  -2   2  -4 379.007 15.2903  14 
  -2   2  -4 379.052 16.0733  11 
  -2   2  -4 383.406 15.5830   5 
  -2   2  -4 370.038 16.4086   2 
  -2   2  -4 371.965 15.3859   1 
  -2   2  -4 397.317 16.0976   3 
   2  -2   4 373.551 15.4255   1 
   2  -2   4 394.212 16.7207   2 
   2  -2   4 378.263 15.6435   5 
   2  -2   4 384.093 16.0328   3 
   2  -2   4 396.202 15.7156   5 
  -3   2  -4 832.775 29.9873   1 
  -3   2  -4 862.607 31.7037   2 
  -3   2  -4 844.527 30.2172   5 
  -3   2  -4 831.422 30.7283   3 
  -3   2  -4 843.408 30.2574   5 
  -3   2  -4 836.944 30.9565  11 
  -3   2  -4 849.335 29.8960  14 
   3  -2   4 853.313 30.2933   1 
   3  -2   4 798.434 30.1142   5 
   3  -2   4 860.763 30.3732   5 
   3  -2   4 835.136 31.4615   2 
   3  -2   4 841.126 30.7561   3 
  -4   2  -4 200.338 12.0800   2 
  -4   2  -4 179.611 11.4008  11 
  -4   2  -4 187.648 11.5081   3 
  -4   2  -4 198.375 11.0465   1 
  -4   2  -4 208.095 11.3829   5 
  -4   2  -4 198.131 10.7962  14 
   4  -2   4 211.902 11.8948   3 
   4  -2   4 223.029 12.6643   2 
   4  -2   4 212.398 8.05056  13 
   4  -2   4 199.339 11.1271   1 
  -5   2  -4 93.5029 7.98350   5 
  -5   2  -4 98.5743 8.01319   1 
  -5   2  -4 88.5682 7.63978  14 
  -5   2  -4 83.4765 8.22417   3 
  -5   2  -4 90.7214 8.62733  11 
   5  -2   4 98.1811 8.85500   2 
   5  -2   4 100.549 8.60951   3 
   5  -2   4 105.170 8.35233   1 
  -6   2  -4 15.4178 5.37470  11 
  -6   2  -4 10.5248 3.86069  14 
  -6   2  -4 9.75765 4.51162   3 
  -6   2  -4 16.3701 4.43395   5 
  -6   2  -4 18.8211 4.97022   1 
   6  -2   4 13.8332 4.69850   2 
   6  -2   4 19.6537 5.19376   1 
   6  -2   4 8.88043 3.88344   3 
  -7   2  -4 58.9274 8.86141   3 
  -7   2  -4 45.4196 8.40294  11 
  -7   2  -4 54.4820 7.92561   1 
  -7   2  -4 54.4019 7.65080  14 
   7  -2   4 57.2386 8.51841   1 
  -8   2  -4 21.6625 10.4566   3 
  -8   2  -4 29.1735 8.05317  11 
  -8   2  -4 30.4766 6.74185  14 
  -8   2  -4 18.7120 5.90184   1 
   8  -2   4 12.7113 5.71568   1 
   9   1  -4 4.39919 4.68162   1 
  -9  -1   4 6.61904 5.02988   7 
  -9  -1   4 -0.0480 2.98439  14 
  -9  -1   4 -0.8156 3.55964   1 
  -9  -1   4 1.39987 4.05120   3 
   8   1  -4 49.9765 8.10937   1 
  -8  -1   4 32.2222 6.51110   7 
  -8  -1   4 40.3710 7.29081   1 
  -8  -1   4 35.6313 6.43794  14 
  -8  -1   4 37.2723 7.55686   3 
  -8  -1   4 42.1397 7.31659   1 
   7   1  -4 164.454 12.9426   2 
   7   1  -4 161.663 11.7374   1 
   7   1  -4 160.159 12.2017   3 
  -7  -1   4 162.275 11.1626   7 
  -7  -1   4 174.624 11.4659  14 
  -7  -1   4 186.078 11.9351   1 
  -7  -1   4 153.079 11.7595   3 
  -7  -1   4 149.166 12.5811   5 
  -7  -1   4 153.272 9.75282   4 
   6   1  -4 30.4886 5.71679   2 
   6   1  -4 23.9975 5.07331   1 
   6   1  -4 30.4038 5.37309   3 
  -6  -1   4 25.8293 4.85464   1 
  -6  -1   4 23.1755 5.00801   3 
  -6  -1   4 28.0417 4.42271   4 
  -6  -1   4 24.9385 3.09935  12 
  -6  -1   4 26.6885 4.81019   7 
  -6  -1   4 23.5392 4.56165   5 
  -6  -1   4 30.9102 4.77045  14 
   5   1  -4 193.273 12.7964   5 
   5   1  -4 180.931 11.2860   2 
   5   1  -4 179.275 10.2382  14 
   5   1  -4 176.366 10.1992   1 
   5   1  -4 189.036 10.9694   3 
  -5  -1   4 160.961 9.55057  14 
  -5  -1   4 176.059 8.01720  12 
  -5  -1   4 157.868 9.71022   1 
  -5  -1   4 171.774 9.68647   7 
  -5  -1   4 167.490 10.9330   2 
  -5  -1   4 175.479 10.0912   5 
   4   1  -4 220.917 11.6353   3 
   4   1  -4 228.664 11.1582   5 
   4   1  -4 228.089 10.9825  14 
   4   1  -4 223.276 12.0381   2 
   4   1  -4 212.617 10.9405   1 
  -4  -1   4 219.522 11.8657   2 
  -4  -1   4 237.530 9.31580  12 
  -4  -1   4 229.759 10.9271  14 
  -4  -1   4 227.825 10.7411  14 
  -4  -1   4 219.419 10.8843   1 
  -4  -1   4 220.235 10.9183   5 
  -4  -1   4 228.605 10.7356   7 
   3   1  -4 304.480 13.7122   2 
   3   1  -4 294.333 13.0417   3 
   3   1  -4 308.383 12.7474  14 
   3   1  -4 286.427 12.5171   5 
   3   1  -4 293.531 12.7518   1 
  -3  -1   4 308.352 13.2440   3 
  -3  -1   4 290.550 12.2367  14 
  -3  -1   4 292.811 12.5114   1 
  -3  -1   4 296.225 12.2298   7 
  -3  -1   4 288.922 12.5298   5 
  -3  -1   4 293.676 13.5250   2 
   2   1  -4 234.997 10.7543   8 
   2   1  -4 226.148 10.1908   1 
   2   1  -4 238.012 10.0558  14 
   2   1  -4 223.960 10.1256  14 
   2   1  -4 222.221 10.3076  11 
   2   1  -4 234.349 11.0180   2 
  -2  -1   4 235.491 10.3211   5 
  -2  -1   4 250.945 10.6513   5 
  -2  -1   4 250.783 10.2285  14 
  -2  -1   4 240.947 10.0450   7 
  -2  -1   4 251.848 10.3929   1 
  -2  -1   4 249.453 10.6997   3 
  -2  -1   4 241.619 11.0753   2 
   1   1  -4 259.866 10.2963  14 
   1   1  -4 289.468 11.5961  14 
   1   1  -4 261.943 11.0704   2 
   1   1  -4 260.349 10.7510   8 
   1   1  -4 272.662 9.66558   9 
   1   1  -4 246.747 10.2480   1 
   1   1  -4 252.517 10.4222   5 
   1   1  -4 263.548 10.7773   3 
   1   1  -4 264.382 10.7616  11 
  -1  -1   4 245.381 10.4298   5 
  -1  -1   4 243.820 10.5157   3 
  -1  -1   4 231.767 10.8203   2 
  -1  -1   4 233.196 9.46988   9 
  -1  -1   4 218.324 9.95231   1 
  -1  -1   4 229.250 10.8170   2 
  -1  -1   4 232.120 10.0156   7 
  -1  -1   4 244.334 10.0755  14 
  -1  -1   4 239.374 10.6602   8 
   0   1  -4 519.867 18.0861   5 
   0   1  -4 523.930 17.9930   1 
   0   1  -4 522.141 18.4841   3 
   0   1  -4 544.761 19.0079   2 
   0   1  -4 526.280 18.2406   5 
   0   1  -4 564.947 18.1657  14 
   0   1  -4 538.834 15.8601   6 
   0   1  -4 536.511 18.7458  11 
   0  -1   4 471.238 18.1174   3 
   0  -1   4 456.258 17.8621   5 
   0  -1   4 478.589 17.3044   9 
   0  -1   4 474.286 18.7344   2 
   0  -1   4 458.724 17.7402   1 
   0  -1   4 487.591 18.4947   8 
   0  -1   4 458.141 18.5354   2 
   0  -1   4 468.721 17.9215   5 
  -1   1  -4 280.749 12.4678   2 
  -1   1  -4 277.071 11.7657   5 
  -1   1  -4 285.858 9.59590  13 
  -1   1  -4 284.295 11.7502   5 
  -1   1  -4 268.888 12.1719  11 
  -1   1  -4 277.843 11.5906   1 
  -1   1  -4 282.678 11.5481  14 
  -1   1  -4 269.719 11.9893   3 
  -1   1  -4 296.066 12.3210   3 
   1  -1   4 294.976 11.8678   1 
   1  -1   4 274.460 11.8501   3 
   1  -1   4 279.225 11.7412   5 
   1  -1   4 281.370 12.5784   2 
   1  -1   4 287.477 9.75774   6 
   1  -1   4 286.458 11.8519   5 
   1  -1   4 289.736 12.6416   2 
  -2   1  -4 672.194 24.6438   5 
  -2   1  -4 672.301 24.3939  14 
  -2   1  -4 663.937 24.4873   1 
  -2   1  -4 682.021 25.2165   3 
  -2   1  -4 683.257 25.4354   3 
  -2   1  -4 642.585 25.2775  11 
  -2   1  -4 652.413 27.0594   2 
  -2   1  -4 655.272 24.6490   5 
   2  -1   4 698.029 24.8789   1 
   2  -1   4 728.515 26.1622   2 
   2  -1   4 749.719 25.5070   3 
   2  -1   4 737.941 26.2824   2 
   2  -1   4 711.114 21.9329  13 
   2  -1   4 754.831 25.4406   5 
  -3   1  -4 187.088 9.56520  14 
  -3   1  -4 186.757 10.4891  11 
  -3   1  -4 199.602 9.98307   5 
  -3   1  -4 192.510 10.4516   3 
  -3   1  -4 177.610 9.42848   1 
  -3   1  -4 186.971 10.3449   3 
   3  -1   4 169.790 9.89489   3 
   3  -1   4 174.340 10.5199   2 
   3  -1   4 196.789 11.0566   2 
   3  -1   4 179.409 7.36097  13 
   3  -1   4 180.569 9.67602   1 
   3  -1   4 179.880 9.87141   5 
  -4   1  -4 22.5593 4.03693  14 
  -4   1  -4 25.7746 4.79201   3 
  -4   1  -4 17.5745 3.67958   5 
  -4   1  -4 23.3170 3.93927   1 
  -4   1  -4 27.8505 4.79913  11 
   4  -1   4 15.5316 2.48243  13 
   4  -1   4 11.2421 3.65359   2 
   4  -1   4 13.1838 3.44274   1 
   4  -1   4 10.6325 3.47934   3 
  -5   1  -4 49.2163 6.55932   3 
  -5   1  -4 41.3120 6.32337  11 
  -5   1  -4 48.9269 5.96857   5 
  -5   1  -4 38.7793 5.39804  14 
  -5   1  -4 41.4855 5.65651   1 
   5  -1   4 58.0460 7.05250   2 
   5  -1   4 60.3176 6.77257   1 
   5  -1   4 53.4346 6.56035   3 
  -6   1  -4 34.4049 6.63328   3 
  -6   1  -4 28.3026 5.62633  14 
  -6   1  -4 33.9942 7.03348   5 
  -6   1  -4 18.6867 5.72566  11 
  -6   1  -4 25.6171 5.32808   1 
   6  -1   4 21.9140 5.58970   2 
   6  -1   4 23.9910 5.68528   1 
  -7   1  -4 49.5066 8.69946  11 
  -7   1  -4 36.4619 8.04456   3 
  -7   1  -4 43.7619 7.08262   5 
  -7   1  -4 42.1880 7.19319   1 
  -7   1  -4 35.3330 6.98303  14 
   7  -1   4 45.1944 8.12981   1 
  -8   1  -4 15.6908 5.38162  14 
  -8   1  -4 17.4293 6.73274  11 
  -8   1  -4 12.8787 5.07344   1 
   8  -1   4 14.1545 5.92177   1 
  10   0  -4 1.78929 5.89430   1 
 -10   0   4 3.80421 5.52178   7 
 -10   0   4 9.62051 5.66618   1 
   9   0  -4 6.39100 4.85606   1 
  -9   0   4 3.17947 4.49058   7 
  -9   0   4 1.29912 3.77119   1 
  -9   0   4 1.49404 3.91351   3 
   8   0  -4 51.6824 7.97971   1 
   8   0  -4 26.0643 6.31424   3 
  -8   0   4 38.8303 7.10243   3 
  -8   0   4 37.9623 6.90348   1 
  -8   0   4 49.6768 7.75463   1 
  -8   0   4 30.8983 6.35708   7 
   7   0  -4 188.120 13.0971   3 
   7   0  -4 189.540 12.5754   1 
  -7   0   4 195.476 12.0895   7 
  -7   0   4 193.963 12.8764   3 
  -7   0   4 189.698 10.6738  12 
  -7   0   4 191.999 12.4352   1 
  -7   0   4 194.188 10.4171   4 
  -7   0   4 182.680 11.9504  14 
   6   0  -4 175.390 11.1453   1 
   6   0  -4 172.869 10.9016  14 
   6   0  -4 178.941 12.1406   2 
   6   0  -4 173.570 11.5790   3 
  -6   0   4 176.745 10.6718   7 
  -6   0   4 179.370 9.24222  12 
  -6   0   4 170.887 11.3020   3 
  -6   0   4 189.309 10.7983  14 
  -6   0   4 187.674 12.2814   2 
  -6   0   4 195.930 11.4198   1 
  -6   0   4 196.122 11.3274   5 
   5   0  -4 92.7243 7.07563  14 
   5   0  -4 85.5577 8.26688   5 
   5   0  -4 110.737 8.16718   3 
   5   0  -4 97.9569 7.86159   2 
   5   0  -4 102.088 7.44593   1 
  -5   0   4 98.9858 7.13426   5 
  -5   0   4 95.8960 5.98678  12 
  -5   0   4 98.5841 7.86958   2 
  -5   0   4 96.6350 6.89160  14 
  -5   0   4 90.4162 6.91768   1 
  -5   0   4 95.9795 6.83134   7 
  -5   0   4 96.3632 7.17881   5 
   4   0  -4 121.771 7.00532  14 
   4   0  -4 122.595 7.23098  14 
   4   0  -4 115.307 7.66136   3 
   4   0  -4 118.479 7.83852   2 
   4   0  -4 114.353 7.18548   1 
  -4   0   4 100.220 6.76953   1 
  -4   0   4 118.502 7.33486   5 
  -4   0   4 106.292 7.68121   2 
  -4   0   4 108.766 6.82193   7 
  -4   0   4 109.396 6.16376  12 
  -4   0   4 100.717 6.77006   5 
  -4   0   4 105.861 6.69348  14 
   3   0  -4 707.050 25.4808   1 
   3   0  -4 705.641 23.3920  10 
   3   0  -4 731.099 26.5653   2 
   3   0  -4 712.675 26.0276   3 
   3   0  -4 727.215 26.5209   5 
   3   0  -4 727.032 25.4011  14 
  -3   0   4 735.593 26.7930   2 
  -3   0   4 750.961 25.4617   7 
  -3   0   4 738.460 25.9383   5 
  -3   0   4 767.690 25.4709  14 
  -3   0   4 726.752 26.6640   2 
  -3   0   4 717.033 25.5590   1 
  -3   0   4 720.245 25.5684   5 
   2   0  -4 2216.38 69.2853  14 
   2   0  -4 2215.68 70.1098  11 
   2   0  -4 2227.50 67.9672   9 
   2   0  -4 2248.28 69.4799   5 
   2   0  -4 2206.43 70.3965   2 
   2   0  -4 2134.55 69.8200   3 
   2   0  -4 2258.78 69.5405   1 
   2   0  -4 2135.69 69.6194   8 
   2   0  -4 2192.95 69.6119   5 
  -2   0   4 2247.32 69.2996  14 
  -2   0   4 2257.04 69.7179   5 
  -2   0   4 2262.72 70.5611   2 
  -2   0   4 2257.26 69.7702   3 
  -2   0   4 2267.65 69.6768   5 
  -2   0   4 2217.24 70.4883   2 
  -2   0   4 2261.57 69.4694   1 
  -2   0   4 2246.39 69.4243   7 
   1   0  -4 2072.78 66.2844   5 
   1   0  -4 2072.73 66.4546   5 
   1   0  -4 2128.41 65.5010   6 
   1   0  -4 2226.70 66.3453   1 
   1   0  -4 2085.63 67.2355  11 
   1   0  -4 2137.52 66.3713   1 
   1   0  -4 2116.62 66.2123  14 
   1   0  -4 2078.46 66.7889   3 
   1   0  -4 2131.80 66.5720   8 
  -1   0   4 2199.28 67.0199   8 
  -1   0   4 2131.10 66.5686   5 
  -1   0   4 2144.24 65.0155   9 
  -1   0   4 2154.31 66.2665  14 
  -1   0   4 2157.22 67.4641   2 
  -1   0   4 2112.13 67.3067   2 
  -1   0   4 2132.77 66.4950   1 
  -1   0   4 2179.83 66.6795   7 
  -1   0   4 2154.75 67.5382   2 
  -1   0   4 2193.53 66.7498   5 
  -1   0   4 2168.97 66.8448   3 
   0   0  -4 24.1446 2.73463   5 
   0   0  -4 26.0272 2.71785   1 
   0   0  -4 23.7809 2.09869   6 
   0   0  -4 22.7657 2.88857   3 
   0   0  -4 25.7856 2.73749   5 
   0   0  -4 26.6537 2.48647  13 
   0   0  -4 23.9190 2.55534   1 
   0   0  -4 30.8687 4.04237   2 
   0   0  -4 25.3019 3.24060  11 
   0   0  -4 21.9682 2.54664  14 
   0   0   4 21.6767 2.02592   6 
   0   0   4 18.0444 2.55981   1 
   0   0   4 18.9181 3.06075   8 
   0   0   4 18.8220 2.92989   2 
   0   0   4 17.5596 2.55956   3 
   0   0   4 19.3240 2.55983   5 
   0   0   4 19.4773 2.97312   2 
  -1   0  -4 1300.53 43.3489  11 
  -1   0  -4 1338.38 42.0506  14 
  -1   0  -4 1344.84 43.0971   2 
  -1   0  -4 1339.49 42.9810   3 
  -1   0  -4 1309.20 42.2204   5 
  -1   0  -4 1307.26 41.9570   1 
  -1   0  -4 1356.54 42.0404   1 
  -1   0  -4 1288.31 42.2486   5 
  -1   0  -4 1309.02 41.0426  13 
  -1   0  -4 1246.47 42.5602   3 
   1   0   4 1338.71 42.5723   5 
   1   0   4 1310.05 40.9707  13 
   1   0   4 1271.83 43.2671   2 
   1   0   4 1269.77 43.2645   2 
   1   0   4 1279.25 42.2627   1 
  -2   0  -4 574.055 21.0755   3 
  -2   0  -4 536.648 21.2003  11 
  -2   0  -4 541.364 19.7093  14 
  -2   0  -4 544.292 20.1377   5 
  -2   0  -4 541.490 19.7521   1 
  -2   0  -4 546.038 20.7795   3 
  -2   0  -4 566.397 21.2114   2 
   2   0   4 531.466 21.1864   2 
   2   0   4 531.885 21.2182   2 
   2   0   4 558.016 20.5698   5 
   2   0   4 541.290 18.6195  13 
   2   0   4 518.506 19.9830   1 
  -3   0  -4 104.146 7.33969   2 
  -3   0  -4 97.1980 6.38953   1 
  -3   0  -4 102.352 6.71088   5 
  -3   0  -4 101.259 6.50679  14 
  -3   0  -4 111.099 7.50955   3 
  -3   0  -4 114.787 7.68503   3 
  -3   0  -4 97.3336 7.38616  11 
   3   0   4 98.6273 5.56908  13 
   3   0   4 98.6325 7.57804   2 
   3   0   4 96.2466 6.84439   1 
   3   0   4 100.665 6.98589   3 
   3   0   4 104.743 7.24951   5 
   3   0   4 103.628 7.77349   2 
  -4   0  -4 39.2698 4.63842   1 
  -4   0  -4 40.8693 4.90791   5 
  -4   0  -4 33.6172 4.48731  14 
  -4   0  -4 33.4790 5.15718  11 
  -4   0  -4 36.1750 5.27130   3 
   4   0   4 36.6141 5.67164   2 
   4   0   4 37.5881 5.16104   1 
   4   0   4 33.6346 4.81538   3 
  -5   0  -4 147.971 10.9812  11 
  -5   0  -4 150.154 9.74406  14 
  -5   0  -4 154.087 10.0305   5 
  -5   0  -4 151.981 9.62404   1 
  -5   0  -4 146.164 10.9284   3 
   5   0   4 153.244 10.7280   1 
   5   0   4 134.319 11.1384   2 
  -6   0  -4 71.7714 7.68210  14 
  -6   0  -4 80.4006 9.02247  11 
  -6   0  -4 81.0533 9.24190   3 
  -6   0  -4 90.9686 8.03234   1 
  -6   0  -4 77.8672 7.95092   5 
   6   0   4 65.5949 8.52744   1 
   6   0   4 68.7488 9.20868   2 
  -7   0  -4 32.2581 7.63418  11 
  -7   0  -4 49.5290 7.28671   5 
  -7   0  -4 43.7164 8.32385   3 
  -7   0  -4 43.8535 7.20428  14 
  -7   0  -4 37.8544 6.68606   1 
   7   0   4 38.2337 8.44690   2 
   7   0   4 42.4994 8.02363   1 
  -8   0  -4 8.37799 4.76163   5 
  -8   0  -4 6.75554 4.14250   1 
  -8   0  -4 8.55523 4.24587  14 
  -8   0  -4 8.71758 6.03375  11 
   8   0   4 5.58784 5.17986   1 
  10  -1  -4 1.97723 4.47329   1 
 -10   1   4 6.91896 5.24195   1 
 -10   1   4 1.84170 5.00508   7 
   9  -1  -4 16.6468 5.78207   1 
  -9   1   4 23.8286 6.43462   1 
  -9   1   4 24.1341 6.39317   7 
  -9   1   4 37.5217 7.88783   1 
  -9   1   4 18.5804 5.93983   3 
   8  -1  -4 54.7054 8.12199   1 
   8  -1  -4 71.4085 9.13508   3 
  -8   1   4 58.8170 8.25860   1 
  -8   1   4 52.2081 7.79040   7 
  -8   1   4 81.3376 9.08935   3 
   7  -1  -4 19.4304 4.80831   1 
   7  -1  -4 38.2316 6.66012   3 
  -7   1   4 27.9846 5.59950   1 
  -7   1   4 33.7526 6.28726   3 
  -7   1   4 31.9981 4.66448  12 
  -7   1   4 36.8891 4.28043   4 
  -7   1   4 39.7195 5.75835   7 
   6  -1  -4 45.0922 5.76666   1 
   6  -1  -4 49.6969 6.37346   2 
   6  -1  -4 43.7274 6.19818   3 
  -6   1   4 49.3221 5.97541   3 
  -6   1   4 58.5885 6.00843   5 
  -6   1   4 57.2613 6.76324   2 
  -6   1   4 40.5495 5.31993   7 
  -6   1   4 53.9599 6.01733   1 
  -6   1   4 54.0994 5.23095  12 
  -6   1   4 50.7827 5.59893  14 
   5  -1  -4 19.0787 3.80783   1 
   5  -1  -4 21.3320 3.41459   5 
   5  -1  -4 22.9119 4.23798   3 
   5  -1  -4 19.1719 3.83610   2 
   5  -1  -4 18.3590 3.70538  14 
  -5   1   4 17.7969 3.09474  12 
  -5   1   4 17.8765 4.00708   2 
  -5   1   4 16.2942 3.27455   5 
  -5   1   4 22.1832 3.61225  14 
  -5   1   4 20.6228 3.72302   1 
  -5   1   4 23.1857 3.68038   7 
  -5   1   4 17.9142 3.73831   3 
   4  -1  -4 295.968 10.9815  10 
   4  -1  -4 303.467 13.2237   1 
   4  -1  -4 301.398 13.1494  14 
   4  -1  -4 312.061 14.1465   2 
   4  -1  -4 303.545 13.2525   5 
  -4   1   4 289.134 12.9251  12 
  -4   1   4 292.870 13.0646   7 
  -4   1   4 332.801 13.7361   5 
  -4   1   4 312.284 14.6259   2 
  -4   1   4 313.383 13.3957   1 
  -4   1   4 307.710 13.1371  14 
  -4   1   4 319.727 14.7183   2 
   3  -1  -4 932.049 30.8159   8 
   3  -1  -4 879.787 29.1091  10 
   3  -1  -4 885.150 29.8281  14 
   3  -1  -4 866.805 30.0496   1 
   3  -1  -4 873.479 30.0937   5 
   3  -1  -4 880.970 30.8873   3 
   3  -1  -4 891.480 30.0978  14 
  -3   1   4 890.308 30.4076   7 
  -3   1   4 908.772 31.6976   2 
  -3   1   4 882.823 30.4608   5 
  -3   1   4 946.895 30.4526  14 
  -3   1   4 930.318 30.5891   1 
  -3   1   4 884.660 31.5011   2 
   2  -1  -4 473.621 17.7203   8 
   2  -1  -4 490.388 15.7915   9 
   2  -1  -4 500.758 18.5009   2 
   2  -1  -4 508.596 17.5437  14 
   2  -1  -4 477.870 17.3307   1 
   2  -1  -4 482.883 17.9330   6 
   2  -1  -4 483.214 17.6374   5 
   2  -1  -4 475.390 17.5282   1 
   2  -1  -4 486.201 18.2619   3 
   2  -1  -4 488.547 18.8266  11 
   2  -1  -4 481.472 17.8149  10 
   2  -1  -4 498.990 17.6233  14 
  -2   1   4 523.466 17.9523   1 
  -2   1   4 547.647 18.2573   5 
  -2   1   4 528.842 17.8552  14 
  -2   1   4 542.714 18.3857   3 
  -2   1   4 538.435 18.9734   2 
  -2   1   4 485.502 18.0180   7 
  -2   1   4 535.465 18.9690   2 
   1  -1  -4 220.892 10.0597   3 
   1  -1  -4 228.495 9.71013   6 
   1  -1  -4 230.660 10.2852  13 
   1  -1  -4 239.539 10.1766   2 
   1  -1  -4 238.612 10.8120  11 
   1  -1  -4 228.015 9.47129   1 
   1  -1  -4 247.940 10.7173  10 
   1  -1  -4 236.527 9.39671   1 
   1  -1  -4 233.801 9.78887   5 
   1  -1  -4 227.145 9.61447   5 
   1  -1  -4 234.822 9.52125  14 
  -1   1   4 277.005 10.8291   2 
  -1   1   4 282.251 10.6340   7 
  -1   1   4 293.884 10.3399   3 
  -1   1   4 269.065 10.7472   2 
  -1   1   4 288.873 10.3108   5 
  -1   1   4 268.859 9.97857   1 
   0  -1  -4 188.073 8.56925  13 
   0  -1  -4 197.941 7.85072   1 
   0  -1  -4 188.700 8.19151   5 
   0  -1  -4 191.668 8.31701   6 
   0  -1  -4 178.956 7.88604  14 
   0  -1  -4 181.319 8.12291   5 
   0  -1  -4 183.885 9.21220  11 
   0  -1  -4 197.203 8.66553   2 
   0  -1  -4 183.903 8.61321   3 
   0  -1  -4 193.933 7.87465   1 
   0   1   4 219.432 8.62698   3 
   0   1   4 223.697 9.44851   2 
   0   1   4 221.942 8.92508  13 
   0   1   4 217.313 9.38965   2 
   0   1   4 226.752 8.76494   1 
  -1  -1  -4 556.070 20.6623   3 
  -1  -1  -4 534.850 19.5108  14 
  -1  -1  -4 558.283 20.1075  13 
  -1  -1  -4 583.122 20.6044   2 
  -1  -1  -4 562.956 21.5272  11 
  -1  -1  -4 553.749 19.9274   5 
  -1  -1  -4 588.730 19.5136   1 
  -1  -1  -4 578.305 20.8762   3 
  -1  -1  -4 575.505 19.5202   1 
   1   1   4 612.046 20.2660  13 
   1   1   4 585.833 21.3600   2 
   1   1   4 596.482 21.4271   2 
   1   1   4 580.914 20.3690   1 
  -2  -1  -4 570.780 24.0514   2 
  -2  -1  -4 438.769 18.3048   4 
  -2  -1  -4 450.011 16.6781   1 
  -2  -1  -4 458.445 18.8130  11 
  -2  -1  -4 472.975 18.3765   3 
  -2  -1  -4 462.211 16.8660   1 
  -2  -1  -4 472.443 17.4232   5 
  -2  -1  -4 437.975 16.8545  14 
  -2  -1  -4 469.327 18.4033   3 
   2   1   4 468.592 17.7912   1 
   2   1   4 472.928 17.2735  13 
   2   1   4 441.554 18.5164   2 
   2   1   4 458.069 18.8566   2 
  -3  -1  -4 93.2227 5.96263  14 
  -3  -1  -4 89.8555 5.83760  14 
  -3  -1  -4 94.9673 7.11401   3 
  -3  -1  -4 90.3878 6.81132   4 
  -3  -1  -4 96.3283 7.06830   3 
  -3  -1  -4 105.211 7.62354  11 
  -3  -1  -4 89.7484 6.24067   5 
  -3  -1  -4 95.6867 5.96905   1 
   3   1   4 86.1167 7.20539   2 
   3   1   4 86.4663 7.30396   2 
   3   1   4 96.1818 6.58410   3 
   3   1   4 91.8990 6.70339   1 
  -4  -1  -4 25.3346 3.77274  14 
  -4  -1  -4 36.3655 5.24628  11 
  -4  -1  -4 24.1206 3.95084   5 
  -4  -1  -4 26.0537 4.66744  10 
  -4  -1  -4 30.2107 5.18322   3 
  -4  -1  -4 25.6700 3.78844   1 
  -4  -1  -4 27.7914 4.59030   4 
  -4  -1  -4 20.6056 3.80788  14 
   4   1   4 23.1541 4.43947   1 
   4   1   4 28.7887 4.42680   3 
   4   1   4 25.2459 5.06717   2 
  -5  -1  -4 248.199 12.6421  14 
  -5  -1  -4 250.522 12.5627   1 
  -5  -1  -4 249.609 14.7348  11 
  -5  -1  -4 275.480 15.3855   3 
  -5  -1  -4 240.422 13.0112   5 
  -5  -1  -4 249.219 14.1452  10 
  -5  -1  -4 246.558 13.5579   4 
   5   1   4 240.945 15.2776   2 
   5   1   4 265.690 14.4344   1 
  -6  -1  -4 51.9189 7.90602   3 
  -6  -1  -4 49.3806 6.63186  10 
  -6  -1  -4 48.3106 7.95045  11 
  -6  -1  -4 52.3627 6.14164   1 
  -6  -1  -4 40.5180 6.09929  14 
  -6  -1  -4 47.8343 6.51182   5 
   6   1   4 51.3908 8.52292   2 
   6   1   4 54.6687 7.80648   1 
  -7  -1  -4 13.0787 5.57732  11 
  -7  -1  -4 9.82600 3.92468  14 
  -7  -1  -4 8.99663 4.11279   5 
  -7  -1  -4 16.1921 4.25358   1 
   7   1   4 12.9345 5.43176   2 
   7   1   4 12.6858 5.85677   1 
 -10   2   4 11.0641 6.12546   7 
 -10   2   4 13.3002 6.09653   1 
   9  -2  -4 36.1512 7.50134   1 
   9  -2  -4 29.4496 7.94525   3 
  -9   2   4 37.2214 7.57913   7 
  -9   2   4 34.1143 7.34857   1 
  -9   2   4 34.5693 7.87683   1 
   8  -2  -4 52.5542 7.51882   1 
   8  -2  -4 38.8133 7.71340   3 
  -8   2   4 52.7606 7.51720   7 
  -8   2   4 42.6080 7.24140   1 
  -8   2   4 50.3833 7.63510   3 
  -8   2   4 46.5803 6.36583  12 
   7  -2  -4 35.1662 6.03039   1 
   7  -2  -4 35.7906 6.37375   3 
  -7   2   4 37.5369 6.12079   3 
  -7   2   4 49.7319 7.07704   2 
  -7   2   4 41.7301 6.34003   1 
  -7   2   4 43.8156 6.21558   7 
  -7   2   4 37.8262 5.33563  12 
   6  -2  -4 40.3879 5.31963   1 
   6  -2  -4 43.8261 5.96420   5 
   6  -2  -4 39.0884 5.85684   3 
  -6   2   4 37.8351 5.21897   1 
  -6   2   4 35.0202 7.16618  14 
  -6   2   4 30.7708 5.11082   3 
  -6   2   4 33.1387 4.86352  12 
  -6   2   4 36.2090 5.71594   2 
  -6   2   4 28.4084 4.65667   7 
   5  -2  -4 273.415 11.9623  14 
   5  -2  -4 245.285 11.8582   1 
   5  -2  -4 269.772 13.2812   3 
   5  -2  -4 261.518 12.1784   5 
  -5   2   4 246.305 12.2193  12 
  -5   2   4 235.616 11.9722   1 
  -5   2   4 236.029 12.0047   5 
  -5   2   4 254.118 12.4814   3 
  -5   2   4 267.984 13.7321   2 
  -5   2   4 227.880 11.5912  14 
  -5   2   4 229.553 9.64379  10 
  -5   2   4 237.251 13.1716   2 
  -5   2   4 214.682 11.4829   7 
   4  -2  -4 303.552 13.7946   3 
   4  -2  -4 317.693 12.9634  14 
   4  -2  -4 304.923 12.5830  14 
   4  -2  -4 313.033 13.0260   5 
   4  -2  -4 313.129 13.2709   8 
   4  -2  -4 304.069 12.7822   1 
   4  -2  -4 308.082 11.8946  10 
  -4   2   4 313.444 14.3914   2 
  -4   2   4 302.535 12.9325  14 
  -4   2   4 305.875 13.2177   1 
  -4   2   4 288.302 13.3924  12 
  -4   2   4 315.822 12.0078  10 
  -4   2   4 286.548 14.1684   2 
  -4   2   4 300.586 13.2307   5 
  -4   2   4 286.581 12.9993   7 
   3  -2  -4 1036.92 34.7154   8 
   3  -2  -4 1070.22 34.9210   5 
   3  -2  -4 1054.29 35.5398   2 
   3  -2  -4 1044.33 34.5964   1 
   3  -2  -4 1048.00 34.6597  14 
   3  -2  -4 1066.89 34.5345  14 
   3  -2  -4 1070.27 34.5330   1 
   3  -2  -4 1025.27 35.6151   3 
   3  -2  -4 1029.56 34.7598  10 
   3  -2  -4 1044.26 35.8674   6 
  -3   2   4 1061.90 36.4411   2 
  -3   2   4 1123.51 35.6273   5 
  -3   2   4 1078.62 35.3689   1 
  -3   2   4 1096.29 36.5035   2 
  -3   2   4 1089.09 35.0235  10 
  -3   2   4 1063.82 35.4469   7 
   2  -2  -4 232.962 10.6737  11 
   2  -2  -4 233.773 8.69359   1 
   2  -2  -4 220.701 10.0134   6 
   2  -2  -4 209.282 8.74342  14 
   2  -2  -4 225.166 8.66043   1 
   2  -2  -4 200.082 9.50646   3 
   2  -2  -4 204.101 9.86668  10 
   2  -2  -4 199.842 10.1889  13 
   2  -2  -4 228.531 9.66706   2 
   2  -2  -4 210.446 8.94575   5 
  -2   2   4 248.090 10.3706   2 
  -2   2   4 263.216 10.2484   7 
  -2   2   4 248.416 9.53933   1 
  -2   2   4 254.388 10.4220   2 
   1  -2  -4 314.520 12.6811  13 
   1  -2  -4 314.642 10.4137  14 
   1  -2  -4 321.326 10.7774   5 
   1  -2  -4 317.933 12.7535  11 
   1  -2  -4 313.293 11.6640   3 
   1  -2  -4 308.722 9.89250   1 
   1  -2  -4 312.461 12.7544  10 
   1  -2  -4 315.907 12.1384   6 
  -1   2   4 264.693 11.5871   7 
  -1   2   4 265.926 10.9159   1 
  -1   2   4 271.112 11.5982   2 
  -1   2   4 277.279 10.8099   3 
  -1   2   4 252.994 11.4489   2 
   0  -2  -4 523.541 16.9667  14 
   0  -2  -4 514.871 18.4509   3 
   0  -2  -4 524.952 19.0725   6 
   0  -2  -4 544.126 17.4235   5 
   0  -2  -4 537.155 20.1727  10 
   0  -2  -4 509.876 19.1578  13 
   0  -2  -4 518.841 19.5145  11 
   0   2   4 513.245 18.0250   1 
   0   2   4 522.700 18.9226   2 
   0   2   4 515.680 18.8914   2 
   0   2   4 520.494 17.7707   3 
  -1  -2  -4 930.483 30.6644   5 
  -1  -2  -4 942.338 30.3022  14 
  -1  -2  -4 981.035 32.3415   3 
  -1  -2  -4 944.151 32.0437   3 
  -1  -2  -4 980.665 33.6681   4 
  -1  -2  -4 983.536 33.3367  11 
  -1  -2  -4 963.976 32.6656   6 
  -1  -2  -4 982.781 29.6183   1 
  -1  -2  -4 960.729 33.7639  10 
  -1  -2  -4 975.274 32.7277  13 
   1   2   4 940.299 31.5499   1 
   1   2   4 932.777 32.5284   2 
   1   2   4 937.338 32.6344   2 
  -2  -2  -4 59.2793 4.00117  14 
  -2  -2  -4 60.0402 5.88469  10 
  -2  -2  -4 65.5365 5.81518  11 
  -2  -2  -4 67.5053 5.32164   3 
  -2  -2  -4 69.4538 6.01212   4 
  -2  -2  -4 65.9810 4.14801  14 
  -2  -2  -4 66.4301 5.41973   3 
  -2  -2  -4 68.1331 4.53838   5 
  -2  -2  -4 64.8294 3.67620   1 
   2   2   4 81.3451 6.13733   2 
   2   2   4 84.4999 5.53587   1 
   2   2   4 87.8240 6.18393   2 
  -3  -2  -4 7.58282 2.31895   5 
  -3  -2  -4 12.5076 3.36958  11 
  -3  -2  -4 10.0407 2.27522  14 
  -3  -2  -4 10.2532 2.25435  14 
  -3  -2  -4 9.21995 3.05309   4 
  -3  -2  -4 9.11399 1.90750   1 
  -3  -2  -4 12.0028 3.27716   3 
  -3  -2  -4 10.9586 3.25909  10 
   3   2   4 3.82275 2.53671   2 
   3   2   4 5.57325 2.54832   2 
   3   2   4 3.79174 2.12109   1 
  -4  -2  -4 61.6873 5.60924   5 
  -4  -2  -4 69.3149 7.08807   3 
  -4  -2  -4 70.1731 5.48631  14 
  -4  -2  -4 69.4636 7.15940  10 
  -4  -2  -4 61.8128 5.06502  14 
  -4  -2  -4 71.2050 7.00197   4 
  -4  -2  -4 67.5125 4.83492   1 
  -4  -2  -4 67.5961 7.20932  11 
   4   2   4 63.8132 6.51770   1 
   4   2   4 68.9421 7.49346   2 
  -5  -2  -4 109.462 9.59141  11 
  -5  -2  -4 121.366 10.1685   3 
  -5  -2  -4 123.243 9.78072   4 
  -5  -2  -4 118.955 7.66147  14 
  -5  -2  -4 109.892 6.89531   1 
  -5  -2  -4 115.325 9.42503  10 
  -5  -2  -4 110.228 8.17431   5 
  -5  -2  -4 101.788 7.39042  14 
   5   2   4 124.704 9.73565   1 
   5   2   4 108.939 10.4098   2 
  -6  -2  -4 28.2914 6.87423   3 
  -6  -2  -4 40.7314 6.89310   4 
  -6  -2  -4 37.5258 5.43756  14 
  -6  -2  -4 41.7449 7.26290  11 
  -6  -2  -4 26.5591 5.32837   5 
  -6  -2  -4 36.5112 6.49470  10 
   6   2   4 40.4586 8.12077   2 
   6   2   4 38.5694 7.22044   1 
  -7  -2  -4 6.09479 3.80908   5 
  -7  -2  -4 2.20045 4.11671  11 
  -7  -2  -4 1.35063 2.97498  14 
   7   2   4 5.69939 4.76134   1 
   7   2   4 -1.6241 3.65080   2 
  10  -3  -4 27.5151 7.21665   1 
  10  -3  -4 30.9791 9.01176   3 
 -10   3   4 21.6884 7.32860   7 
 -10   3   4 12.8713 5.67731   1 
   9  -3  -4 57.8857 8.34733   1 
   9  -3  -4 47.5517 9.52848   3 
  -9   3   4 55.3657 8.60375   1 
  -9   3   4 39.0881 8.18923   1 
  -9   3   4 36.4376 7.47496   7 
   8  -3  -4 79.0288 8.48456   1 
   8  -3  -4 76.8427 9.66820   3 
  -8   3   4 63.3940 7.53230  12 
  -8   3   4 72.6075 8.24734   7 
  -8   3   4 71.7821 8.53981   1 
   7  -3  -4 15.2088 4.23992   1 
   7  -3  -4 15.4466 4.62770   3 
  -7   3   4 13.9454 4.16876   3 
  -7   3   4 9.83294 3.68415  12 
  -7   3   4 8.71498 4.02766   2 
  -7   3   4 9.97263 3.62179   7 
  -7   3   4 3.01810 2.83622   1 
   6  -3  -4 75.2698 6.35627   5 
   6  -3  -4 76.2635 7.58355   3 
   6  -3  -4 77.4186 6.63143   1 
  -6   3   4 73.8737 6.77437   1 
  -6   3   4 68.5989 7.44933   2 
  -6   3   4 59.6650 6.19006   7 
  -6   3   4 53.2495 6.07995  12 
  -6   3   4 68.6171 6.49927   3 
   5  -3  -4 351.128 16.4682   3 
   5  -3  -4 337.489 15.0213   1 
   5  -3  -4 360.840 16.3107   2 
   5  -3  -4 364.733 15.0333  14 
   5  -3  -4 357.958 15.3954   5 
  -5   3   4 365.802 17.0120   2 
  -5   3   4 358.458 17.0958   2 
  -5   3   4 379.765 14.3581  10 
  -5   3   4 354.789 16.3896  12 
  -5   3   4 358.108 15.6528   7 
  -5   3   4 362.624 15.9364   3 
  -5   3   4 361.858 15.7890   1 
  -5   3   4 378.162 15.7953  14 
  -5   3   4 382.655 16.0892   5 
   4  -3  -4 749.873 26.4898  14 
   4  -3  -4 767.720 27.0993  10 
   4  -3  -4 803.290 26.8897   1 
   4  -3  -4 742.250 28.1393   3 
   4  -3  -4 804.635 29.4148   1 
   4  -3  -4 763.931 26.9764   5 
   4  -3  -4 770.908 28.6837   6 
   4  -3  -4 795.047 28.1510   2 
   4  -3  -4 774.742 26.7730   8 
  -4   3   4 797.003 27.7157   1 
  -4   3   4 810.897 27.2843  10 
  -4   3   4 786.938 27.5170   3 
  -4   3   4 790.326 27.8519   7 
  -4   3   4 768.722 28.9888   2 
  -4   3   4 803.410 29.1484  12 
  -4   3   4 798.763 29.0302   2 
   3  -3  -4 148.376 6.47578  14 
   3  -3  -4 146.348 5.87122   8 
   3  -3  -4 137.966 6.68965   5 
   3  -3  -4 151.077 7.90539  10 
   3  -3  -4 141.243 6.21915   1 
   3  -3  -4 158.831 8.88739  13 
   3  -3  -4 139.310 7.54584   3 
   3  -3  -4 147.242 8.25011   6 
   3  -3  -4 153.749 6.26214   1 
  -3   3   4 140.386 7.97703   2 
  -3   3   4 133.477 7.42498   7 
  -3   3   4 128.062 6.77209   3 
  -3   3   4 141.268 7.21923   1 
  -3   3   4 145.689 8.03924   2 
   2  -3  -4 36.8188 4.28582  13 
   2  -3  -4 36.2722 2.59098   5 
   2  -3  -4 39.8058 3.45641   3 
   2  -3  -4 35.8516 4.01107   6 
   2  -3  -4 34.2496 4.00786  10 
  -2   3   4 45.3498 3.83796   7 
  -2   3   4 49.3699 3.42806   1 
  -2   3   4 52.6108 3.93574   2 
  -2   3   4 50.3813 3.94715   2 
   1  -3  -4 199.532 9.66360  11 
   1  -3  -4 188.568 9.89164  13 
   1  -3  -4 189.922 8.23649   3 
   1  -3  -4 198.205 9.66235   6 
   1  -3  -4 192.724 10.0314  10 
  -1   3   4 200.170 7.92584   1 
  -1   3   4 184.743 8.47435   2 
  -1   3   4 206.818 6.98083   9 
  -1   3   4 193.628 8.81219   7 
  -1   3   4 199.217 8.59533   2 
   0  -3  -4 483.861 19.2098   4 
   0  -3  -4 475.612 18.7727  13 
   0  -3  -4 478.609 16.9748   3 
   0  -3  -4 481.354 18.6225   6 
   0  -3  -4 483.082 18.3420  11 
   0  -3  -4 472.000 19.2164  10 
   0   3   4 471.931 17.3258   2 
   0   3   4 468.955 16.4567   1 
   0   3   4 455.574 17.2080   2 
  -1  -3  -4 650.806 25.4975  10 
  -1  -3  -4 679.309 25.7942   4 
  -1  -3  -4 667.368 24.6926  11 
  -1  -3  -4 669.854 25.0274   6 
  -1  -3  -4 687.465 25.2326  13 
  -1  -3  -4 659.541 23.5181   3 
   1   3   4 677.572 23.1353   1 
   1   3   4 675.106 24.1501   2 
   1   3   4 672.901 23.9970   2 
  -2  -3  -4 74.3079 5.83843   3 
  -2  -3  -4 79.7359 6.89198  10 
  -2  -3  -4 62.3713 5.78012  11 
  -2  -3  -4 80.7607 6.82208   4 
  -2  -3  -4 78.1119 5.70524   3 
   2   3   4 82.4661 5.59659   1 
   2   3   4 71.4439 5.96222   2 
   2   3   4 73.1405 6.02614   2 
  -3  -3  -4 81.8777 6.83223   3 
  -3  -3  -4 73.5517 4.23755  14 
  -3  -3  -4 78.7352 4.86674   5 
  -3  -3  -4 67.6594 6.97675   4 
  -3  -3  -4 87.4053 7.67572  10 
  -3  -3  -4 79.1315 6.94958  11 
  -3  -3  -4 71.3250 4.09887  14 
   3   3   4 74.0311 6.23042   1 
   3   3   4 61.8835 6.51785   2 
  -4  -3  -4 62.8355 4.56039  14 
  -4  -3  -4 60.6532 5.09672   5 
  -4  -3  -4 63.5418 4.54305  14 
  -4  -3  -4 67.3281 7.40325  10 
  -4  -3  -4 65.9829 7.26881   3 
  -4  -3  -4 66.4360 6.93332  11 
  -4  -3  -4 59.8444 7.21794   4 
   4   3   4 74.7319 8.00493   2 
   4   3   4 69.6522 6.83611   1 
  -5  -3  -4 22.9299 3.82569  14 
  -5  -3  -4 33.1879 6.61435   3 
  -5  -3  -4 20.3701 5.06571  11 
  -5  -3  -4 26.8665 5.77915  10 
  -5  -3  -4 22.6374 3.44814  14 
  -5  -3  -4 23.5095 5.60875   4 
  -5  -3  -4 23.7312 4.36909   5 
   5   3   4 28.5891 5.92654   1 
   5   3   4 21.6433 5.93357   2 
  -6  -3  -4 5.92900 3.77581  11 
  -6  -3  -4 5.23991 2.86996   5 
  -6  -3  -4 5.03160 2.54276  14 
  -6  -3  -4 3.70718 2.40594  14 
  -6  -3  -4 -1.8360 3.15653   4 
  -6  -3  -4 3.26362 2.75354   5 
   6   3   4 0.33748 3.75024   2 
  -7  -3  -4 32.9128 6.15841  14 
  -7  -3  -4 21.2471 4.63853   5 
  -7  -3  -4 30.2847 5.15804  14 
  -7  -3  -4 21.9750 4.79797   5 
   7   3   4 22.0463 7.80398   2 
  10  -4  -4 15.8084 6.22666   1 
 -10   4   4 24.5714 7.52694   1 
 -10   4   4 22.5495 7.00150   1 
 -10   4   4 15.6263 6.33464   7 
   9  -4  -4 26.2478 7.19713   3 
   9  -4  -4 38.7681 7.28456   1 
  -9   4   4 40.2937 7.74344   1 
  -9   4   4 35.9314 7.36904  12 
  -9   4   4 35.7435 7.27101   7 
  -9   4   4 31.0704 6.90027   1 
   8  -4  -4 8.75745 3.78167   1 
   8  -4  -4 2.57860 3.77999   3 
  -8   4   4 15.6641 4.96249  12 
  -8   4   4 8.94142 4.61818   2 
  -8   4   4 5.54082 3.73797   7 
  -8   4   4 10.4033 4.33039   1 
   7  -4  -4 76.6248 7.22074   1 
   7  -4  -4 77.8319 8.47152   3 
  -7   4   4 62.4697 7.15400   7 
  -7   4   4 66.1238 7.44928   1 
  -7   4   4 64.6365 7.71449  12 
  -7   4   4 65.9839 8.12491   2 
   6  -4  -4 229.784 11.4717   1 
   6  -4  -4 226.051 13.1507   3 
   6  -4  -4 224.069 11.1532  14 
   6  -4  -4 228.415 11.6926   5 
  -6   4   4 201.096 11.7943   1 
  -6   4   4 197.564 13.0626   2 
  -6   4   4 218.339 12.1656   3 
  -6   4   4 221.657 13.0523  12 
  -6   4   4 224.163 12.0836   7 
   5  -4  -4 225.068 10.6936   5 
   5  -4  -4 212.207 12.3792  13 
   5  -4  -4 220.075 11.9965   3 
   5  -4  -4 226.161 10.2548  14 
   5  -4  -4 232.348 12.6641   6 
   5  -4  -4 229.435 10.4057   8 
   5  -4  -4 233.456 10.4105   1 
  -5   4   4 221.477 12.4855   2 
  -5   4   4 230.451 11.4522   1 
  -5   4   4 224.979 12.6112  12 
  -5   4   4 220.293 11.2715   7 
  -5   4   4 228.330 12.5425   2 
  -5   4   4 224.596 11.0917   3 
   4  -4  -4 225.815 8.44601   8 
   4  -4  -4 221.837 12.1394  13 
   4  -4  -4 216.533 11.0048  10 
   4  -4  -4 230.034 9.93997   5 
   4  -4  -4 218.734 9.46366  14 
   4  -4  -4 225.876 9.11558   1 
   4  -4  -4 229.734 9.25224   1 
   4  -4  -4 222.668 11.9441   6 
   4  -4  -4 196.902 10.8867   3 
  -4   4   4 251.527 11.8939   2 
  -4   4   4 248.750 10.9528   1 
  -4   4   4 253.208 10.4793   3 
  -4   4   4 247.790 12.8026  12 
  -4   4   4 261.740 11.3680   7 
  -4   4   4 246.525 12.0493   2 
   3  -4  -4 97.1950 4.44100   5 
   3  -4  -4 102.070 5.95557   3 
   3  -4  -4 97.3329 6.77102   6 
   3  -4  -4 114.620 7.79869  13 
   3  -4  -4 104.445 6.81702  10 
  -3   4   4 81.4375 5.17200   1 
  -3   4   4 83.0043 5.86274   2 
  -3   4   4 85.4674 4.67393   3 
  -3   4   4 93.9576 7.27710  12 
  -3   4   4 78.9047 5.61235   7 
  -3   4   4 84.7233 5.96866   2 
   2  -4  -4 482.816 18.7860   6 
   2  -4  -4 463.776 18.8403  10 
   2  -4  -4 472.282 16.7036   3 
   2  -4  -4 485.089 19.4576  13 
  -2   4   4 459.666 16.1322   1 
  -2   4   4 434.284 16.8195   2 
  -2   4   4 469.741 17.2593   7 
  -2   4   4 449.277 16.8979   2 
   1  -4  -4 346.708 15.4503   4 
   1  -4  -4 368.740 15.7799  13 
   1  -4  -4 349.263 12.8294   3 
   1  -4  -4 359.247 14.7299  11 
   1  -4  -4 353.696 15.6727  10 
   1  -4  -4 355.245 15.2323   6 
  -1   4   4 348.000 12.3575   1 
  -1   4   4 353.306 12.2992   9 
  -1   4   4 344.561 13.0989   2 
  -1   4   4 334.560 13.0200   2 
  -1   4   4 346.677 13.6302   7 
   0  -4  -4 437.468 17.2777  11 
   0  -4  -4 432.729 18.0922   6 
   0  -4  -4 434.233 15.6031   3 
   0  -4  -4 431.423 18.4387  13 
   0  -4  -4 429.521 15.6103   3 
   0  -4  -4 434.029 18.6326  10 
   0  -4  -4 418.579 18.3788   4 
   0   4   4 411.413 14.8925   1 
   0   4   4 447.080 16.0495   2 
   0   4   4 438.205 16.0306   2 
  -1  -4  -4 73.9477 6.79141   4 
  -1  -4  -4 70.6879 4.96242   3 
  -1  -4  -4 77.4411 6.65380   6 
  -1  -4  -4 79.7483 7.10988  10 
  -1  -4  -4 62.8759 6.33074  13 
  -1  -4  -4 75.6549 5.83887  11 
  -1  -4  -4 79.1083 5.25985   3 
   1   4   4 85.7996 4.96019   1 
   1   4   4 82.5778 5.48690   2 
   1   4   4 88.3002 5.79287   2 
  -2  -4  -4 86.1247 8.03787   4 
  -2  -4  -4 102.909 7.30759  11 
  -2  -4  -4 114.246 8.84314  10 
  -2  -4  -4 106.510 7.10939   3 
   2   4   4 115.900 6.86101   1 
   2   4   4 109.656 7.46840   2 
   2   4   4 114.946 7.49408   2 
  -3  -4  -4 77.7667 6.71150  11 
  -3  -4  -4 74.0013 7.71294   4 
  -3  -4  -4 76.4913 6.77712   3 
  -3  -4  -4 77.3149 7.96426  10 
   3   4   4 74.5868 6.39367   1 
   3   4   4 68.3344 7.00343   2 
  -4  -4  -4 64.6158 8.12050   4 
  -4  -4  -4 58.7738 6.55014  11 
  -4  -4  -4 61.6693 7.22129   3 
  -4  -4  -4 60.5661 7.54136  10 
   4   4   4 60.9234 7.74757   2 
  -5  -4  -4 20.7883 6.08309   4 
  -5  -4  -4 24.5914 5.75878  10 
  -5  -4  -4 18.9799 5.52554   3 
   5   4   4 35.2087 7.52586   2 
  -6  -4  -4 13.5667 5.94569   4 
   6   4   4 11.1529 5.23470   2 
  10  -5  -4 21.3289 6.11339   1 
 -10   5   4 19.4693 7.39821   1 
 -10   5   4 23.0997 7.12343   7 
 -10   5   4 25.9089 7.76647   1 
   9  -5  -4 8.68237 3.96593   1 
   9  -5  -4 14.5622 5.26852   5 
   9  -5  -4 15.0434 5.88581   3 
  -9   5   4 17.0495 5.66051  12 
  -9   5   4 13.8756 5.28698   1 
  -9   5   4 16.6743 5.30909   7 
   8  -5  -4 28.3959 6.99037   3 
   8  -5  -4 17.0475 4.85760   5 
   8  -5  -4 25.3161 5.28010   1 
   8  -5  -4 27.5983 6.82333  13 
  -8   5   4 17.9672 4.81138   1 
  -8   5   4 20.0392 6.09191   2 
  -8   5   4 23.2110 5.66943   7 
  -8   5   4 10.4580 4.98909  12 
   7  -5  -4 103.649 8.61066   5 
   7  -5  -4 113.350 8.28661   5 
   7  -5  -4 120.955 8.40296   1 
   7  -5  -4 118.759 10.1244  13 
   7  -5  -4 105.858 9.87740   6 
   7  -5  -4 110.777 9.95836   3 
   7  -5  -4 114.750 8.28366   8 
  -7   5   4 89.8235 9.54884  12 
  -7   5   4 105.864 10.3058   2 
  -7   5   4 108.912 9.17971   1 
  -7   5   4 114.597 9.25353   7 
   6  -5  -4 186.120 12.1554   6 
   6  -5  -4 188.460 9.46184   8 
   6  -5  -4 188.630 9.62834  14 
   6  -5  -4 209.187 12.9000  13 
   6  -5  -4 178.699 10.4153   5 
   6  -5  -4 184.243 10.0557   5 
   6  -5  -4 181.201 11.8461   3 
   6  -5  -4 184.603 9.53253   1 
  -6   5   4 192.225 12.5430  12 
  -6   5   4 207.338 11.5034   1 
  -6   5   4 196.011 12.6007   2 
  -6   5   4 195.076 11.1953   7 
   5  -5  -4 166.912 11.3901  13 
   5  -5  -4 178.208 9.29089   5 
   5  -5  -4 179.474 8.08161   1 
   5  -5  -4 186.364 8.60488  14 
   5  -5  -4 176.219 8.89669   5 
   5  -5  -4 175.621 10.6801   3 
   5  -5  -4 180.557 11.3115   6 
  -5   5   4 191.851 11.2975   2 
  -5   5   4 217.025 10.8116   3 
  -5   5   4 189.868 11.2717   2 
  -5   5   4 200.734 12.2114  12 
  -5   5   4 205.021 10.4703   7 
  -5   5   4 197.037 10.2842   1 
   4  -5  -4 115.874 7.40353   3 
   4  -5  -4 117.071 5.57077   5 
   4  -5  -4 126.097 5.72960   9 
   4  -5  -4 124.583 8.99971  13 
   4  -5  -4 106.483 8.12846   6 
   4  -5  -4 125.825 5.82755   5 
   4  -5  -4 117.994 7.89036  10 
  -4   5   4 116.327 6.90405   1 
  -4   5   4 105.116 8.60912  12 
  -4   5   4 112.016 7.57070   2 
  -4   5   4 108.081 7.51368   2 
  -4   5   4 111.316 7.14497   7 
  -4   5   4 116.734 5.94637   3 
   3  -5  -4 279.425 13.6148  10 
   3  -5  -4 286.689 11.9322   3 
   3  -5  -4 289.609 14.5158  13 
   3  -5  -4 270.924 13.5477   6 
  -3   5   4 283.863 12.1998   2 
  -3   5   4 279.022 11.2701   1 
  -3   5   4 280.246 12.0535   7 
  -3   5   4 269.228 14.3189  12 
  -3   5   4 269.129 12.1101   2 
   2  -5  -4 619.786 24.8802  13 
   2  -5  -4 619.975 24.4324  10 
   2  -5  -4 627.748 23.9630   4 
   2  -5  -4 581.019 23.8872   6 
   2  -5  -4 594.016 20.9770   3 
  -2   5   4 639.892 20.5743   1 
  -2   5   4 636.718 21.9579   7 
  -2   5   4 599.071 21.2576   2 
  -2   5   4 611.362 21.3463   2 
   1  -5  -4 240.755 12.7934  10 
   1  -5  -4 237.530 11.2715  11 
   1  -5  -4 235.610 12.4964   4 
   1  -5  -4 232.577 9.26894   3 
   1  -5  -4 233.061 12.7125  13 
   1  -5  -4 236.484 12.4595   6 
  -1   5   4 241.268 9.55808   2 
  -1   5   4 242.768 8.88521   1 
  -1   5   4 246.700 10.4087   7 
  -1   5   4 231.775 9.50631   2 
   0  -5  -4 31.8405 4.91828   4 
   0  -5  -4 37.8510 3.22341   3 
   0  -5  -4 27.0484 5.01604  13 
   0  -5  -4 28.6257 4.90037  10 
   0  -5  -4 30.4193 4.78604   6 
   0  -5  -4 36.7446 4.15508  11 
   0  -5  -4 30.4712 2.90215   3 
   0   5   4 38.5670 2.85805   1 
   0   5   4 36.7679 3.37719   2 
   0   5   4 37.6693 3.40550   2 
   0   5   4 33.2494 3.66683   7 
  -1  -5  -4 162.939 11.0163   4 
  -1  -5  -4 179.780 11.3000  10 
  -1  -5  -4 174.151 10.9468   6 
  -1  -5  -4 173.055 9.23575  11 
  -1  -5  -4 174.004 8.36204   3 
   1   5   4 152.966 8.30887   2 
   1   5   4 168.773 8.74178   2 
  -2  -5  -4 184.964 12.6463   4 
  -2  -5  -4 188.026 12.5682  10 
  -2  -5  -4 201.057 10.3420   3 
  -2  -5  -4 204.690 10.7443  11 
   2   5   4 208.093 10.9347   2 
   2   5   4 195.247 10.5928   2 
  -3  -5  -4 106.552 9.39724  10 
  -3  -5  -4 111.927 7.99465  11 
  -3  -5  -4 96.9161 9.73851   4 
  -3  -5  -4 100.082 7.92159   3 
   3   5   4 78.8763 7.74401   2 
  -4  -5  -4 13.3797 4.69058  10 
  -4  -5  -4 15.0583 4.50967   3 
  -4  -5  -4 15.5476 5.59437   4 
   4   5   4 15.6162 4.98180   2 
  -5  -5  -4 15.5801 6.10065   4 
   5   5   4 25.8168 6.76919   2 
  -6  -5  -4 49.0916 10.1597   4 
  10  -6  -4 0.62210 3.73812   1 
  10  -6  -4 0.76545 4.58821   6 
 -10   6   4 -0.2625 4.91238  12 
 -10   6   4 1.86331 4.89538   1 
 -10   6   4 1.81227 4.80660   1 
 -10   6   4 1.45420 4.76157   7 
   9  -6  -4 0.79535 4.04630   6 
   9  -6  -4 -1.5724 2.92391   5 
   9  -6  -4 0.10803 2.85901   1 
   9  -6  -4 2.29614 3.97439  13 
  -9   6   4 3.69686 3.86171   2 
  -9   6   4 -0.6698 3.27132   1 
  -9   6   4 -1.9207 3.22576   7 
  -9   6   4 -5.4219 3.53405  12 
   8  -6  -4 21.3977 4.70668   8 
   8  -6  -4 19.9186 5.12731   5 
   8  -6  -4 30.6132 5.02860   1 
   8  -6  -4 34.3935 7.40991   3 
   8  -6  -4 26.2119 6.38490   6 
   8  -6  -4 22.7935 6.38219  13 
  -8   6   4 21.2601 6.12513   2 
  -8   6   4 20.6291 6.06076  12 
  -8   6   4 14.0059 4.80407   1 
  -8   6   4 17.4256 5.20380   7 
   7  -6  -4 155.148 8.81564   1 
   7  -6  -4 158.320 12.0980   6 
   7  -6  -4 178.662 8.64476   8 
   7  -6  -4 160.161 12.2134  13 
   7  -6  -4 159.938 10.3902   5 
   7  -6  -4 152.698 9.51615   5 
   7  -6  -4 168.070 11.6286  14 
   7  -6  -4 170.142 12.2933   3 
  -7   6   4 157.716 12.5786  12 
  -7   6   4 150.324 10.9438   1 
  -7   6   4 149.929 10.6952   7 
  -7   6   4 152.258 12.3878   2 
   6  -6  -4 124.604 7.93823   5 
   6  -6  -4 127.394 6.45911   1 
   6  -6  -4 131.592 7.80653   9 
   6  -6  -4 115.187 9.88894  13 
   6  -6  -4 119.028 9.89667   6 
   6  -6  -4 135.426 9.88020   3 
   6  -6  -4 118.771 7.38094   5 
   6  -6  -4 121.565 6.92397  14 
  -6   6   4 139.101 9.22379   1 
  -6   6   4 138.746 10.5100   2 
  -6   6   4 125.497 8.80560   7 
  -6   6   4 110.587 10.1556  12 
   5  -6  -4 24.0525 2.95065   5 
   5  -6  -4 24.9959 3.07299   9 
   5  -6  -4 25.1648 5.24042  13 
   5  -6  -4 20.3810 4.53435   6 
   5  -6  -4 23.4267 3.13950   5 
   5  -6  -4 24.0245 4.58535   3 
  -5   6   4 32.7814 5.05556   2 
  -5   6   4 33.2949 4.52236   7 
  -5   6   4 34.3328 4.36957   1 
  -5   6   4 36.2512 6.04004  12 
   4  -6  -4 46.5292 6.16021  13 
   4  -6  -4 34.8766 4.36428   3 
   4  -6  -4 37.8057 3.18215   9 
   4  -6  -4 46.4224 5.69218  10 
   4  -6  -4 33.4994 5.33900   6 
  -4   6   4 34.6920 4.40446   2 
  -4   6   4 38.4915 3.98826   1 
  -4   6   4 34.1064 4.15401   7 
  -4   6   4 37.5387 5.78470  12 
  -4   6   4 31.7079 4.29549   2 
   3  -6  -4 223.099 12.6355   6 
   3  -6  -4 212.925 12.3753  10 
   3  -6  -4 209.115 12.8221  13 
   3  -6  -4 227.594 10.0943   3 
  -3   6   4 230.809 9.61497   1 
  -3   6   4 219.695 10.3336   2 
  -3   6   4 227.470 10.3858   2 
  -3   6   4 219.083 13.1290  12 
  -3   6   4 227.217 10.3687   7 
   2  -6  -4 336.930 16.9964  13 
   2  -6  -4 338.934 12.7579   3 
   2  -6  -4 349.895 16.4056   4 
   2  -6  -4 335.691 16.5084   6 
   2  -6  -4 358.721 17.0510  10 
  -2   6   4 365.407 13.9986   7 
  -2   6   4 341.849 13.1158   2 
  -2   6   4 334.956 16.9759  12 
  -2   6   4 341.634 13.0116   2 
   1  -6  -4 35.3433 5.62424  13 
   1  -6  -4 37.4613 5.30784   4 
   1  -6  -4 36.1472 2.73131   3 
   1  -6  -4 41.9168 5.66189   6 
   1  -6  -4 32.4373 5.53550  10 
  -1   6   4 24.9572 2.67955   2 
  -1   6   4 28.4149 2.80963   2 
  -1   6   4 28.4262 3.40860   7 
   0  -6  -4 16.8755 4.48641   4 
   0  -6  -4 15.3849 3.06095  11 
   0  -6  -4 15.7302 2.39816   3 
   0  -6  -4 14.9163 4.66004  13 
   0  -6  -4 20.1641 4.74011  10 
   0  -6  -4 19.7335 2.44039   3 
   0  -6  -4 14.3978 4.16796   6 
   0   6   4 11.6330 2.46380   2 
   0   6   4 10.6532 2.37169   2 
   0   6   4 13.2089 2.72245   7 
  -1  -6  -4 137.010 7.45915   3 
  -1  -6  -4 138.531 8.42584  11 
  -1  -6  -4 154.202 11.3136   4 
  -1  -6  -4 120.723 10.2848  10 
   1   6   4 155.918 8.07483   2 
   1   6   4 168.165 8.38438   2 
  -2  -6  -4 148.545 11.7691   4 
  -2  -6  -4 148.458 11.3875  10 
  -2  -6  -4 146.514 8.58560   3 
   2   6   4 155.364 9.39060   2 
   2   6   4 130.777 8.72640   2 
  -3  -6  -4 20.4851 5.98203   4 
  -3  -6  -4 16.8465 4.14980   3 
  -3  -6  -4 20.7111 5.49078  10 
   3   6   4 14.2455 4.07029   2 
  -4  -6  -4 12.9992 4.18184   3 
  -4  -6  -4 16.2391 6.20151   4 
  -4  -6  -4 6.92927 4.48127  10 
   4   6   4 20.1297 5.48105   2 
  -5  -6  -4 21.0066 7.02562   4 
   5   6   4 28.1871 6.83959   2 
  10  -7  -4 7.49556 5.42522   6 
  10  -7  -4 5.83637 4.69219   5 
 -10   7   4 15.3988 6.50985   7 
 -10   7   4 16.9258 6.28688   1 
 -10   7   4 12.5662 6.03009   1 
   9  -7  -4 26.1024 4.65155   8 
   9  -7  -4 28.2749 7.40873  13 
   9  -7  -4 24.7610 7.05798   6 
   9  -7  -4 39.0865 7.18790   5 
  -9   7   4 22.8208 6.38526   1 
  -9   7   4 35.8499 7.42932   7 
  -9   7   4 29.5924 8.09457   2 
  -9   7   4 20.0411 6.73703  12 
  -9   7   4 31.1294 6.96735   1 
   8  -7  -4 64.5400 9.35296   3 
   8  -7  -4 77.3036 9.52924  13 
   8  -7  -4 64.7537 6.53406   5 
   8  -7  -4 71.2657 7.54875   5 
   8  -7  -4 70.0204 9.67610   6 
  -8   7   4 69.9357 10.0370   2 
  -8   7   4 75.3320 10.0905  12 
  -8   7   4 82.6318 9.05897   7 
  -8   7   4 70.7104 8.74047   1 
   7  -7  -4 59.3995 4.97891  14 
   7  -7  -4 55.4759 7.91889   3 
   7  -7  -4 71.5125 8.80532  13 
   7  -7  -4 61.9118 8.42346   6 
   7  -7  -4 60.1695 5.66411   5 
   7  -7  -4 65.5497 6.40386   5 
  -7   7   4 72.0386 7.58985   7 
  -7   7   4 61.8066 8.57124   2 
  -7   7   4 79.7110 9.52095  12 
  -7   7   4 63.3754 7.39793   1 
   6  -7  -4 100.108 9.67504  13 
   6  -7  -4 104.437 9.56693   6 
   6  -7  -4 94.1096 5.68882   5 
   6  -7  -4 104.011 6.10572   5 
   6  -7  -4 97.5746 8.46411   3 
  -6   7   4 96.6014 8.00324   1 
  -6   7   4 93.5403 7.83463   7 
  -6   7   4 89.4604 8.90365   2 
  -6   7   4 94.1197 9.75610  12 
   5  -7  -4 128.992 8.66665   3 
   5  -7  -4 131.477 10.2210   6 
   5  -7  -4 125.803 10.3748  13 
  -5   7   4 116.472 7.96199   7 
  -5   7   4 102.240 8.43714   2 
  -5   7   4 107.999 10.2217  12 
   4  -7  -4 101.981 9.29905  13 
   4  -7  -4 94.4077 8.66164   6 
   4  -7  -4 100.982 6.88826   3 
  -4   7   4 94.4362 6.97823   2 
  -4   7   4 94.4322 6.57663   7 
  -4   7   4 93.7980 6.94775   2 
  -4   7   4 96.7751 9.23958  12 
   3  -7  -4 332.175 17.6971  13 
   3  -7  -4 326.800 16.9146   6 
   3  -7  -4 326.057 17.0185  10 
   3  -7  -4 329.684 13.2596   3 
   3  -7  -4 328.774 16.1201   4 
  -3   7   4 324.191 13.7131   2 
  -3   7   4 342.568 17.8903  12 
  -3   7   4 339.479 13.7350   2 
  -3   7   4 337.088 13.7700   7 
   2  -7  -4 131.967 10.0960   6 
   2  -7  -4 133.527 6.34122   3 
   2  -7  -4 137.639 10.7956  13 
   2  -7  -4 155.526 10.8479  10 
   2  -7  -4 135.808 9.86963   4 
  -2   7   4 144.562 7.43291   7 
  -2   7   4 131.724 6.57532   2 
  -2   7   4 145.350 6.81621   2 
  -2   7   4 147.724 10.8498  12 
   1  -7  -4 104.909 9.19222  10 
   1  -7  -4 98.0489 8.55146   4 
   1  -7  -4 82.9322 8.36310   6 
   1  -7  -4 107.556 9.40834  13 
  -1   7   4 69.9682 5.84458   7 
  -1   7   4 65.7964 7.71217  12 
   0  -7  -4 81.1407 8.55192   4 
   0  -7  -4 92.2246 8.65696   6 
   0  -7  -4 83.1004 8.66690  13 
   0  -7  -4 83.7642 4.44579   3 
   0  -7  -4 69.7516 8.13737  10 
   0   7   4 73.8220 4.77525   2 
   0   7   4 71.1311 4.70523   2 
  -1  -7  -4 85.1247 9.21582   4 
  -1  -7  -4 66.1673 8.50900  10 
  -1  -7  -4 81.9546 5.41624   3 
   1   7   4 72.5603 5.68452   2 
   1   7   4 72.8791 5.54161   2 
  -2  -7  -4 56.8166 8.08304  10 
  -2  -7  -4 65.8261 8.93425   4 
  -2  -7  -4 53.2964 5.45654   3 
   2   7   4 45.2504 5.39750   2 
  -3  -7  -4 39.8517 7.43664  10 
  -3  -7  -4 28.7227 7.58133   4 
  -3  -7  -4 37.2701 5.57208   3 
   3   7   4 27.3785 5.69806   2 
  -4  -7  -4 23.5546 9.68454  10 
  -4  -7  -4 12.4197 6.22238   4 
   4   7   4 17.2357 5.46908   2 
   9  -8  -4 8.91132 5.51746   6 
   9  -8  -4 12.3752 4.62869   5 
   9  -8  -4 1.62520 6.78977  13 
  -9   8   4 20.2021 7.29333   2 
  -9   8   4 12.7313 5.39981   7 
  -9   8   4 11.6475 5.49520   1 
  -9   8   4 12.0415 5.21527   1 
   8  -8  -4 31.4059 4.83889   5 
   8  -8  -4 42.2042 8.22717  13 
   8  -8  -4 37.9680 5.70408   5 
   8  -8  -4 38.0543 8.49737   6 
   8  -8  -4 33.0081 4.12185  14 
  -8   8   4 50.1131 7.46993   7 
  -8   8   4 39.0458 9.02506  12 
  -8   8   4 44.5053 8.73974   2 
   7  -8  -4 58.4599 8.08275   3 
   7  -8  -4 58.7761 8.84562   6 
   7  -8  -4 43.2238 8.24963  13 
  -7   8   4 53.7068 8.30189   2 
  -7   8   4 56.0260 8.91560  12 
  -7   8   4 47.9089 6.66042   7 
   6  -8  -4 88.4436 9.70238  13 
   6  -8  -4 86.7162 9.51070   6 
   6  -8  -4 83.1640 8.23235   3 
  -6   8   4 88.4918 10.2316  12 
  -6   8   4 86.5107 8.85697   2 
  -6   8   4 83.8819 7.66305   7 
   5  -8  -4 39.2712 5.38399   3 
   5  -8  -4 42.3490 7.46928  13 
   5  -8  -4 45.5443 7.01103   6 
  -5   8   4 51.1364 6.28543   2 
  -5   8   4 48.4176 7.82272  12 
  -5   8   4 56.8973 5.65886   7 
   4  -8  -4 83.1835 8.83647   6 
   4  -8  -4 79.9913 6.13942   3 
   4  -8  -4 85.5830 9.35186  13 
  -4   8   4 84.2157 6.43904   2 
  -4   8   4 89.3504 6.84390   2 
  -4   8   4 97.9791 9.86306  12 
  -4   8   4 89.2716 6.32796   7 
   3  -8  -4 135.409 11.1221  10 
   3  -8  -4 143.485 7.26127   3 
   3  -8  -4 147.618 10.5829   4 
   3  -8  -4 142.389 11.2486   6 
   3  -8  -4 154.167 12.0699  13 
  -3   8   4 144.280 11.4969  12 
  -3   8   4 147.577 7.76389   2 
  -3   8   4 139.275 7.64904   2 
   2  -8  -4 225.843 14.1564   6 
   2  -8  -4 223.377 14.9072  13 
   2  -8  -4 222.619 13.7896   4 
   2  -8  -4 208.325 14.0377  10 
  -2   8   4 195.908 13.6605  12 
   1  -8  -4 69.1854 8.40783   6 
   1  -8  -4 56.6741 7.91805  10 
   1  -8  -4 63.7941 8.03111   4 
   1  -8  -4 64.2580 8.68993  13 
  -1   8   4 64.4579 7.94764  12 
   0  -8  -4 115.498 10.7866   6 
   0  -8  -4 128.076 11.3973   4 
   0  -8  -4 116.888 10.7713  10 
   0   8   4 111.955 9.87765  12 
  -1  -8  -4 116.814 11.3818  10 
  -1  -8  -4 122.171 6.54154   3 
  -1  -8  -4 109.234 11.3071   4 
   1   8   4 127.953 10.5176  12 
   1   8   4 119.913 7.18703   2 
   1   8   4 115.903 7.10537   2 
  -2  -8  -4 10.3295 3.06853   3 
  -2  -8  -4 8.23892 4.59124  10 
  -2  -8  -4 8.09676 5.23455   4 
   2   8   4 10.8589 3.33890   2 
  -3  -8  -4 16.9252 6.79956   4 
   3   8   4 24.8028 5.64092   2 
   9  -9  -4 2.35993 1.86280  14 
   9  -9  -4 3.60628 4.83595   6 
   9  -9  -4 5.48792 3.12336   5 
   9  -9  -4 3.15219 2.85861   5 
  -9   9   4 3.95615 5.43852   2 
  -9   9   4 6.75843 4.83844   7 
   8  -9  -4 8.82764 5.07268   6 
   8  -9  -4 3.08691 4.59924  13 
  -8   9   4 2.66722 4.38681   2 
  -8   9   4 -0.1788 3.07221   7 
   7  -9  -4 28.5125 7.43449  13 
   7  -9  -4 53.1017 8.98418   6 
  -7   9   4 42.5101 6.34399   7 
  -7   9   4 42.1362 7.79371   2 
  -7   9   4 30.9952 7.99390  12 
   6  -9  -4 117.958 11.2002   6 
   6  -9  -4 122.072 11.9441  13 
   6  -9  -4 110.331 9.37196   3 
  -6   9   4 116.517 12.2568  12 
  -6   9   4 111.657 9.96671   2 
   5  -9  -4 37.8500 8.31267  13 
   5  -9  -4 29.7895 5.08621   3 
   5  -9  -4 28.2197 6.86691   6 
  -5   9   4 22.7237 5.00727   2 
  -5   9   4 26.6875 7.10433  12 
   4  -9  -4 28.6327 4.19862   3 
   4  -9  -4 35.1772 7.21741  13 
   4  -9  -4 44.5073 7.69316   6 
  -4   9   4 36.7619 7.64201  12 
  -4   9   4 27.4914 4.15262   2 
  -4   9   4 24.9625 4.37725   2 
   3  -9  -4 38.8110 6.81575   4 
   3  -9  -4 39.8061 3.59012   3 
   3  -9  -4 38.5029 7.59008   6 
   3  -9  -4 39.0874 7.63287  13 
  -3   9   4 37.4169 3.87670   2 
  -3   9   4 31.2619 6.94309  12 
  -3   9   4 39.2309 4.08965   2 
   2  -9  -4 40.5244 8.00767  13 
   2  -9  -4 31.0238 6.85043   4 
   2  -9  -4 29.9022 6.74405  10 
   2  -9  -4 39.0421 7.57686   6 
  -2   9   4 33.7919 7.05332  12 
   1  -9  -4 25.7835 6.88456  13 
   1  -9  -4 27.8565 6.81462   6 
   1  -9  -4 26.8788 6.79806   4 
   1  -9  -4 25.2956 6.07503  10 
  -1   9   4 29.0958 6.52317  12 
   0  -9  -4 88.7465 10.7672   4 
   0  -9  -4 96.6971 11.0341   6 
   0  -9  -4 85.4422 10.3390  10 
   0   9   4 89.7083 9.38351  12 
  -1  -9  -4 28.2139 7.72548   4 
  -2  -9  -4 8.28535 6.12946   4 
   2   9   4 10.2805 3.40290   2 
   8 -10  -4 27.5399 7.47177   6 
  -8  10   4 29.5078 7.75447   2 
   7 -10  -4 60.1999 9.84833   6 
   7 -10  -4 71.9069 17.9473  13 
  -7  10   4 60.5188 9.28987   2 
   6 -10  -4 73.9457 10.1825   6 
   6 -10  -4 72.3990 7.95084   3 
   6 -10  -4 61.3024 10.0014  13 
  -6  10   4 80.7968 11.1188  12 
  -6  10   4 83.5892 9.16220   2 
   5 -10  -4 35.5550 8.20461   6 
   5 -10  -4 23.4837 4.57681   3 
   5 -10  -4 25.1878 7.01858  13 
  -5  10   4 21.2723 6.83543  12 
  -5  10   4 22.6500 5.30489   2 
   4 -10  -4 49.9661 4.86517   3 
   4 -10  -4 52.1553 8.71969   6 
   4 -10  -4 64.3775 9.74027  13 
  -4  10   4 43.4949 5.30134   2 
  -4  10   4 41.9381 8.70684  12 
   3 -10  -4 57.1653 9.80647  13 
   3 -10  -4 61.8917 8.68021   4 
   3 -10  -4 79.2359 10.0801   6 
  -3  10   4 49.6382 8.67292  12 
   2 -10  -4 47.1297 8.25613   4 
   2 -10  -4 40.6319 9.64842  13 
   2 -10  -4 53.4108 9.51015   6 
  -2  10   4 44.0358 8.08791  12 
   1 -10  -4 85.7134 10.8341   4 
   1 -10  -4 73.3512 10.3643   6 
  -1  10   4 90.9640 9.83714  12 
   0 -10  -4 48.7429 9.54486   4 
  -1 -10  -4 3.86104 5.29189   4 
   7 -11  -4 28.2503 8.62780   6 
  -7  11   4 44.0094 8.32125   2 
   6 -11  -4 55.6616 10.2505   6 
  -6  11   4 49.8642 7.54005   2 
   5 -11  -4 10.5804 6.05809   6 
   5 -11  -4 8.17207 3.42562   3 
  -5  11   4 6.45111 3.28378   2 
   4 -11  -4 62.9446 10.7262   6 
  -4  11   4 44.5291 9.73024  12 
  -4  11   4 43.8776 5.13234   2 
   3 -11  -4 27.9453 7.77077   6 
   3 -11  -4 24.5350 6.92180   4 
  -3  11   4 23.4091 7.28020  12 
   2 -11  -4 29.3440 7.92304   6 
   2 -11  -4 19.0541 6.87623   4 
  -2  11   4 37.9315 8.18581  12 
   1 -11  -4 32.2179 8.23491   6 
   1 -11  -4 26.0093 7.86869   4 
   0  13  -5 35.7496 8.03661   2 
   0 -13   5 20.4183 7.63244   4 
  -1  13  -5 2.65606 3.99034   2 
   1 -13   5 13.5164 6.10763   4 
  -2  13  -5 14.5488 5.71136   2 
   2 -13   5 16.9244 6.00261   4 
   2 -13   5 18.6015 7.11221   9 
  -3  13  -5 70.4333 10.6728   2 
   3 -13   5 71.6608 10.4593   9 
  -4  13  -5 20.9185 7.14990   2 
   4 -13   5 12.7944 6.47234   9 
   2  12  -5 53.3019 9.48374   2 
  -2 -12   5 69.7384 11.6600   4 
   1  12  -5 33.3559 7.92299   2 
  -1 -12   5 45.5631 9.50314   4 
   0  12  -5 32.2637 7.37194   2 
   0 -12   5 22.9276 6.89772   4 
  -1  12  -5 44.7992 8.21684   2 
   1 -12   5 34.6916 8.57539   9 
   1 -12   5 46.6984 8.42725   4 
  -2  12  -5 140.997 12.3514   2 
   2 -12   5 115.896 12.7101   9 
   2 -12   5 119.448 11.2631   4 
  -3  12  -5 126.371 12.2437   2 
   3 -12   5 132.069 13.0417   9 
  -4  12  -5 68.0984 10.3008   2 
   4 -12   5 46.4768 10.1331   9 
  -5  12  -5 10.2719 6.08456   2 
   5 -12   5 19.0185 7.01690   9 
  -6  12  -5 24.7565 8.10531   2 
   6 -12   5 23.2303 7.35157   9 
   6 -12   5 27.7011 6.55221  14 
   6 -12   5 21.9070 4.58983   5 
   6 -12   5 19.4150 3.97729  14 
   6 -12   5 19.7759 4.77138   5 
   3  11  -5 26.9520 7.03671   2 
  -3 -11   5 28.2752 8.30747   4 
   2  11  -5 39.6819 8.02672   2 
  -2 -11   5 43.1356 9.35035   4 
   1  11  -5 78.4507 9.42350   2 
  -1 -11   5 74.7702 9.98930   4 
   0  11  -5 57.1710 8.21885   2 
   0 -11   5 45.9732 8.47417   4 
  -1  11  -5 80.7247 9.14217   2 
   1 -11   5 73.6929 8.93028   4 
   1 -11   5 76.9698 9.51092   9 
  -2  11  -5 70.2448 9.05682   2 
   2 -11   5 82.1983 9.63331   9 
   2 -11   5 76.5275 8.18151   6 
   2 -11   5 76.9356 8.52725   4 
  -3  11  -5 110.340 11.2618   2 
   3 -11   5 105.410 8.91128   4 
   3 -11   5 113.929 11.6685   9 
  -4  11  -5 30.5972 7.58528   2 
   4 -11   5 33.6995 4.24113  14 
   4 -11   5 36.1882 4.85169   5 
   4 -11   5 37.0071 4.93276   5 
   4 -11   5 26.7362 7.33710   9 
   4 -11   5 33.2017 4.23448  14 
  -5  11  -5 25.1991 6.52717   1 
  -5  11  -5 39.7037 9.27873   2 
   5 -11   5 39.3552 5.56847   5 
   5 -11   5 33.0350 5.08601  14 
   5 -11   5 35.2239 5.74073   5 
   5 -11   5 34.7977 8.14525   9 
  -6  11  -5 53.3997 10.5674   2 
  -6  11  -5 53.4370 9.52935   1 
  -6  11  -5 43.6019 8.43676  11 
   6 -11   5 57.2809 9.68701   9 
   6 -11   5 41.8584 6.71681   5 
   6 -11   5 54.0901 6.71000  14 
  -7  11  -5 15.2407 6.50238  11 
  -7  11  -5 22.6599 6.99581   1 
   7 -11   5 21.8346 7.64535   9 
   7 -11   5 11.0966 4.52765  14 
   7 -11   5 14.1438 4.90848   5 
   4  10  -5 19.5579 6.15185   2 
  -4 -10   5 27.9713 7.92234   4 
   3  10  -5 23.3810 6.44165   2 
  -3 -10   5 27.8777 7.83636   4 
   2  10  -5 24.6370 6.07757   2 
  -2 -10   5 30.3735 7.22308   4 
   1  10  -5 72.8172 8.64226   2 
  -1 -10   5 66.5382 9.22860   4 
   0  10  -5 141.538 11.2250   2 
   0 -10   5 165.272 12.8607   9 
   0 -10   5 155.648 11.8325   4 
  -1  10  -5 106.906 9.75089   2 
   1 -10   5 110.877 9.64954   4 
   1 -10   5 111.348 10.4106   9 
  -2  10  -5 35.3080 5.77682   1 
  -2  10  -5 32.8464 6.75525   2 
   2 -10   5 29.3694 3.17547  14 
   2 -10   5 42.0531 4.17531   5 
   2 -10   5 26.1409 5.31094   4 
   2 -10   5 24.4840 4.71488   6 
   2 -10   5 36.0941 7.10814   9 
   2 -10   5 37.6897 3.35940  14 
   2 -10   5 36.4329 4.12515   5 
  -3  10  -5 129.257 9.99435   1 
  -3  10  -5 132.446 11.6984   2 
   3 -10   5 108.904 10.8066   9 
   3 -10   5 113.352 7.53848   5 
   3 -10   5 114.363 10.8021   6 
   3 -10   5 111.748 6.87672  14 
   3 -10   5 122.612 8.89303   4 
   3 -10   5 120.526 7.80108   5 
   3 -10   5 123.395 6.96430  14 
  -4  10  -5 93.6459 8.64218  11 
  -4  10  -5 91.8655 9.28841   1 
  -4  10  -5 97.0300 10.9352   2 
   4 -10   5 89.1135 7.38849   5 
   4 -10   5 101.104 10.2680   9 
   4 -10   5 98.9415 7.17052  14 
   4 -10   5 99.6684 6.91519  14 
   4 -10   5 84.7673 7.38796   5 
  -5  10  -5 48.7298 8.78503   2 
  -5  10  -5 37.0815 6.84534  11 
  -5  10  -5 36.8072 7.44851   1 
   5 -10   5 32.3992 4.62826   1 
   5 -10   5 29.4523 6.83455   3 
   5 -10   5 33.1202 7.99999   9 
   5 -10   5 34.9966 5.50589  14 
   5 -10   5 34.7199 5.75856   5 
  -6  10  -5 20.7158 6.23769   1 
  -6  10  -5 28.1046 7.60580   2 
  -6  10  -5 27.7422 6.84818  11 
   6 -10   5 20.1142 5.19525   5 
   6 -10   5 25.7070 5.14205   1 
   6 -10   5 28.1200 7.83306   9 
   6 -10   5 30.8042 6.20724  14 
  -7  10  -5 66.0307 10.3490  11 
  -7  10  -5 48.5414 9.79474   1 
   7 -10   5 59.9072 8.68131   5 
   7 -10   5 59.4989 7.49980   1 
   7 -10   5 64.5967 10.2981   9 
   5   9  -5 21.9467 6.89681   2 
  -5  -9   5 9.16447 6.02182   4 
   4   9  -5 3.10801 3.77946   2 
  -4  -9   5 10.5214 5.88676   4 
   3   9  -5 33.9066 7.48873   2 
  -3  -9   5 25.6371 6.99220   4 
   2   9  -5 33.2059 6.80833   2 
  -2  -9   5 39.4973 7.09515   4 
   1   9  -5 196.724 13.0469   2 
   1   9  -5 204.536 11.9287   1 
  -1  -9   5 227.410 14.2183   4 
   0   9  -5 138.988 9.53140   1 
   0   9  -5 146.610 10.7762   2 
   0  -9   5 153.795 11.5246   9 
   0  -9   5 145.867 7.34930   5 
   0  -9   5 144.885 6.37441  14 
   0  -9   5 164.664 11.2652   4 
   0  -9   5 148.364 6.49694  14 
   0  -9   5 151.404 7.39241   5 
  -1   9  -5 16.2332 4.79125   2 
  -1   9  -5 19.4911 4.25908   1 
   1  -9   5 30.4254 3.80842   5 
   1  -9   5 29.2920 3.73759   5 
   1  -9   5 28.9142 6.07251   9 
   1  -9   5 35.2635 3.45149  14 
   1  -9   5 35.5861 5.87287   4 
   1  -9   5 30.5310 3.28770  14 
  -2   9  -5 18.3697 4.83262   2 
  -2   9  -5 21.1467 4.66586   1 
  -2   9  -5 14.3021 3.42796  11 
   2  -9   5 18.0273 5.19328   9 
   2  -9   5 17.6118 3.61962   5 
   2  -9   5 26.0167 4.12793   6 
   2  -9   5 26.7625 4.84687   4 
   2  -9   5 23.9998 3.94668   5 
   2  -9   5 22.9755 3.33927  14 
   2  -9   5 21.1056 2.78206   1 
   2  -9   5 28.9225 3.73022  14 
  -3   9  -5 162.778 10.9178   1 
  -3   9  -5 155.718 9.98699  11 
  -3   9  -5 171.215 12.6599   2 
   3  -9   5 149.270 9.34878   4 
   3  -9   5 157.771 12.0327   9 
   3  -9   5 164.023 8.73421  14 
   3  -9   5 140.264 7.81085   1 
   3  -9   5 147.315 8.64299  14 
   3  -9   5 148.139 9.08136   5 
   3  -9   5 137.394 8.62512   6 
   3  -9   5 138.846 8.96514   5 
  -4   9  -5 136.998 12.2153   2 
  -4   9  -5 140.665 10.9016   1 
  -4   9  -5 122.555 9.92803  11 
   4  -9   5 148.567 9.56449   5 
   4  -9   5 132.437 9.37558   5 
   4  -9   5 137.630 8.54408   1 
   4  -9   5 143.156 9.09662  14 
   4  -9   5 147.751 11.8327   9 
  -5   9  -5 60.3304 8.30575   1 
  -5   9  -5 49.0784 7.46342  11 
  -5   9  -5 65.3495 9.30413   2 
   5  -9   5 49.4491 8.01066   9 
   5  -9   5 60.5354 6.40706   1 
   5  -9   5 56.9164 7.24090   5 
   5  -9   5 65.8433 8.36903   3 
  -6   9  -5 16.4083 5.90210   1 
  -6   9  -5 11.3966 5.25756   2 
  -6   9  -5 18.1124 6.14008  11 
   6  -9   5 10.8316 3.86779   1 
   6  -9   5 13.1662 4.83950   5 
   6  -9   5 16.2398 5.91059   3 
   6  -9   5 9.93145 5.62390   9 
  -7   9  -5 15.2633 6.14736   1 
  -7   9  -5 19.8263 6.84936  11 
   7  -9   5 13.8665 6.49231   5 
   7  -9   5 20.2881 7.15719   9 
   7  -9   5 25.6963 6.14183   1 
  -8   9  -5 10.0591 6.37290   1 
  -8   9  -5 7.38288 6.49058  11 
   8  -9   5 13.3931 5.26106   1 
   6   8  -5 17.2496 6.65918   2 
  -6  -8   5 16.4577 3.83741   5 
  -6  -8   5 15.2496 6.82416   4 
  -6  -8   5 13.3027 3.45181   5 
   5   8  -5 63.2307 9.99093   2 
  -5  -8   5 65.4876 5.86230   5 
  -5  -8   5 59.4379 4.80383  14 
  -5  -8   5 55.2348 9.85658   4 
  -5  -8   5 62.0502 4.82318  14 
  -5  -8   5 69.2126 6.02303   5 
   4   8  -5 133.175 11.5927   2 
  -4  -8   5 112.038 6.38105  14 
  -4  -8   5 110.790 7.27580   5 
  -4  -8   5 109.927 7.13202   5 
  -4  -8   5 118.676 11.6902   4 
  -4  -8   5 108.874 6.35917  14 
   3   8  -5 80.0612 8.82988   2 
   3   8  -5 69.5737 7.40341   1 
  -3  -8   5 73.8992 8.95910   4 
  -3  -8   5 60.3460 4.56766  14 
  -3  -8   5 64.0123 5.32490   5 
  -3  -8   5 74.4497 4.83597  14 
  -3  -8   5 73.1036 5.54391   5 
   2   8  -5 69.0342 6.77301   1 
   2   8  -5 78.1028 8.22181   2 
  -2  -8   5 69.8178 5.25048   5 
  -2  -8   5 58.9824 7.81408   4 
  -2  -8   5 69.3097 5.18423   5 
  -2  -8   5 63.1298 4.43602  14 
  -2  -8   5 59.4651 4.40703  14 
   1   8  -5 158.237 9.84466   1 
   1   8  -5 165.514 11.0612   2 
  -1  -8   5 172.267 8.32090   5 
  -1  -8   5 157.240 8.15166   5 
  -1  -8   5 163.185 11.3706   4 
  -1  -8   5 159.522 7.53070  14 
  -1  -8   5 149.414 7.37865  14 
  -1  -8   5 151.927 6.66455   1 
   0   8  -5 96.1671 7.36988   1 
   0   8  -5 104.262 8.54057   2 
   0   8  -5 93.9590 7.70365   8 
   0  -8   5 85.5970 6.00665   5 
   0  -8   5 84.1439 7.92693   4 
   0  -8   5 85.2425 4.68767   1 
   0  -8   5 83.6655 5.35804  14 
   0  -8   5 87.3341 5.97330   5 
   0  -8   5 88.2169 8.32845   9 
   0  -8   5 83.1157 5.32324  14 
  -1   8  -5 230.120 12.3485   8 
  -1   8  -5 222.251 12.9401   2 
  -1   8  -5 228.955 10.1976  11 
  -1   8  -5 225.588 11.8163   1 
   1  -8   5 182.687 9.31945  14 
   1  -8   5 191.171 9.82938   5 
   1  -8   5 189.852 8.63644   7 
   1  -8   5 185.561 11.3943   4 
   1  -8   5 200.512 9.99542   5 
   1  -8   5 201.692 9.10530   1 
   1  -8   5 186.746 9.26182  14 
   1  -8   5 197.372 12.5842   9 
  -2   8  -5 199.742 11.2584   1 
  -2   8  -5 179.934 12.1486   2 
  -2   8  -5 192.408 10.1835  11 
   2  -8   5 174.421 8.79206   1 
   2  -8   5 163.473 8.96481  14 
   2  -8   5 181.417 9.72494   5 
   2  -8   5 168.457 11.7088   9 
   2  -8   5 171.252 8.86683   6 
   2  -8   5 168.239 9.42151   5 
   2  -8   5 162.256 10.0328   4 
   2  -8   5 177.909 9.17399  14 
  -3   8  -5 280.742 16.2894   2 
  -3   8  -5 251.306 14.1619   1 
  -3   8  -5 267.828 13.8885  11 
   3  -8   5 288.472 13.1164   4 
   3  -8   5 262.898 13.2639   5 
   3  -8   5 273.372 12.7452   1 
   3  -8   5 271.194 13.4275   5 
   3  -8   5 267.720 15.5601   9 
   3  -8   5 267.575 11.9693   6 
   3  -8   5 269.795 12.8438  14 
   3  -8   5 290.655 13.1356  14 
  -4   8  -5 6.99387 3.39280  11 
  -4   8  -5 4.51927 3.41745   1 
  -4   8  -5 10.9375 4.43596   2 
   4  -8   5 8.40390 3.89240   3 
   4  -8   5 6.44871 3.20817   5 
   4  -8   5 5.34674 2.31881   6 
   4  -8   5 6.98905 3.99082   9 
   4  -8   5 1.44199 2.04154   5 
   4  -8   5 4.62950 2.82608   1 
  -5   8  -5 13.7090 5.01486   1 
  -5   8  -5 11.0120 4.62564   2 
  -5   8  -5 11.0059 4.59980  11 
   5  -8   5 17.6813 5.53492   9 
   5  -8   5 15.3107 4.25896   1 
   5  -8   5 12.6050 4.34203   5 
   5  -8   5 9.81952 4.52425   3 
  -6   8  -5 89.0575 10.4184  11 
  -6   8  -5 99.5988 11.1829   2 
  -6   8  -5 85.2490 9.91303   1 
   6  -8   5 82.2396 8.43306   1 
   6  -8   5 89.1228 10.6500   9 
   6  -8   5 82.6551 9.07749   5 
   6  -8   5 89.6804 10.3450   3 
  -7   8  -5 59.5663 9.34130   1 
  -7   8  -5 59.1928 10.0935  11 
   7  -8   5 54.8643 8.25690   1 
   7  -8   5 44.2367 9.05401   3 
  -8   8  -5 6.32035 5.53440  11 
  -8   8  -5 2.27590 4.40118   1 
   8  -8   5 2.27254 4.00989   1 
   7   7  -5 13.7923 6.83684   2 
  -7  -7   5 5.00177 3.45927   5 
  -7  -7   5 12.6933 6.39203   4 
  -7  -7   5 13.3557 3.90786  14 
   6   7  -5 18.7478 5.70768   1 
   6   7  -5 7.31678 5.26124   2 
  -6  -7   5 11.3081 3.79464   5 
  -6  -7   5 11.1721 3.92999   5 
  -6  -7   5 24.3485 7.30108   4 
  -6  -7   5 13.9086 3.65317  14 
   5   7  -5 39.4396 7.19877   1 
   5   7  -5 37.2173 8.09520   2 
  -5  -7   5 50.9645 5.98558   5 
  -5  -7   5 38.8168 5.24295   5 
  -5  -7   5 40.4476 4.79696  14 
  -5  -7   5 43.4683 5.23598  14 
  -5  -7   5 54.0862 8.70345   4 
   4   7  -5 134.884 10.3951   1 
   4   7  -5 124.400 11.1056   2 
  -4  -7   5 127.052 7.83796  14 
  -4  -7   5 137.442 8.26930   1 
  -4  -7   5 136.819 8.62737   5 
  -4  -7   5 139.398 8.60553   5 
  -4  -7   5 137.029 7.94852  14 
  -4  -7   5 129.944 11.2511   4 
   3   7  -5 122.237 8.99169   1 
   3   7  -5 125.709 10.1737   2 
  -3  -7   5 112.853 6.20474   1 
  -3  -7   5 98.2740 9.52897   4 
  -3  -7   5 107.656 6.77285  14 
  -3  -7   5 115.106 7.41904   5 
  -3  -7   5 113.588 6.82472  14 
  -3  -7   5 104.424 7.20042   5 
   2   7  -5 170.953 10.6415   1 
   2   7  -5 189.826 12.1099   2 
   2   7  -5 180.151 11.3426   8 
  -2  -7   5 207.377 8.78240   7 
  -2  -7   5 194.277 9.30260  14 
  -2  -7   5 200.616 12.4461   4 
  -2  -7   5 208.320 9.99089   5 
  -2  -7   5 212.737 8.97616   1 
  -2  -7   5 203.926 9.93331   5 
  -2  -7   5 201.739 9.51988  14 
   1   7  -5 196.368 12.1352   2 
   1   7  -5 224.322 12.0506   8 
   1   7  -5 217.173 11.4845   1 
   1   7  -5 216.116 11.6274   3 
  -1  -7   5 216.026 12.7032   9 
  -1  -7   5 213.887 10.3476   5 
  -1  -7   5 225.545 9.13461   7 
  -1  -7   5 210.959 9.80774  14 
  -1  -7   5 218.539 9.89946  14 
  -1  -7   5 228.124 12.6618   4 
  -1  -7   5 212.629 10.2762   5 
  -1  -7   5 218.377 9.44694   1 
   0   7  -5 164.420 10.5663   2 
   0   7  -5 166.145 9.69539   1 
   0   7  -5 154.385 9.77779   8 
   0   7  -5 158.812 10.3328   2 
   0   7  -5 157.383 8.99137   3 
   0   7  -5 155.172 7.90345  11 
   0  -7   5 163.873 8.25247  14 
   0  -7   5 158.628 8.55172   5 
   0  -7   5 176.000 8.39432  14 
   0  -7   5 164.130 8.02084   1 
   0  -7   5 166.248 10.0816   3 
   0  -7   5 155.962 8.52540   5 
   0  -7   5 153.464 10.3525   9 
   0  -7   5 168.545 7.42497   7 
  -1   7  -5 348.971 14.3942  11 
  -1   7  -5 345.212 16.0311   8 
  -1   7  -5 347.202 15.1277   3 
  -1   7  -5 339.001 15.4450   1 
  -1   7  -5 344.231 19.4727   2 
  -1   7  -5 337.116 16.6217   2 
   1  -7   5 347.642 14.6430   5 
   1  -7   5 343.620 15.7064   3 
   1  -7   5 310.196 16.1884   9 
   1  -7   5 322.036 14.1564   5 
   1  -7   5 329.783 13.7701  14 
   1  -7   5 322.132 13.6826   1 
   1  -7   5 339.708 14.0275  14 
  -2   7  -5 518.975 20.9939   3 
  -2   7  -5 540.938 23.1837   2 
  -2   7  -5 520.303 20.5525  11 
  -2   7  -5 492.946 20.9313   1 
   2  -7   5 476.737 21.7739   9 
   2  -7   5 526.547 23.8324   3 
   2  -7   5 492.045 19.4441   1 
   2  -7   5 501.619 19.6997  14 
   2  -7   5 518.930 20.3853   5 
   2  -7   5 509.800 18.3670   6 
   2  -7   5 503.104 20.1758   5 
   2  -7   5 489.601 19.5627  14 
  -3   7  -5 169.508 10.5906  11 
  -3   7  -5 164.640 10.6942   1 
  -3   7  -5 159.708 10.3331   3 
  -3   7  -5 171.830 12.1224   2 
   3  -7   5 177.516 11.6747   9 
   3  -7   5 180.868 10.0001  14 
   3  -7   5 179.891 9.94949   1 
   3  -7   5 180.472 8.35533   6 
   3  -7   5 189.148 10.5745   5 
   3  -7   5 168.949 10.0110   5 
  -4   7  -5 53.5576 6.64157  11 
  -4   7  -5 62.7619 7.97703   2 
  -4   7  -5 57.7263 6.62030   3 
  -4   7  -5 59.3554 7.00957   1 
   4  -7   5 59.6325 4.78746   6 
   4  -7   5 60.9849 6.29811   1 
   4  -7   5 63.4253 6.81156   5 
   4  -7   5 62.3572 7.36323   3 
   4  -7   5 62.5432 7.67272   9 
  -5   7  -5 122.994 10.7884  11 
  -5   7  -5 143.174 12.1899   2 
  -5   7  -5 126.451 10.5905   1 
   5  -7   5 125.893 10.8222   9 
   5  -7   5 118.374 9.78935   5 
   5  -7   5 117.364 9.39653   1 
   5  -7   5 117.863 10.7812   3 
  -6   7  -5 103.420 10.1998   1 
  -6   7  -5 92.2083 10.2699  11 
   6  -7   5 87.6863 8.86366   1 
   6  -7   5 98.7783 10.8249   3 
  -7   7  -5 53.2923 9.25352  11 
  -7   7  -5 65.3036 9.27553   1 
   7  -7   5 27.9369 7.27443   3 
   7  -7   5 49.9147 8.31852   1 
  -8   7  -5 1.91238 4.35971   1 
  -8   7  -5 7.62495 5.98995  11 
   8  -7   5 -3.2447 4.01732   1 
   7   6  -5 6.37918 4.67978   1 
   7   6  -5 1.71402 4.26357   2 
  -7  -6   5 -1.8261 4.29273   4 
  -7  -6   5 5.03613 3.67639   5 
  -7  -6   5 1.47207 3.14056  14 
   6   6  -5 6.51381 4.58786   2 
   6   6  -5 9.88070 4.53924   1 
  -6  -6   5 10.6496 3.31854   1 
  -6  -6   5 9.43089 5.21507   4 
  -6  -6   5 11.3713 3.92913   5 
  -6  -6   5 7.33659 3.42016  14 
   5   6  -5 84.9751 8.92325   1 
   5   6  -5 94.9444 10.3375   2 
  -5  -6   5 98.0395 7.94424   5 
  -5  -6   5 89.8075 7.26995  14 
  -5  -6   5 90.0848 7.55357   5 
  -5  -6   5 99.6345 10.0341   4 
  -5  -6   5 100.002 6.98862   1 
  -5  -6   5 85.5686 7.07792   7 
  -5  -6   5 92.6155 6.94494   1 
   4   6  -5 160.420 11.8235   2 
   4   6  -5 149.157 10.4868   1 
  -4  -6   5 149.168 9.12935   5 
  -4  -6   5 147.165 9.30037   5 
  -4  -6   5 139.608 8.35973   7 
  -4  -6   5 152.761 8.83885  14 
  -4  -6   5 153.811 8.54274   1 
  -4  -6   5 144.098 11.0229   4 
  -4  -6   5 135.667 8.51196  14 
   3   6  -5 64.2965 6.61303   1 
   3   6  -5 70.0994 7.62894   2 
  -3  -6   5 80.6437 5.66503   1 
  -3  -6   5 71.2401 5.59472  14 
  -3  -6   5 66.0796 4.97120   7 
  -3  -6   5 79.7245 6.19214   5 
  -3  -6   5 76.6162 6.05822   5 
  -3  -6   5 76.6610 5.70735  14 
  -3  -6   5 74.8401 7.52379   4 
   2   6  -5 35.5742 4.52139   3 
   2   6  -5 25.0271 5.32502   2 
   2   6  -5 29.0287 4.67228   8 
   2   6  -5 30.8037 4.41400   1 
   2   6  -5 25.1911 4.84699   2 
  -2  -6   5 32.8116 3.27696   7 
  -2  -6   5 30.7434 3.67896  14 
  -2  -6   5 39.7517 3.99639   1 
  -2  -6   5 32.5115 3.76653  14 
  -2  -6   5 35.4242 4.15000   5 
  -2  -6   5 32.8282 4.00053   5 
  -2  -6   5 32.1570 4.37023   3 
   1   6  -5 106.620 7.86093   2 
   1   6  -5 112.101 5.92710  11 
   1   6  -5 109.631 8.13141   2 
   1   6  -5 102.300 7.41524   8 
   1   6  -5 98.3032 6.70396   3 
   1   6  -5 110.707 7.36048   1 
  -1  -6   5 90.6476 6.08455  14 
  -1  -6   5 93.4525 6.27631   5 
  -1  -6   5 97.6637 6.07061   1 
  -1  -6   5 87.9889 6.83678   3 
  -1  -6   5 91.3187 5.30109   7 
  -1  -6   5 95.2419 6.40009   5 
  -1  -6   5 86.2721 7.34214   9 
  -1  -6   5 89.9644 6.03789  14 
   0   6  -5 344.453 14.5660   3 
   0   6  -5 347.228 14.8658   1 
   0   6  -5 318.969 14.9512   8 
   0   6  -5 323.893 15.6011   2 
   0   6  -5 309.918 15.3281   2 
   0   6  -5 329.312 13.2411  11 
   0  -6   5 302.937 14.3673   3 
   0  -6   5 325.118 13.7971   5 
   0  -6   5 311.360 15.2808   9 
   0  -6   5 321.434 13.3362   1 
   0  -6   5 314.456 13.3612  14 
   0  -6   5 316.310 13.3516  14 
   0  -6   5 313.313 13.6154   5 
   0  -6   5 322.111 12.5380   7 
   0  -6   5 335.606 14.7175   2 
  -1   6  -5 620.261 23.7143   5 
  -1   6  -5 596.150 23.4371   1 
  -1   6  -5 616.852 24.1571   8 
  -1   6  -5 599.999 23.2076  14 
  -1   6  -5 604.139 24.8663   2 
  -1   6  -5 612.445 22.7654  11 
  -1   6  -5 619.667 25.0044   2 
  -1   6  -5 615.225 23.4216   3 
   1  -6   5 591.598 22.2643  14 
   1  -6   5 590.920 24.3404   9 
   1  -6   5 625.256 23.9931   3 
   1  -6   5 603.733 22.8246   5 
   1  -6   5 618.218 22.4520  14 
   1  -6   5 619.309 24.0724   2 
   1  -6   5 600.343 22.3221   1 
   1  -6   5 621.530 22.9844   5 
  -2   6  -5 269.440 13.4887   5 
  -2   6  -5 262.188 13.2159   1 
  -2   6  -5 258.461 14.3055   2 
  -2   6  -5 245.462 10.4785  13 
  -2   6  -5 253.555 14.4265   2 
  -2   6  -5 250.699 13.1241   3 
  -2   6  -5 265.259 13.3630  14 
  -2   6  -5 251.316 12.8624  11 
   2  -6   5 273.749 14.5466   2 
   2  -6   5 285.469 12.6900  14 
   2  -6   5 294.488 14.0238   3 
   2  -6   5 293.922 13.2196   8 
   2  -6   5 286.511 12.8034   1 
   2  -6   5 300.176 12.9454  14 
   2  -6   5 275.168 14.1630   9 
   2  -6   5 284.962 10.5243   6 
   2  -6   5 290.942 13.2259   5 
   2  -6   5 281.469 13.0379   5 
  -3   6  -5 6.69786 2.66040   1 
  -3   6  -5 5.83013 2.86202   3 
  -3   6  -5 8.82569 3.25497  11 
  -3   6  -5 7.52576 3.00912   2 
   3  -6   5 2.20450 2.02516   5 
   3  -6   5 0.05014 1.70370   1 
   3  -6   5 2.83609 2.53286   3 
   3  -6   5 3.44894 2.28946   5 
   3  -6   5 3.75289 2.45256   8 
   3  -6   5 0.82335 2.57991   9 
   3  -6   5 2.51807 1.35890   6 
  -4   6  -5 1.29618 2.77597  11 
  -4   6  -5 6.93511 3.16452   3 
  -4   6  -5 7.51596 3.33996   2 
  -4   6  -5 6.44643 3.10836   1 
   4  -6   5 15.8999 4.34777   3 
   4  -6   5 13.6026 3.65906   1 
   4  -6   5 14.5354 4.42792   5 
   4  -6   5 13.2344 2.61009   6 
   4  -6   5 10.1904 3.91255   9 
  -5   6  -5 359.052 18.2465   1 
  -5   6  -5 346.141 18.5146  11 
  -5   6  -5 347.923 18.1936   3 
  -5   6  -5 339.323 19.4359   2 
   5  -6   5 340.219 14.5596   6 
   5  -6   5 355.595 18.9955   3 
   5  -6   5 333.714 17.4900   5 
   5  -6   5 335.671 17.2154   1 
  -6   6  -5 169.860 13.0009   3 
  -6   6  -5 161.396 13.3095  11 
  -6   6  -5 183.181 13.1321   1 
   6  -6   5 186.621 12.9002   1 
   6  -6   5 178.980 13.8647   3 
  -7   6  -5 3.52507 4.91177  11 
  -7   6  -5 -0.6456 3.29584   1 
   7  -6   5 0.10268 4.20825   3 
   7  -6   5 3.59909 4.31997   1 
  -8   6  -5 -2.6248 4.40240  11 
  -8   6  -5 -0.4734 4.29762   1 
   8  -6   5 -2.6636 4.27672   1 
   8   5  -5 19.1864 6.70562   1 
  -8  -5   5 27.2254 7.45359   4 
  -8  -5   5 31.5386 7.92485   7 
  -8  -5   5 29.6477 6.56230  14 
  -8  -5   5 25.3118 6.10584   5 
   7   5  -5 24.8335 6.89495   2 
   7   5  -5 33.9185 7.15941   1 
  -7  -5   5 15.7364 5.34247   4 
  -7  -5   5 21.9352 5.35431   5 
  -7  -5   5 22.6525 5.47614   7 
  -7  -5   5 25.6011 7.12701   3 
  -7  -5   5 22.9482 5.13830  14 
  -7  -5   5 22.1648 5.17540   1 
   6   5  -5 33.4570 6.77593   1 
   6   5  -5 25.1240 6.56586   2 
  -6  -5   5 35.3051 5.36469   1 
  -6  -5   5 26.1861 5.27529   5 
  -6  -5   5 29.2507 5.46597   7 
  -6  -5   5 29.5322 6.78028   4 
  -6  -5   5 29.7804 5.42947  14 
  -6  -5   5 35.4137 5.59057   1 
   5   5  -5 105.682 9.32591   1 
   5   5  -5 102.371 10.2011   2 
  -5  -5   5 116.150 8.17183   1 
  -5  -5   5 107.839 8.40589   5 
  -5  -5   5 112.497 9.74808   4 
  -5  -5   5 106.236 7.79634   7 
  -5  -5   5 107.363 8.17317   5 
  -5  -5   5 105.058 7.98154  14 
   4   5  -5 142.328 9.79148   3 
   4   5  -5 150.913 11.2470   2 
   4   5  -5 159.718 10.4305   1 
  -4  -5   5 160.024 9.18172  14 
  -4  -5   5 158.615 9.12396   1 
  -4  -5   5 159.751 9.52322   5 
  -4  -5   5 164.743 9.27727  14 
  -4  -5   5 154.813 10.6737   4 
  -4  -5   5 139.527 9.21015   5 
  -4  -5   5 159.496 8.82626   7 
   3   5  -5 138.052 8.90668   1 
   3   5  -5 131.683 6.97170  10 
   3   5  -5 133.861 8.62333   3 
   3   5  -5 137.485 9.88262   2 
  -3  -5   5 125.326 7.79335  14 
  -3  -5   5 132.130 8.10273   5 
  -3  -5   5 123.894 7.21738   7 
  -3  -5   5 134.517 8.96481   3 
  -3  -5   5 142.782 8.52186   5 
  -3  -5   5 127.902 7.69214  14 
  -3  -5   5 129.761 7.72992   1 
   2   5  -5 371.805 16.0212   5 
   2   5  -5 378.208 17.0533   2 
   2   5  -5 373.171 16.4707   8 
   2   5  -5 364.043 15.7133   3 
   2   5  -5 372.062 17.0345   2 
   2   5  -5 365.565 15.5660  14 
   2   5  -5 367.998 15.7414   1 
  -2  -5   5 337.471 14.6615   1 
  -2  -5   5 355.345 16.1724   2 
  -2  -5   5 354.198 14.6725  14 
  -2  -5   5 361.212 16.0567   3 
  -2  -5   5 353.368 14.0798   7 
  -2  -5   5 362.073 15.2266   5 
  -2  -5   5 352.117 15.2355   5 
  -2  -5   5 379.823 15.0991  14 
  -2  -5   5 369.583 13.3504  12 
   1   5  -5 284.910 11.7377  11 
   1   5  -5 291.356 12.7263  14 
   1   5  -5 279.510 12.9282   5 
   1   5  -5 287.721 12.9745   3 
   1   5  -5 305.287 14.0221   2 
   1   5  -5 291.848 13.9960   2 
   1   5  -5 284.139 12.8939   1 
   1   5  -5 288.976 13.3930   8 
  -1  -5   5 285.366 12.4861   5 
  -1  -5   5 274.636 12.0458  14 
  -1  -5   5 257.220 13.0342   2 
  -1  -5   5 255.240 11.8900   1 
  -1  -5   5 279.401 11.7107  12 
  -1  -5   5 263.914 12.3014   5 
  -1  -5   5 284.303 13.2081   3 
  -1  -5   5 272.260 12.0632  14 
  -1  -5   5 268.309 11.1672   7 
  -1  -5   5 272.577 13.4519   9 
   0   5  -5 545.499 22.1549   3 
   0   5  -5 585.852 22.6013   5 
   0   5  -5 568.582 21.4444  11 
   0   5  -5 591.880 22.2632  14 
   0   5  -5 614.242 23.8576   2 
   0   5  -5 574.744 22.9904   8 
   0   5  -5 560.775 23.3492   2 
   0   5  -5 583.796 22.4730   1 
   0  -5   5 591.820 21.4441  14 
   0  -5   5 582.509 21.4552   1 
   0  -5   5 589.518 24.9209   2 
   0  -5   5 603.632 23.1520   9 
   0  -5   5 601.408 20.8880   7 
   0  -5   5 619.579 22.8335   3 
   0  -5   5 611.068 21.7826  14 
   0  -5   5 625.669 22.2219   5 
   0  -5   5 593.719 21.8695   5 
  -1   5  -5 299.606 13.8904   3 
  -1   5  -5 298.796 13.7903   1 
  -1   5  -5 293.722 13.7761   5 
  -1   5  -5 302.767 13.5310  14 
  -1   5  -5 304.721 11.7143  13 
  -1   5  -5 295.967 13.4011  11 
  -1   5  -5 326.371 15.2028   2 
  -1   5  -5 286.187 14.1122   8 
  -1   5  -5 293.655 14.7655   2 
   1  -5   5 318.770 13.2366  14 
   1  -5   5 301.393 13.0348  14 
   1  -5   5 304.831 13.4390   5 
   1  -5   5 315.029 14.1648   3 
   1  -5   5 318.452 14.4448   9 
   1  -5   5 323.371 13.8675   8 
   1  -5   5 300.441 13.4411   5 
   1  -5   5 315.496 13.2818   1 
  -2   5  -5 126.571 8.07796   1 
  -2   5  -5 133.934 8.30807   5 
  -2   5  -5 130.391 8.36892   3 
  -2   5  -5 118.019 8.68728   2 
  -2   5  -5 117.182 8.82332   2 
  -2   5  -5 137.253 8.29222  11 
  -2   5  -5 122.589 4.85531  13 
  -2   5  -5 132.431 8.00579  14 
   2  -5   5 98.6972 7.27425   5 
   2  -5   5 108.636 7.06070  14 
   2  -5   5 108.465 4.80064   6 
   2  -5   5 99.4112 7.05330   1 
   2  -5   5 105.334 7.26934   5 
   2  -5   5 105.976 7.91719   9 
   2  -5   5 111.677 7.65928   8 
   2  -5   5 104.122 7.95394   2 
  -3   5  -5 236.494 11.5665  14 
  -3   5  -5 226.441 12.8904   2 
  -3   5  -5 211.133 11.5752   1 
  -3   5  -5 212.057 11.8847  11 
  -3   5  -5 208.702 11.4658   5 
  -3   5  -5 220.197 11.9921   3 
   3  -5   5 195.205 10.9662   5 
   3  -5   5 190.835 11.6882   3 
   3  -5   5 198.260 8.14578   6 
   3  -5   5 189.377 11.0905   5 
   3  -5   5 180.710 10.6719   1 
   3  -5   5 201.508 12.2372   2 
   3  -5   5 193.803 11.6866   9 
  -4   5  -5 85.4500 8.47249   2 
  -4   5  -5 82.8038 7.83441  11 
  -4   5  -5 89.4493 7.55963  14 
  -4   5  -5 84.4330 7.78501   3 
  -4   5  -5 93.5686 7.95122   1 
   4  -5   5 72.3967 7.24836   5 
   4  -5   5 81.8877 5.21671   6 
   4  -5   5 72.8288 7.04575   1 
   4  -5   5 68.5255 7.46121   3 
  -5   5  -5 114.931 10.0004   3 
  -5   5  -5 126.764 10.9816   2 
  -5   5  -5 114.249 10.3278  11 
  -5   5  -5 111.468 9.59507   1 
   5  -5   5 125.359 9.84852   1 
   5  -5   5 123.563 10.5896   3 
  -6   5  -5 56.9784 8.10103   3 
  -6   5  -5 48.5485 8.19172  11 
  -6   5  -5 60.3208 8.13264   1 
   6  -5   5 66.2735 8.68542   3 
   6  -5   5 72.0194 8.30915   1 
  -7   5  -5 9.05747 4.98209   3 
  -7   5  -5 9.65138 4.51777   1 
  -7   5  -5 3.56922 4.67117  11 
   7  -5   5 10.6883 4.94569   1 
   7  -5   5 4.11806 4.68069   3 
  -8   5  -5 -1.9038 4.78456  11 
  -8   5  -5 7.88468 4.95971   1 
   8  -5   5 1.80870 4.89335   1 
   8   4  -5 8.18434 5.23742   1 
  -8  -4   5 4.59331 4.50958   4 
  -8  -4   5 5.30154 4.04354   1 
  -8  -4   5 9.15697 4.96323   7 
  -8  -4   5 7.99555 4.28187  14 
  -8  -4   5 3.53767 3.95066   5 
   7   4  -5 30.0061 7.52896   2 
   7   4  -5 19.0876 5.69451   1 
  -7  -4   5 19.4857 5.20130  14 
  -7  -4   5 25.1806 5.98856   4 
  -7  -4   5 20.0479 5.35720   7 
  -7  -4   5 9.17922 4.21120   5 
  -7  -4   5 23.5145 5.29318   1 
  -7  -4   5 25.8509 5.52667   1 
   6   4  -5 78.6237 8.63232   1 
   6   4  -5 86.2256 9.68900   2 
  -6  -4   5 84.6164 7.67818   7 
  -6  -4   5 83.8314 7.81187  14 
  -6  -4   5 92.8694 8.12724   1 
  -6  -4   5 77.9592 8.34346   4 
  -6  -4   5 77.1249 7.74189   5 
   5   4  -5 162.047 11.0765   3 
   5   4  -5 182.210 12.7724   2 
   5   4  -5 181.634 11.7060   1 
  -5  -4   5 179.043 10.4721  14 
  -5  -4   5 196.145 10.6565   7 
  -5  -4   5 172.565 11.4048   4 
  -5  -4   5 175.419 11.0014   5 
  -5  -4   5 174.554 10.6753   5 
  -5  -4   5 178.866 10.6293   1 
   4   4  -5 91.9281 7.68696   3 
   4   4  -5 96.8740 8.60295   2 
   4   4  -5 92.6770 7.73784   1 
   4   4  -5 90.1440 5.19308  10 
  -4  -4   5 121.291 7.90656   5 
  -4  -4   5 117.883 7.54540  14 
  -4  -4   5 109.941 7.28057  14 
  -4  -4   5 118.412 7.25993   7 
  -4  -4   5 108.793 7.39872   1 
  -4  -4   5 100.189 7.37980   5 
   3   4  -5 78.5913 6.36500   5 
   3   4  -5 58.2872 5.62101   1 
   3   4  -5 67.4283 6.45890   2 
   3   4  -5 64.3407 5.85912   3 
   3   4  -5 67.7592 6.62019   2 
   3   4  -5 62.6838 5.64598  14 
  -3  -4   5 47.9884 4.87488   5 
  -3  -4   5 50.6314 5.03547   5 
  -3  -4   5 59.2217 5.01967  14 
  -3  -4   5 59.8103 5.12663  14 
  -3  -4   5 46.7738 4.76067   1 
  -3  -4   5 56.2905 5.52492   3 
  -3  -4   5 44.9411 4.33622   7 
   2   4  -5 300.808 13.7715   1 
   2   4  -5 327.853 14.2768   3 
   2   4  -5 307.299 14.8319   2 
   2   4  -5 321.884 13.1211  11 
   2   4  -5 312.320 15.0546   2 
   2   4  -5 324.009 14.2030   5 
   2   4  -5 323.034 13.8879  14 
   2   4  -5 320.618 14.7196   8 
  -2  -4   5 316.153 13.4586  14 
  -2  -4   5 326.716 14.0986   5 
  -2  -4   5 318.553 12.8703   7 
  -2  -4   5 340.086 13.9047  14 
  -2  -4   5 299.950 14.0500   3 
  -2  -4   5 316.901 13.8441   5 
  -2  -4   5 310.140 13.4629   1 
   1   4  -5 730.314 27.4518   2 
   1   4  -5 722.556 26.0505  14 
   1   4  -5 742.553 26.5502   5 
   1   4  -5 731.185 26.5850   3 
   1   4  -5 757.934 27.0620   8 
   1   4  -5 712.715 26.2276   1 
   1   4  -5 749.033 25.6889  11 
   1   4  -5 738.154 27.4416   2 
  -1  -4   5 710.941 26.1318   5 
  -1  -4   5 756.702 25.9985  14 
  -1  -4   5 708.149 26.4897   9 
  -1  -4   5 725.403 25.9874   5 
  -1  -4   5 715.644 25.7028   1 
  -1  -4   5 729.256 25.0130   7 
  -1  -4   5 751.887 26.9399   3 
  -1  -4   5 709.099 25.5770  14 
   0   4  -5 430.980 17.5515   5 
   0   4  -5 402.045 14.1568   6 
   0   4  -5 409.281 16.8204  11 
   0   4  -5 396.474 17.1310   1 
   0   4  -5 404.459 17.6334   8 
   0   4  -5 445.143 18.7002   2 
   0   4  -5 431.358 18.3815   2 
   0   4  -5 414.874 17.0870  14 
   0   4  -5 407.484 17.3328   3 
   0  -4   5 467.193 17.3986   5 
   0  -4   5 490.663 17.9224   8 
   0  -4   5 442.353 17.6080   9 
   0  -4   5 433.224 16.8746   1 
   0  -4   5 448.134 16.8512  14 
   0  -4   5 466.123 17.9107   3 
   0  -4   5 469.524 18.4424   2 
   0  -4   5 452.640 17.2390   5 
  -1   4  -5 382.394 15.7382  14 
  -1   4  -5 376.257 17.0093   2 
  -1   4  -5 378.307 16.0429   5 
  -1   4  -5 375.863 16.2089   3 
  -1   4  -5 376.729 17.0390   2 
  -1   4  -5 369.232 13.0484  13 
  -1   4  -5 352.874 15.6871  11 
  -1   4  -5 360.846 15.7811   5 
  -1   4  -5 358.783 15.8222   1 
   1  -4   5 403.877 15.9964   5 
   1  -4   5 406.755 16.5190   3 
   1  -4   5 414.941 16.5138   8 
   1  -4   5 373.670 15.3392  14 
   1  -4   5 381.636 15.5584   1 
   1  -4   5 397.969 16.8790   2 
   1  -4   5 395.833 15.9451   5 
   1  -4   5 392.732 16.2825   9 
  -2   4  -5 238.295 11.5982   5 
  -2   4  -5 224.910 12.5073   2 
  -2   4  -5 233.018 11.7966   3 
  -2   4  -5 209.122 11.0890   1 
  -2   4  -5 224.392 11.1753  14 
  -2   4  -5 222.771 11.5154  11 
  -2   4  -5 222.584 11.4790   5 
   2  -4   5 242.840 12.5981   2 
   2  -4   5 217.714 12.7379   5 
   2  -4   5 219.176 11.0710   1 
   2  -4   5 231.104 10.9758  14 
   2  -4   5 204.506 10.9583   5 
   2  -4   5 211.516 11.4270   9 
  -3   4  -5 255.880 13.9585   2 
  -3   4  -5 261.893 13.0711   5 
  -3   4  -5 247.604 12.7484   5 
  -3   4  -5 269.986 12.6877  14 
  -3   4  -5 263.761 12.9674   1 
  -3   4  -5 265.580 13.4952   3 
  -3   4  -5 266.559 13.4645  11 
   3  -4   5 230.636 13.4681   2 
   3  -4   5 229.469 12.3547   1 
   3  -4   5 230.746 12.5375   5 
   3  -4   5 234.895 13.0869   3 
  -4   4  -5 351.404 16.7567   5 
  -4   4  -5 324.716 16.0968  14 
  -4   4  -5 326.886 16.2779   1 
  -4   4  -5 334.744 17.8398   2 
  -4   4  -5 338.926 17.1716  11 
  -4   4  -5 335.182 16.9828   3 
   4  -4   5 355.268 17.5208   3 
   4  -4   5 355.154 16.8240   5 
   4  -4   5 344.304 17.8318   2 
   4  -4   5 343.583 16.4730   1 
  -5   4  -5 129.283 10.0624   1 
  -5   4  -5 121.099 9.58931  14 
  -5   4  -5 142.133 10.9242   3 
  -5   4  -5 128.609 10.7518  11 
   5  -4   5 137.477 10.8372   3 
   5  -4   5 134.504 10.1138   1 
  -6   4  -5 28.6180 5.98057   1 
  -6   4  -5 38.1975 7.05469   3 
  -6   4  -5 41.1415 7.65772  11 
   6  -4   5 29.4154 6.23885   1 
   6  -4   5 36.8920 7.10904   3 
  -7   4  -5 22.8310 6.61656   3 
  -7   4  -5 18.2422 5.77892   1 
  -7   4  -5 20.1673 6.59588  11 
   7  -4   5 19.6058 6.13295   1 
  -8   4  -5 11.5429 5.23114   1 
  -8   4  -5 13.3922 6.64914  11 
  -8   4  -5 7.89834 5.61497   3 
   8  -4   5 12.1734 5.71763   1 
   9   3  -5 5.42926 5.33213   1 
  -9  -3   5 -0.8194 4.22251   7 
  -9  -3   5 -1.8803 3.69285   1 
  -9  -3   5 -0.8933 3.30722  14 
   8   3  -5 42.7233 8.53062   1 
  -8  -3   5 44.7572 7.45190  14 
  -8  -3   5 69.0475 8.69775   1 
  -8  -3   5 39.7195 7.79780   7 
  -8  -3   5 46.2369 8.66931   3 
  -8  -3   5 49.5640 7.43578   4 
  -8  -3   5 53.5118 8.09717   1 
   7   3  -5 59.0813 8.32605   1 
   7   3  -5 69.8613 9.36046   2 
  -7  -3   5 67.9664 7.87712   1 
  -7  -3   5 52.0987 8.21132   3 
  -7  -3   5 66.9567 7.99052   7 
  -7  -3   5 64.7686 7.56508  14 
  -7  -3   5 63.5138 7.74146   4 
  -7  -3   5 61.0805 7.60762   5 
   6   3  -5 55.3911 7.02078   3 
   6   3  -5 65.2748 7.68436   1 
   6   3  -5 64.1238 8.23399   2 
  -6  -3   5 73.4079 7.09373   7 
  -6  -3   5 62.0479 6.82389   5 
  -6  -3   5 53.1978 6.42707  14 
  -6  -3   5 61.7422 6.94217   1 
  -6  -3   5 69.8770 7.33962   4 
   5   3  -5 13.8078 3.79392   1 
   5   3  -5 16.0191 4.47868   2 
   5   3  -5 19.2598 4.36442   3 
  -5  -3   5 11.2876 3.07684   5 
  -5  -3   5 14.2055 4.65833   5 
  -5  -3   5 9.84625 3.08104  14 
  -5  -3   5 11.7461 3.23721   7 
  -5  -3   5 12.0826 3.40918   1 
   4   3  -5 141.940 9.39597   3 
   4   3  -5 156.735 14.3842   2 
   4   3  -5 142.578 9.03542  14 
   4   3  -5 138.426 9.13057   1 
   4   3  -5 137.746 9.89594   2 
   4   3  -5 140.215 5.48246  10 
  -4  -3   5 143.167 8.49797  14 
  -4  -3   5 142.911 9.57199   2 
  -4  -3   5 139.738 8.68352   5 
  -4  -3   5 142.774 8.56526  14 
  -4  -3   5 142.243 8.33669   7 
  -4  -3   5 152.331 8.84263   1 
  -4  -3   5 149.101 9.09459   5 
   3   3  -5 729.152 26.2834  14 
   3   3  -5 720.407 27.7330   2 
   3   3  -5 701.464 26.6413   3 
   3   3  -5 684.075 26.2028   1 
   3   3  -5 704.725 27.4552   2 
   3   3  -5 709.740 26.6376   5 
  -3  -3   5 739.316 27.6612   2 
  -3  -3   5 719.250 27.0862   3 
  -3  -3   5 724.117 25.7088  14 
  -3  -3   5 710.914 26.1037   5 
  -3  -3   5 713.171 25.3259   7 
  -3  -3   5 702.170 25.8788   1 
  -3  -3   5 701.854 26.1974   5 
   2   3  -5 1013.21 35.0726   8 
   2   3  -5 999.638 34.3620   5 
   2   3  -5 964.782 34.2676   5 
   2   3  -5 1008.45 34.0549  14 
   2   3  -5 1035.05 35.7595   2 
   2   3  -5 992.113 33.7070  11 
   2   3  -5 971.779 35.2423   2 
   2   3  -5 976.527 34.5113   3 
   2   3  -5 956.076 34.0261   1 
  -2  -3   5 1028.74 34.4651   5 
  -2  -3   5 993.334 33.2392   7 
  -2  -3   5 988.203 35.3376   2 
  -2  -3   5 1005.47 33.7784  14 
  -2  -3   5 1003.32 34.1452   5 
  -2  -3   5 954.901 33.8554   1 
  -2  -3   5 1011.80 34.7491   3 
   1   3  -5 118.396 7.55710   8 
   1   3  -5 120.364 7.10600  14 
   1   3  -5 121.648 7.27535   1 
   1   3  -5 119.182 7.35400   5 
   1   3  -5 116.730 7.83978   2 
   1   3  -5 128.395 7.19852  11 
   1   3  -5 122.121 7.94662   2 
   1   3  -5 122.763 7.59885   3 
   1   3  -5 122.305 7.23545   5 
  -1  -3   5 143.731 7.01689   7 
  -1  -3   5 140.122 7.57167   5 
  -1  -3   5 138.840 7.43609   9 
  -1  -3   5 143.793 7.44514   5 
  -1  -3   5 150.933 8.02274   3 
  -1  -3   5 134.182 7.94749   2 
  -1  -3   5 133.803 7.01692  14 
  -1  -3   5 129.767 7.13403   1 
   0   3  -5 18.4902 2.80006   5 
   0   3  -5 15.8738 3.08306   1 
   0   3  -5 18.7967 2.99605  14 
   0   3  -5 17.0740 3.07036  11 
   0   3  -5 19.9394 3.49868   2 
   0   3  -5 16.4147 3.06878   5 
   0  -3   5 7.86140 2.41885   3 
   0  -3   5 10.4084 2.47099   9 
   0  -3   5 7.85848 1.96188  14 
   0  -3   5 6.80679 2.21569   8 
   0  -3   5 8.14198 2.13978  14 
   0  -3   5 6.52831 2.09926   1 
   0  -3   5 5.68411 2.06319   2 
   0  -3   5 6.62317 1.84972   5 
   0  -3   5 6.25876 2.25184   2 
  -1   3  -5 195.164 10.5546   2 
  -1   3  -5 196.296 9.77402   5 
  -1   3  -5 179.220 9.71816   3 
  -1   3  -5 183.847 9.46371   5 
  -1   3  -5 188.051 9.61230   1 
  -1   3  -5 182.918 9.74647  11 
   1  -3   5 183.208 9.35462   5 
   1  -3   5 168.866 9.11252   1 
   1  -3   5 184.414 9.47474   9 
   1  -3   5 175.279 10.0114   2 
  -2   3  -5 788.032 29.3574   2 
  -2   3  -5 703.962 27.4109   1 
  -2   3  -5 728.204 27.9301   3 
  -2   3  -5 736.701 28.0882  11 
  -2   3  -5 747.174 27.7869   5 
  -2   3  -5 768.532 27.4390  14 
   2  -3   5 778.076 29.0566   2 
   2  -3   5 765.819 27.8606   5 
   2  -3   5 767.378 27.7431   5 
   2  -3   5 775.310 27.5984   1 
  -3   3  -5 510.776 20.2603  14 
  -3   3  -5 503.134 21.2618  11 
  -3   3  -5 505.233 20.5667   5 
  -3   3  -5 505.923 20.4762   1 
  -3   3  -5 516.823 21.3018   3 
   3  -3   5 482.032 20.3933   5 
   3  -3   5 469.669 20.2391   1 
   3  -3   5 491.899 20.5853   5 
   3  -3   5 508.142 21.9980   2 
   3  -3   5 490.164 21.1066   3 
  -4   3  -5 39.3236 5.61616   2 
  -4   3  -5 33.7115 5.09108   1 
  -4   3  -5 33.3212 5.65142   3 
  -4   3  -5 32.7436 5.00395   5 
  -4   3  -5 31.4881 4.96400  14 
  -4   3  -5 30.7161 5.32399  11 
   4  -3   5 28.1614 5.11877   3 
   4  -3   5 28.0445 5.24215   2 
   4  -3   5 34.9842 5.21367   1 
   4  -3   5 32.7040 5.15933   5 
  -5   3  -5 76.1620 7.69754  14 
  -5   3  -5 75.0496 8.24287   3 
  -5   3  -5 75.9727 7.72955   5 
  -5   3  -5 83.5117 8.78467  11 
  -5   3  -5 92.0920 8.31231   1 
   5  -3   5 87.0273 8.36947   1 
   5  -3   5 88.4497 8.76058   3 
   5  -3   5 99.1125 9.37795   2 
  -6   3  -5 20.5535 5.61500   1 
  -6   3  -5 12.4214 5.12609  11 
  -6   3  -5 11.4636 4.02138  14 
  -6   3  -5 16.0885 5.20848   3 
   6  -3   5 11.2990 4.39595   1 
   6  -3   5 16.8203 5.20901   3 
  -7   3  -5 42.8672 8.93779  11 
  -7   3  -5 45.1548 8.50384   3 
  -7   3  -5 51.4962 8.18460   1 
  -7   3  -5 37.0896 7.29953  14 
   7  -3   5 29.8110 7.17031   1 
  -8   3  -5 49.8875 9.07586   1 
  -8   3  -5 40.7858 9.75661  11 
   8  -3   5 42.5314 9.38214   1 
   9   2  -5 0.46689 4.46981   1 
  -9  -2   5 3.67536 4.22715   1 
  -9  -2   5 2.14594 3.73960  14 
  -9  -2   5 0.29516 4.64926   7 
   8   2  -5 14.6461 5.50809   1 
  -8  -2   5 17.1877 5.19394   1 
  -8  -2   5 14.8442 5.11948   3 
  -8  -2   5 19.8223 5.73498   1 
  -8  -2   5 18.1201 5.40173   7 
  -8  -2   5 6.52971 3.55603   4 
  -8  -2   5 11.1349 4.16353  14 
   7   2  -5 100.725 10.8525   2 
   7   2  -5 95.8756 9.63118   1 
   7   2  -5 107.370 15.7312   3 
  -7  -2   5 94.1114 9.62619   3 
  -7  -2   5 103.447 9.27137   1 
  -7  -2   5 94.7446 10.1224   5 
  -7  -2   5 92.2372 8.67922   7 
  -7  -2   5 100.488 9.06314  14 
  -7  -2   5 99.5302 8.56349   4 
   6   2  -5 70.8460 7.43238   1 
   6   2  -5 67.3517 8.05557   2 
   6   2  -5 64.0461 7.36710   3 
  -6  -2   5 72.3797 6.86563   4 
  -6  -2   5 71.9835 7.32651   1 
  -6  -2   5 57.5675 6.41653   7 
  -6  -2   5 67.4339 6.90296   5 
  -6  -2   5 61.6005 6.65442  14 
   5   2  -5 11.6682 3.98203   2 
   5   2  -5 9.91744 3.22931  14 
   5   2  -5 16.6228 3.97538   1 
   5   2  -5 7.06106 3.12635   3 
  -5  -2   5 12.9515 3.79294   2 
  -5  -2   5 13.2290 3.50585   1 
  -5  -2   5 11.3796 3.12962   7 
  -5  -2   5 10.2829 2.96668   5 
  -5  -2   5 12.3842 1.93570  12 
  -5  -2   5 9.64962 2.93588  14 
   4   2  -5 49.6099 5.24329  14 
   4   2  -5 53.4552 5.54072   1 
   4   2  -5 39.3610 4.63500   5 
   4   2  -5 36.2647 5.04070   3 
   4   2  -5 39.0178 5.18910   2 
  -4  -2   5 55.5498 5.85905   2 
  -4  -2   5 50.3344 5.06573   5 
  -4  -2   5 50.7786 5.13807   5 
  -4  -2   5 57.8753 5.13994  14 
  -4  -2   5 52.5174 5.17508   1 
  -4  -2   5 55.7563 5.12380   7 
  -4  -2   5 57.2616 3.59525  12 
   3   2  -5 211.638 10.5488  14 
   3   2  -5 212.131 10.4781   5 
   3   2  -5 206.606 11.4893   2 
   3   2  -5 200.577 10.8425   3 
   3   2  -5 215.963 10.9546   5 
   3   2  -5 195.876 10.4777   1 
   3   2  -5 207.515 11.0536   8 
  -3  -2   5 229.422 10.5052  14 
  -3  -2   5 229.604 11.7682   2 
  -3  -2   5 236.035 10.7319  14 
  -3  -2   5 207.650 10.0092   7 
  -3  -2   5 211.801 10.4647   1 
  -3  -2   5 223.288 10.6442   5 
   2   2  -5 1320.03 45.2371   2 
   2   2  -5 1296.93 44.0067   5 
   2   2  -5 1308.36 44.0751   1 
   2   2  -5 1328.78 44.6482   3 
   2   2  -5 1305.17 44.5819   8 
   2   2  -5 1277.43 44.1655   5 
   2   2  -5 1326.73 43.9717  11 
   2   2  -5 1329.51 43.9394  14 
  -2  -2   5 1310.93 43.8866   1 
  -2  -2   5 1306.28 43.3944   7 
  -2  -2   5 1393.66 44.7727   3 
  -2  -2   5 1380.19 45.5422   2 
  -2  -2   5 1453.36 45.3789  14 
  -2  -2   5 1368.33 43.8304  14 
  -2  -2   5 1331.47 44.1459   5 
   1   2  -5 500.207 18.0837  14 
   1   2  -5 489.118 18.5531   3 
   1   2  -5 494.792 18.2276   1 
   1   2  -5 496.867 18.3502   5 
   1   2  -5 508.438 18.3436  11 
   1   2  -5 503.748 18.4625   5 
   1   2  -5 503.135 18.8184   8 
   1   2  -5 515.274 19.3000   2 
  -1  -2   5 462.100 18.8084   2 
  -1  -2   5 452.055 17.3079   9 
  -1  -2   5 471.553 18.5563   8 
  -1  -2   5 448.472 17.8638   5 
  -1  -2   5 452.968 17.8373   1 
  -1  -2   5 437.652 17.4748  14 
  -1  -2   5 452.319 18.2340   3 
  -1  -2   5 474.674 18.2816   5 
  -1  -2   5 426.740 17.3218   7 
   0   2  -5 230.826 11.7455   3 
   0   2  -5 248.878 11.6857   5 
   0   2  -5 257.351 11.5094  14 
   0   2  -5 237.711 11.7415  11 
   0   2  -5 241.792 12.2196   2 
   0   2  -5 243.191 11.9063   8 
   0  -2   5 287.738 11.4018   9 
   0  -2   5 304.667 12.4117   3 
   0  -2   5 296.756 12.0422   5 
   0  -2   5 288.634 11.6381  14 
   0  -2   5 284.348 11.7496   1 
   0  -2   5 290.831 12.0492   5 
   0  -2   5 294.900 12.7935   2 
  -1   2  -5 470.153 18.7592  11 
  -1   2  -5 433.667 17.6928  14 
  -1   2  -5 464.296 19.1905   2 
  -1   2  -5 442.447 18.0501   5 
  -1   2  -5 445.246 18.3109   3 
  -1   2  -5 452.605 17.9632   1 
  -1   2  -5 463.957 18.6103   3 
   1  -2   5 477.758 19.3346   2 
   1  -2   5 453.668 18.0300   5 
   1  -2   5 500.754 21.0987   2 
   1  -2   5 479.936 18.1641   1 
   1  -2   5 491.092 18.2839   5 
  -2   2  -5 897.535 31.2878   5 
  -2   2  -5 845.643 31.7943  11 
  -2   2  -5 890.375 30.8086  14 
  -2   2  -5 858.247 31.5696   3 
  -2   2  -5 850.814 31.1527   5 
  -2   2  -5 863.278 30.9240   1 
  -2   2  -5 891.878 32.6077   2 
   2  -2   5 871.667 31.1952   5 
   2  -2   5 894.593 31.2969   5 
   2  -2   5 871.071 32.4322   2 
   2  -2   5 881.024 27.7229   6 
   2  -2   5 878.708 31.1165   1 
  -3   2  -5 171.545 9.68481   1 
  -3   2  -5 179.587 9.77919  14 
  -3   2  -5 169.271 9.83432   5 
  -3   2  -5 173.744 9.96204   5 
  -3   2  -5 164.387 10.3263   3 
  -3   2  -5 162.812 10.5495   2 
  -3   2  -5 170.725 10.5108  11 
   3  -2   5 182.864 11.2355   2 
   3  -2   5 168.848 10.2528   3 
   3  -2   5 174.542 10.1338   5 
   3  -2   5 169.584 9.91125   1 
  -4   2  -5 78.9065 7.10097   5 
  -4   2  -5 73.4995 7.52781  11 
  -4   2  -5 81.7946 7.02216   1 
  -4   2  -5 85.6171 7.91971   3 
  -4   2  -5 75.4319 6.64649  14 
   4  -2   5 65.9509 6.79489   1 
   4  -2   5 73.5581 7.67901   2 
   4  -2   5 79.7202 7.48394   3 
  -5   2  -5 77.1232 7.46793   1 
  -5   2  -5 68.5995 7.95856  11 
  -5   2  -5 57.6816 6.92057  14 
  -5   2  -5 62.5034 7.80472   3 
  -5   2  -5 68.6865 7.23612   5 
   5  -2   5 65.6159 7.67072   3 
   5  -2   5 69.5296 8.05476   2 
   5  -2   5 65.4342 7.56092   1 
  -6   2  -5 69.1750 9.10721   3 
  -6   2  -5 61.0164 7.86492  14 
  -6   2  -5 67.2951 7.82739   5 
  -6   2  -5 85.0182 8.75777   1 
  -6   2  -5 77.8273 9.32584  11 
   6  -2   5 68.6035 8.89787   2 
   6  -2   5 70.6131 8.57556   1 
  -7   2  -5 54.6582 9.50042   3 
  -7   2  -5 75.2390 9.01294   1 
  -7   2  -5 57.3808 8.50752  14 
  -7   2  -5 56.8619 9.25527  11 
   7  -2   5 52.1159 8.76540   1 
  -8   2  -5 23.1395 8.44701  11 
  -8   2  -5 19.0129 6.20140   1 
  -8   2  -5 18.8737 5.69562  14 
   8  -2   5 29.4847 8.15038   1 
   9   1  -5 10.3867 5.43009   1 
  -9  -1   5 8.33005 5.01001   3 
  -9  -1   5 4.26859 4.21839   7 
  -9  -1   5 17.3113 6.05165   1 
  -9  -1   5 8.46806 5.02207   1 
   8   1  -5 32.7439 7.18886   1 
  -8  -1   5 33.0882 6.23164   4 
  -8  -1   5 29.0417 6.11682  14 
  -8  -1   5 29.1653 6.89951   3 
  -8  -1   5 40.8973 7.44050   7 
  -8  -1   5 40.6472 7.38146   1 
   7   1  -5 58.0149 7.97299   1 
   7   1  -5 54.7866 7.73761   3 
  -7  -1   5 49.4799 6.68259  14 
  -7  -1   5 55.7246 6.24792   4 
  -7  -1   5 48.1328 7.21558   3 
  -7  -1   5 53.9799 7.07286   7 
  -7  -1   5 42.6573 6.79468   1 
   6   1  -5 175.337 11.2502  14 
   6   1  -5 185.619 12.1042   3 
   6   1  -5 181.907 11.5125   1 
   6   1  -5 178.307 12.2398   2 
  -6  -1   5 166.350 10.4854  14 
  -6  -1   5 153.449 10.5279   5 
  -6  -1   5 163.989 10.4303   7 
  -6  -1   5 151.780 10.5031   1 
  -6  -1   5 159.960 8.21969  12 
   5   1  -5 27.2597 4.77693   2 
   5   1  -5 29.9799 4.77601   1 
   5   1  -5 27.5261 4.50169  14 
   5   1  -5 30.6721 4.95501   3 
  -5  -1   5 20.7128 3.84802   7 
  -5  -1   5 20.3592 4.07265   1 
  -5  -1   5 19.3924 3.86927   5 
  -5  -1   5 17.5289 4.08644   2 
  -5  -1   5 19.9713 3.88212  14 
  -5  -1   5 18.1472 2.70915  12 
   4   1  -5 240.902 11.5852  14 
   4   1  -5 230.318 12.6376   2 
   4   1  -5 229.372 11.6269   1 
   4   1  -5 225.212 11.3732   5 
   4   1  -5 206.081 11.6651   3 
   4   1  -5 219.715 7.91173  10 
  -4  -1   5 241.584 11.3667  14 
  -4  -1   5 238.364 11.6473   5 
  -4  -1   5 227.435 11.6052   5 
  -4  -1   5 226.407 12.4862   2 
  -4  -1   5 237.343 10.0266  12 
  -4  -1   5 234.466 11.1881   7 
   3   1  -5 850.062 30.6602   8 
   3   1  -5 847.386 31.2844   2 
   3   1  -5 845.758 30.4984   3 
   3   1  -5 833.580 29.7622  14 
   3   1  -5 834.924 30.0001   1 
  -3  -1   5 875.981 30.2984   5 
  -3  -1   5 864.800 31.3833   2 
  -3  -1   5 842.170 29.5965   7 
  -3  -1   5 861.396 30.2489   5 
  -3  -1   5 861.983 29.7625  14 
  -3  -1   5 852.303 29.9484   1 
   2   1  -5 216.736 10.6128  11 
   2   1  -5 234.723 10.7334   5 
   2   1  -5 242.033 10.5249  14 
   2   1  -5 236.350 10.2327  14 
   2   1  -5 221.642 10.3781   1 
   2   1  -5 218.167 10.7177   3 
   2   1  -5 232.089 10.8889   8 
   2   1  -5 242.267 11.3562   2 
  -2  -1   5 221.081 10.4412   5 
  -2  -1   5 214.847 10.2675   5 
  -2  -1   5 227.184 10.1816   7 
  -2  -1   5 226.950 10.2030  14 
  -2  -1   5 226.854 11.2361   2 
  -2  -1   5 222.041 10.3125   1 
  -2  -1   5 220.338 11.1175   2 
   1   1  -5 169.437 8.58983   2 
   1   1  -5 159.437 7.75212   1 
   1   1  -5 167.465 7.86822   5 
   1   1  -5 169.454 8.25456   8 
   1   1  -5 173.236 8.42790   3 
   1   1  -5 159.071 7.88328   5 
   1   1  -5 176.299 7.92881  14 
   1   1  -5 161.166 8.22555  11 
   1   1  -5 177.523 6.35423   6 
  -1  -1   5 123.249 7.97334   2 
  -1  -1   5 128.822 8.06497   2 
  -1  -1   5 138.339 7.44335   7 
  -1  -1   5 133.481 7.43222   5 
  -1  -1   5 139.924 8.34085   3 
  -1  -1   5 136.352 8.21402   2 
  -1  -1   5 132.471 7.55877   5 
  -1  -1   5 123.853 7.22704   1 
  -1  -1   5 136.174 7.32380  14 
  -1  -1   5 125.591 6.52070   9 
   0   1  -5 7.94928 2.57335  11 
   0   1  -5 8.08011 2.09882  14 
   0   1  -5 5.78436 1.94668   1 
   0   1  -5 10.3672 1.77527  13 
   0   1  -5 7.48539 2.06438   5 
   0   1  -5 10.4749 2.53741   3 
   0   1  -5 11.1960 1.29233   6 
   0   1  -5 10.8948 2.75268   2 
   0   1  -5 8.14600 2.00767   5 
   0  -1   5 21.4061 2.89194   5 
   0  -1   5 20.8794 3.31554   2 
   0  -1   5 21.4227 3.28905   2 
   0  -1   5 24.1919 3.14401   5 
   0  -1   5 22.4791 3.06090   1 
  -1   1  -5 488.440 18.9643   5 
  -1   1  -5 503.071 18.9568  14 
  -1   1  -5 496.172 19.9690  11 
  -1   1  -5 477.473 18.7927   1 
  -1   1  -5 499.242 19.6693   3 
  -1   1  -5 484.336 19.4329   3 
  -1   1  -5 483.487 16.5258  13 
  -1   1  -5 494.854 19.1902   5 
   1  -1   5 532.642 20.5314   2 
   1  -1   5 498.429 20.1138   2 
   1  -1   5 519.473 16.5434   6 
   1  -1   5 526.936 19.3030   1 
   1  -1   5 530.211 19.4597   5 
  -2   1  -5 664.850 24.2494   1 
  -2   1  -5 643.935 25.3910  11 
  -2   1  -5 661.090 24.4833   5 
  -2   1  -5 647.625 23.9530  14 
  -2   1  -5 692.469 25.4800   3 
  -2   1  -5 665.016 24.5068   5 
  -2   1  -5 630.673 24.8601   3 
   2  -1   5 651.869 25.8050   2 
   2  -1   5 678.554 24.8543   5 
   2  -1   5 666.952 25.9814   2 
   2  -1   5 661.842 24.5728   1 
  -3   1  -5 57.4557 5.44704   5 
  -3   1  -5 52.5143 5.74316  11 
  -3   1  -5 46.3448 4.84864  14 
  -3   1  -5 45.2947 4.82229   1 
  -3   1  -5 56.1683 5.78585   3 
   3  -1   5 31.8821 5.07543   2 
   3  -1   5 35.6147 4.75781   5 
   3  -1   5 31.9679 5.00583   2 
   3  -1   5 35.8532 4.71914   1 
   3  -1   5 32.7284 2.67563  13 
  -4   1  -5 46.3229 6.27658   3 
  -4   1  -5 45.9415 5.49647  14 
  -4   1  -5 48.5553 5.71170   5 
  -4   1  -5 55.5605 6.63829  11 
  -4   1  -5 51.5069 5.63566   1 
   4  -1   5 67.1937 7.30740   2 
   4  -1   5 71.4983 6.88666   3 
   4  -1   5 68.7566 6.68064   1 
  -5   1  -5 53.1726 6.40208   1 
  -5   1  -5 59.6082 7.85469   3 
  -5   1  -5 53.4721 7.42666  11 
  -5   1  -5 49.3887 6.38664   5 
  -5   1  -5 60.3613 6.63846  14 
   5  -1   5 55.1323 7.53827   2 
   5  -1   5 56.7555 7.12893   1 
  -6   1  -5 29.6184 5.80236  14 
  -6   1  -5 26.5680 5.82319   1 
  -6   1  -5 21.4034 6.10390   3 
  -6   1  -5 20.5015 5.18601   5 
  -6   1  -5 17.0420 5.74268  11 
   6  -1   5 20.8865 5.64764   1 
   6  -1   5 22.7282 6.75404   2 
  -7   1  -5 11.6079 4.66044  14 
  -7   1  -5 9.26734 4.14777   5 
  -7   1  -5 5.51254 5.01648   3 
  -7   1  -5 12.6654 4.54518   1 
  -7   1  -5 5.90415 4.91644  11 
   7  -1   5 11.9117 5.39974   1 
  -8   1  -5 15.8859 5.70789  14 
  -8   1  -5 16.4282 5.34535   1 
  -8   1  -5 23.2689 7.82441  11 
   8  -1   5 17.2530 6.97115   1 
 -10   0   5 3.04740 4.95526   7 
   9   0  -5 3.02117 4.39083   1 
  -9   0   5 1.76183 4.19712   7 
  -9   0   5 -1.2756 3.15484   1 
  -9   0   5 -0.1902 3.39025   1 
  -9   0   5 3.74255 4.16766   3 
   8   0  -5 42.2212 7.64498   1 
   8   0  -5 54.2984 8.40930   3 
  -8   0   5 36.6600 6.90138   7 
  -8   0   5 29.7604 6.56066   3 
  -8   0   5 44.6995 7.42862   1 
   7   0  -5 89.6728 8.87717   1 
   7   0  -5 106.634 10.0289   3 
  -7   0   5 96.1891 8.79424   7 
  -7   0   5 108.619 9.32892   1 
  -7   0   5 101.411 9.30924   3 
  -7   0   5 89.5937 8.38931  14 
   6   0  -5 338.000 17.4736   3 
   6   0  -5 340.263 17.8837   2 
   6   0  -5 342.254 16.5455  14 
   6   0  -5 344.318 16.6423   1 
  -6   0   5 337.188 14.4766  12 
  -6   0   5 324.853 15.8977   7 
  -6   0   5 346.743 16.2412  14 
  -6   0   5 337.797 17.9629   2 
  -6   0   5 328.153 16.2464   1 
  -6   0   5 306.854 20.1192   5 
   5   0  -5 87.9085 7.63363   3 
   5   0  -5 83.6448 6.89222   1 
   5   0  -5 85.6835 7.54745   2 
   5   0  -5 90.0194 7.07833  14 
  -5   0   5 79.5159 6.59233   5 
  -5   0   5 78.3856 6.47506   7 
  -5   0   5 89.4288 6.68183  14 
  -5   0   5 84.6800 5.78813  12 
  -5   0   5 83.9575 6.86201   1 
  -5   0   5 75.4175 7.24003   2 
   4   0  -5 56.2216 5.67510   2 
   4   0  -5 54.0742 4.90312   5 
   4   0  -5 62.8522 5.42462   1 
   4   0  -5 52.4520 3.23436  10 
   4   0  -5 62.3270 5.31925  14 
   4   0  -5 62.2572 5.78051   3 
  -4   0   5 55.6383 5.06810   1 
  -4   0   5 58.7793 5.11644   7 
  -4   0   5 62.2695 5.40361   5 
  -4   0   5 53.2484 5.58532   2 
  -4   0   5 56.3633 4.58164  12 
  -4   0   5 58.5646 4.96865  14 
  -4   0   5 46.6100 4.69412   5 
   3   0  -5 770.055 28.4447   2 
   3   0  -5 755.498 25.6056  10 
   3   0  -5 762.544 27.6751   8 
   3   0  -5 744.854 27.7605   3 
   3   0  -5 773.841 27.1691  14 
   3   0  -5 756.320 27.1674   1 
   3   0  -5 777.599 27.2878   5 
  -3   0   5 756.891 27.2899   1 
  -3   0   5 785.670 27.2928   7 
  -3   0   5 799.910 28.7206   2 
  -3   0   5 776.281 27.0503  14 
  -3   0   5 794.924 27.6871   5 
  -3   0   5 774.705 28.6872   2 
  -3   0   5 762.549 27.3740   5 
   2   0  -5 1425.98 47.5699  11 
   2   0  -5 1455.43 46.9285   5 
   2   0  -5 1446.23 47.0147   8 
   2   0  -5 1429.53 46.2627  14 
   2   0  -5 1461.99 46.7307   1 
   2   0  -5 1433.36 46.4749  14 
   2   0  -5 1468.46 44.8027   9 
   2   0  -5 1471.84 46.7739   5 
   2   0  -5 1420.84 47.3013   3 
  -2   0   5 1454.10 47.9709   2 
  -2   0   5 1391.73 46.5699   7 
  -2   0   5 1407.17 46.5554   1 
  -2   0   5 1481.84 46.9969   5 
  -2   0   5 1430.66 47.9112   2 
  -2   0   5 1432.55 46.4377  14 
   1   0  -5 7.67231 1.93434  14 
   1   0  -5 11.9461 2.84751  11 
   1   0  -5 9.43384 2.50738   3 
   1   0  -5 8.34281 2.14988   5 
   1   0  -5 9.25426 1.71727   6 
   1   0  -5 12.2569 2.45125   5 
   1   0  -5 13.7140 2.58792   1 
   0   0  -5 824.693 28.5551   2 
   0   0  -5 816.856 27.7810   5 
   0   0  -5 812.802 27.5627   1 
   0   0  -5 837.445 27.0592  13 
   0   0  -5 791.677 27.6901   5 
   0   0  -5 836.994 26.4500   6 
   0   0  -5 808.038 28.4033   3 
   0   0  -5 806.295 28.9913  11 
   0   0  -5 809.604 27.4427  14 
   0   0   5 806.023 27.8466   1 
   0   0   5 810.061 29.0972   2 
   0   0   5 799.084 28.8557   2 
   0   0   5 813.775 27.9925   5 
  -1   0  -5 1101.34 35.3731  13 
  -1   0  -5 1093.91 36.8570   5 
  -1   0  -5 1098.04 38.2391  11 
  -1   0  -5 1100.14 36.8222   5 
  -1   0  -5 1056.41 36.1780   1 
  -1   0  -5 1110.34 36.4715  14 
  -1   0  -5 1100.95 37.5086   3 
  -1   0  -5 1115.90 37.7382   2 
  -1   0  -5 1135.66 37.7529   3 
   1   0   5 1123.11 37.1781   5 
   1   0   5 1095.63 38.2553   2 
   1   0   5 1077.63 38.0983   2 
   1   0   5 1102.59 36.9925   1 
  -2   0  -5 316.051 13.5118   1 
  -2   0  -5 346.637 15.0071   3 
  -2   0  -5 319.773 15.1434  11 
  -2   0  -5 348.710 15.0174   2 
  -2   0  -5 307.798 14.4938   3 
  -2   0  -5 322.027 13.8812   5 
  -2   0  -5 337.371 13.6643  14 
   2   0   5 321.059 12.2825  13 
   2   0   5 310.859 14.0264   1 
   2   0   5 310.616 15.2043   2 
   2   0   5 324.955 14.3763   5 
   2   0   5 315.843 15.1318   2 
  -3   0  -5 21.8197 4.37881  11 
  -3   0  -5 19.8824 3.65100  14 
  -3   0  -5 23.9083 4.47861   3 
  -3   0  -5 19.2289 3.90358   3 
  -3   0  -5 23.9872 3.93813   5 
  -3   0  -5 17.8170 3.46283   1 
   3   0   5 15.2134 4.09416   2 
   3   0   5 11.8001 2.39480  13 
   3   0   5 13.9690 3.53159   1 
  -4   0  -5 37.8982 5.06858  14 
  -4   0  -5 50.1703 5.59972   5 
  -4   0  -5 43.9313 6.30671   3 
  -4   0  -5 53.6678 5.50885   1 
  -4   0  -5 45.9445 6.17905  11 
   4   0   5 42.2521 5.52209   3 
   4   0   5 41.4159 5.63191   1 
   4   0   5 50.7220 6.78223   2 
  -5   0  -5 223.025 14.4345  11 
  -5   0  -5 219.811 12.6825   5 
  -5   0  -5 221.622 14.2142   3 
  -5   0  -5 221.546 12.3786  14 
  -5   0  -5 225.663 12.3759   1 
   5   0   5 198.432 14.1732   2 
   5   0   5 215.106 13.2886   1 
  -6   0  -5 69.7040 9.20519   3 
  -6   0  -5 73.8416 7.95326   5 
  -6   0  -5 68.1821 9.53551  11 
  -6   0  -5 70.8031 8.06341  10 
  -6   0  -5 69.3459 7.63786   1 
  -6   0  -5 65.1023 7.57130  14 
   6   0   5 66.2505 8.55172   1 
   6   0   5 57.5169 8.68351   2 
  -7   0  -5 3.67073 3.76603  14 
  -7   0  -5 10.2971 5.39675  11 
  -7   0  -5 3.43093 3.24571   5 
  -7   0  -5 -2.3437 2.63992   1 
   7   0   5 -0.8441 3.03250   2 
   7   0   5 8.09087 4.97771   1 
  10  -1  -5 7.50020 5.22305   1 
 -10   1   5 6.15166 4.72627   1 
 -10   1   5 0.10673 4.55073   1 
 -10   1   5 -0.6599 4.81207   7 
   9  -1  -5 8.64481 5.09529   1 
   9  -1  -5 15.6144 6.26007   3 
  -9   1   5 1.99437 3.61086   1 
  -9   1   5 5.42873 4.55391   7 
   8  -1  -5 25.2664 6.64799   3 
   8  -1  -5 36.7239 7.23023   1 
  -8   1   5 22.3594 6.22620   3 
  -8   1   5 29.7635 6.32503   1 
  -8   1   5 25.8341 5.81369   7 
   7  -1  -5 108.346 10.0722   3 
   7  -1  -5 112.354 9.42180   1 
  -7   1   5 111.715 9.12506   7 
  -7   1   5 106.479 7.99804  12 
  -7   1   5 107.732 9.36047   1 
  -7   1   5 109.628 9.46260   3 
  -7   1   5 110.386 13.0411   2 
   6  -1  -5 32.8370 5.31209   1 
   6  -1  -5 32.6662 5.93367   3 
   6  -1  -5 30.2401 5.16950  14 
  -6   1   5 34.9976 5.01415  14 
  -6   1   5 36.8553 4.54433  12 
  -6   1   5 40.8145 5.79868   3 
  -6   1   5 37.0791 5.77495   2 
  -6   1   5 29.8664 4.91706   7 
  -6   1   5 38.2456 5.43727   1 
   5  -1  -5 80.3156 7.16896   2 
   5  -1  -5 89.3046 7.68679   3 
   5  -1  -5 80.7846 6.78070  14 
   5  -1  -5 86.4443 6.82823   1 
   5  -1  -5 83.7599 6.63720   5 
  -5   1   5 104.830 8.24214   2 
  -5   1   5 101.897 7.21343   5 
  -5   1   5 96.3726 7.18518   1 
  -5   1   5 94.6454 7.01198   7 
  -5   1   5 98.5062 6.74426  12 
  -5   1   5 95.0200 6.85766  14 
   4  -1  -5 205.501 9.95125  14 
   4  -1  -5 204.968 8.84789  10 
   4  -1  -5 205.509 10.3762  14 
   4  -1  -5 214.396 10.4299   5 
   4  -1  -5 214.650 11.3744   3 
   4  -1  -5 196.314 10.1636   1 
   4  -1  -5 199.859 10.7651   8 
  -4   1   5 228.018 11.8990   2 
  -4   1   5 202.613 10.3980   7 
  -4   1   5 219.198 10.8258   5 
  -4   1   5 221.959 10.8303   1 
  -4   1   5 220.382 11.8785   2 
  -4   1   5 233.033 10.6517  14 
  -4   1   5 225.371 10.8088  12 
   3  -1  -5 279.654 13.1894   3 
   3  -1  -5 300.078 12.1582  10 
   3  -1  -5 293.256 12.5443  14 
   3  -1  -5 307.570 12.6716   1 
   3  -1  -5 312.761 12.5560  14 
   3  -1  -5 307.177 12.7885   5 
   3  -1  -5 313.826 10.8835   9 
   3  -1  -5 295.557 12.8875   8 
  -3   1   5 293.240 12.9949   7 
  -3   1   5 313.172 13.1450   5 
  -3   1   5 332.174 13.1055  14 
  -3   1   5 302.480 12.9582   1 
  -3   1   5 299.272 13.9214   2 
   2  -1  -5 290.398 12.0722  14 
   2  -1  -5 291.959 12.1652   5 
   2  -1  -5 288.315 12.0509   8 
   2  -1  -5 300.256 12.6526  10 
   2  -1  -5 287.598 12.8371   3 
   2  -1  -5 305.409 12.2963   1 
   2  -1  -5 303.511 13.0212   2 
   2  -1  -5 291.298 11.9791   1 
   2  -1  -5 293.921 12.1646   6 
  -2   1   5 306.302 13.3461   2 
  -2   1   5 317.163 13.4591   2 
  -2   1   5 335.191 12.7693   5 
  -2   1   5 310.329 12.7462   7 
  -2   1   5 332.124 12.6983   1 
   1  -1  -5 35.8604 3.27147   5 
   1  -1  -5 39.4324 3.71072   2 
   1  -1  -5 35.4276 3.14392   1 
   1  -1  -5 43.5312 3.20856   1 
   1  -1  -5 35.3021 3.59432  13 
   1  -1  -5 37.0442 3.47950   5 
   1  -1  -5 35.7342 3.20880   6 
   1  -1  -5 34.0605 3.21179  14 
   1  -1  -5 32.1773 3.85983  10 
   1  -1  -5 43.7005 4.00801   3 
  -1   1   5 53.7086 4.50759   2 
   0  -1  -5 614.204 21.7364  13 
   0  -1  -5 588.127 22.9002  11 
   0  -1  -5 607.008 21.3373   6 
   0  -1  -5 627.632 21.4933   5 
   0  -1  -5 636.812 22.1641   2 
   0  -1  -5 615.816 20.9310   1 
   0  -1  -5 608.488 22.1945   3 
   0  -1  -5 578.869 20.9147  14 
   0  -1  -5 623.602 20.8978   1 
   0  -1  -5 595.123 21.3913   5 
   0   1   5 644.693 23.1035   2 
   0   1   5 621.277 22.9232   2 
   0   1   5 618.834 21.7641   1 
  -1  -1  -5 858.402 31.1493   3 
  -1  -1  -5 904.955 32.3314  11 
  -1  -1  -5 897.158 30.2995   5 
  -1  -1  -5 888.770 29.6828   1 
  -1  -1  -5 897.811 30.3433  13 
  -1  -1  -5 860.272 29.7056  14 
  -1  -1  -5 903.260 30.3581   5 
  -1  -1  -5 938.732 29.7302   1 
  -1  -1  -5 935.705 31.6788   3 
   1   1   5 904.770 32.0461   2 
   1   1   5 904.250 30.2984  13 
   1   1   5 905.176 30.8676   1 
   1   1   5 886.075 32.0053   2 
  -2  -1  -5 79.7034 5.71623   5 
  -2  -1  -5 84.9464 7.05668  11 
  -2  -1  -5 81.7110 5.43245  14 
  -2  -1  -5 86.9615 5.16702   1 
  -2  -1  -5 84.0474 6.42084   3 
  -2  -1  -5 79.2356 5.12885   1 
  -2  -1  -5 80.0531 6.44090   3 
   2   1   5 84.2800 6.16103   1 
   2   1   5 84.5133 6.77841   2 
   2   1   5 96.4069 7.27509   2 
  -3  -1  -5 18.8612 3.13501   1 
  -3  -1  -5 18.8197 3.44219  14 
  -3  -1  -5 21.3427 3.64716   5 
  -3  -1  -5 15.7722 3.90124   3 
  -3  -1  -5 18.8586 4.49057  11 
   3   1   5 19.8272 4.56225   2 
   3   1   5 29.7100 4.26384   1 
  -4  -1  -5 401.301 16.5078  14 
  -4  -1  -5 359.699 18.1742  10 
  -4  -1  -5 386.224 18.7528   3 
  -4  -1  -5 385.857 16.0426   1 
  -4  -1  -5 387.345 16.8879   5 
  -4  -1  -5 349.706 15.9245  14 
  -4  -1  -5 401.416 19.2207  11 
   4   1   5 376.652 17.7455   1 
   4   1   5 372.783 19.0941   2 
  -5  -1  -5 69.7104 7.88932  10 
  -5  -1  -5 57.5752 5.82317   1 
  -5  -1  -5 56.2284 7.71497   3 
  -5  -1  -5 61.9308 6.34857  14 
  -5  -1  -5 59.4900 7.92389  11 
  -5  -1  -5 64.5100 6.83081   5 
   5   1   5 60.0086 8.25835   2 
   5   1   5 65.4814 7.76964   1 
  -6  -1  -5 14.5132 5.33913   3 
  -6  -1  -5 5.96015 2.91098   1 
  -6  -1  -5 5.85318 3.65915  10 
  -6  -1  -5 6.17866 3.38279  14 
  -6  -1  -5 12.8462 4.25717   5 
  -6  -1  -5 11.2980 5.10074  11 
   6   1   5 8.64748 4.27138   2 
   6   1   5 4.48560 3.75461   1 
  -7  -1  -5 3.09247 3.26522  14 
  -7  -1  -5 0.34924 4.61466  11 
  -7  -1  -5 -1.7454 3.04160   5 
   7   1   5 0.18561 3.75225   1 
   7   1   5 2.21937 4.33314   2 
  10  -2  -5 24.7291 6.92627   1 
 -10   2   5 16.3109 6.12531   1 
 -10   2   5 7.42718 5.09704   1 
 -10   2   5 23.1626 7.51215   7 
   9  -2  -5 40.0833 8.02261   1 
   9  -2  -5 32.9108 7.78957   3 
  -9   2   5 24.0284 6.37117   1 
  -9   2   5 42.3896 8.27015   7 
   8  -2  -5 43.7211 7.95004   3 
   8  -2  -5 35.8773 6.96582   1 
  -8   2   5 36.1448 6.91671   7 
  -8   2   5 42.4036 7.18011   3 
  -8   2   5 44.6238 7.31261   1 
  -8   2   5 55.3055 6.48979  12 
   7  -2  -5 88.3194 8.42677   1 
   7  -2  -5 96.4351 9.59641   3 
  -7   2   5 120.015 8.84463  12 
  -7   2   5 102.683 9.83496   2 
  -7   2   5 97.2278 8.93778   3 
  -7   2   5 105.169 9.16502   1 
  -7   2   5 95.6346 8.57147   7 
   6  -2  -5 128.487 9.71454   3 
   6  -2  -5 126.003 8.83614   1 
  -6   2   5 111.184 8.33317   7 
  -6   2   5 122.062 8.53989  12 
  -6   2   5 117.419 9.72492   2 
  -6   2   5 116.444 8.89231   3 
   5  -2  -5 102.865 7.89356   3 
   5  -2  -5 100.207 6.96290  14 
   5  -2  -5 103.245 7.27724   8 
   5  -2  -5 94.8237 6.62329   5 
   5  -2  -5 98.2116 6.81056   1 
   5  -2  -5 104.014 6.53809  14 
  -5   2   5 72.4539 7.07678   2 
  -5   2   5 65.1129 7.57644   2 
  -5   2   5 73.0816 6.54974   3 
  -5   2   5 80.9587 6.60282   7 
  -5   2   5 75.7273 6.40411   5 
  -5   2   5 81.5856 6.64651   1 
  -5   2   5 76.9296 6.22755  14 
  -5   2   5 75.5562 6.59331  12 
   4  -2  -5 156.846 7.91346  14 
   4  -2  -5 147.122 8.68466   2 
   4  -2  -5 148.485 8.92033   3 
   4  -2  -5 155.012 8.28455   8 
   4  -2  -5 150.168 7.51254  10 
   4  -2  -5 149.864 8.07272   5 
   4  -2  -5 152.158 8.11982  14 
   4  -2  -5 142.673 7.88233   1 
  -4   2   5 137.243 8.19562   7 
  -4   2   5 149.795 9.31439   2 
  -4   2   5 135.372 9.02523   2 
  -4   2   5 123.997 8.38298  12 
  -4   2   5 144.089 8.27439   5 
  -4   2   5 140.890 7.93417  14 
  -4   2   5 130.277 8.09750   1 
   3  -2  -5 323.021 12.8999  14 
   3  -2  -5 324.914 12.9521   1 
   3  -2  -5 335.307 13.7381  10 
   3  -2  -5 333.540 13.2890   5 
   3  -2  -5 337.648 14.0057   2 
   3  -2  -5 330.343 13.0852  14 
   3  -2  -5 327.203 14.1221   3 
   3  -2  -5 343.577 12.8952   1 
   3  -2  -5 334.240 13.1424   8 
   3  -2  -5 325.874 14.1248   6 
  -3   2   5 327.401 14.6231   2 
  -3   2   5 343.298 14.1927   7 
  -3   2   5 352.541 13.9341   1 
  -3   2   5 315.325 14.6375   2 
   2  -2  -5 294.780 10.9600   1 
   2  -2  -5 296.292 13.4047  11 
   2  -2  -5 284.635 11.1478  14 
   2  -2  -5 310.914 11.1148   1 
   2  -2  -5 292.587 12.4917   6 
   2  -2  -5 299.889 12.5371   3 
   2  -2  -5 306.482 11.5914   5 
   2  -2  -5 284.136 13.0448  13 
   2  -2  -5 297.486 12.9586  10 
  -2   2   5 289.122 12.4148   7 
  -2   2   5 281.987 12.7885   2 
  -2   2   5 284.192 12.7173   2 
  -2   2   5 288.546 11.9233   1 
   1  -2  -5 268.949 12.2858  13 
   1  -2  -5 275.905 10.3059  14 
   1  -2  -5 271.346 9.76744   1 
   1  -2  -5 273.449 11.7314   6 
   1  -2  -5 265.441 12.5999  10 
   1  -2  -5 261.140 12.5094  11 
   1  -2  -5 276.277 10.6358   5 
   1  -2  -5 277.217 11.6651   3 
  -1   2   5 281.477 12.0648   2 
  -1   2   5 287.757 11.2656   1 
  -1   2   5 286.100 12.0157   7 
  -1   2   5 272.139 11.9170   2 
   0  -2  -5 419.808 16.4086   6 
   0  -2  -5 424.009 14.5212  14 
   0  -2  -5 421.702 14.9501   5 
   0  -2  -5 426.890 14.9737   5 
   0  -2  -5 413.931 17.2514  11 
   0  -2  -5 423.225 13.7832   1 
   0  -2  -5 426.734 17.7620  10 
   0  -2  -5 426.162 16.2522   3 
   0  -2  -5 423.020 16.6350  13 
   0   2   5 400.851 16.6604   2 
   0   2   5 400.817 16.6682   2 
   0   2   5 411.471 15.7343   1 
  -1  -2  -5 169.906 9.08804   3 
  -1  -2  -5 183.571 6.83996   1 
  -1  -2  -5 181.261 10.0839  11 
  -1  -2  -5 175.977 7.91274   5 
  -1  -2  -5 183.260 10.5432  10 
  -1  -2  -5 187.223 9.33462   3 
  -1  -2  -5 179.387 9.25233  13 
  -1  -2  -5 172.419 7.48450  14 
   1   2   5 178.726 8.85282   1 
   1   2   5 179.246 9.69305   2 
   1   2   5 177.537 9.67781   2 
  -2  -2  -5 2.46648 1.32457  14 
  -2  -2  -5 4.87868 2.29611   3 
  -2  -2  -5 3.11464 1.87783   3 
  -2  -2  -5 0.29319 2.03965  11 
  -2  -2  -5 1.80802 1.05846   1 
  -2  -2  -5 4.95604 1.64314  14 
  -2  -2  -5 5.17541 1.83084   5 
  -2  -2  -5 -1.3229 1.98321  10 
   2   2   5 4.63539 2.10148   1 
   2   2   5 6.63299 2.67898   2 
   2   2   5 4.11673 2.22368   2 
  -3  -2  -5 24.3994 4.63165  11 
  -3  -2  -5 20.1540 3.39963   5 
  -3  -2  -5 16.7921 4.31948   4 
  -3  -2  -5 17.7670 4.42072  10 
  -3  -2  -5 14.5521 3.92227   3 
  -3  -2  -5 15.2475 2.81778  14 
  -3  -2  -5 16.9890 2.38673   1 
  -3  -2  -5 15.5804 2.92909  14 
   3   2   5 11.8132 3.24341   1 
   3   2   5 16.0420 4.14020   2 
  -4  -2  -5 218.396 10.9085  14 
  -4  -2  -5 220.561 13.5664   3 
  -4  -2  -5 224.480 9.94837   1 
  -4  -2  -5 227.757 14.0665  10 
  -4  -2  -5 237.674 10.9658  14 
  -4  -2  -5 233.704 11.5419   5 
  -4  -2  -5 223.484 13.8031  11 
   4   2   5 237.703 14.5779   2 
   4   2   5 257.029 13.5646   1 
  -5  -2  -5 59.3002 5.86845  14 
  -5  -2  -5 56.0670 5.47568  14 
  -5  -2  -5 57.8481 7.76862  10 
  -5  -2  -5 48.1908 7.63817   3 
  -5  -2  -5 62.6780 8.32151  11 
  -5  -2  -5 53.0349 6.09902   5 
   5   2   5 63.6624 7.76113   1 
   5   2   5 55.4101 8.47833   2 
  -6  -2  -5 9.45070 3.86896   5 
  -6  -2  -5 6.78491 3.31305  14 
  -6  -2  -5 7.54018 4.87243  11 
   6   2   5 15.2937 5.64988   2 
   6   2   5 12.5409 5.06362   1 
  -7  -2  -5 5.58360 5.15995  11 
  -7  -2  -5 5.34271 3.59861  14 
  -7  -2  -5 1.95693 3.24460   5 
   7   2   5 0.36666 4.22315   2 
  10  -3  -5 52.1077 9.21402   1 
 -10   3   5 49.5726 9.23449   1 
 -10   3   5 41.9636 9.00529   7 
 -10   3   5 33.9599 7.85514   1 
   9  -3  -5 53.0504 8.29807   1 
   9  -3  -5 65.4895 10.2267   3 
  -9   3   5 49.7693 8.56042   1 
  -9   3   5 53.0615 8.77378   7 
   8  -3  -5 25.5384 6.32182   3 
   8  -3  -5 24.7339 5.85863   1 
  -8   3   5 39.0371 7.67455   2 
  -8   3   5 29.8435 6.30577   7 
  -8   3   5 39.0213 6.22684  12 
  -8   3   5 25.0603 5.56335   1 
   7  -3  -5 67.1491 8.21630   3 
   7  -3  -5 62.1549 6.88637   1 
  -7   3   5 38.7104 6.07438   3 
  -7   3   5 44.9786 6.46289  12 
  -7   3   5 37.7136 6.14240   1 
  -7   3   5 42.0191 6.17265   7 
  -7   3   5 52.4038 7.45022   2 
   6  -3  -5 48.8021 6.51168   3 
   6  -3  -5 45.1552 5.09278   5 
   6  -3  -5 45.9403 5.57030   1 
   6  -3  -5 48.0715 5.74745   8 
  -6   3   5 38.1867 6.08749   2 
  -6   3   5 48.3358 6.13955  12 
  -6   3   5 52.5076 6.00281   1 
  -6   3   5 55.3797 5.87049   7 
  -6   3   5 43.4672 5.70413   3 
   5  -3  -5 163.839 9.08128   8 
   5  -3  -5 157.170 8.84710   5 
   5  -3  -5 155.087 10.0847   3 
   5  -3  -5 160.071 8.90570   1 
   5  -3  -5 160.686 8.55565  14 
  -5   3   5 164.536 10.6668   2 
  -5   3   5 166.758 10.4108  12 
  -5   3   5 152.159 9.29524   1 
  -5   3   5 157.115 9.44492   7 
  -5   3   5 164.499 9.47862   3 
   4  -3  -5 375.927 14.5498   8 
   4  -3  -5 377.104 16.4326   3 
   4  -3  -5 382.109 14.6789  14 
   4  -3  -5 395.582 14.6299   1 
   4  -3  -5 373.677 14.5936   1 
   4  -3  -5 363.959 15.3649  10 
   4  -3  -5 373.271 16.5245   6 
   4  -3  -5 376.786 17.1650  13 
   4  -3  -5 384.385 15.1701   5 
  -4   3   5 384.606 15.5475   3 
  -4   3   5 377.789 17.1662  12 
  -4   3   5 381.544 15.9469   7 
  -4   3   5 377.526 16.8526   2 
  -4   3   5 368.475 16.8567   2 
  -4   3   5 372.747 15.7510   1 
   3  -3  -5 389.435 16.1614   3 
   3  -3  -5 402.471 14.1602   1 
   3  -3  -5 411.707 16.6602  10 
   3  -3  -5 408.588 14.2908   1 
   3  -3  -5 402.349 16.9383   6 
   3  -3  -5 411.628 15.0834   5 
   3  -3  -5 411.182 17.6700  13 
  -3   3   5 412.760 15.8463   1 
  -3   3   5 406.310 16.9925   2 
  -3   3   5 395.092 16.6572   2 
  -3   3   5 406.800 16.4164   7 
   2  -3  -5 338.621 14.9938  10 
   2  -3  -5 327.834 14.3454   6 
   2  -3  -5 350.339 13.9082   3 
   2  -3  -5 343.378 12.2518   5 
   2  -3  -5 346.736 15.2390  11 
   2  -3  -5 337.020 15.1987  13 
  -2   3   5 337.680 14.2472   2 
  -2   3   5 346.217 14.0784   7 
  -2   3   5 340.260 14.2094   2 
  -2   3   5 354.305 13.4135   1 
   1  -3  -5 87.4570 6.55539   6 
   1  -3  -5 98.0035 6.06124   3 
   1  -3  -5 94.7620 6.98987  13 
   1  -3  -5 90.4146 7.19660  10 
   1  -3  -5 109.716 7.43100  11 
  -1   3   5 133.277 7.14365   7 
  -1   3   5 136.276 7.00208   2 
  -1   3   5 122.780 6.78683   2 
  -1   3   5 126.704 6.13937   1 
   0  -3  -5 325.517 14.7378  10 
   0  -3  -5 304.744 13.7262  11 
   0  -3  -5 307.771 13.5616   6 
   0  -3  -5 282.579 12.2188   3 
   0  -3  -5 293.886 13.6605  13 
   0   3   5 287.263 11.7979   1 
   0   3   5 280.397 12.6406   2 
   0   3   5 291.956 12.8826   2 
  -1  -3  -5 175.358 10.0380  13 
  -1  -3  -5 196.622 9.49028   3 
  -1  -3  -5 182.965 10.3381   3 
  -1  -3  -5 195.007 11.1862  10 
  -1  -3  -5 178.300 10.1347  11 
  -1  -3  -5 188.638 10.2465   6 
  -1  -3  -5 181.336 10.8304   4 
   1   3   5 146.108 9.09188   2 
   1   3   5 179.563 8.78355   1 
   1   3   5 169.371 9.58378   2 
  -2  -3  -5 128.461 9.54450   4 
  -2  -3  -5 139.496 9.37145  11 
  -2  -3  -5 136.682 9.86693  10 
  -2  -3  -5 134.716 8.57485   3 
   2   3   5 149.060 9.36426   2 
   2   3   5 142.303 8.23727   1 
   2   3   5 140.356 9.10461   2 
  -3  -3  -5 111.010 5.47365  14 
  -3  -3  -5 119.665 8.99891   3 
  -3  -3  -5 111.940 9.43962  10 
  -3  -3  -5 132.068 9.45854  11 
  -3  -3  -5 118.267 9.52222   4 
  -3  -3  -5 115.179 6.27813   5 
   3   3   5 132.050 8.63887   1 
   3   3   5 128.997 9.44217   2 
  -4  -3  -5 55.8365 4.22369  14 
  -4  -3  -5 46.7637 7.28235   4 
  -4  -3  -5 64.3763 5.16888   5 
  -4  -3  -5 59.8310 7.79330  10 
  -4  -3  -5 59.2361 7.27567   3 
  -4  -3  -5 55.0303 4.10349  14 
  -4  -3  -5 59.8358 7.23199  11 
   4   3   5 48.5252 7.41833   2 
   4   3   5 51.6400 6.45520   1 
  -5  -3  -5 2.70926 3.77994   4 
  -5  -3  -5 -0.2515 2.88942  11 
  -5  -3  -5 -0.3958 1.66073  14 
  -5  -3  -5 -0.4782 2.02753   5 
  -5  -3  -5 4.38157 3.79588   3 
  -5  -3  -5 -0.2250 1.66361  14 
  -5  -3  -5 -1.4169 3.00043  10 
   5   3   5 -0.0445 3.33091   2 
  -6  -3  -5 3.77027 2.84255   5 
  -6  -3  -5 8.49282 2.62264  14 
  -6  -3  -5 10.7401 2.76754  14 
  -6  -3  -5 6.28767 5.57518  11 
  -6  -3  -5 11.5431 3.53493   5 
   6   3   5 9.39472 5.21632   2 
  10  -4  -5 35.9336 8.01998   1 
 -10   4   5 43.4991 9.39287   1 
 -10   4   5 31.0068 8.08851   1 
 -10   4   5 30.7043 8.00751   7 
   9  -4  -5 26.4568 5.91346   1 
   9  -4  -5 21.1574 6.72370   3 
  -9   4   5 31.0289 7.11684   7 
  -9   4   5 24.3031 6.05446   1 
  -9   4   5 31.6459 7.52119  12 
   8  -4  -5 6.93277 4.19862   3 
   8  -4  -5 1.23393 2.98401   1 
  -8   4   5 1.44051 3.28359  12 
  -8   4   5 2.18713 3.36324   7 
  -8   4   5 2.74707 3.32194   1 
  -8   4   5 2.63164 3.54738   2 
   7  -4  -5 131.690 9.06662   1 
   7  -4  -5 122.946 9.12527   8 
   7  -4  -5 102.661 9.92038   3 
  -7   4   5 110.929 10.4857   2 
  -7   4   5 112.281 9.84218  12 
  -7   4   5 117.522 9.55422   1 
  -7   4   5 130.406 9.76306   7 
   6  -4  -5 225.395 13.2947   3 
   6  -4  -5 215.318 11.0900   1 
   6  -4  -5 225.707 10.9719  14 
   6  -4  -5 230.700 13.5266   6 
   6  -4  -5 249.362 14.0956  13 
   6  -4  -5 230.247 11.4784   8 
   6  -4  -5 207.159 11.2328   5 
  -6   4   5 201.526 13.2555   2 
  -6   4   5 210.811 12.1379   1 
  -6   4   5 208.899 13.2243  12 
  -6   4   5 207.629 11.9160   7 
   5  -4  -5 86.6083 6.07007   5 
   5  -4  -5 72.7039 7.08951   6 
   5  -4  -5 77.6218 5.46560  14 
   5  -4  -5 79.4064 6.30146  10 
   5  -4  -5 78.3369 7.72343  13 
   5  -4  -5 79.6371 7.04661   3 
   5  -4  -5 77.6520 5.19200   8 
   5  -4  -5 79.7959 5.48697   1 
  -5   4   5 87.4053 7.60505   2 
  -5   4   5 95.9935 6.93047   1 
  -5   4   5 91.3425 7.07145   7 
  -5   4   5 82.6839 7.62707  12 
  -5   4   5 95.0755 6.58130   3 
   4  -4  -5 130.398 5.87257   1 
   4  -4  -5 136.033 9.50479  13 
   4  -4  -5 126.391 8.12593  10 
   4  -4  -5 133.857 8.87463   6 
   4  -4  -5 118.953 7.95821   3 
   4  -4  -5 149.497 7.20864   1 
   4  -4  -5 131.203 6.83343   5 
  -4   4   5 127.346 8.53263   2 
  -4   4   5 125.779 9.33287  12 
  -4   4   5 136.149 7.88820   1 
  -4   4   5 123.091 7.96584   7 
  -4   4   5 127.506 7.06036   3 
  -4   4   5 130.911 8.61325   2 
   3  -4  -5 412.516 17.5464   6 
   3  -4  -5 384.930 17.9168  13 
   3  -4  -5 393.062 16.1259   3 
   3  -4  -5 405.796 17.5070  10 
  -3   4   5 419.791 16.6407   7 
  -3   4   5 416.938 15.7753   1 
  -3   4   5 407.645 14.5072   3 
  -3   4   5 398.092 16.5814   2 
  -3   4   5 407.661 16.8742   2 
   2  -4  -5 107.290 6.35695   3 
   2  -4  -5 117.145 8.12505  10 
   2  -4  -5 113.005 7.69964   6 
   2  -4  -5 113.479 7.66188  11 
   2  -4  -5 110.457 8.14963  13 
  -2   4   5 102.315 6.50078   2 
  -2   4   5 125.689 7.08893   7 
  -2   4   5 109.732 5.91441   1 
  -2   4   5 113.317 6.69024   2 
   1  -4  -5 87.5214 6.65336  11 
   1  -4  -5 93.1652 6.96591   6 
   1  -4  -5 88.4812 5.37005   3 
   1  -4  -5 89.9937 7.14928  13 
   1  -4  -5 90.4483 7.20323  10 
  -1   4   5 77.4104 5.38683   2 
  -1   4   5 81.2682 3.90959   9 
  -1   4   5 81.5246 5.67423   7 
  -1   4   5 74.1493 5.33258   2 
  -1   4   5 78.1425 4.75939   1 
   0  -4  -5 96.3378 7.80438   4 
   0  -4  -5 94.5683 5.71556   3 
   0  -4  -5 93.1336 7.89884  10 
   0  -4  -5 99.0182 7.15036  11 
   0  -4  -5 98.1405 5.94260   3 
   0  -4  -5 106.333 7.61022   6 
   0  -4  -5 96.5806 7.59088  13 
   0   4   5 83.2394 5.22896   1 
   0   4   5 91.5683 6.17478   2 
   0   4   5 75.6543 5.76184   2 
  -1  -4  -5 229.918 13.3257  10 
  -1  -4  -5 240.697 12.8395   6 
  -1  -4  -5 231.005 11.0039   3 
  -1  -4  -5 221.288 11.9519  11 
  -1  -4  -5 216.851 12.9605   4 
  -1  -4  -5 236.010 12.9082  13 
   1   4   5 218.861 11.3359   2 
   1   4   5 243.763 11.6872   2 
   1   4   5 243.722 10.5206   1 
  -2  -4  -5 129.218 9.10221  11 
  -2  -4  -5 134.997 10.2596   4 
  -2  -4  -5 127.538 8.44738   3 
  -2  -4  -5 134.014 10.2348  10 
   2   4   5 133.268 8.99353   2 
   2   4   5 133.010 10.1464   1 
   2   4   5 132.540 9.56332   2 
  -3  -4  -5 32.9554 5.54766   3 
  -3  -4  -5 31.5645 6.52363   4 
  -3  -4  -5 24.5439 4.72522  11 
  -3  -4  -5 37.2512 6.65626  10 
   3   4   5 37.8059 5.82378   2 
  -4  -4  -5 20.1690 5.66396   4 
  -4  -4  -5 16.1290 4.87412   3 
  -4  -4  -5 15.4674 4.87991  10 
  -4  -4  -5 19.3731 4.91335  11 
   4   4   5 20.3927 5.60587   2 
  -5  -4  -5 9.21086 4.58782  10 
  -5  -4  -5 12.8933 5.58616   4 
   5   4   5 7.59673 4.69601   2 
   6   4   5 14.4848 5.83650   2 
  10  -5  -5 3.97510 4.13540   1 
 -10   5   5 1.50147 4.25083   1 
 -10   5   5 10.8563 5.67163   1 
 -10   5   5 10.8783 5.70847   7 
   9  -5  -5 15.1761 5.69683   5 
   9  -5  -5 8.27972 4.21823   8 
   9  -5  -5 11.5767 7.51646   3 
   9  -5  -5 14.4554 5.97407  13 
   9  -5  -5 16.4723 5.12028   1 
  -9   5   5 21.4036 6.33092  12 
  -9   5   5 22.4808 6.67791   1 
  -9   5   5 13.8720 5.37751   7 
   8  -5  -5 58.6489 6.89968   1 
   8  -5  -5 53.1944 8.19723   6 
   8  -5  -5 56.1796 8.51423   3 
   8  -5  -5 54.7918 6.77632   8 
   8  -5  -5 35.8146 6.63285   5 
   8  -5  -5 48.1859 7.91281  13 
  -8   5   5 36.1208 7.80934   2 
  -8   5   5 39.4258 7.16570   1 
  -8   5   5 53.8868 8.29444  12 
  -8   5   5 35.7888 6.95949   7 
   7  -5  -5 67.8498 6.35673   5 
   7  -5  -5 62.7097 8.01249   6 
   7  -5  -5 70.4575 6.17406   8 
   7  -5  -5 61.9027 6.17633   1 
   7  -5  -5 67.2655 8.35628  13 
   7  -5  -5 66.8091 8.26012   3 
  -7   5   5 72.6882 8.56459  12 
  -7   5   5 64.1294 8.31322   2 
  -7   5   5 59.9277 7.30211   7 
  -7   5   5 54.4720 7.01360   1 
   6  -5  -5 128.562 10.5252  13 
   6  -5  -5 124.027 7.90837   5 
   6  -5  -5 134.579 10.0596   3 
   6  -5  -5 128.342 7.34438   1 
   6  -5  -5 101.097 9.56688   6 
   6  -5  -5 129.448 7.64339  14 
   6  -5  -5 131.827 6.76311   8 
  -6   5   5 139.796 10.6533   2 
  -6   5   5 136.512 9.31900   1 
  -6   5   5 130.824 9.13835   7 
  -6   5   5 136.840 10.9582  12 
   5  -5  -5 108.177 5.13676   1 
   5  -5  -5 100.463 5.83670  14 
   5  -5  -5 95.5361 7.86542   3 
   5  -5  -5 104.525 8.82620   6 
   5  -5  -5 97.3807 8.67841  13 
   5  -5  -5 102.251 6.33856   5 
  -5   5   5 120.282 8.06978   7 
  -5   5   5 119.108 9.56501  12 
  -5   5   5 119.812 8.84303   2 
  -5   5   5 118.310 7.75851   1 
   4  -5  -5 236.718 13.0657   6 
   4  -5  -5 253.060 13.8570  13 
   4  -5  -5 237.040 12.5538  10 
   4  -5  -5 228.354 11.6679   3 
  -4   5   5 225.756 12.0644   2 
  -4   5   5 232.097 13.7387  12 
  -4   5   5 222.914 11.4623   7 
  -4   5   5 238.727 12.2221   2 
  -4   5   5 243.038 11.3238   1 
   3  -5  -5 361.247 14.9698   3 
   3  -5  -5 386.051 17.2841  10 
   3  -5  -5 358.406 17.6476  13 
   3  -5  -5 364.423 16.9517   6 
  -3   5   5 361.898 15.5498   2 
  -3   5   5 377.463 15.5747   7 
  -3   5   5 377.853 14.5435   1 
  -3   5   5 369.690 15.4496   2 
   2  -5  -5 78.5542 5.25198   3 
   2  -5  -5 79.3788 7.32686  10 
   2  -5  -5 83.1036 7.25276   6 
   2  -5  -5 80.1630 7.51189  13 
  -2   5   5 93.2756 6.20776   7 
  -2   5   5 90.1314 5.70050   2 
  -2   5   5 79.7614 5.48015   2 
  -2   5   5 86.8221 5.00898   1 
   1  -5  -5 35.7070 5.49552  10 
   1  -5  -5 42.5152 3.73550   3 
   1  -5  -5 34.5849 4.60323  11 
   1  -5  -5 36.3655 5.51532   4 
   1  -5  -5 42.9367 5.85216  13 
   1  -5  -5 41.2298 5.27755   6 
  -1   5   5 38.3234 3.27225   1 
  -1   5   5 36.7164 3.72160   2 
  -1   5   5 37.2239 4.07654   7 
  -1   5   5 39.6928 3.86460   2 
   0  -5  -5 427.760 19.7001  10 
   0  -5  -5 396.639 17.5138  11 
   0  -5  -5 426.627 19.3825  13 
   0  -5  -5 398.538 19.1998   4 
   0  -5  -5 410.039 15.6837   3 
   0  -5  -5 405.863 18.7164   6 
   0   5   5 400.207 16.1697   2 
   0   5   5 391.964 16.0971   2 
   0   5   5 411.871 16.5760   7 
  -1  -5  -5 257.353 13.1748  11 
  -1  -5  -5 267.842 12.1061   3 
  -1  -5  -5 240.452 14.7476   4 
  -1  -5  -5 272.548 15.4047  10 
   1   5   5 277.630 12.7729   2 
   1   5   5 264.622 12.6559   2 
  -2  -5  -5 73.4460 8.38589  10 
  -2  -5  -5 74.9298 6.45836   3 
  -2  -5  -5 79.0411 6.93215  11 
  -2  -5  -5 69.5915 8.37714   4 
   2   5   5 69.4181 6.63374   2 
  -3  -5  -5 22.1692 5.49150  10 
  -3  -5  -5 20.7663 5.99552   4 
  -3  -5  -5 21.5301 4.82626   3 
   3   5   5 11.8576 4.19287   2 
  -4  -5  -5 21.9065 6.45986   4 
  -4  -5  -5 9.46389 4.30680  10 
  -4  -5  -5 22.9777 5.65227   3 
   4   5   5 22.0296 5.49536   2 
  -5  -5  -5 49.5632 9.71820   4 
   5   5   5 46.6600 8.59346   2 
  10  -6  -5 -1.9457 4.44136   6 
  10  -6  -5 3.05830 4.22815   5 
  10  -6  -5 4.42210 3.90923   1 
 -10   6   5 4.57595 5.06254   1 
 -10   6   5 -2.4344 4.17204   7 
 -10   6   5 -0.8777 4.10405   1 
   9  -6  -5 0.21868 3.43167   5 
   9  -6  -5 2.14962 2.88159   8 
   9  -6  -5 5.89456 4.71009  13 
   9  -6  -5 0.48121 2.58798   1 
   9  -6  -5 -1.9007 3.72692   6 
  -9   6   5 1.01604 3.57730   1 
  -9   6   5 -3.5099 3.64991  12 
  -9   6   5 3.34006 4.39663   2 
  -9   6   5 2.07105 3.90850   7 
   8  -6  -5 30.1563 7.28318   6 
   8  -6  -5 21.4311 6.09473  13 
   8  -6  -5 21.5375 5.12464   5 
   8  -6  -5 32.3720 4.73991   1 
   8  -6  -5 21.9946 4.01351   8 
   8  -6  -5 27.7616 6.92225   3 
  -8   6   5 20.7384 6.26257   2 
  -8   6   5 15.1975 4.91538   1 
  -8   6   5 19.1593 5.02966   7 
  -8   6   5 32.6350 7.75724  12 
   7  -6  -5 85.3319 9.64226  13 
   7  -6  -5 84.3928 9.54050   6 
   7  -6  -5 78.2549 8.79954   3 
   7  -6  -5 96.7699 7.13867   5 
   7  -6  -5 80.8322 7.32653   5 
   7  -6  -5 86.1589 5.86431   1 
   7  -6  -5 82.8952 6.29935  14 
  -7   6   5 79.2807 8.05081   7 
  -7   6   5 80.8148 8.21666   1 
  -7   6   5 83.0045 9.50980   2 
  -7   6   5 83.8954 9.44227  12 
   6  -6  -5 8.27624 3.69229   6 
   6  -6  -5 7.30966 2.68713   5 
   6  -6  -5 17.6134 5.16391  13 
   6  -6  -5 10.8273 2.29843  14 
   6  -6  -5 11.7329 4.14468   3 
   6  -6  -5 16.2702 3.35362   5 
  -6   6   5 16.0768 4.25507   7 
  -6   6   5 8.74590 4.38814  12 
  -6   6   5 7.84879 3.75796   2 
  -6   6   5 12.3261 3.55750   1 
   5  -6  -5 28.3670 5.57792   6 
   5  -6  -5 24.0001 5.56916  13 
   5  -6  -5 30.9057 4.88787   3 
  -5   6   5 28.4532 4.64692   7 
  -5   6   5 35.0495 5.32326   2 
  -5   6   5 34.5226 6.36980  12 
  -5   6   5 34.1187 4.55272   1 
   4  -6  -5 12.0985 3.77464  10 
   4  -6  -5 18.2507 3.76059   3 
   4  -6  -5 11.0836 4.32360  13 
   4  -6  -5 11.1240 3.85644   6 
  -4   6   5 14.7722 3.39650   7 
  -4   6   5 17.1301 3.77228   2 
  -4   6   5 17.3158 4.76708  12 
  -4   6   5 16.4635 3.69426   2 
  -4   6   5 17.7847 3.40192   1 
   3  -6  -5 149.860 10.5261  10 
   3  -6  -5 137.965 9.99274   6 
   3  -6  -5 142.069 7.79074   3 
   3  -6  -5 147.582 10.9399  13 
  -3   6   5 149.425 11.0746  12 
  -3   6   5 142.261 8.24880   7 
  -3   6   5 137.194 8.15804   2 
  -3   6   5 145.816 8.13389   2 
   2  -6  -5 88.2456 8.04829   6 
   2  -6  -5 93.9573 5.53702   3 
   2  -6  -5 84.1431 8.06113  10 
   2  -6  -5 85.5813 8.18263  13 
  -2   6   5 79.6667 5.46844   2 
  -2   6   5 79.3667 5.43758   2 
  -2   6   5 83.2667 6.00839   7 
   1  -6  -5 62.4758 7.45669  13 
   1  -6  -5 52.3379 4.01028   3 
   1  -6  -5 57.3172 7.21957  10 
   1  -6  -5 61.5558 7.04993   6 
   1  -6  -5 61.1943 7.17524   4 
  -1   6   5 46.2423 4.19239   2 
  -1   6   5 46.6245 4.67616   7 
  -1   6   5 46.1996 4.11702   2 
   0  -6  -5 148.341 11.3358   4 
   0  -6  -5 152.731 7.64719   3 
   0  -6  -5 142.072 9.05107  11 
   0  -6  -5 136.372 10.8077  13 
   0  -6  -5 140.749 11.0205  10 
   0  -6  -5 122.077 10.0067   6 
   0   6   5 152.162 8.11127   2 
   0   6   5 150.536 8.08187   2 
   0   6   5 156.678 8.53143   7 
  -1  -6  -5 121.352 7.47185   3 
  -1  -6  -5 118.861 10.5275   4 
  -1  -6  -5 110.962 10.2412  10 
  -1  -6  -5 118.264 8.31118  11 
   1   6   5 123.395 7.90720   2 
   1   6   5 125.189 7.92275   2 
  -2  -6  -5 8.06088 2.89453   3 
  -2  -6  -5 4.52056 3.97590   4 
  -2  -6  -5 10.8479 4.66820  10 
   2   6   5 8.47366 3.24785   2 
  -3  -6  -5 6.86944 4.43575  10 
  -3  -6  -5 16.1401 6.09471   4 
  -3  -6  -5 11.4612 3.67781   3 
   3   6   5 7.55700 3.75216   2 
  -4  -6  -5 71.7136 12.9317  10 
  -4  -6  -5 59.3758 10.0860   4 
   4   6   5 63.3612 8.69212   2 
   9  -7  -5 15.9977 6.48297   6 
   9  -7  -5 30.1167 6.43717   5 
  -9   7   5 25.1166 6.56071   7 
  -9   7   5 36.2125 8.58792  12 
  -9   7   5 30.6516 8.09923   2 
  -9   7   5 30.4434 7.32216   1 
   8  -7  -5 3.15466 4.08645  13 
   8  -7  -5 14.9938 3.81858   5 
   8  -7  -5 12.6786 5.81211   6 
   8  -7  -5 19.3337 4.77479   5 
  -8   7   5 18.5453 5.76705   2 
  -8   7   5 12.6537 4.45899   1 
  -8   7   5 13.7131 6.29376  12 
  -8   7   5 17.3487 5.17160   7 
   7  -7  -5 66.6707 7.96888   3 
   7  -7  -5 54.2242 8.66713  13 
   7  -7  -5 48.9348 5.09109   5 
   7  -7  -5 51.5102 4.29705  14 
   7  -7  -5 46.2608 7.86935   6 
   7  -7  -5 50.5959 5.54194   5 
  -7   7   5 46.2367 6.80250   1 
  -7   7   5 61.1372 9.30865  12 
  -7   7   5 55.1840 7.30178   7 
  -7   7   5 52.3641 8.20990   2 
   6  -7  -5 117.887 9.51023   3 
   6  -7  -5 99.6800 10.0464   6 
   6  -7  -5 115.093 10.7794  13 
  -6   7   5 110.636 8.76379   7 
  -6   7   5 108.356 10.8596  12 
  -6   7   5 101.266 9.45164   2 
   5  -7  -5 92.4243 9.65598  13 
   5  -7  -5 98.4856 9.36044   6 
   5  -7  -5 80.4572 7.13760   3 
  -5   7   5 79.2935 6.71898   7 
  -5   7   5 63.8421 6.95297   2 
  -5   7   5 77.4644 8.86861  12 
   4  -7  -5 118.744 10.0349   6 
   4  -7  -5 119.000 7.69205   3 
   4  -7  -5 120.312 10.4238  13 
   4  -7  -5 122.283 9.74074  10 
  -4   7   5 102.163 7.59999   2 
  -4   7   5 112.239 7.61778   7 
  -4   7   5 111.273 7.90511   2 
  -4   7   5 107.646 10.3463  12 
   3  -7  -5 103.150 6.39740   3 
   3  -7  -5 118.406 10.2682  13 
   3  -7  -5 110.840 9.59177  10 
   3  -7  -5 106.068 9.40847   6 
  -3   7   5 94.0378 6.75276   7 
  -3   7   5 96.4677 6.59084   2 
  -3   7   5 99.9342 6.77966   2 
  -3   7   5 117.909 10.1945  12 
   2  -7  -5 75.4100 8.15325   6 
   2  -7  -5 77.1120 8.21641   4 
   2  -7  -5 79.8436 8.62169  10 
   2  -7  -5 83.8401 9.03222  13 
   2  -7  -5 82.9717 5.04849   3 
  -2   7   5 77.5576 5.35962   2 
  -2   7   5 67.4504 8.05989  12 
  -2   7   5 74.9638 5.17026   2 
  -2   7   5 70.3317 5.76143   7 
   1  -7  -5 97.4202 5.47712   3 
   1  -7  -5 95.8234 9.16369   6 
   1  -7  -5 102.556 9.63279  10 
   1  -7  -5 104.002 10.0343  13 
   1  -7  -5 112.753 9.85288   4 
  -1   7   5 91.6674 5.69996   2 
  -1   7   5 90.7098 5.80287   2 
  -1   7   5 101.991 5.87078   2 
   0  -7  -5 42.6836 7.38997  10 
   0  -7  -5 41.1197 3.79700   3 
   0  -7  -5 42.7756 7.06302   4 
   0  -7  -5 45.6666 6.94381   6 
   0  -7  -5 34.0505 6.61681  13 
   0   7   5 31.4339 3.94000   2 
   0   7   5 33.2041 3.98059   2 
  -1  -7  -5 32.3961 6.93283  10 
  -1  -7  -5 18.9007 6.13599   4 
  -1  -7  -5 29.3197 3.93242   3 
   1   7   5 24.7795 4.21374   2 
   1   7   5 26.7460 4.19214   2 
  -2  -7  -5 9.89003 5.18887   4 
  -2  -7  -5 12.8520 3.49809   3 
  -2  -7  -5 13.1469 5.45117  10 
   2   7   5 8.81390 3.33384   2 
  -3  -7  -5 22.5392 7.49126   4 
   3   7   5 28.0418 6.23143   2 
   9  -8  -5 12.4157 3.94004   5 
   9  -8  -5 14.7776 6.24603   6 
   9  -8  -5 18.9324 4.98129   5 
  -9   8   5 20.9044 7.35443   2 
  -9   8   5 27.9710 6.65439   7 
   8  -8  -5 12.6259 5.42949   6 
   8  -8  -5 5.19568 2.60176   5 
   8  -8  -5 3.31616 4.70967  13 
   8  -8  -5 4.60500 2.64083   5 
   8  -8  -5 4.02359 1.80889  14 
  -8   8   5 6.49767 4.03893   7 
  -8   8   5 3.78264 5.07440  12 
  -8   8   5 4.39404 4.66862   2 
   7  -8  -5 109.220 10.2614   3 
   7  -8  -5 123.917 12.2785  13 
   7  -8  -5 116.719 11.8218   6 
  -7   8   5 110.561 9.58482   7 
  -7   8   5 116.084 11.2369   2 
  -7   8   5 106.437 11.8851  12 
   6  -8  -5 89.6285 10.5746  13 
   6  -8  -5 93.6893 10.0671   6 
   6  -8  -5 90.2324 8.41017   3 
  -6   8   5 85.1873 9.01597   2 
  -6   8   5 93.0197 10.6352  12 
  -6   8   5 89.8716 8.04163   7 
   5  -8  -5 35.6499 7.37995   6 
   5  -8  -5 33.4100 5.30039   3 
   5  -8  -5 33.4652 7.43163  13 
  -5   8   5 26.8204 6.77252  12 
  -5   8   5 32.8853 5.08074   7 
  -5   8   5 26.2773 5.28247   2 
   4  -8  -5 47.5249 7.66765  10 
   4  -8  -5 57.4827 8.30632  13 
   4  -8  -5 62.7991 8.30858   6 
   4  -8  -5 55.3967 5.43141   3 
  -4   8   5 59.2033 6.02253   2 
  -4   8   5 56.5450 5.81994   2 
  -4   8   5 43.6693 7.72764   7 
  -4   8   5 69.0801 8.82722  12 
   3  -8  -5 170.851 8.38306   3 
   3  -8  -5 185.738 13.7542  13 
   3  -8  -5 159.186 12.5602  10 
   3  -8  -5 155.932 12.3455   6 
  -3   8   5 156.681 8.57779   2 
  -3   8   5 180.941 13.5840  12 
  -3   8   5 167.102 8.97976   2 
   2  -8  -5 104.322 10.1690  10 
   2  -8  -5 96.6098 9.74446   4 
   2  -8  -5 111.743 10.3196   6 
   2  -8  -5 95.6578 10.2080  13 
   2  -8  -5 97.9218 5.25916   3 
  -2   8   5 105.236 10.4457  12 
  -2   8   5 90.6143 5.75762   2 
  -2   8   5 92.2446 5.71782   2 
   1  -8  -5 98.1402 10.5826  13 
   1  -8  -5 95.8699 10.1193  10 
   1  -8  -5 82.1123 9.37426   4 
   1  -8  -5 94.0728 9.98950   6 
  -1   8   5 89.0314 5.37898   2 
  -1   8   5 85.0538 9.61473  12 
   0  -8  -5 134.445 12.1261   4 
   0  -8  -5 119.282 11.1107   6 
   0  -8  -5 106.533 11.2522  10 
   0   8   5 94.3845 9.82676  12 
   0   8   5 98.8369 6.23251   2 
   0   8   5 100.987 6.29999   2 
  -1  -8  -5 11.7108 5.40821  10 
  -1  -8  -5 18.9036 3.41443   3 
  -1  -8  -5 24.2062 7.06646   4 
   1   8   5 13.4649 3.39395   2 
  -2  -8  -5 18.4388 6.72471   4 
  -2  -8  -5 12.2943 3.59757   3 
   2   8   5 22.3206 5.11828   2 
   8  -9  -5 0.94716 4.24751   6 
  -8   9   5 5.15223 4.27077   7 
  -8   9   5 1.85672 3.96415   2 
   7  -9  -5 52.1246 9.26292   6 
   7  -9  -5 55.7223 9.68476  13 
  -7   9   5 66.6518 11.6742  12 
  -7   9   5 59.7128 8.81464   2 
   6  -9  -5 41.7935 6.65043   3 
   6  -9  -5 59.1463 9.22112  13 
   6  -9  -5 53.9351 8.97110   6 
  -6   9   5 51.6516 7.47730   2 
  -6   9   5 53.1717 9.63309  12 
   5  -9  -5 14.5915 5.60698   6 
   5  -9  -5 22.2713 4.76259   3 
   5  -9  -5 31.0095 7.74351  13 
  -5   9   5 18.1052 4.59905   2 
  -5   9   5 18.0741 6.78601  12 
   4  -9  -5 14.1401 5.78475  13 
   4  -9  -5 33.7879 7.30302   6 
   4  -9  -5 33.1855 4.36405   3 
  -4   9   5 24.1029 6.52929  12 
  -4   9   5 17.9817 3.92582   2 
   3  -9  -5 69.9011 4.77389   3 
   3  -9  -5 67.6913 9.22881  10 
   3  -9  -5 62.3932 8.84669   6 
   3  -9  -5 71.5738 10.0421  13 
  -3   9   5 62.5229 5.15376   2 
  -3   9   5 63.7237 5.09187   2 
  -3   9   5 62.7832 9.23415  12 
   2  -9  -5 8.28608 5.05464  10 
   2  -9  -5 12.5914 5.19446   4 
   2  -9  -5 13.1883 5.81802  13 
   2  -9  -5 13.7647 5.55227   6 
  -2   9   5 29.9728 7.21836  12 
   1  -9  -5 40.8569 8.70235  13 
   1  -9  -5 43.9436 8.52093   6 
   1  -9  -5 50.2414 8.92361   4 
   1  -9  -5 47.9898 9.29154  10 
  -1   9   5 38.9120 7.73380  12 
   0  -9  -5 40.2709 9.05332   4 
   0  -9  -5 43.1566 8.63339   6 
   0   9   5 38.7187 7.51687  12 
  -1  -9  -5 25.7286 7.61083   4 
   1   9   5 17.3149 3.56116   2 
   7 -10  -5 51.9491 9.92402   6 
  -7  10   5 56.5457 8.82739   2 
   6 -10  -5 47.1486 9.61126   6 
  -6  10   5 53.5891 7.62334   2 
   5 -10  -5 33.9027 7.83548   6 
   5 -10  -5 35.8983 10.2324  13 
   5 -10  -5 22.5965 4.81699   3 
  -5  10   5 34.3756 8.70182  12 
  -5  10   5 36.9221 5.83805   2 
   4 -10  -5 44.8646 9.42266  13 
   4 -10  -5 39.8351 4.54969   3 
   4 -10  -5 41.8215 8.70738   6 
  -4  10   5 42.6355 5.22340   2 
  -4  10   5 51.8950 9.12005  12 
   3 -10  -5 43.2730 8.98477   6 
   3 -10  -5 37.4042 9.11095  13 
  -3  10   5 35.8496 8.37960  12 
   2 -10  -5 35.4349 8.44256   6 
   2 -10  -5 24.1100 7.04894   4 
  -2  10   5 39.9854 8.25117  12 
   1 -10  -5 57.2926 9.96455   6 
   1 -10  -5 83.0876 11.3794   4 
  -1  10   5 68.1452 9.54182  12 
   0 -10  -5 29.5383 8.69083   4 
   6 -11  -5 24.2899 7.88925   6 
  -6  11   5 29.5291 6.31908   2 
   5 -11  -5 45.6443 10.0796   6 
  -5  11   5 30.3798 5.91270   2 
   4 -11  -5 33.2355 8.63039   6 
  -4  11   5 26.2018 4.43816   2 
   3 -11  -5 27.3188 7.97847   6 
   2 -11  -5 19.0467 7.21526   4 
   2 -11  -5 9.12049 6.33159   6 
  -1  13  -6 0.34080 3.82591   2 
   1 -13   6 -0.8851 4.51743   4 
  -2  13  -6 50.8605 9.75372   2 
   2 -13   6 37.5724 9.16541   9 
   2 -13   6 26.7055 7.27447   4 
  -3  13  -6 52.2953 9.98554   2 
   3 -13   6 42.6789 9.51213   9 
   2  12  -6 82.3397 10.8857   2 
  -2 -12   6 72.6441 12.1429   4 
   1  12  -6 49.4477 9.46489   2 
  -1 -12   6 37.4490 8.59506   4 
   0  12  -6 10.5159 5.44449   2 
   0 -12   6 9.05823 5.61204   4 
  -1  12  -6 56.0314 9.32666   2 
   1 -12   6 79.3563 10.5497   9 
   1 -12   6 64.8375 9.84044   4 
  -2  12  -6 104.064 11.5423   2 
   2 -12   6 90.3675 9.85490   4 
   2 -12   6 96.6906 11.8619   9 
  -3  12  -6 87.0001 11.2890   2 
   3 -12   6 84.4356 11.3478   9 
  -4  12  -6 33.8456 8.78897   2 
   4 -12   6 26.1309 8.14834   9 
   4 -12   6 26.1975 4.60426   5 
   4 -12   6 25.5618 4.77896   5 
  -5  12  -6 26.3953 8.69948   2 
   5 -12   6 26.5356 5.17547   5 
   5 -12   6 27.0021 4.99265  14 
   5 -12   6 24.4639 8.23261   9 
   5 -12   6 18.6182 4.39119   5 
   3  11  -6 26.4335 7.46990   2 
  -3 -11   6 38.7665 9.12903   4 
   2  11  -6 82.1343 10.7281   2 
  -2 -11   6 68.5564 10.6722   4 
   1  11  -6 77.8595 9.74991   2 
  -1 -11   6 50.8152 9.23086   4 
   0  11  -6 30.0375 6.91653   2 
   0 -11   6 41.1859 8.18193   4 
   0 -11   6 24.2796 7.22909   9 
  -1  11  -6 68.8619 9.40635   2 
   1 -11   6 73.8277 9.97114   9 
   1 -11   6 92.0170 9.60459   4 
  -2  11  -6 99.2551 10.8042   2 
   2 -11   6 110.044 9.68842   4 
   2 -11   6 92.5270 10.8530   9 
   2 -11   6 96.3054 6.57519   5 
  -3  11  -6 53.5121 9.15850   2 
   3 -11   6 65.3177 5.52612  14 
   3 -11   6 65.1924 6.27869   5 
   3 -11   6 70.6902 9.78711   9 
   3 -11   6 60.5366 6.07103   5 
   3 -11   6 55.3326 5.06823  14 
  -4  11  -6 37.8681 7.74395   1 
  -4  11  -6 33.0878 8.02171   2 
   4 -11   6 41.9154 6.07971   5 
   4 -11   6 38.2357 5.53067   5 
   4 -11   6 35.1488 8.53763   9 
   4 -11   6 36.7647 5.19847  14 
  -5  11  -6 47.3479 8.94904   1 
  -5  11  -6 37.3840 9.32949   2 
   5 -11   6 45.8772 6.41453  14 
   5 -11   6 38.7346 8.84881   9 
   5 -11   6 49.9736 7.09159   5 
  -6  11  -6 21.8542 6.79396  11 
  -6  11  -6 19.8110 8.22244   2 
  -6  11  -6 17.7157 6.22726   1 
   6 -11   6 21.1097 5.86587   5 
   6 -11   6 20.4263 5.22433  14 
   6 -11   6 11.3564 6.18244   9 
   4  10  -6 18.1603 6.33001   2 
  -4 -10   6 27.2378 8.23867   4 
   3  10  -6 28.9199 7.50571   2 
  -3 -10   6 45.9501 9.56887   4 
   2  10  -6 47.9203 8.36124   2 
  -2 -10   6 51.3857 8.97484   4 
   1  10  -6 57.4897 8.45117   2 
  -1 -10   6 45.4524 8.17657   4 
   0  10  -6 98.9777 10.2023   2 
   0 -10   6 101.855 9.91497   4 
   0 -10   6 104.544 5.31897  14 
   0 -10   6 99.7394 10.2502   9 
   0 -10   6 101.121 6.32805   5 
  -1  10  -6 77.8280 9.18474   2 
  -1  10  -6 61.4942 7.56245   1 
   1 -10   6 65.1870 4.93672  14 
   1 -10   6 68.4183 4.97154  14 
   1 -10   6 58.0181 7.86688   4 
   1 -10   6 69.3016 8.81890   9 
   1 -10   6 67.8813 5.73480   5 
   1 -10   6 72.3620 5.85131   5 
  -2  10  -6 97.9699 9.27727   1 
  -2  10  -6 102.370 10.7355   2 
   2 -10   6 104.989 7.61504   5 
   2 -10   6 99.6575 10.6070   9 
   2 -10   6 104.831 7.00130  14 
   2 -10   6 116.738 7.84143   5 
   2 -10   6 111.396 9.42438   4 
   2 -10   6 110.869 6.92714  14 
  -3  10  -6 74.3587 9.70322   2 
  -3  10  -6 89.5274 9.20484   1 
   3 -10   6 68.7442 6.66517   5 
   3 -10   6 80.5284 9.64884   9 
   3 -10   6 74.5788 6.99510   5 
   3 -10   6 80.6517 7.48596   4 
   3 -10   6 76.2481 6.36781  14 
   3 -10   6 68.1577 8.94401  14 
  -4  10  -6 52.2795 9.32197   2 
  -4  10  -6 58.5515 8.30627   1 
  -4  10  -6 59.8884 7.68740  11 
   4 -10   6 54.8214 6.44122  14 
   4 -10   6 60.7780 5.76196   1 
   4 -10   6 50.6186 6.70810   5 
   4 -10   6 58.7665 8.76322   9 
  -5  10  -6 30.8847 8.01667   2 
  -5  10  -6 24.0134 6.65222   1 
  -5  10  -6 24.3203 6.40167  11 
   5 -10   6 18.3428 5.12156   5 
   5 -10   6 30.7936 5.86455  14 
   5 -10   6 27.1028 7.09550   9 
   5 -10   6 27.1801 5.19967   1 
  -6  10  -6 41.7443 8.50104   1 
  -6  10  -6 36.4162 8.01551  11 
   6 -10   6 35.8478 6.98584  14 
   6 -10   6 43.0034 7.27701   5 
   6 -10   6 43.2989 6.78825   1 
  -7  10  -6 30.8678 8.25304  11 
  -7  10  -6 28.4565 7.90533   1 
   7 -10   6 34.2718 10.1757   9 
   7 -10   6 28.2533 6.66675   1 
   5   9  -6 9.63193 5.55315   2 
  -5  -9   6 18.7750 7.39979   4 
   4   9  -6 16.6586 5.91693   2 
  -4  -9   6 13.2327 3.10832   5 
  -4  -9   6 15.6988 6.42364   4 
  -4  -9   6 9.40839 2.83938   5 
   3   9  -6 15.9877 5.21606   2 
  -3  -9   6 12.0404 2.47387  14 
  -3  -9   6 14.6595 3.30501   5 
  -3  -9   6 7.62595 4.89740   4 
  -3  -9   6 9.71042 2.29447  14 
  -3  -9   6 12.3405 3.24042   5 
   2   9  -6 98.7747 10.2066   2 
   2   9  -6 90.3913 8.54624   1 
  -2  -9   6 86.5286 5.54532  14 
  -2  -9   6 107.412 10.2678   4 
  -2  -9   6 91.8212 6.42137   5 
  -2  -9   6 92.4585 5.57182  14 
  -2  -9   6 80.6578 6.19197   5 
   1   9  -6 105.780 8.82039   1 
   1   9  -6 98.9809 9.67688   2 
  -1  -9   6 98.6146 6.00653  14 
  -1  -9   6 103.250 6.91255   5 
  -1  -9   6 101.521 6.75082   5 
  -1  -9   6 101.766 6.06660  14 
  -1  -9   6 111.925 10.3211   4 
   0   9  -6 83.5007 7.84665   1 
   0   9  -6 82.9272 8.84405   2 
   0  -9   6 88.3180 5.86974  14 
   0  -9   6 89.4596 6.53713   5 
   0  -9   6 90.6511 8.80642   4 
   0  -9   6 90.8292 9.30967   9 
   0  -9   6 80.0816 5.61819  14 
   0  -9   6 85.6240 6.44038   5 
  -1   9  -6 62.9584 8.11844   2 
  -1   9  -6 68.3073 7.27264   1 
   1  -9   6 67.6172 5.35464  14 
   1  -9   6 58.4509 5.33489  14 
   1  -9   6 65.3637 5.82989   5 
   1  -9   6 68.3508 7.54015   4 
   1  -9   6 67.6128 5.95719   5 
   1  -9   6 59.1751 4.63626   1 
   1  -9   6 59.5270 7.82983   9 
  -2   9  -6 88.7203 7.36218  11 
  -2   9  -6 77.8386 9.25541   2 
  -2   9  -6 93.6166 8.49992   1 
   2  -9   6 76.3185 6.57137   5 
   2  -9   6 85.4387 6.57370  14 
   2  -9   6 78.7499 6.32305  14 
   2  -9   6 77.1802 6.74817   5 
   2  -9   6 81.2589 5.95634   1 
   2  -9   6 77.2837 7.51258   4 
   2  -9   6 102.476 9.74511   9 
  -3   9  -6 67.2642 7.24535  11 
  -3   9  -6 66.7546 9.09996   2 
  -3   9  -6 62.3449 7.89052   1 
   3  -9   6 76.7185 6.84592  14 
   3  -9   6 74.0779 6.30654   1 
   3  -9   6 86.7225 7.30568   4 
   3  -9   6 79.2463 7.16564   5 
   3  -9   6 81.6123 9.00087   9 
   3  -9   6 87.8983 7.50210   5 
  -4   9  -6 64.1067 8.37873   1 
  -4   9  -6 58.4356 7.53042  11 
  -4   9  -6 67.0092 9.76203   2 
   4  -9   6 69.2526 7.38223   5 
   4  -9   6 65.9750 6.99764  14 
   4  -9   6 66.6319 8.88942   9 
   4  -9   6 75.5401 6.97441   1 
  -5   9  -6 65.2524 9.89173   2 
  -5   9  -6 48.7649 8.02987  11 
  -5   9  -6 41.1379 7.84268   1 
   5  -9   6 52.1864 7.32635   5 
   5  -9   6 54.9967 8.92714   9 
   5  -9   6 54.6701 7.01214   1 
  -6   9  -6 40.5895 8.20834   1 
  -6   9  -6 40.9087 8.21503  11 
   6  -9   6 35.1183 8.39905   9 
   6  -9   6 39.6687 8.50834   3 
   6  -9   6 30.9392 6.57602   1 
   6  -9   6 28.8828 6.64212   5 
  -7   9  -6 9.48050 5.70654  11 
  -7   9  -6 7.97316 5.36155   1 
   7  -9   6 3.16454 4.64662   9 
   7  -9   6 4.94275 3.99650   1 
   6   8  -6 18.9501 7.44029   2 
  -6  -8   6 23.4676 8.10207   4 
  -6  -8   6 28.9984 4.92601  14 
  -6  -8   6 20.8840 4.68960   5 
  -6  -8   6 18.8816 4.31036   5 
   5   8  -6 25.7184 9.20412   1 
   5   8  -6 31.7066 7.56444   2 
  -5  -8   6 32.8390 8.24225   4 
  -5  -8   6 25.6011 4.67625  14 
  -5  -8   6 27.2388 5.22672   5 
  -5  -8   6 14.9649 3.32280  14 
  -5  -8   6 21.9221 4.66062   5 
   4   8  -6 98.5392 11.0318   2 
   4   8  -6 107.134 10.0268   1 
  -4  -8   6 88.4266 6.44264  14 
  -4  -8   6 81.3869 10.4223   4 
  -4  -8   6 92.6890 7.41459   5 
  -4  -8   6 85.4035 7.07926   5 
  -4  -8   6 87.7846 6.61736  14 
   3   8  -6 123.717 11.2253   2 
   3   8  -6 116.618 9.66504   1 
  -3  -8   6 100.300 10.5415   4 
  -3  -8   6 109.610 7.17536  14 
  -3  -8   6 105.970 7.01320  14 
  -3  -8   6 111.224 7.60175   5 
  -3  -8   6 111.365 7.81931   5 
   2   8  -6 82.2208 9.07880   2 
   2   8  -6 95.0531 8.01437   1 
  -2  -8   6 81.9157 5.25933   1 
  -2  -8   6 85.8393 6.54930   5 
  -2  -8   6 90.8226 6.14737  14 
  -2  -8   6 82.7709 6.46449   5 
  -2  -8   6 65.8951 8.08090   4 
  -2  -8   6 80.5928 5.87969  14 
   1   8  -6 34.1550 5.89358   8 
   1   8  -6 41.0960 6.44733   2 
   1   8  -6 35.9110 5.50512   1 
  -1  -8   6 47.5230 4.48141  14 
  -1  -8   6 41.4333 4.46912  14 
  -1  -8   6 41.2847 3.82834   1 
  -1  -8   6 42.9779 4.73962   5 
  -1  -8   6 39.1668 6.51383   4 
  -1  -8   6 43.0300 6.46808   9 
  -1  -8   6 39.9926 4.76445   5 
   0   8  -6 134.347 9.36401   1 
   0   8  -6 127.023 10.3388   2 
   0   8  -6 129.919 7.43688  11 
   0   8  -6 123.002 9.74688   8 
   0  -8   6 127.786 7.58674  14 
   0  -8   6 131.259 8.07785   5 
   0  -8   6 132.021 7.29226   7 
   0  -8   6 107.833 9.00999   4 
   0  -8   6 124.739 7.45455  14 
   0  -8   6 121.350 7.13596   1 
   0  -8   6 114.898 9.67227   9 
   0  -8   6 116.291 7.80371   5 
  -1   8  -6 227.635 12.4579   1 
  -1   8  -6 209.934 13.3161   2 
  -1   8  -6 220.299 12.8513   8 
  -1   8  -6 213.834 10.7909  11 
   1  -8   6 187.224 10.0191  14 
   1  -8   6 180.066 12.4798   9 
   1  -8   6 181.200 10.4008   5 
   1  -8   6 191.893 9.96365   1 
   1  -8   6 196.698 10.7899   5 
   1  -8   6 190.690 9.29957   7 
   1  -8   6 183.360 10.0146  14 
  -2   8  -6 258.592 14.2546   1 
  -2   8  -6 265.236 13.5450  11 
  -2   8  -6 263.576 15.8337   2 
   2  -8   6 258.093 13.2084   5 
   2  -8   6 261.448 12.7800  14 
   2  -8   6 248.300 12.3696   1 
   2  -8   6 288.747 15.9131   9 
   2  -8   6 250.495 13.0508   5 
  -3   8  -6 2.89930 3.40631   2 
  -3   8  -6 2.32458 2.57385  11 
  -3   8  -6 3.56714 2.89857   1 
   3  -8   6 2.12498 2.37692   5 
   3  -8   6 7.21010 3.44952   5 
   3  -8   6 8.92534 4.14696   9 
   3  -8   6 5.87070 2.84520  14 
   3  -8   6 8.82703 3.18689   1 
  -4   8  -6 19.7461 5.75140   2 
  -4   8  -6 20.5470 5.52928   1 
  -4   8  -6 19.0713 5.16973  11 
   4  -8   6 23.9186 5.59495   5 
   4  -8   6 16.2007 5.10926   9 
   4  -8   6 22.6103 4.85758   1 
  -5   8  -6 112.541 11.8218   2 
  -5   8  -6 124.734 11.1757   1 
  -5   8  -6 104.128 10.6921  11 
   5  -8   6 107.306 10.8614   3 
   5  -8   6 111.033 9.96626   5 
   5  -8   6 93.4063 10.4878   9 
   5  -8   6 101.967 9.08222   1 
  -6   8  -6 67.1587 9.78965   1 
  -6   8  -6 70.0055 9.73144  11 
   6  -8   6 69.4129 9.97193   3 
   6  -8   6 58.6100 9.40898   9 
   6  -8   6 76.4430 8.85208   1 
  -7   8  -6 -1.8032 3.76581   1 
  -7   8  -6 6.94367 5.44888  11 
   7  -8   6 0.74689 4.22025   9 
   7  -8   6 -1.2960 3.69651   1 
   7   7  -6 13.6460 5.84631   1 
   7   7  -6 9.25038 6.28056   2 
  -7  -7   6 3.63441 3.51215   5 
  -7  -7   6 8.66266 5.57155   4 
  -7  -7   6 6.54256 3.82544  14 
   6   7  -6 12.8173 5.65141   2 
   6   7  -6 13.4298 5.43978   1 
  -6  -7   6 15.0000 4.08320  14 
  -6  -7   6 17.7077 5.04132   5 
  -6  -7   6 22.1165 7.02007   4 
   5   7  -6 34.8454 6.93477   1 
   5   7  -6 40.6072 8.68906   2 
  -5  -7   6 45.0057 8.06655   4 
  -5  -7   6 43.0677 6.88372   1 
  -5  -7   6 41.8740 7.06133   1 
  -5  -7   6 31.5198 5.66284   5 
  -5  -7   6 29.5189 5.21079  14 
  -5  -7   6 30.0785 5.22146   5 
   4   7  -6 79.0707 9.45361   2 
   4   7  -6 78.8386 8.55227   1 
  -4  -7   6 68.5072 6.69848   5 
  -4  -7   6 64.5687 5.60120   1 
  -4  -7   6 65.6443 8.77827   4 
  -4  -7   6 67.2725 6.33245  14 
  -4  -7   6 73.0417 6.67132   5 
   3   7  -6 185.204 13.2191   2 
   3   7  -6 174.649 11.6116   1 
   3   7  -6 180.510 12.1769   8 
  -3  -7   6 184.657 9.25590   7 
  -3  -7   6 187.253 10.5559   5 
  -3  -7   6 182.185 9.93317  14 
  -3  -7   6 190.915 9.68404   1 
  -3  -7   6 191.619 10.5806   5 
  -3  -7   6 195.854 10.1866  14 
  -3  -7   6 181.530 12.8198   4 
   2   7  -6 180.874 11.6229   8 
   2   7  -6 169.969 11.8528   2 
   2   7  -6 174.614 10.8327   1 
  -2  -7   6 186.401 10.0838   5 
  -2  -7   6 188.741 8.86776   7 
  -2  -7   6 177.806 9.51493  14 
  -2  -7   6 167.232 9.82023   5 
  -2  -7   6 184.389 9.53420  14 
  -2  -7   6 172.139 9.20815   1 
  -2  -7   6 190.761 12.1173   4 
   1   7  -6 134.623 7.42939  11 
   1   7  -6 111.053 8.55609   1 
   1   7  -6 129.703 10.0178   2 
   1   7  -6 115.981 9.17808   8 
  -1  -7   6 139.322 8.11058  14 
  -1  -7   6 131.847 7.85353  14 
  -1  -7   6 134.520 8.39457   5 
  -1  -7   6 128.547 9.88902   9 
  -1  -7   6 137.302 8.33283   5 
  -1  -7   6 150.643 7.34814   7 
  -1  -7   6 131.509 7.69208   1 
   0   7  -6 270.869 14.3933   8 
   0   7  -6 256.389 13.3616   1 
   0   7  -6 249.627 14.3944   2 
   0   7  -6 269.788 13.1947   3 
   0   7  -6 251.413 11.8380  11 
   0  -7   6 254.875 11.9956  14 
   0  -7   6 251.527 12.3928   5 
   0  -7   6 266.529 12.5890   5 
   0  -7   6 259.115 12.0479  14 
   0  -7   6 240.719 10.8802   7 
   0  -7   6 260.966 12.0108   1 
   0  -7   6 263.727 14.3545   9 
  -1   7  -6 310.932 15.7334   8 
  -1   7  -6 315.895 14.7711   3 
  -1   7  -6 300.896 14.9198   1 
  -1   7  -6 281.338 13.6156  11 
  -1   7  -6 297.791 16.3150   2 
   1  -7   6 291.725 15.7086   9 
   1  -7   6 283.115 13.2328   1 
   1  -7   6 308.074 13.5977  14 
   1  -7   6 295.186 13.9609   5 
   1  -7   6 290.664 13.4207  14 
   1  -7   6 285.561 13.8372   5 
  -2   7  -6 212.313 12.1261   3 
  -2   7  -6 203.647 12.0768   1 
  -2   7  -6 210.368 11.7278  11 
  -2   7  -6 199.092 13.2289   2 
   2  -7   6 214.413 11.6578   5 
   2  -7   6 196.643 12.6272   9 
   2  -7   6 203.851 11.3221   5 
   2  -7   6 206.402 10.8538  14 
   2  -7   6 196.393 10.8681   1 
  -3   7  -6 95.1252 8.33969   3 
  -3   7  -6 91.4914 9.23205   2 
  -3   7  -6 97.0896 8.44437   1 
  -3   7  -6 96.2695 8.29277  11 
   3  -7   6 86.0757 7.45004   1 
   3  -7   6 88.8388 7.44320  14 
   3  -7   6 81.3899 8.33940   9 
   3  -7   6 106.846 8.24751   5 
  -4   7  -6 151.158 11.0648   3 
  -4   7  -6 161.691 12.7832   2 
  -4   7  -6 131.920 10.6570  11 
  -4   7  -6 155.174 11.3279   1 
   4  -7   6 168.805 12.2674   9 
   4  -7   6 150.471 10.3170   1 
   4  -7   6 142.004 10.6129   5 
  -5   7  -6 161.330 13.4758   2 
  -5   7  -6 150.273 12.0614   1 
  -5   7  -6 148.781 12.1424  11 
   5  -7   6 152.124 11.2646   1 
   5  -7   6 130.339 11.0503   5 
   5  -7   6 142.331 12.4299   3 
   5  -7   6 154.953 12.4486   9 
  -6   7  -6 70.4591 9.51611  11 
  -6   7  -6 80.3564 10.1003   1 
   6  -7   6 69.3067 8.84615   1 
   6  -7   6 61.5820 9.43549   3 
  -7   7  -6 6.35298 5.30748  11 
  -7   7  -6 3.76776 4.16602   1 
   7  -7   6 0.62045 4.00338   1 
   7  -7   6 1.60050 4.31135   3 
  -8   7  -6 33.9842 8.77855  11 
   8  -7   6 31.2361 12.0238   1 
   7   6  -6 7.25169 4.22639   1 
   7   6  -6 -1.5467 3.77411   2 
  -7  -6   6 1.13020 4.38457   4 
  -7  -6   6 1.47339 3.41217   5 
  -7  -6   6 0.39303 2.96183  14 
   6   6  -6 18.0133 5.90176   2 
   6   6  -6 13.3125 4.95359   1 
  -6  -6   6 5.83278 4.58561   4 
  -6  -6   6 14.7892 4.90506   5 
  -6  -6   6 12.2434 3.93580  14 
  -6  -6   6 14.7085 4.01798   1 
  -6  -6   6 17.6505 4.17767   1 
  -6  -6   6 13.4820 4.04211   7 
   5   6  -6 83.1534 10.0594   2 
   5   6  -6 71.4480 8.66090   1 
  -5  -6   6 63.3617 6.39608   7 
  -5  -6   6 67.8178 6.88762  14 
  -5  -6   6 66.8904 8.67354   4 
  -5  -6   6 67.7923 7.10990   5 
  -5  -6   6 74.2422 6.82275   1 
   4   6  -6 154.066 11.1206   1 
   4   6  -6 173.038 12.7622   2 
  -4  -6   6 143.792 9.35609  14 
  -4  -6   6 159.993 10.1065   5 
  -4  -6   6 174.348 10.5688   5 
  -4  -6   6 148.483 11.4700   4 
  -4  -6   6 152.914 9.01688   7 
  -4  -6   6 169.455 9.71892   1 
   3   6  -6 36.1481 5.85123   8 
   3   6  -6 29.3167 5.32246   1 
   3   6  -6 39.6517 6.59264   2 
  -3  -6   6 54.9639 5.31091   1 
  -3  -6   6 50.9004 5.48448   5 
  -3  -6   6 53.1278 5.28656  14 
  -3  -6   6 53.8286 4.68598   7 
  -3  -6   6 53.5120 5.16481  14 
  -3  -6   6 44.3905 5.23750   5 
   2   6  -6 24.8981 5.21708   2 
   2   6  -6 29.3843 5.05671   8 
   2   6  -6 25.2550 4.35146   3 
   2   6  -6 26.3396 4.54001   1 
  -2  -6   6 24.6860 4.02041   5 
  -2  -6   6 32.1400 3.60351   7 
  -2  -6   6 25.8302 3.96375  14 
  -2  -6   6 27.7762 3.97935  14 
  -2  -6   6 30.3844 4.18583   1 
  -2  -6   6 30.5847 4.30314   5 
   1   6  -6 9.31950 2.63816  11 
   1   6  -6 6.60533 2.66733   3 
   1   6  -6 4.96672 2.57770   1 
   1   6  -6 10.7101 3.35731   8 
   1   6  -6 7.77254 3.55948   2 
  -1  -6   6 1.81733 2.35447   9 
  -1  -6   6 0.77027 1.35739  14 
  -1  -6   6 2.10423 1.81379  14 
  -1  -6   6 3.01666 1.97800   3 
  -1  -6   6 1.42224 1.65832   5 
  -1  -6   6 3.31338 1.98676   5 
  -1  -6   6 1.16453 1.28128   7 
  -1  -6   6 -0.5210 1.43853   1 
   0   6  -6 198.413 10.3618  11 
   0   6  -6 217.303 12.1730   8 
   0   6  -6 209.346 12.4593   2 
   0   6  -6 202.160 11.2932   3 
   0   6  -6 211.542 11.4868   1 
   0  -6   6 222.266 11.8373   3 
   0  -6   6 207.987 11.8787   9 
   0  -6   6 223.882 9.94982   7 
   0  -6   6 190.009 10.4227   5 
   0  -6   6 195.108 10.2074  14 
   0  -6   6 210.960 10.5483  14 
   0  -6   6 210.040 10.5360   1 
   0  -6   6 206.596 10.8656   5 
  -1   6  -6 436.856 18.4661  11 
  -1   6  -6 442.074 19.1751   1 
  -1   6  -6 427.729 19.7276   8 
  -1   6  -6 419.207 18.9298   3 
  -1   6  -6 439.988 20.4527   2 
  -1   6  -6 443.544 16.3862  13 
   1  -6   6 423.982 17.9832   1 
   1  -6   6 433.452 19.5760   9 
   1  -6   6 424.946 18.3814   5 
   1  -6   6 464.667 18.9086   8 
   1  -6   6 452.493 18.2590  14 
   1  -6   6 442.941 18.5301   5 
   1  -6   6 480.306 18.4101  14 
  -2   6  -6 95.9117 7.57700  11 
  -2   6  -6 96.8720 7.90625   3 
  -2   6  -6 86.9425 7.54941   1 
  -2   6  -6 109.448 9.13010   2 
   2  -6   6 85.9128 6.99896   5 
   2  -6   6 94.7912 7.51347   5 
   2  -6   6 90.9705 7.14472  14 
   2  -6   6 98.9367 7.34181   1 
   2  -6   6 88.2505 7.84736   9 
  -3   6  -6 12.8460 3.78815   1 
  -3   6  -6 13.6925 4.02130   3 
  -3   6  -6 15.0417 4.25418  11 
  -3   6  -6 15.5950 4.67060   2 
   3  -6   6 24.1491 4.77729   5 
   3  -6   6 23.9838 4.45455   1 
   3  -6   6 26.5767 5.39977   9 
  -4   6  -6 108.335 9.46817   3 
  -4   6  -6 121.486 10.8862   2 
  -4   6  -6 112.583 9.68909  11 
  -4   6  -6 123.758 9.93662   1 
   4  -6   6 126.184 9.46181   1 
   4  -6   6 116.368 10.0606   9 
   4  -6   6 123.347 10.4013   3 
   4  -6   6 148.129 10.3992   5 
  -5   6  -6 125.443 10.9205   3 
  -5   6  -6 133.544 11.2163   1 
  -5   6  -6 134.327 11.3843  11 
   5  -6   6 131.382 11.4373   3 
   5  -6   6 136.407 10.5520   1 
  -6   6  -6 54.6378 8.70541  11 
  -6   6  -6 49.3807 8.33929   1 
  -6   6  -6 44.7209 7.98361   3 
   6  -6   6 58.7078 8.36220   1 
   6  -6   6 39.1536 8.07636   3 
  -7   6  -6 5.23488 4.61552   1 
  -7   6  -6 5.25818 4.80901  11 
   7  -6   6 7.56895 5.27037   3 
   7  -6   6 7.56124 5.10223   1 
  -8   6  -6 19.6672 6.72780   1 
  -8   6  -6 19.3834 7.89805  11 
   8  -6   6 16.9498 6.90014   1 
   8   5  -6 22.2763 7.05318   1 
  -8  -5   6 29.1567 6.33472   1 
  -8  -5   6 24.7278 6.42000   7 
  -8  -5   6 14.7538 6.10967   4 
  -8  -5   6 11.3432 5.17765   5 
  -8  -5   6 18.4394 6.07184  14 
   7   5  -6 46.6801 8.49166   1 
   7   5  -6 71.4943 10.1764   2 
  -7  -5   6 70.5707 8.06767   7 
  -7  -5   6 61.5357 7.78946   1 
  -7  -5   6 54.6758 7.84312   5 
  -7  -5   6 59.0258 9.03629   4 
  -7  -5   6 54.3545 7.19948   1 
  -7  -5   6 40.9352 7.02749  14 
   6   5  -6 49.1947 7.60322   1 
   6   5  -6 49.8961 8.67166   2 
  -6  -5   6 43.6034 6.46319   5 
  -6  -5   6 40.5603 6.25766   1 
  -6  -5   6 42.5682 5.90136   7 
  -6  -5   6 35.2269 7.32380   4 
  -6  -5   6 42.9492 6.35233  14 
   5   5  -6 15.8872 5.28040   2 
   5   5  -6 17.9677 4.81199   1 
  -5  -5   6 22.1593 5.58047   4 
  -5  -5   6 23.9552 4.93733   1 
  -5  -5   6 18.8277 4.12167   7 
  -5  -5   6 17.6272 4.20801  14 
  -5  -5   6 23.4589 5.30941   5 
   4   5  -6 90.2146 9.25616   2 
   4   5  -6 91.8677 8.37116   3 
   4   5  -6 100.069 8.74720   1 
  -4  -5   6 105.831 7.73278   1 
  -4  -5   6 107.017 7.28545   7 
  -4  -5   6 115.953 8.29428   5 
  -4  -5   6 114.088 7.85384  14 
  -4  -5   6 108.333 8.00129   5 
   3   5  -6 315.411 16.6869   2 
   3   5  -6 304.181 15.2716   1 
   3   5  -6 323.870 15.6798   3 
   3   5  -6 326.898 16.3134   8 
  -3  -5   6 320.449 14.5136  14 
  -3  -5   6 319.115 13.8875   7 
  -3  -5   6 328.495 15.0202  14 
  -3  -5   6 316.561 14.4940   1 
  -3  -5   6 331.800 15.3370   5 
  -3  -5   6 322.553 14.9045   5 
   2   5  -6 396.343 18.5356   2 
   2   5  -6 406.278 17.4801   3 
   2   5  -6 418.285 16.2496  11 
   2   5  -6 417.871 18.2116   8 
   2   5  -6 394.845 17.2290   1 
  -2  -5   6 377.941 15.6038   7 
  -2  -5   6 380.987 16.8111   5 
  -2  -5   6 385.779 16.4035  14 
  -2  -5   6 391.910 15.1114  12 
  -2  -5   6 386.957 16.8701   5 
  -2  -5   6 373.609 16.2779  14 
  -2  -5   6 382.411 16.4272   1 
   1   5  -6 101.018 6.65642  11 
   1   5  -6 99.1347 7.24750   1 
   1   5  -6 107.096 8.27140   2 
   1   5  -6 98.2511 7.30912   5 
   1   5  -6 108.163 8.20437   2 
   1   5  -6 99.0701 7.65861   8 
   1   5  -6 96.0082 6.93695  14 
   1   5  -6 99.7674 7.45645   3 
  -1  -5   6 98.2007 6.94439   5 
  -1  -5   6 99.2644 6.09712   7 
  -1  -5   6 98.6635 6.66760  14 
  -1  -5   6 98.8579 7.39523   3 
  -1  -5   6 87.0134 7.03025   9 
  -1  -5   6 92.4193 6.50602  14 
  -1  -5   6 97.0636 6.68418   1 
  -1  -5   6 101.204 6.94262   5 
   0   5  -6 130.666 8.76800   3 
   0   5  -6 147.828 8.53540  11 
   0   5  -6 149.932 8.90421  14 
   0   5  -6 143.866 9.40515   8 
   0   5  -6 159.398 10.3390   2 
   0   5  -6 136.019 8.83363   1 
   0   5  -6 143.238 9.83616   2 
   0   5  -6 143.679 5.86541   6 
   0   5  -6 153.697 9.29560   5 
   0  -5   6 151.108 8.70963   5 
   0  -5   6 161.415 8.14651   7 
   0  -5   6 152.969 8.54574   1 
   0  -5   6 159.653 8.67388  14 
   0  -5   6 147.420 8.66196   5 
   0  -5   6 137.558 8.97460   9 
   0  -5   6 146.678 8.38389  14 
  -1   5  -6 350.286 15.4801   5 
  -1   5  -6 335.850 14.9473  14 
  -1   5  -6 313.035 11.7612  13 
  -1   5  -6 298.221 14.6988   1 
  -1   5  -6 325.520 14.8818  11 
  -1   5  -6 332.603 15.3383   3 
  -1   5  -6 302.284 15.8438   2 
   1  -5   6 308.659 14.2890   1 
   1  -5   6 317.756 14.5425   5 
   1  -5   6 320.684 14.1880  14 
   1  -5   6 313.352 14.7918   8 
   1  -5   6 316.247 15.4259   2 
   1  -5   6 306.600 14.3909   5 
   1  -5   6 308.376 14.9673   9 
  -2   5  -6 357.713 16.6274   3 
  -2   5  -6 359.515 17.7649   2 
  -2   5  -6 355.441 15.9991  14 
  -2   5  -6 339.022 16.1348  11 
  -2   5  -6 369.224 16.5605   5 
  -2   5  -6 327.275 15.9094   1 
   2  -5   6 347.618 17.1244   2 
   2  -5   6 343.278 15.7680   5 
   2  -5   6 308.199 15.1193   1 
   2  -5   6 348.364 16.1085   5 
   2  -5   6 325.401 16.1293   9 
  -3   5  -6 18.2050 4.11941   1 
  -3   5  -6 25.5406 5.32064   2 
  -3   5  -6 18.4528 4.31442  11 
  -3   5  -6 21.2021 4.72554   3 
  -3   5  -6 20.4485 4.30659  14 
   3  -5   6 6.12692 2.84929   1 
   3  -5   6 18.6271 4.35807   5 
   3  -5   6 12.1879 3.91796   9 
   3  -5   6 9.75437 3.50948   2 
  -4   5  -6 78.7799 7.95015   3 
  -4   5  -6 80.7356 8.72812   2 
  -4   5  -6 69.1871 9.80922  14 
  -4   5  -6 81.7861 8.17844  11 
  -4   5  -6 86.6126 8.11737   1 
   4  -5   6 59.6980 6.91948   1 
   4  -5   6 77.6120 7.86294   5 
   4  -5   6 76.0239 8.26949   3 
  -5   5  -6 43.6855 7.03273   1 
  -5   5  -6 45.8405 7.37790  11 
  -5   5  -6 40.3492 7.07586   3 
   5  -5   6 44.5712 6.94732   1 
   5  -5   6 54.3314 7.54580   3 
  -6   5  -6 25.0247 6.24365   1 
  -6   5  -6 28.7886 7.16833  11 
  -6   5  -6 26.7188 6.45327   3 
   6  -5   6 25.4365 6.71683   3 
   6  -5   6 33.2024 6.97452   1 
  -7   5  -6 0.09971 4.52734  11 
  -7   5  -6 2.33634 4.16254   1 
  -7   5  -6 4.88036 4.77734   3 
   7  -5   6 5.71407 4.80689   1 
  -8   5  -6 5.70651 4.99119   1 
  -8   5  -6 -1.8688 5.25821  11 
   8  -5   6 23.2375 7.68127   1 
   8   4  -6 19.4472 6.11237   1 
  -8  -4   6 25.4014 6.40296  14 
  -8  -4   6 32.9254 7.03810   7 
  -8  -4   6 21.1331 5.77335   1 
  -8  -4   6 38.9499 7.56170   1 
  -8  -4   6 39.6665 8.04406   4 
   7   4  -6 58.9625 9.60428   2 
   7   4  -6 51.7007 8.30355   1 
  -7  -4   6 51.9754 7.40479   1 
  -7  -4   6 47.9817 6.99817   7 
  -7  -4   6 53.7020 7.62806   5 
  -7  -4   6 46.7790 7.31632  14 
  -7  -4   6 40.2146 7.49278   4 
   6   4  -6 46.9107 7.37502   1 
   6   4  -6 55.1694 8.30943   2 
  -6  -4   6 47.5223 6.43467   7 
  -6  -4   6 46.7406 6.48631   5 
  -6  -4   6 54.2423 7.14313   4 
  -6  -4   6 55.1751 6.86498   1 
  -6  -4   6 53.2808 6.72729  14 
   5   4  -6 55.6873 7.74947   2 
   5   4  -6 48.6955 6.82722   1 
   5   4  -6 49.3111 6.77344   3 
  -5  -4   6 61.3399 6.47246  14 
  -5  -4   6 58.9613 5.90839   7 
  -5  -4   6 59.0459 6.47783   5 
  -5  -4   6 70.8969 6.83771   1 
   4   4  -6 136.594 9.81097   3 
   4   4  -6 128.415 10.4409   2 
   4   4  -6 156.551 10.2595   1 
  -4  -4   6 155.795 9.59022   5 
  -4  -4   6 146.022 8.79386   7 
  -4  -4   6 144.273 9.27082   1 
  -4  -4   6 149.194 9.15943  14 
  -4  -4   6 143.376 9.31053   5 
   3   4  -6 193.905 11.8964   2 
   3   4  -6 183.971 11.2469   8 
   3   4  -6 189.068 10.8578   3 
   3   4  -6 179.652 10.4754  14 
   3   4  -6 169.333 10.3774   1 
  -3  -4   6 190.475 10.5648   5 
  -3  -4   6 189.344 10.0039  14 
  -3  -4   6 186.546 9.60877   7 
  -3  -4   6 163.722 9.74156   1 
  -3  -4   6 190.381 10.4181   5 
  -3  -4   6 200.023 10.3923  14 
   2   4  -6 380.140 17.2780   2 
   2   4  -6 378.620 17.1599   2 
   2   4  -6 394.645 16.5037   3 
   2   4  -6 382.352 16.1934   5 
   2   4  -6 376.628 15.2389  11 
   2   4  -6 364.614 15.8319   1 
   2   4  -6 373.480 17.0491   2 
   2   4  -6 367.147 16.5176   8 
   2   4  -6 402.369 16.0480  14 
  -2  -4   6 337.970 15.6493   9 
  -2  -4   6 336.278 14.4180   7 
  -2  -4   6 337.134 15.0125  14 
  -2  -4   6 346.700 15.6897   5 
  -2  -4   6 329.927 15.2713   5 
  -2  -4   6 330.501 15.3551  14 
  -2  -4   6 338.845 16.4769   2 
  -2  -4   6 301.626 14.8123   1 
   1   4  -6 96.9485 6.61921  11 
   1   4  -6 92.8279 6.83414   5 
   1   4  -6 104.845 11.8640   2 
   1   4  -6 96.2155 6.66753  14 
   1   4  -6 93.9715 7.24309   8 
   1   4  -6 94.2873 6.84069   1 
   1   4  -6 97.5045 7.10845   3 
   1   4  -6 84.8415 7.17903   2 
  -1  -4   6 91.5794 5.87704   7 
  -1  -4   6 95.2049 6.51542   1 
  -1  -4   6 92.9053 6.52818   5 
  -1  -4   6 96.6424 6.36505  14 
  -1  -4   6 86.9167 6.42344   5 
  -1  -4   6 86.5327 6.51916   9 
  -1  -4   6 89.9896 7.02232   2 
   0   4  -6 529.921 21.1435  11 
   0   4  -6 517.069 21.7406   8 
   0   4  -6 540.890 22.6386   2 
   0   4  -6 559.079 21.6656   5 
   0   4  -6 504.939 21.1400   1 
   0   4  -6 523.835 21.5620   3 
   0   4  -6 567.701 21.8487   5 
   0   4  -6 542.760 21.2528  14 
   0  -4   6 578.316 22.7957   2 
   0  -4   6 534.942 21.1115   5 
   0  -4   6 554.102 21.2433   5 
   0  -4   6 574.705 21.0922  14 
   0  -4   6 550.900 21.3973   9 
   0  -4   6 533.220 20.8724   1 
   0  -4   6 549.035 22.4371   2 
  -1   4  -6 574.786 22.8295   5 
  -1   4  -6 608.502 22.7562  14 
  -1   4  -6 582.067 24.0301   2 
  -1   4  -6 560.114 22.7392  11 
  -1   4  -6 538.453 22.3525   1 
  -1   4  -6 577.685 23.0490   3 
  -1   4  -6 561.644 18.4836  13 
  -1   4  -6 565.470 22.6304   5 
   1  -4   6 589.185 22.5874   5 
   1  -4   6 588.465 23.7110   2 
   1  -4   6 597.460 22.1942  14 
   1  -4   6 567.212 22.0872   1 
   1  -4   6 546.583 22.3252   9 
   1  -4   6 574.760 21.9721  14 
  -2   4  -6 160.522 9.69025   5 
  -2   4  -6 146.481 9.75165   3 
  -2   4  -6 171.680 11.1621   2 
  -2   4  -6 148.481 9.66402   5 
  -2   4  -6 182.263 9.98713  14 
  -2   4  -6 162.967 10.1513  11 
  -2   4  -6 167.198 9.93955   1 
   2  -4   6 155.306 9.50546   1 
   2  -4   6 159.179 9.72943   5 
   2  -4   6 163.706 9.97492   9 
   2  -4   6 162.774 10.7058   2 
  -3   4  -6 42.1470 5.65385  11 
  -3   4  -6 28.6942 4.81862  14 
  -3   4  -6 33.9320 5.08114   1 
  -3   4  -6 40.8784 5.98348   2 
  -3   4  -6 48.9988 5.81316   5 
  -3   4  -6 42.4862 5.71700   3 
   3  -4   6 25.7769 4.63419   1 
   3  -4   6 30.6591 5.23076   2 
   3  -4   6 32.8955 2.40963   6 
   3  -4   6 26.6961 4.69437   5 
  -4   4  -6 118.429 9.13689  14 
  -4   4  -6 128.201 10.1503   3 
  -4   4  -6 148.697 12.2130   5 
  -4   4  -6 115.845 9.24429   1 
  -4   4  -6 126.634 10.1533  11 
   4  -4   6 116.088 9.65602   3 
   4  -4   6 113.919 9.31969   1 
   4  -4   6 124.781 10.3784   2 
  -5   4  -6 148.007 10.9196  14 
  -5   4  -6 146.592 11.1676   1 
  -5   4  -6 145.291 11.8673   3 
  -5   4  -6 150.072 12.1569  11 
   5  -4   6 155.531 12.1218   3 
   5  -4   6 164.999 11.8351   1 
  -6   4  -6 33.2771 7.36739   3 
  -6   4  -6 38.9012 7.38113   1 
  -6   4  -6 43.6994 8.17159  11 
   6  -4   6 46.5963 7.82647   1 
   6  -4   6 43.2833 7.76436   3 
  -7   4  -6 12.8582 6.12063   3 
  -7   4  -6 15.9918 5.38631   1 
  -7   4  -6 3.85098 5.12839  11 
   7  -4   6 3.84553 4.42203   1 
  -8   4  -6 -1.1406 5.34983  11 
  -8   4  -6 18.7955 6.69803   1 
   8  -4   6 19.3692 7.51491   1 
   9   3  -6 7.71567 5.49407   1 
  -9  -3   6 11.3656 5.25695  14 
  -9  -3   6 20.8855 6.53546   7 
  -9  -3   6 17.0716 5.86305   1 
   8   3  -6 64.9110 9.59190   1 
  -8  -3   6 58.7309 8.85173   7 
  -8  -3   6 42.6387 7.79517  14 
  -8  -3   6 52.1131 8.01257   1 
  -8  -3   6 40.0958 7.44488   4 
  -8  -3   6 62.9923 9.46922   3 
   7   3  -6 59.7243 8.37589   1 
  -7  -3   6 43.7047 6.87878  14 
  -7  -3   6 51.6700 7.17963   7 
  -7  -3   6 54.6012 7.41235   1 
  -7  -3   6 51.3690 7.29313   4 
   6   3  -6 27.1812 6.11406   2 
   6   3  -6 20.8465 5.33807   3 
   6   3  -6 19.0321 5.12391   1 
  -6  -3   6 13.1195 3.98221  14 
  -6  -3   6 15.3109 4.14603   7 
  -6  -3   6 12.0952 4.08531   1 
  -6  -3   6 13.0139 4.16168   5 
   5   3  -6 3.79798 3.14426   1 
   5   3  -6 13.8107 4.03324   3 
   5   3  -6 6.80088 3.72711   2 
  -5  -3   6 9.26841 3.10705   7 
  -5  -3   6 5.73103 2.80337  14 
  -5  -3   6 11.5885 3.63498   5 
  -5  -3   6 10.4941 3.40936   1 
   4   3  -6 324.445 15.8504   1 
   4   3  -6 332.660 17.1398   2 
   4   3  -6 356.809 16.6472   3 
   4   3  -6 338.418 15.8754  14 
  -4  -3   6 334.153 15.6154   5 
  -4  -3   6 317.471 15.4906   5 
  -4  -3   6 343.446 15.3172  14 
  -4  -3   6 326.688 16.7746   2 
  -4  -3   6 336.816 14.9147   7 
  -4  -3   6 323.510 15.2479   1 
   3   3  -6 802.922 30.6097   8 
   3   3  -6 797.691 30.0890   3 
   3   3  -6 805.375 31.1948   2 
   3   3  -6 824.292 29.6572  14 
   3   3  -6 765.937 29.4031   1 
   3   3  -6 843.245 30.2942   5 
   3   3  -6 806.402 29.7226   5 
  -3  -3   6 779.551 29.2490   1 
  -3  -3   6 818.737 28.8235   7 
  -3  -3   6 781.323 29.4991   5 
  -3  -3   6 812.375 31.1997   2 
  -3  -3   6 813.802 29.8222   5 
  -3  -3   6 809.952 29.1814  14 
   2   3  -6 362.734 15.2599  11 
   2   3  -6 344.791 15.3947   5 
   2   3  -6 345.076 15.2251   1 
   2   3  -6 350.363 16.3098   2 
   2   3  -6 359.625 15.9395   3 
   2   3  -6 356.826 15.2143  14 
   2   3  -6 349.602 15.8912   8 
   2   3  -6 349.058 15.2541   5 
  -2  -3   6 350.944 16.3093   2 
  -2  -3   6 346.923 15.0250  14 
  -2  -3   6 349.825 14.8770   9 
  -2  -3   6 356.259 15.1394   1 
  -2  -3   6 355.911 15.3214   5 
  -2  -3   6 339.079 14.3834   7 
   1   3  -6 11.8319 3.19885   8 
   1   3  -6 15.7759 3.30900   1 
   1   3  -6 11.9007 3.44910   2 
   1   3  -6 13.6368 3.12538  14 
   1   3  -6 14.9130 2.86304   5 
   1   3  -6 19.6730 3.52435  11 
   1   3  -6 14.9023 3.37059   3 
   1   3  -6 13.5933 3.01645   5 
  -1  -3   6 22.0655 3.19048   7 
  -1  -3   6 26.6054 3.61611   1 
  -1  -3   6 23.4938 3.33775   9 
  -1  -3   6 22.9401 3.74532   2 
  -1  -3   6 21.3693 3.24333   5 
  -1  -3   6 20.1484 3.20183  14 
  -1  -3   6 20.3183 3.21710  14 
   0   3  -6 285.003 13.3527   5 
   0   3  -6 286.539 13.8657   8 
   0   3  -6 284.919 13.5545   5 
   0   3  -6 291.775 13.6180  11 
   0   3  -6 290.382 13.2550  14 
   0   3  -6 300.562 13.9269   3 
   0   3  -6 290.686 14.2725   2 
   0   3  -6 289.533 13.3414   1 
   0  -3   6 301.395 13.4048   5 
   0  -3   6 298.944 12.9757   9 
   0  -3   6 309.189 13.1590  14 
   0  -3   6 302.647 14.2969   2 
   0  -3   6 298.085 13.3489   1 
   0  -3   6 322.954 14.7935   5 
  -1   3  -6 295.330 14.7564   2 
  -1   3  -6 300.337 13.6031  14 
  -1   3  -6 281.747 13.7044   5 
  -1   3  -6 267.635 13.7506  11 
  -1   3  -6 281.687 13.9262   3 
  -1   3  -6 261.659 13.2266   1 
   1  -3   6 294.268 13.3263   9 
   1  -3   6 307.787 13.7899   5 
   1  -3   6 293.499 13.3740   1 
   1  -3   6 304.340 14.7532   2 
   1  -3   6 306.440 13.7026   5 
  -2   3  -6 311.314 15.3305  11 
  -2   3  -6 317.962 14.7553   1 
  -2   3  -6 320.078 14.4882  14 
  -2   3  -6 333.635 16.2316   2 
  -2   3  -6 332.533 15.4422   3 
  -2   3  -6 334.830 15.1429   5 
   2  -3   6 296.839 14.4944   1 
   2  -3   6 294.201 14.5506   5 
   2  -3   6 293.723 14.3928   5 
   2  -3   6 302.176 15.7779   2 
  -3   3  -6 71.5317 6.52481  14 
  -3   3  -6 68.3246 6.90288   3 
  -3   3  -6 79.8581 6.99765   1 
  -3   3  -6 63.7977 7.06702   2 
  -3   3  -6 72.9725 6.80397   5 
   3  -3   6 58.3112 6.83775   2 
   3  -3   6 55.7407 6.15931   1 
   3  -3   6 66.1684 6.60970   5 
  -4   3  -6 163.274 10.7062   5 
  -4   3  -6 142.512 10.9182   3 
  -4   3  -6 156.117 11.3593  11 
  -4   3  -6 160.187 10.5059   1 
  -4   3  -6 151.534 10.2348  14 
   4  -3   6 143.044 10.5956   3 
   4  -3   6 148.370 11.4303   2 
   4  -3   6 149.241 10.4914   1 
  -5   3  -6 103.588 9.05435  14 
  -5   3  -6 100.393 10.2476   3 
  -5   3  -6 96.9509 9.87609  11 
  -5   3  -6 99.6789 9.20223   1 
  -5   3  -6 107.810 11.2679   5 
   5  -3   6 108.756 10.4787   2 
   5  -3   6 122.790 10.5001   3 
   5  -3   6 111.667 9.82879   1 
  -6   3  -6 12.2038 4.19050  14 
  -6   3  -6 15.5063 5.67318  11 
  -6   3  -6 9.34533 4.74940   3 
  -6   3  -6 10.1749 4.43713   1 
   6  -3   6 11.1806 4.64633   1 
  -7   3  -6 11.2453 4.89587   1 
  -7   3  -6 14.7904 6.25396   3 
  -7   3  -6 6.97284 5.51050  11 
  -7   3  -6 2.58147 3.72378  14 
   7  -3   6 1.82782 4.05414   1 
  -8   3  -6 23.8020 6.71369   1 
  -8   3  -6 25.7111 8.33961  11 
   8  -3   6 34.0231 10.0167   1 
   9   2  -6 7.26083 5.30047   1 
  -9  -2   6 10.8368 5.29982   7 
  -9  -2   6 13.2102 5.49583   1 
  -9  -2   6 13.0991 5.50589   1 
   8   2  -6 1.70120 3.79815   1 
  -8  -2   6 -0.2360 3.12516  14 
  -8  -2   6 4.97938 4.01271   7 
  -8  -2   6 5.37713 4.15226   1 
  -8  -2   6 5.07777 4.38179   3 
  -8  -2   6 3.87463 3.66588   4 
   7   2  -6 27.9542 6.14726   1 
   7   2  -6 37.9891 7.01517   3 
  -7  -2   6 24.5016 5.56596   4 
  -7  -2   6 35.3329 6.37443   7 
  -7  -2   6 34.4557 6.07146  14 
  -7  -2   6 17.9749 4.95095   1 
   6   2  -6 134.435 11.1126   2 
   6   2  -6 128.742 10.5385   3 
   6   2  -6 119.505 9.88131   1 
  -6  -2   6 114.126 8.83894   7 
  -6  -2   6 126.267 9.34335  14 
  -6  -2   6 118.065 9.41430   1 
  -6  -2   6 113.048 9.20840   5 
   5   2  -6 179.545 11.2627   1 
   5   2  -6 173.304 10.9101  14 
   5   2  -6 162.123 11.4001   3 
   5   2  -6 177.527 12.1847   2 
  -5  -2   6 169.469 10.3900  14 
  -5  -2   6 184.106 10.9288   5 
  -5  -2   6 179.710 10.5109   7 
  -5  -2   6 178.626 10.8425   1 
  -5  -2   6 179.075 8.20618  12 
  -5  -2   6 193.657 12.6706   2 
   4   2  -6 39.9850 5.55170   2 
   4   2  -6 41.9225 5.58626   3 
   4   2  -6 44.8573 5.41862   1 
   4   2  -6 41.9766 5.58366   8 
   4   2  -6 42.8856 5.29173  14 
  -4  -2   6 56.3033 5.29060   7 
  -4  -2   6 51.0351 5.28474   1 
  -4  -2   6 64.4819 5.59275  14 
   3   2  -6 157.174 9.42684   1 
   3   2  -6 163.780 10.2825   2 
   3   2  -6 156.780 9.22334  14 
   3   2  -6 172.918 9.99659   3 
   3   2  -6 155.403 9.18014   5 
   3   2  -6 167.059 9.72274   5 
   3   2  -6 163.020 9.90564   8 
  -3  -2   6 169.440 9.46092   5 
  -3  -2   6 163.594 9.06981  14 
  -3  -2   6 190.500 10.8648   2 
  -3  -2   6 171.468 9.16156   7 
   2   2  -6 193.295 10.1974   1 
   2   2  -6 193.883 10.6171   3 
   2   2  -6 205.500 10.4672   5 
   2   2  -6 199.664 10.4337  11 
   2   2  -6 195.734 10.0400  14 
   2   2  -6 200.696 10.6977   8 
   2   2  -6 188.320 10.8726   2 
  -2  -2   6 198.018 9.42578   9 
  -2  -2   6 191.711 9.61240   7 
  -2  -2   6 224.030 10.7370   5 
  -2  -2   6 204.509 10.2138   1 
  -2  -2   6 196.072 9.86878  14 
  -2  -2   6 208.877 11.1867   2 
  -2  -2   6 200.122 10.1785   5 
   1   2  -6 333.022 14.5600   1 
   1   2  -6 334.142 15.5262   2 
   1   2  -6 328.206 15.0208   3 
   1   2  -6 338.250 14.5205  14 
   1   2  -6 332.021 14.9871   8 
   1   2  -6 349.540 11.9487   6 
   1   2  -6 320.296 14.7481  11 
   1   2  -6 337.197 14.8536   5 
  -1  -2   6 360.638 14.5505  14 
  -1  -2   6 368.163 14.6393   7 
  -1  -2   6 362.051 14.9080   5 
  -1  -2   6 367.397 15.1144   5 
  -1  -2   6 356.129 14.6623   1 
  -1  -2   6 349.798 13.9331   9 
  -1  -2   6 370.126 16.1159   2 
   0   2  -6 350.835 15.5620  11 
   0   2  -6 351.864 15.9375   2 
   0   2  -6 349.704 15.1465   5 
   0   2  -6 360.148 15.6371   3 
   0   2  -6 342.448 14.8177   1 
   0   2  -6 338.260 14.6209  14 
   0   2  -6 355.265 16.4837   5 
   0  -2   6 356.470 14.6972  14 
   0  -2   6 369.127 15.2928   5 
   0  -2   6 339.044 15.7555   2 
   0  -2   6 353.645 14.8317   1 
   0  -2   6 361.496 15.1046   5 
   0  -2   6 348.086 14.1342   9 
  -1   2  -6 386.021 16.3719   1 
  -1   2  -6 377.331 16.8462   3 
  -1   2  -6 393.506 16.3300  14 
  -1   2  -6 369.381 16.2527   5 
  -1   2  -6 382.013 16.5828   5 
  -1   2  -6 405.375 17.7522   2 
   1  -2   6 396.682 16.5112   1 
   1  -2   6 381.328 17.5463   2 
   1  -2   6 393.688 16.5945   5 
   1  -2   6 399.724 16.6004   5 
  -2   2  -6 218.275 11.1906  14 
  -2   2  -6 207.463 11.9580  11 
  -2   2  -6 225.624 11.6287   5 
  -2   2  -6 218.254 11.4720   5 
  -2   2  -6 216.475 11.9020   3 
  -2   2  -6 207.736 11.1237   1 
  -2   2  -6 213.750 12.2650   2 
   2  -2   6 215.876 12.5399   2 
   2  -2   6 217.712 11.6440   5 
   2  -2   6 217.413 8.11304   6 
   2  -2   6 223.567 11.6127   1 
  -3   2  -6 157.825 9.66598  14 
  -3   2  -6 141.604 9.38360   1 
  -3   2  -6 164.455 10.0790   5 
  -3   2  -6 155.964 9.89028   5 
  -3   2  -6 155.436 10.4843   3 
  -3   2  -6 148.412 10.5299  11 
   3  -2   6 163.944 11.1951   2 
   3  -2   6 167.335 10.2512   1 
  -4   2  -6 127.337 9.30579  14 
  -4   2  -6 128.460 10.5421  11 
  -4   2  -6 132.077 9.67690   5 
  -4   2  -6 130.015 10.3831   3 
  -4   2  -6 138.469 9.73656   1 
   4  -2   6 152.996 10.4088   1 
   4  -2   6 141.314 11.1691   2 
  -5   2  -6 41.5170 6.35349   5 
  -5   2  -6 37.8849 7.19060   3 
  -5   2  -6 50.3577 6.75217  14 
  -5   2  -6 47.1966 6.76512   1 
  -5   2  -6 51.8507 7.74331  11 
   5  -2   6 43.1801 7.26005   2 
   5  -2   6 48.1264 6.97468   1 
  -6   2  -6 28.8134 5.96120  14 
  -6   2  -6 23.2369 5.58494   1 
  -6   2  -6 32.5534 7.24992   3 
  -6   2  -6 34.9312 7.68455  11 
  -6   2  -6 28.6763 7.24291   5 
   6  -2   6 27.1461 6.47013   1 
  -7   2  -6 9.64845 4.80387  14 
  -7   2  -6 7.83949 5.66344  11 
  -7   2  -6 12.8093 5.09991   1 
   7  -2   6 12.7906 5.75814   1 
   9   1  -6 6.23825 5.00030   1 
  -9  -1   6 2.15307 3.66936   1 
  -9  -1   6 -0.9039 3.68887   3 
  -9  -1   6 3.90527 4.20891   7 
   8   1  -6 10.3445 4.80786   1 
  -8  -1   6 10.3392 3.93281   4 
  -8  -1   6 3.98453 3.77698   1 
  -8  -1   6 1.94362 3.25695   7 
  -8  -1   6 5.86233 4.07402   3 
   7   1  -6 118.287 10.3738   1 
   7   1  -6 119.820 10.9290   3 
  -7  -1   6 90.9341 9.01584   7 
  -7  -1   6 99.3866 9.11050  14 
  -7  -1   6 117.230 10.0566   1 
   6   1  -6 156.463 13.9589   2 
   6   1  -6 162.792 11.0351   1 
   6   1  -6 175.205 12.1438   3 
   6   1  -6 171.399 11.2056  14 
  -6  -1   6 146.618 8.17702  12 
  -6  -1   6 138.077 9.76798   7 
  -6  -1   6 158.378 10.3677  14 
  -6  -1   6 146.991 10.3882   1 
   5   1  -6 52.7052 6.06186   1 
   5   1  -6 52.8975 5.92558  14 
   5   1  -6 50.7178 6.53550   2 
   5   1  -6 46.5774 6.10395   3 
  -5  -1   6 45.4888 5.42075   7 
  -5  -1   6 45.6047 4.27076  12 
  -5  -1   6 47.7178 5.63156   1 
  -5  -1   6 51.2410 6.43587   2 
  -5  -1   6 52.2538 5.66812  14 
   4   1  -6 21.1497 4.03439   1 
   4   1  -6 29.5737 4.34480  14 
   4   1  -6 28.6574 4.76110   8 
   4   1  -6 28.0124 2.64706  10 
   4   1  -6 25.3788 4.42601   2 
   4   1  -6 24.4834 4.42622   3 
  -4  -1   6 23.5266 3.88202   7 
  -4  -1   6 27.5158 4.10925   5 
  -4  -1   6 28.0557 4.03728   5 
  -4  -1   6 27.8462 3.94587  14 
  -4  -1   6 26.9203 4.00395   1 
   3   1  -6 248.002 12.8322   2 
   3   1  -6 235.831 11.6866   1 
   3   1  -6 234.915 11.9000   5 
   3   1  -6 232.048 11.9998   8 
   3   1  -6 241.903 12.1692   3 
   3   1  -6 232.136 11.4536  14 
   3   1  -6 240.637 11.3531  14 
  -3  -1   6 250.103 12.0523   5 
  -3  -1   6 239.936 12.7812   2 
  -3  -1   6 222.847 11.1105   7 
   2   1  -6 443.582 17.6314   5 
   2   1  -6 433.605 18.3540   2 
   2   1  -6 423.090 17.2024   1 
   2   1  -6 441.072 17.8935   8 
   2   1  -6 434.851 17.3157   5 
   2   1  -6 438.942 17.1995  14 
   2   1  -6 431.582 17.9761   3 
   2   1  -6 433.782 17.9897  11 
  -2  -1   6 415.520 17.0404   1 
  -2  -1   6 434.464 17.1589   7 
  -2  -1   6 436.065 17.6652   5 
  -2  -1   6 426.290 17.3457   5 
  -2  -1   6 431.727 18.4658   2 
  -2  -1   6 432.364 16.9931  14 
  -2  -1   6 411.431 18.2625   2 
   1   1  -6 33.1571 3.67770   5 
   1   1  -6 29.5744 4.12009  11 
   1   1  -6 30.7003 4.16645   3 
   1   1  -6 29.4976 3.91184   8 
   1   1  -6 26.8043 3.79657   2 
   1   1  -6 29.2285 3.66790   1 
   1   1  -6 25.3817 3.63210   5 
   1   1  -6 28.3387 2.39832   6 
   1   1  -6 26.5971 3.60537  14 
  -1  -1   6 47.9729 4.32948   5 
  -1  -1   6 49.3754 5.05600   2 
  -1  -1   6 44.1451 3.43223   9 
  -1  -1   6 46.2078 4.13117  14 
  -1  -1   6 45.5086 4.28472   7 
  -1  -1   6 47.9106 4.36266   1 
   0   1  -6 117.228 4.84940   6 
   0   1  -6 119.104 7.57142   3 
   0   1  -6 112.561 6.98957   5 
   0   1  -6 130.375 7.12475  14 
   0   1  -6 127.870 8.07779  11 
   0   1  -6 120.824 7.03753   1 
   0   1  -6 132.627 7.33286   5 
   0   1  -6 113.655 5.61184  13 
   0  -1   6 104.650 7.63898   2 
   0  -1   6 99.6444 7.40548   2 
   0  -1   6 102.912 6.79910   5 
   0  -1   6 92.8549 6.55561   1 
   0  -1   6 94.0667 5.85060   9 
  -1   1  -6 311.975 13.7759   5 
  -1   1  -6 294.504 13.1369   1 
  -1   1  -6 288.062 13.1225  14 
  -1   1  -6 303.971 14.5845  11 
  -1   1  -6 304.889 14.2283   3 
  -1   1  -6 275.194 13.6997   3 
  -1   1  -6 291.938 13.3475   5 
  -1   1  -6 296.106 10.9853  13 
   1  -1   6 321.138 11.9363   6 
   1  -1   6 304.262 14.8017   2 
   1  -1   6 301.413 14.7308   2 
   1  -1   6 313.135 13.6534   1 
   1  -1   6 299.742 13.6188   5 
  -2   1  -6 61.4683 5.70501   5 
  -2   1  -6 53.0952 5.89799   3 
  -2   1  -6 67.2619 5.78397  14 
  -2   1  -6 63.6489 5.65842   1 
  -2   1  -6 59.7045 6.38322  11 
  -2   1  -6 70.3512 7.26004   3 
  -2   1  -6 60.2439 5.46398   5 
   2  -1   6 56.3776 6.24136   2 
   2  -1   6 69.7676 6.79094   2 
   2  -1   6 64.4357 5.84436   5 
   2  -1   6 61.5801 5.84052   1 
  -3   1  -6 72.5490 7.33302   3 
  -3   1  -6 72.9060 7.48411  11 
  -3   1  -6 74.7720 6.39075  14 
  -3   1  -6 70.1090 6.41703   5 
  -3   1  -6 73.1519 6.38043   1 
   3  -1   6 97.3689 8.61865   2 
   3  -1   6 79.1916 7.01953   1 
  -4   1  -6 80.3739 8.37931   3 
  -4   1  -6 93.9533 9.06883  11 
  -4   1  -6 94.9786 7.64230   1 
  -4   1  -6 74.3647 7.18706   5 
  -4   1  -6 67.6012 6.83360  14 
   4  -1   6 84.2339 7.96562   1 
   4  -1   6 77.2618 8.57391   2 
  -5   1  -6 18.5476 4.44234  14 
  -5   1  -6 15.2824 4.47604   1 
  -5   1  -6 16.4920 5.41356  11 
  -5   1  -6 17.6379 5.29871   3 
  -5   1  -6 6.82443 3.37384   5 
   5  -1   6 17.1350 5.04260   1 
   5  -1   6 11.2845 4.41885   2 
  -6   1  -6 0.15620 4.22117  11 
  -6   1  -6 -0.6443 2.62944  14 
  -6   1  -6 0.50330 3.32922   5 
  -6   1  -6 2.88670 3.92089   3 
  -6   1  -6 1.07099 2.77351   1 
   6  -1   6 -2.7260 2.49834   2 
   6  -1   6 0.41199 3.23368   1 
  -7   1  -6 16.1532 5.15997  14 
  -7   1  -6 24.9442 7.78456  11 
  -7   1  -6 20.1724 5.56288   5 
  -7   1  -6 16.3008 5.38157   1 
   7  -1   6 21.8720 6.19342   1 
 -10   0   6 0.26701 4.81526   7 
   9   0  -6 -3.6433 3.27403   1 
  -9   0   6 2.41231 4.49542   7 
  -9   0   6 1.11116 3.82893   1 
  -9   0   6 1.14676 3.64209   3 
   8   0  -6 25.2329 6.04408   1 
   8   0  -6 29.8698 7.33017   3 
  -8   0   6 26.0916 6.17699   7 
  -8   0   6 32.6179 6.69312   3 
  -8   0   6 38.2199 7.16491   1 
   7   0  -6 368.080 19.1573   1 
   7   0  -6 373.191 20.2617   3 
   7   0  -6 369.572 19.0946  14 
  -7   0   6 378.422 19.8322   3 
  -7   0   6 377.249 18.6500   7 
  -7   0   6 377.671 19.0258   1 
   6   0  -6 207.393 12.3589  14 
   6   0  -6 195.573 12.3307   1 
   6   0  -6 222.206 13.7383   3 
  -6   0   6 216.373 13.8670   2 
  -6   0   6 205.720 10.7336  12 
  -6   0   6 198.645 12.2050   1 
  -6   0   6 205.044 12.0201   7 
  -6   0   6 207.464 12.6235  14 
   5   0  -6 38.9485 5.38704   2 
   5   0  -6 33.1169 2.47805  10 
   5   0  -6 36.7542 5.44584   8 
   5   0  -6 34.7662 5.08840   1 
   5   0  -6 38.8824 5.52499   3 
   5   0  -6 27.6128 4.74518  14 
  -5   0   6 30.5681 3.96363  12 
  -5   0   6 39.4533 5.04020   7 
  -5   0   6 25.2716 4.37108  14 
  -5   0   6 34.7838 4.89461   1 
  -5   0   6 34.0908 5.33109   2 
   4   0  -6 17.0496 3.77763   2 
   4   0  -6 19.0197 3.29607   5 
   4   0  -6 17.9363 3.64429   1 
   4   0  -6 14.5221 3.18082  14 
   4   0  -6 16.7512 3.77587   8 
   4   0  -6 14.0249 3.60969   3 
   4   0  -6 15.8182 2.42775  10 
  -4   0   6 9.84605 3.29672   2 
  -4   0   6 9.45089 2.89430   7 
  -4   0   6 8.04959 2.48066   5 
  -4   0   6 7.11464 2.67135   1 
  -4   0   6 10.7107 2.94503  14 
   3   0  -6 537.701 18.9838  10 
   3   0  -6 499.804 20.5153   3 
   3   0  -6 519.128 21.1272   2 
   3   0  -6 513.980 19.8472  14 
   3   0  -6 505.648 19.8629   1 
   3   0  -6 510.869 19.9159   5 
   3   0  -6 489.976 20.0537   8 
   3   0  -6 499.939 19.3229  14 
  -3   0   6 511.851 19.9095   7 
  -3   0   6 508.578 20.1386   5 
  -3   0   6 479.423 19.7617   1 
  -3   0   6 525.014 19.8833  14 
  -3   0   6 502.934 21.1448   2 
  -3   0   6 524.649 21.5989   2 
   2   0  -6 980.214 31.5427   6 
   2   0  -6 946.634 33.3673   3 
   2   0  -6 914.594 32.5392   8 
   2   0  -6 965.273 32.8880   5 
   2   0  -6 985.721 32.7226   5 
   2   0  -6 975.227 32.4804  14 
   2   0  -6 894.698 32.2290   1 
  -2   0   6 959.891 33.9642   2 
  -2   0   6 936.804 32.2924  14 
  -2   0   6 909.564 32.5263   5 
  -2   0   6 944.083 32.5660   1 
  -2   0   6 940.778 32.6791   7 
  -2   0   6 935.018 33.8556   2 
   1   0  -6 663.580 23.3003  13 
   1   0  -6 698.098 24.9889   2 
   1   0  -6 648.264 24.3656   3 
   1   0  -6 659.902 23.6988   5 
   1   0  -6 639.572 23.2148  14 
   1   0  -6 661.980 24.8569  11 
   1   0  -6 645.064 22.0164   6 
   1   0  -6 676.134 23.7039   5 
   1   0  -6 665.314 23.4732   1 
  -1   0   6 657.150 25.0394   2 
  -1   0   6 655.722 24.9627   2 
  -1   0   6 658.544 23.9899   5 
  -1   0   6 638.528 23.6055   1 
  -1   0   6 637.631 23.9044   7 
  -1   0   6 645.329 21.6951   9 
  -1   0   6 640.378 24.9182   2 
  -1   0   6 632.842 23.3809  14 
   0   0  -6 441.707 18.3336  11 
   0   0  -6 437.712 15.3863   6 
   0   0  -6 436.951 17.0042   5 
   0   0  -6 436.735 16.0247  13 
   0   0  -6 425.527 16.5072   1 
   0   0  -6 423.875 16.5341  14 
   0   0  -6 471.638 18.0898   2 
   0   0  -6 428.317 17.6147   3 
   0   0  -6 446.573 17.0112   5 
   0   0   6 412.112 16.9307   1 
   0   0   6 413.582 18.1921   2 
   0   0   6 402.760 18.0244   2 
   0   0   6 408.077 17.0355   5 
  -1   0  -6 396.674 16.8128   2 
  -1   0  -6 376.160 17.3810  11 
  -1   0  -6 414.938 17.1530   3 
  -1   0  -6 368.873 16.5490   3 
  -1   0  -6 379.839 15.9425   5 
  -1   0  -6 392.880 15.6308  14 
  -1   0  -6 398.649 16.1563   5 
  -1   0  -6 392.595 15.6110   1 
  -1   0  -6 393.924 14.6426  13 
   1   0   6 383.533 16.3730   5 
   1   0   6 390.808 17.5444   2 
   1   0   6 368.840 17.1716   2 
   1   0   6 404.518 16.4483   1 
  -2   0  -6 83.7334 6.22604  14 
  -2   0  -6 87.6986 6.26972   1 
  -2   0  -6 76.9929 6.87655   3 
  -2   0  -6 84.5061 6.52850   5 
  -2   0  -6 88.5145 7.08835   3 
  -2   0  -6 81.3080 7.43091  11 
   2   0   6 97.8298 8.00866   2 
   2   0   6 101.565 8.06869   2 
   2   0   6 100.209 7.11406   1 
   2   0   6 93.3743 5.29978  13 
  -3   0  -6 36.8060 5.80361  11 
  -3   0  -6 43.2234 6.09811   3 
  -3   0  -6 38.5564 4.78976  14 
  -3   0  -6 40.9090 4.76837   1 
  -3   0  -6 45.5320 5.16349   5 
   3   0   6 34.6921 5.84438   2 
   3   0   6 33.3566 5.06495   1 
  -4   0  -6 290.244 16.0525   3 
  -4   0  -6 290.918 13.8749   1 
  -4   0  -6 294.596 16.5257  11 
  -4   0  -6 283.919 14.4325   5 
  -4   0  -6 277.377 13.8066  14 
   4   0   6 270.071 15.0951   1 
   4   0   6 244.032 15.9616   2 
  -5   0  -6 54.6802 8.08586   3 
  -5   0  -6 63.9344 7.11367   5 
  -5   0  -6 65.3915 8.59784  11 
  -5   0  -6 63.0590 6.67366   1 
  -5   0  -6 52.3315 6.68122  14 
   5   0   6 66.9594 9.01815   2 
   5   0   6 59.5613 7.93581   1 
  -6   0  -6 0.22405 3.62925   3 
  -6   0  -6 2.15979 3.24227  14 
  -6   0  -6 -0.3398 3.77463  11 
  -6   0  -6 -0.0003 3.21714  10 
  -6   0  -6 -0.3396 3.05226   5 
  -6   0  -6 -3.6324 2.32111   1 
   6   0   6 -1.8735 3.50859   2 
   6   0   6 2.93451 3.58511   1 
  -7   0  -6 3.62765 3.81911  14 
  -7   0  -6 1.11640 4.51348  11 
  -7   0  -6 4.74052 3.89695   5 
   7   0   6 5.31382 4.80045   1 
  10  -1  -6 23.7254 8.13207   1 
 -10   1   6 27.6092 8.20563   1 
 -10   1   6 17.2077 7.16657   7 
 -10   1   6 20.1717 7.46336   1 
   9  -1  -6 0.52731 4.22390   3 
   9  -1  -6 1.39858 4.04833   1 
  -9   1   6 6.65370 4.76901   7 
  -9   1   6 2.08969 3.83492   1 
   8  -1  -6 66.2695 8.85550   1 
   8  -1  -6 62.5407 9.00806   3 
  -8   1   6 71.8652 8.86509   1 
  -8   1   6 73.6180 8.82882   3 
  -8   1   6 73.1505 9.07685   7 
   7  -1  -6 112.330 9.88447  14 
   7  -1  -6 107.332 10.4098   3 
   7  -1  -6 119.372 10.0397   1 
  -7   1   6 117.121 9.90073   1 
  -7   1   6 122.061 8.67012  12 
  -7   1   6 134.656 12.1289   2 
  -7   1   6 118.742 9.70017   7 
  -7   1   6 122.405 10.2584   3 
   6  -1  -6 13.9693 4.13136   3 
   6  -1  -6 26.1911 5.08388   8 
   6  -1  -6 20.1194 4.60763   1 
   6  -1  -6 24.2936 4.80538  14 
  -6   1   6 17.8783 3.96609   7 
  -6   1   6 13.7384 4.14341   2 
  -6   1   6 16.6802 3.80231  12 
  -6   1   6 22.1506 4.66052   1 
   5  -1  -6 2.93489 2.19069   8 
   5  -1  -6 3.97545 2.46113  14 
   5  -1  -6 3.91093 2.36715   1 
   5  -1  -6 2.30807 2.56917   3 
   5  -1  -6 0.56057 1.52336   5 
   5  -1  -6 3.24551 1.39738  10 
  -5   1   6 3.23437 2.34312  12 
  -5   1   6 5.70452 2.62300   7 
  -5   1   6 2.48013 2.06192   2 
  -5   1   6 2.49070 2.04896   1 
  -5   1   6 4.25735 2.87921  14 
   4  -1  -6 220.127 11.8850   3 
   4  -1  -6 216.971 10.9678  14 
   4  -1  -6 210.375 11.2628   8 
   4  -1  -6 211.200 10.6735  14 
   4  -1  -6 214.983 9.83896  10 
   4  -1  -6 228.350 11.1492   1 
   4  -1  -6 215.652 11.0195   5 
  -4   1   6 225.461 11.4516   5 
  -4   1   6 232.971 12.6659   2 
  -4   1   6 237.038 11.6254   7 
  -4   1   6 225.850 11.2292  14 
  -4   1   6 231.711 12.8063   2 
  -4   1   6 224.078 11.4814   1 
   3  -1  -6 1030.59 35.1093   8 
   3  -1  -6 1022.63 34.8452   6 
   3  -1  -6 1014.56 34.6042   1 
   3  -1  -6 1016.91 31.8470   9 
   3  -1  -6 982.343 34.4839  14 
   3  -1  -6 1006.95 34.2933  14 
   3  -1  -6 1012.78 34.5019  10 
   3  -1  -6 986.975 35.6798   3 
   3  -1  -6 997.754 34.7557   5 
   3  -1  -6 1025.14 35.9945   2 
  -3   1   6 1037.05 35.0119  14 
  -3   1   6 1019.87 36.5609   2 
  -3   1   6 1060.40 37.0459   2 
  -3   1   6 1036.70 35.4352   7 
  -3   1   6 1018.76 35.1236   1 
   2  -1  -6 163.949 9.51759  11 
   2  -1  -6 161.226 8.91288   3 
   2  -1  -6 154.654 8.29523   5 
   2  -1  -6 152.239 8.69587  10 
   2  -1  -6 154.246 7.87404   6 
   2  -1  -6 163.692 8.94377   2 
   2  -1  -6 164.373 8.08682   1 
   2  -1  -6 141.869 8.53184  13 
   2  -1  -6 163.927 8.10110  14 
   2  -1  -6 155.961 8.01208   5 
  -2   1   6 151.962 8.50404   7 
  -2   1   6 159.915 8.41765   1 
  -2   1   6 160.782 9.34738   2 
  -2   1   6 153.937 9.06563   2 
  -2   1   6 159.900 9.20655   5 
   1  -1  -6 240.831 11.4846   2 
   1  -1  -6 220.242 12.0612  11 
   1  -1  -6 230.546 10.3625   1 
   1  -1  -6 248.327 10.4458   1 
   1  -1  -6 245.961 11.4008  13 
   1  -1  -6 240.726 10.9489   5 
   1  -1  -6 234.743 10.5576  14 
   1  -1  -6 234.509 10.7239   5 
   1  -1  -6 249.152 12.1662  10 
   1  -1  -6 245.931 10.6175   6 
   1  -1  -6 240.262 11.6638   3 
  -1   1   6 265.803 12.3798   2 
  -1   1   6 281.880 12.0647   7 
  -1   1   6 276.167 9.06970   9 
  -1   1   6 275.349 11.4057   1 
  -1   1   6 273.057 12.5156   2 
   0  -1  -6 197.955 9.34195   5 
   0  -1  -6 186.705 8.84673  14 
   0  -1  -6 209.490 8.92448   1 
   0  -1  -6 193.033 9.09218   6 
   0  -1  -6 195.775 10.8906  11 
   0  -1  -6 200.300 10.3529   3 
   0  -1  -6 187.842 9.21642   5 
   0  -1  -6 192.802 8.84188   1 
   0  -1  -6 190.602 9.44034  13 
   0   1   6 217.385 10.0933   1 
   0   1   6 223.099 11.2344   2 
   0   1   6 206.911 10.8462   2 
  -1  -1  -6 301.576 13.5735   3 
  -1  -1  -6 281.578 12.0609   5 
  -1  -1  -6 279.753 14.0824  11 
  -1  -1  -6 273.633 11.3480   1 
  -1  -1  -6 268.036 11.8983  13 
  -1  -1  -6 265.023 11.5188  14 
  -1  -1  -6 275.980 11.3132   1 
  -1  -1  -6 280.675 12.1309   5 
  -1  -1  -6 271.105 13.0874   3 
   1   1   6 283.977 13.9554   2 
   1   1   6 271.656 12.6632   1 
   1   1   6 263.039 13.5488   2 
  -2  -1  -6 47.9599 5.55189   3 
  -2  -1  -6 51.2662 4.35124   1 
  -2  -1  -6 52.3210 4.57200  14 
  -2  -1  -6 59.8766 5.08587   5 
  -2  -1  -6 47.9145 5.95058  11 
   2   1   6 46.5117 5.86043   2 
   2   1   6 42.8975 5.03758   1 
  -3  -1  -6 198.489 12.1589   3 
  -3  -1  -6 195.081 9.70752   1 
  -3  -1  -6 199.066 12.5681  10 
  -3  -1  -6 197.547 12.5999  11 
  -3  -1  -6 203.613 10.2920  14 
  -3  -1  -6 199.086 10.7942   5 
   3   1   6 200.515 12.9379   2 
   3   1   6 205.314 11.7519   1 
  -4  -1  -6 159.525 12.1479  11 
  -4  -1  -6 157.561 9.86619   5 
  -4  -1  -6 173.271 12.0424   3 
  -4  -1  -6 155.081 9.51808  14 
  -4  -1  -6 164.585 9.81719  14 
  -4  -1  -6 157.478 8.88648   1 
  -4  -1  -6 161.919 11.7769  10 
   4   1   6 152.534 12.2557   2 
   4   1   6 149.046 10.8498   1 
  -5  -1  -6 15.9478 4.08846  14 
  -5  -1  -6 29.2601 6.77536  11 
  -5  -1  -6 26.7802 5.25514   5 
  -5  -1  -6 27.0994 4.29110   1 
  -5  -1  -6 19.1394 5.53520   3 
  -5  -1  -6 19.0070 5.33191  10 
   5   1   6 27.0486 6.68486   2 
   5   1   6 28.2218 6.29840   1 
  -6  -1  -6 3.42365 4.20080  10 
  -6  -1  -6 2.26983 2.96289  14 
  -6  -1  -6 -2.5471 4.01176  11 
  -6  -1  -6 -1.5657 2.64598   5 
   6   1   6 5.29007 4.84123   2 
   6   1   6 0.27157 3.88034   1 
  10  -2  -6 15.0613 6.62975   1 
 -10   2   6 12.8463 5.52085   1 
 -10   2   6 18.4239 6.87382   7 
   9  -2  -6 35.8241 7.68391   1 
   9  -2  -6 29.0214 7.79924   3 
  -9   2   6 34.9733 7.80725   1 
  -9   2   6 44.8513 8.52734   7 
   8  -2  -6 30.1143 7.10143   3 
   8  -2  -6 34.7394 7.12760   1 
  -8   2   6 37.4281 7.14248   1 
  -8   2   6 31.4481 6.33895   7 
  -8   2   6 36.5534 5.85811  12 
   7  -2  -6 47.7082 7.49966   3 
   7  -2  -6 58.1064 7.15089   1 
  -7   2   6 44.5867 6.09089  12 
  -7   2   6 48.4191 7.45224   2 
  -7   2   6 45.2209 6.64904   3 
  -7   2   6 53.9841 7.03201   1 
  -7   2   6 54.1726 6.79116   7 
   6  -2  -6 51.1435 6.06640  14 
   6  -2  -6 55.3621 6.40841   8 
   6  -2  -6 53.5873 6.73147   3 
   6  -2  -6 48.4950 5.86515   1 
  -6   2   6 44.5160 5.67925   7 
  -6   2   6 45.8497 5.98615   1 
  -6   2   6 38.7128 5.69280   3 
  -6   2   6 50.0258 5.90337  12 
  -6   2   6 40.2025 6.34634   2 
   5  -2  -6 53.4666 5.48522   8 
   5  -2  -6 49.8598 4.87414  14 
   5  -2  -6 48.6165 6.06936   3 
   5  -2  -6 50.7628 4.23463  10 
   5  -2  -6 51.8278 5.38369   1 
   5  -2  -6 49.8419 5.11211   5 
   5  -2  -6 45.4926 5.19561  14 
  -5   2   6 43.0778 5.30817   1 
  -5   2   6 40.0658 5.72741   2 
  -5   2   6 44.5040 5.65637  12 
  -5   2   6 44.9681 5.30966   7 
   4  -2  -6 171.384 10.0125   6 
   4  -2  -6 164.123 9.00965   5 
   4  -2  -6 176.663 6.79973   9 
   4  -2  -6 177.365 9.01207   1 
   4  -2  -6 165.456 9.02593   8 
   4  -2  -6 167.709 8.69924  14 
   4  -2  -6 176.359 8.93137  10 
   4  -2  -6 162.661 9.92227   3 
   4  -2  -6 167.533 9.05752  14 
  -4   2   6 174.922 9.75801   1 
  -4   2   6 171.667 10.5585   2 
  -4   2   6 174.282 10.7970   2 
  -4   2   6 165.234 9.64290   7 
   3  -2  -6 441.520 16.1079   8 
   3  -2  -6 409.733 16.0883  14 
   3  -2  -6 426.487 18.2229  13 
   3  -2  -6 398.771 17.0333  10 
   3  -2  -6 410.600 15.8712   1 
   3  -2  -6 430.634 17.7078   3 
   3  -2  -6 424.418 16.5079   5 
   3  -2  -6 433.726 17.3798   6 
   3  -2  -6 444.399 16.8659   1 
  -3   2   6 412.989 18.0833   2 
  -3   2   6 418.476 18.2946   2 
  -3   2   6 422.948 17.0345   1 
  -3   2   6 407.829 17.2537   7 
   2  -2  -6 76.8767 6.04049  13 
   2  -2  -6 75.0197 6.16713  10 
   2  -2  -6 70.3593 4.35915   1 
   2  -2  -6 66.2692 6.13175  11 
   2  -2  -6 69.7356 4.29934   1 
   2  -2  -6 82.2559 4.89090  14 
   2  -2  -6 71.4726 5.41486   6 
   2  -2  -6 76.0106 5.80264   3 
   2  -2  -6 73.6010 4.81416   5 
  -2   2   6 70.0115 5.62834   7 
  -2   2   6 67.6959 5.74988   2 
  -2   2   6 68.8855 5.86010   2 
  -2   2   6 73.1653 5.33137   1 
   1  -2  -6 35.7848 4.78604  10 
   1  -2  -6 40.9597 4.90338  11 
   1  -2  -6 39.5297 3.51929   5 
   1  -2  -6 41.2106 4.50630  13 
   1  -2  -6 40.9934 3.53525   5 
   1  -2  -6 37.6587 2.72767   1 
   1  -2  -6 35.9181 4.17562   3 
   1  -2  -6 32.9324 3.19866  14 
   1  -2  -6 38.0634 2.83471   1 
   1  -2  -6 36.7094 4.01506   6 
  -1   2   6 49.1091 4.62399   7 
  -1   2   6 44.2017 4.59798   2 
  -1   2   6 41.5065 4.56564   2 
  -1   2   6 45.1103 4.08552   1 
   0  -2  -6 213.304 8.73021  14 
   0  -2  -6 216.914 10.5914  13 
   0  -2  -6 206.489 9.08347   5 
   0  -2  -6 203.396 10.1669   6 
   0  -2  -6 213.214 11.5369  11 
   0  -2  -6 212.639 9.20615   5 
   0  -2  -6 211.267 7.96284   1 
   0  -2  -6 199.847 10.4003   3 
   0  -2  -6 206.392 11.6702  10 
   0   2   6 215.596 11.1566   2 
   0   2   6 205.629 9.93741   1 
   0   2   6 193.067 10.8181   2 
  -1  -2  -6 91.0931 6.78857   3 
  -1  -2  -6 90.9991 4.28422   1 
  -1  -2  -6 96.0001 5.59541   5 
  -1  -2  -6 92.7884 6.77101   3 
  -1  -2  -6 93.4165 5.07644  14 
  -1  -2  -6 92.0365 6.55704  13 
  -1  -2  -6 87.0653 7.62012  11 
  -1  -2  -6 96.6426 8.04024  10 
   1   2   6 86.5919 7.02653   2 
   1   2   6 76.3895 6.00528   1 
   1   2   6 70.8041 6.63323   2 
  -2  -2  -6 43.1531 2.98342   1 
  -2  -2  -6 48.6029 4.00914  14 
  -2  -2  -6 46.9384 6.43721  10 
  -2  -2  -6 39.6455 5.91401  11 
  -2  -2  -6 44.8463 5.60246   3 
  -2  -2  -6 49.5331 4.29402   5 
  -2  -2  -6 45.4624 3.83299  14 
   2   2   6 30.9716 4.50782   1 
   2   2   6 35.4535 5.35212   2 
  -3  -2  -6 130.179 10.0487  11 
  -3  -2  -6 120.660 5.93208   1 
  -3  -2  -6 111.159 7.33491   5 
  -3  -2  -6 125.454 10.2062  10 
  -3  -2  -6 124.012 9.46287   3 
  -3  -2  -6 112.616 6.76430  14 
  -3  -2  -6 116.314 6.95735  14 
   3   2   6 137.385 9.29644   1 
   3   2   6 131.384 10.3585   2 
  -4  -2  -6 60.2021 5.26332  14 
  -4  -2  -6 66.8069 5.55982  14 
  -4  -2  -6 64.7295 8.06809   3 
  -4  -2  -6 61.0669 8.00744  10 
  -4  -2  -6 70.1350 8.24921  11 
  -4  -2  -6 59.8660 5.98730   5 
   4   2   6 70.5917 7.50668   1 
   4   2   6 63.4874 8.63917   2 
  -5  -2  -6 9.15934 3.59853   5 
  -5  -2  -6 7.21280 2.61236  14 
  -5  -2  -6 5.20414 4.00877  11 
  -5  -2  -6 9.21420 3.09189  14 
  -5  -2  -6 12.4705 4.74424   3 
  -5  -2  -6 9.01820 4.58492  10 
   5   2   6 10.3198 4.35609   1 
   5   2   6 13.6942 5.46315   2 
  -6  -2  -6 2.49811 3.20743   5 
  -6  -2  -6 1.30841 4.07246  11 
  -6  -2  -6 3.51625 2.86633  14 
   6   2   6 0.38937 4.18276   2 
  10  -3  -6 29.9360 7.78165   1 
 -10   3   6 35.1463 8.68365   1 
 -10   3   6 26.8016 8.07179   7 
   9  -3  -6 31.8456 7.94462   3 
   9  -3  -6 23.5004 6.49331   1 
  -9   3   6 48.6508 8.27096   7 
  -9   3   6 28.6333 6.75037   1 
   8  -3  -6 21.3706 6.31815   3 
   8  -3  -6 24.6130 5.50504   1 
   8  -3  -6 18.8106 5.13115   8 
  -8   3   6 29.7957 6.35699  12 
  -8   3   6 17.2845 5.10946   7 
  -8   3   6 25.1476 6.55079   2 
  -8   3   6 21.4264 5.49392   1 
   7  -3  -6 78.9377 7.69306   1 
   7  -3  -6 67.8661 7.45054   8 
   7  -3  -6 70.9245 8.65538   3 
  -7   3   6 52.2650 6.95754   7 
  -7   3   6 53.5808 7.13873  12 
  -7   3   6 68.6941 8.48705   2 
  -7   3   6 58.4842 7.23098   1 
   6  -3  -6 23.2811 4.52585   8 
   6  -3  -6 24.1084 5.35670   3 
   6  -3  -6 19.7509 3.89397   5 
   6  -3  -6 24.8681 4.71868   1 
  -6   3   6 23.2008 4.77573   1 
  -6   3   6 21.5430 5.31314   2 
  -6   3   6 19.7325 4.34597   7 
  -6   3   6 19.9026 4.69818  12 
   5  -3  -6 264.068 12.4569   8 
   5  -3  -6 256.684 14.1062   3 
   5  -3  -6 274.917 12.5044  14 
   5  -3  -6 281.744 14.4827   6 
   5  -3  -6 271.831 12.8932   5 
   5  -3  -6 265.875 12.4357   1 
   5  -3  -6 240.789 11.9892  10 
  -5   3   6 273.325 14.6004  12 
  -5   3   6 292.916 13.9513   7 
  -5   3   6 271.983 13.3359   3 
  -5   3   6 298.864 13.9771   1 
  -5   3   6 281.590 15.1576   2 
   4  -3  -6 424.686 18.5630   3 
   4  -3  -6 440.121 19.6726  13 
   4  -3  -6 459.746 19.1196   6 
   4  -3  -6 441.563 16.8988  14 
   4  -3  -6 430.216 16.5941  14 
   4  -3  -6 441.109 16.5147   1 
   4  -3  -6 443.322 16.2228   8 
   4  -3  -6 441.730 18.1212  10 
   4  -3  -6 428.700 17.1163   5 
  -4   3   6 409.889 19.1907   2 
  -4   3   6 433.003 18.3691   7 
  -4   3   6 447.218 18.3233   1 
  -4   3   6 449.753 19.4567   2 
   3  -3  -6 509.282 20.5506   6 
   3  -3  -6 497.823 17.9980  14 
   3  -3  -6 518.518 21.4006  13 
   3  -3  -6 529.331 17.4686   1 
   3  -3  -6 508.249 18.4264   5 
   3  -3  -6 515.174 17.4347   1 
   3  -3  -6 508.230 20.1138   3 
   3  -3  -6 527.930 20.8142  10 
  -3   3   6 483.992 20.6323   2 
  -3   3   6 503.952 19.5107   1 
  -3   3   6 498.073 20.6349   2 
  -3   3   6 499.521 20.1058   7 
   2  -3  -6 109.123 8.15096  10 
   2  -3  -6 117.717 5.55661  14 
   2  -3  -6 116.754 8.31221  13 
   2  -3  -6 121.107 7.51435   3 
   2  -3  -6 115.112 5.96412   5 
   2  -3  -6 113.787 7.70823   6 
   2  -3  -6 122.931 8.51204  11 
  -2   3   6 150.196 8.34614   2 
  -2   3   6 154.961 7.62400   1 
  -2   3   6 138.035 8.21859   2 
  -2   3   6 154.500 8.31816   7 
   1  -3  -6 103.026 7.74464  13 
   1  -3  -6 100.809 8.01808  10 
   1  -3  -6 99.8646 6.82850   3 
   1  -3  -6 96.2441 7.68872  11 
   1  -3  -6 99.7995 7.21868   6 
  -1   3   6 128.369 6.90766   1 
  -1   3   6 121.107 7.54386   2 
  -1   3   6 132.361 7.79280   2 
  -1   3   6 124.612 7.53473   7 
   0  -3  -6 445.998 17.9372   3 
   0  -3  -6 450.307 20.0527  10 
   0  -3  -6 449.747 19.3062  11 
   0  -3  -6 454.131 19.1196  13 
   0  -3  -6 445.398 18.5705   6 
   0  -3  -6 446.730 17.9500   3 
   0   3   6 432.762 18.5019   2 
   0   3   6 449.578 17.3957   1 
   0   3   6 444.350 18.6142   2 
  -1  -3  -6 399.730 16.9706   3 
  -1  -3  -6 404.721 18.2460  11 
  -1  -3  -6 409.599 19.1858  10 
  -1  -3  -6 419.328 17.8823  13 
   1   3   6 363.752 17.2097   2 
   1   3   6 381.098 16.2578   1 
   1   3   6 394.575 17.6565   2 
  -2  -3  -6 37.1749 5.82373  11 
  -2  -3  -6 42.1022 5.57410   3 
  -2  -3  -6 39.0056 6.29569  10 
   2   3   6 55.0314 5.59845   1 
   2   3   6 60.1111 6.60442   2 
  -3  -3  -6 84.1085 8.60669  11 
  -3  -3  -6 80.9462 8.86445  10 
  -3  -3  -6 90.4407 8.27508   3 
   3   3   6 96.9728 7.91281   1 
   3   3   6 97.0671 9.11376   2 
  -4  -3  -6 17.2715 5.18392  10 
  -4  -3  -6 11.1681 4.34253  11 
  -4  -3  -6 12.8075 4.49542   3 
   4   3   6 9.06914 4.44393   2 
  -5  -3  -6 19.1851 5.87772  10 
  -5  -3  -6 9.56263 4.90607  11 
   5   3   6 8.77115 5.26076   2 
   6   3   6 19.0720 6.72869   2 
  10  -4  -6 22.9828 6.51091   1 
 -10   4   6 26.8972 7.67036   7 
 -10   4   6 25.0673 7.41654   1 
   9  -4  -6 15.1604 6.18852   3 
   9  -4  -6 16.8531 5.18120   8 
   9  -4  -6 12.9825 4.63396   1 
  -9   4   6 10.9437 4.86792  12 
  -9   4   6 7.72705 4.56893   1 
  -9   4   6 13.1056 5.46120   7 
   8  -4  -6 41.2505 7.91056   3 
   8  -4  -6 28.2602 5.91972   1 
   8  -4  -6 31.1827 6.13321   8 
  -8   4   6 22.0324 6.01159   7 
  -8   4   6 21.6846 5.76724   2 
  -8   4   6 22.6129 5.70423   1 
  -8   4   6 16.1019 5.28492  12 
   7  -4  -6 58.7496 6.36187   8 
   7  -4  -6 56.9263 7.93559   3 
   7  -4  -6 57.5638 6.30167   1 
   7  -4  -6 58.7409 8.13500   6 
  -7   4   6 47.9722 6.73617   1 
  -7   4   6 44.8237 7.09364  12 
  -7   4   6 52.7110 6.79981   7 
  -7   4   6 53.1355 7.95890   2 
   6  -4  -6 108.320 7.40460  14 
   6  -4  -6 109.996 9.41809   3 
   6  -4  -6 104.254 9.37627   6 
   6  -4  -6 112.649 10.0063  13 
   6  -4  -6 108.580 7.27256   8 
   6  -4  -6 109.176 7.79194   5 
   6  -4  -6 117.007 7.62767   1 
  -6   4   6 119.740 10.0748   2 
  -6   4   6 121.448 9.92974  12 
  -6   4   6 114.810 8.75227   1 
  -6   4   6 112.940 8.69538   7 
   5  -4  -6 108.318 9.15336  13 
   5  -4  -6 97.7992 7.38740  10 
   5  -4  -6 94.0471 8.43699   6 
   5  -4  -6 100.668 8.16985   3 
   5  -4  -6 101.670 6.75509   5 
   5  -4  -6 93.5635 6.12875  14 
   5  -4  -6 103.918 5.47239   8 
   5  -4  -6 95.9173 5.89018   1 
  -5   4   6 98.0205 7.55816   1 
  -5   4   6 93.3541 7.58114   7 
  -5   4   6 100.236 8.86205  12 
  -5   4   6 107.473 8.80008   2 
   4  -4  -6 202.446 11.5874   6 
   4  -4  -6 209.041 9.14039   5 
   4  -4  -6 204.848 11.2521  10 
   4  -4  -6 201.436 10.9606   3 
   4  -4  -6 194.723 7.58394   1 
   4  -4  -6 210.311 12.2693  13 
  -4   4   6 180.703 10.9964   2 
  -4   4   6 186.449 11.3303   2 
  -4   4   6 190.848 10.6637   7 
  -4   4   6 207.278 10.6958   1 
  -4   4   6 180.522 12.0239  12 
   3  -4  -6 95.7014 8.18046  13 
   3  -4  -6 106.441 8.01979  10 
   3  -4  -6 98.6352 6.78346   3 
   3  -4  -6 95.3520 7.41737   6 
  -3   4   6 91.1316 6.89427   2 
  -3   4   6 97.4231 6.96072   7 
  -3   4   6 85.9976 4.98723   3 
  -3   4   6 88.5149 6.96059   2 
  -3   4   6 84.3287 6.04891   1 
   2  -4  -6 75.7094 7.25352  13 
   2  -4  -6 70.8125 5.68051   3 
   2  -4  -6 72.7906 7.18171  10 
   2  -4  -6 76.2173 6.74356   6 
   2  -4  -6 72.6228 6.98780  11 
  -2   4   6 94.4074 5.80744   1 
  -2   4   6 96.9516 6.65222   7 
  -2   4   6 89.1539 6.37524   2 
  -2   4   6 93.4392 6.51137   2 
   1  -4  -6 183.432 11.0874  13 
   1  -4  -6 178.067 10.4867   6 
   1  -4  -6 170.204 9.08819   3 
   1  -4  -6 179.042 10.7086  11 
   1  -4  -6 161.550 10.8762  10 
  -1   4   6 183.756 9.73086   7 
  -1   4   6 178.524 9.57594   2 
  -1   4   6 185.017 9.72981   2 
  -1   4   6 183.637 8.79936   1 
   0  -4  -6 378.598 18.2553  10 
   0  -4  -6 354.240 15.2610   3 
   0  -4  -6 381.954 17.1112   6 
   0  -4  -6 364.397 17.0182  11 
   0  -4  -6 384.574 17.6559  13 
   0   4   6 355.738 15.8771   2 
   0   4   6 333.646 15.6512   2 
   0   4   6 357.934 14.7740   1 
  -1  -4  -6 112.236 9.71541  10 
  -1  -4  -6 120.438 9.13060  13 
  -1  -4  -6 110.519 7.69020   3 
  -1  -4  -6 111.604 8.79745  11 
   1   4   6 108.525 8.11524   2 
   1   4   6 119.436 8.36615   2 
  -2  -4  -6 38.6570 5.76574  11 
  -2  -4  -6 38.9429 6.80971  10 
  -2  -4  -6 34.9675 5.36343   3 
   2   4   6 49.5153 6.09274   2 
  -3  -4  -6 35.2375 6.07804  11 
  -3  -4  -6 39.4254 6.17397   3 
  -3  -4  -6 37.7574 7.30735  10 
   3   4   6 44.7159 6.77622   2 
  -4  -4  -6 44.5061 10.7745   3 
  -4  -4  -6 43.7413 8.19065  10 
  -4  -4  -6 53.2521 7.18188  11 
   4   4   6 35.9241 7.59094   2 
   5   4   6 25.7812 7.27073   2 
  10  -5  -6 18.0146 5.60198   1 
  10  -5  -6 -0.6341 4.57493   6 
 -10   5   6 7.84018 4.99856   1 
 -10   5   6 9.24418 5.61412   7 
   9  -5  -6 27.4452 6.86255   5 
   9  -5  -6 12.6092 5.72109  13 
   9  -5  -6 19.6022 6.58266   6 
   9  -5  -6 10.8443 4.42389   8 
   9  -5  -6 16.1763 4.95743   1 
  -9   5   6 18.4164 6.52860  12 
  -9   5   6 17.8517 5.83375   1 
  -9   5   6 16.2056 5.45149   7 
   8  -5  -6 29.7233 7.05790   3 
   8  -5  -6 23.1958 4.81027   1 
   8  -5  -6 22.9023 6.81495  13 
   8  -5  -6 26.2277 5.08736   8 
   8  -5  -6 25.6439 6.50926   6 
  -8   5   6 19.7318 5.80130   7 
  -8   5   6 24.0028 5.85129   1 
  -8   5   6 27.7093 7.38335   2 
  -8   5   6 26.1412 6.69982  12 
   7  -5  -6 39.2933 7.19331  13 
   7  -5  -6 44.6915 5.45889   5 
   7  -5  -6 40.7513 7.07709   3 
   7  -5  -6 36.6566 4.34627   8 
   7  -5  -6 38.1876 4.83221   1 
   7  -5  -6 38.4134 7.24286   6 
  -7   5   6 35.3121 7.19743   2 
  -7   5   6 51.2561 7.84597  12 
  -7   5   6 44.0651 6.55520   1 
  -7   5   6 43.1983 6.81687   7 
   6  -5  -6 87.3400 8.77845   6 
   6  -5  -6 77.2391 6.27122   5 
   6  -5  -6 90.8255 9.41218  13 
   6  -5  -6 88.9350 6.07484  14 
   6  -5  -6 75.8280 5.33928   1 
   6  -5  -6 89.6855 8.48400   3 
  -6   5   6 97.6042 9.51727  12 
  -6   5   6 92.0839 7.89843   7 
  -6   5   6 98.8039 8.05975   1 
  -6   5   6 100.426 9.33717   2 
   5  -5  -6 221.952 12.7124   3 
   5  -5  -6 219.524 12.4753  10 
   5  -5  -6 229.142 13.4507   6 
   5  -5  -6 221.270 13.8959  13 
   5  -5  -6 223.066 10.0876   5 
  -5   5   6 226.109 13.4161   2 
  -5   5   6 218.307 12.2572   7 
  -5   5   6 232.721 12.1079   1 
  -5   5   6 227.324 14.3846  12 
   4  -5  -6 194.686 12.0293   6 
   4  -5  -6 193.584 10.8193   3 
   4  -5  -6 196.533 12.6884  13 
   4  -5  -6 194.252 11.8283  10 
  -4   5   6 190.489 11.7793   2 
  -4   5   6 208.782 11.6341   2 
  -4   5   6 194.934 12.9200  12 
  -4   5   6 188.342 10.2795   1 
  -4   5   6 182.582 10.5753   7 
   3  -5  -6 70.9307 7.35549  10 
   3  -5  -6 72.1179 5.90459   3 
   3  -5  -6 69.6230 7.71368  13 
   3  -5  -6 68.2704 7.02305   6 
  -3   5   6 67.1240 6.13769   2 
  -3   5   6 73.4880 6.10678   2 
  -3   5   6 73.5626 5.49583   1 
  -3   5   6 77.3731 6.34594   7 
   2  -5  -6 169.308 11.3717  13 
   2  -5  -6 156.165 10.4163   6 
   2  -5  -6 140.268 8.21333   3 
   2  -5  -6 149.943 10.6872  10 
  -2   5   6 162.044 8.96852   2 
  -2   5   6 173.797 9.33656   7 
  -2   5   6 154.963 8.79519   2 
   1  -5  -6 291.737 15.2906   6 
   1  -5  -6 300.098 16.2289  10 
   1  -5  -6 303.335 13.0092   3 
   1  -5  -6 303.490 14.9934  11 
   1  -5  -6 304.909 16.1575  13 
  -1   5   6 296.299 13.3140   2 
  -1   5   6 299.340 13.6772   7 
  -1   5   6 298.673 13.4797   2 
   0  -5  -6 224.086 13.8787  10 
   0  -5  -6 200.642 10.3242   3 
   0  -5  -6 217.636 13.1984  13 
   0  -5  -6 214.383 12.1645  11 
   0  -5  -6 216.853 12.6693   6 
   0   5   6 198.105 10.8455   7 
   0   5   6 188.720 10.6573   2 
   0   5   6 197.416 10.7750   2 
  -1  -5  -6 13.2262 3.35768   3 
  -1  -5  -6 18.2543 5.27823   4 
  -1  -5  -6 16.5948 4.26311  11 
  -1  -5  -6 9.37990 4.08216  10 
   1   5   6 14.0399 3.61189   2 
  -2  -5  -6 38.5810 7.58531  10 
  -2  -5  -6 56.0129 8.33616   4 
  -2  -5  -6 53.4945 6.53166  11 
  -2  -5  -6 48.4749 5.99948   3 
   2   5   6 53.6073 6.57509   2 
  -3  -5  -6 81.2100 10.0132   4 
  -3  -5  -6 70.4662 7.91454   3 
  -3  -5  -6 76.8591 9.50214  10 
   3   5   6 71.8422 8.40321   2 
   4   5   6 47.0455 8.26975   2 
   9  -6  -6 -5.5987 3.49542   6 
   9  -6  -6 3.77407 3.80168   5 
   9  -6  -6 2.05058 2.58319   8 
  -9   6   6 -3.3032 3.46268   1 
  -9   6   6 -0.8447 4.30163  12 
  -9   6   6 1.45347 3.95893   2 
  -9   6   6 1.15542 3.97519   7 
   8  -6  -6 11.5279 5.40912   6 
   8  -6  -6 8.25725 4.04130   5 
   8  -6  -6 6.07030 4.86312  13 
   8  -6  -6 11.5007 4.77511   3 
  -8   6   6 10.3248 4.37110   1 
  -8   6   6 6.32005 4.62528   2 
  -8   6   6 13.3341 5.56044  12 
  -8   6   6 7.58224 4.35992   7 
   7  -6  -6 49.4676 7.60837   3 
   7  -6  -6 40.0528 4.42895  14 
   7  -6  -6 50.7922 5.38952   5 
   7  -6  -6 51.2530 8.19588  13 
   7  -6  -6 49.0344 7.75512   6 
   7  -6  -6 49.7883 6.04022   5 
  -7   6   6 40.7231 7.48624   2 
  -7   6   6 42.5220 6.48024   1 
  -7   6   6 44.9391 7.71250  12 
  -7   6   6 46.2968 6.72194   7 
   6  -6  -6 52.8673 7.81541  13 
   6  -6  -6 49.3407 6.71018   3 
   6  -6  -6 48.3275 4.89800   5 
   6  -6  -6 41.3843 7.15757   6 
   6  -6  -6 48.2797 4.55793   5 
  -6   6   6 54.6973 6.70355   7 
  -6   6   6 46.5617 5.99442   1 
  -6   6   6 58.2972 8.49386  12 
  -6   6   6 47.2289 7.07619   2 
   5  -6  -6 4.39981 2.93375   3 
   5  -6  -6 10.8407 3.61908  10 
   5  -6  -6 8.50071 4.46060  13 
   5  -6  -6 11.7857 4.21820   6 
  -5   6   6 3.97518 2.73994   7 
  -5   6   6 13.7345 4.93481  12 
  -5   6   6 6.77243 3.25106   2 
  -5   6   6 7.53588 4.49446   1 
   4  -6  -6 34.7078 5.86739  10 
   4  -6  -6 36.5361 4.75747   3 
   4  -6  -6 38.5744 6.11924   6 
   4  -6  -6 28.5506 6.23662  13 
  -4   6   6 30.4403 4.79528   2 
  -4   6   6 32.6347 6.80546  12 
  -4   6   6 25.0715 4.50058   7 
   3  -6  -6 85.9980 6.45779   3 
   3  -6  -6 86.1768 8.41015   6 
   3  -6  -6 88.5973 8.57921  10 
   3  -6  -6 79.4724 8.67144  13 
  -3   6   6 97.5622 7.01651   2 
  -3   6   6 109.937 7.48986   7 
  -3   6   6 94.0295 7.09545   2 
   2  -6  -6 110.091 9.41198   6 
   2  -6  -6 106.714 6.75088   3 
   2  -6  -6 117.955 9.99889  10 
   2  -6  -6 118.162 9.94002  13 
  -2   6   6 107.413 7.13853   2 
  -2   6   6 110.873 7.17787   2 
  -2   6   6 103.089 7.42054   7 
   1  -6  -6 110.363 9.91007  13 
   1  -6  -6 109.517 8.47465  11 
   1  -6  -6 119.026 9.83740   6 
   1  -6  -6 136.411 10.7460  10 
   1  -6  -6 119.118 6.85715   3 
  -1   6   6 106.339 7.22210   2 
  -1   6   6 101.243 7.42145   7 
  -1   6   6 98.7863 6.82632   2 
   0  -6  -6 17.4853 4.83035   6 
   0  -6  -6 11.4587 4.68274  13 
   0  -6  -6 12.1402 3.05860   3 
   0  -6  -6 6.62651 3.03766  11 
   0  -6  -6 12.4143 4.69439  10 
   0  -6  -6 12.4404 5.12714   4 
   0   6   6 12.0653 3.20326   2 
   0   6   6 8.71458 2.96461   7 
   0   6   6 13.2856 3.42455   2 
  -1  -6  -6 31.6048 7.01715   4 
  -1  -6  -6 37.7310 7.17270  10 
  -1  -6  -6 34.1662 4.81401   3 
   1   6   6 44.2036 5.48582   7 
   1   6   6 39.3905 5.39228   2 
  -2  -6  -6 19.5655 5.91115  10 
  -2  -6  -6 35.7386 8.05576   4 
  -2  -6  -6 38.1206 5.70843   3 
   2   6   6 55.1917 6.70365   2 
  -3  -6  -6 65.1698 10.0680   4 
   3   6   6 63.1282 8.25439   2 
   4   6   6 4.84488 4.21709   2 
   9  -7  -6 32.3787 6.49832   5 
   9  -7  -6 24.3783 7.78932   6 
  -9   7   6 40.0270 8.35386   1 
  -9   7   6 25.3883 6.42600   7 
  -9   7   6 43.0154 9.96548   2 
   8  -7  -6 22.1154 4.50546   5 
   8  -7  -6 20.6754 3.71679  14 
   8  -7  -6 18.8311 4.51240   5 
   8  -7  -6 25.5528 7.07011   6 
   8  -7  -6 15.3833 5.80329  13 
  -8   7   6 23.2819 6.79042   2 
  -8   7   6 18.1441 6.64422  12 
  -8   7   6 19.0556 5.39837   7 
   7  -7  -6 54.0061 7.92627   3 
   7  -7  -6 63.5155 9.10186   6 
   7  -7  -6 57.0372 8.90552  13 
  -7   7   6 62.2014 9.30153  12 
  -7   7   6 58.1195 7.55359   7 
  -7   7   6 57.2262 8.48467   2 
   6  -7  -6 75.1897 8.08747   3 
   6  -7  -6 77.6940 9.33233   6 
   6  -7  -6 60.8699 9.18871  13 
  -6   7   6 82.6827 10.0490  12 
  -6   7   6 61.6962 7.95130   2 
  -6   7   6 74.8017 7.49816   7 
   5  -7  -6 36.1880 5.62129   3 
   5  -7  -6 46.4690 7.69993  13 
   5  -7  -6 50.4115 7.59743   6 
   5  -7  -6 44.9351 7.24865  10 
  -5   7   6 40.7084 7.54371  12 
  -5   7   6 37.6903 5.80513   2 
  -5   7   6 31.3336 5.15862   7 
   4  -7  -6 103.518 9.82762   6 
   4  -7  -6 102.304 9.83681  10 
   4  -7  -6 93.9082 10.0023  13 
   4  -7  -6 104.416 7.54201   3 
  -4   7   6 77.8286 7.18951   2 
  -4   7   6 82.2472 9.42266  12 
  -4   7   6 81.2181 6.97726   7 
   3  -7  -6 99.4513 6.74054   3 
   3  -7  -6 112.269 10.2538  10 
   3  -7  -6 111.492 10.5614  13 
   3  -7  -6 113.323 9.95128   6 
  -3   7   6 105.835 7.60609   7 
  -3   7   6 94.3503 7.15568   2 
  -3   7   6 103.510 7.15702   2 
  -3   7   6 90.0093 9.90715  12 
   2  -7  -6 59.2280 7.96535   6 
   2  -7  -6 66.5362 8.49999  13 
   2  -7  -6 57.6110 7.95333  10 
   2  -7  -6 57.8294 4.87506   3 
  -2   7   6 66.5860 6.18211   7 
  -2   7   6 69.5148 5.58602   2 
  -2   7   6 67.3575 5.51003   2 
   1  -7  -6 57.2500 8.31520  10 
   1  -7  -6 52.8226 4.50444   3 
   1  -7  -6 54.3552 7.84514   6 
   1  -7  -6 59.1464 8.40950  13 
  -1   7   6 40.6558 4.69423   2 
  -1   7   6 42.1246 4.68213   2 
  -1   7   6 38.1970 4.57076   2 
   0  -7  -6 29.9682 7.03757  10 
   0  -7  -6 32.3418 4.10660   3 
   0  -7  -6 41.4530 7.48535   6 
   0  -7  -6 26.6712 6.38282   4 
   0  -7  -6 30.9186 7.02704  13 
   0   7   6 24.9842 4.27320   2 
   0   7   6 31.0030 4.49220   2 
  -1  -7  -6 6.03125 4.84722   4 
  -1  -7  -6 5.88675 4.72843  10 
  -1  -7  -6 10.0612 2.94305   3 
   1   7   6 8.31176 3.08908   2 
  -2  -7  -6 37.8532 5.66116   3 
  -2  -7  -6 31.1822 8.43109   4 
   2   7   6 52.2675 6.76542   2 
  -3  -7  -6 20.0706 7.66077   4 
   3   7   6 9.65593 4.29577   2 
   9  -8  -6 14.6497 3.85990   5 
   9  -8  -6 15.9409 4.37953   5 
   9  -8  -6 13.6010 6.22891   6 
  -9   8   6 27.8092 8.03539   2 
  -9   8   6 25.2195 6.67582   7 
   8  -8  -6 27.8770 7.93349   6 
  -8   8   6 25.1327 5.90292   7 
  -8   8   6 16.1216 5.65316   2 
   7  -8  -6 43.8208 8.82097  13 
   7  -8  -6 41.8849 8.37393   6 
  -7   8   6 34.7328 6.65957   7 
  -7   8   6 41.1596 8.03719   2 
  -7   8   6 36.7683 8.70655  12 
   6  -8  -6 33.3806 6.18460   3 
   6  -8  -6 31.6482 7.31664   6 
   6  -8  -6 47.1042 8.74369  13 
  -6   8   6 30.5949 7.87285  12 
  -6   8   6 32.4616 6.55004   2 
  -6   8   6 36.2702 6.20095   7 
   5  -8  -6 56.3850 8.45137   6 
   5  -8  -6 58.9182 6.58076   3 
   5  -8  -6 63.8378 9.40006  13 
  -5   8   6 83.6282 10.3857  12 
  -5   8   6 68.5089 7.35095   2 
  -5   8   6 63.6859 6.70741   7 
   4  -8  -6 81.4514 6.76775   3 
   4  -8  -6 93.9667 9.85742  10 
   4  -8  -6 91.4388 10.0327   6 
   4  -8  -6 76.5001 9.99680  13 
  -4   8   6 77.5477 7.01982   2 
  -4   8   6 83.4612 10.2493  12 
   3  -8  -6 107.578 6.91200   3 
   3  -8  -6 83.8503 10.3907  10 
   3  -8  -6 100.446 10.4265   6 
   3  -8  -6 114.367 11.3278  13 
  -3   8   6 109.552 7.34150   2 
  -3   8   6 110.451 7.59197   2 
  -3   8   6 123.813 11.5596  12 
   2  -8  -6 43.6243 8.00172   6 
   2  -8  -6 46.0256 8.52753  13 
   2  -8  -6 45.2384 8.07536  10 
   2  -8  -6 37.8268 3.85044   3 
  -2   8   6 38.2274 4.44653   2 
  -2   8   6 41.9241 4.60063   2 
  -2   8   6 46.8804 7.98659  12 
   1  -8  -6 84.7741 10.4003  13 
   1  -8  -6 63.7248 9.06981   6 
   1  -8  -6 85.0200 10.7969  10 
   1  -8  -6 80.6155 5.21385   3 
  -1   8   6 64.9763 5.37652   2 
  -1   8   6 69.0260 9.21512  12 
  -1   8   6 75.6992 5.77003   2 
   0  -8  -6 87.7366 10.6719   4 
   0  -8  -6 81.5594 5.70663   3 
   0  -8  -6 68.3430 9.91794   6 
   0   8   6 85.2995 6.37236   2 
  -1  -8  -6 19.5189 6.95682   4 
  -1  -8  -6 27.1652 4.83878   3 
   1   8   6 21.8444 4.81138   2 
  -2  -8  -6 13.6350 6.78202   4 
   2   8   6 18.2510 4.86282   2 
   8  -9  -6 -0.8829 4.55658   6 
  -8   9   6 -1.1943 3.68970   2 
   7  -9  -6 14.2109 6.10832   6 
  -7   9   6 13.7355 5.26023   2 
   6  -9  -6 45.4134 8.71356   6 
   6  -9  -6 45.0152 11.7332  13 
  -6   9   6 64.2591 12.8011  12 
  -6   9   6 55.2814 7.88677   2 
   5  -9  -6 53.5409 9.41575  13 
   5  -9  -6 50.6836 6.25121   3 
   5  -9  -6 43.7172 9.08333   6 
  -5   9   6 24.3706 7.45831  12 
  -5   9   6 46.4638 6.53935   2 
   4  -9  -6 44.5456 8.80573  10 
   4  -9  -6 49.0276 8.80786   6 
   4  -9  -6 37.0270 8.35798  13 
   4  -9  -6 31.6542 4.68228   3 
  -4   9   6 34.2027 8.12726  12 
  -4   9   6 29.1910 4.94549   2 
   3  -9  -6 -0.2165 1.58781   3 
   3  -9  -6 4.27418 4.59476   6 
   3  -9  -6 -4.7634 3.51124  13 
  -3   9   6 -0.1493 4.04544  12 
  -3   9   6 3.60795 2.34233   2 
  -3   9   6 2.40003 2.14988   2 
   2  -9  -6 35.9447 8.81866  13 
   2  -9  -6 30.7369 7.61079   6 
  -2   9   6 39.5228 4.26800   2 
  -2   9   6 38.5001 4.29053   2 
  -2   9   6 40.7925 8.29299  12 
   1  -9  -6 37.5915 9.57641  13 
   1  -9  -6 47.0697 9.15538   6 
  -1   9   6 46.7941 8.88409  12 
   0  -9  -6 25.1572 8.01403   4 
   0   9   6 19.6306 6.32146  12 
   7 -10  -6 52.7381 10.1789   6 
  -7  10   6 49.3788 8.58710   2 
   6 -10  -6 103.507 12.1269   6 
  -6  10   6 89.5056 9.30065   2 
   5 -10  -6 53.4256 9.96877   6 
  -5  10   6 36.0678 6.00243   2 
   4 -10  -6 19.4462 6.53768   6 
  -4  10   6 15.1083 3.79108   2 
   3 -10  -6 22.9428 6.99716   6 
   2 -10  -6 44.7406 9.22001   6 
   1 -10  -6 60.0280 10.8548   6 
   1  12  -7 5.41393 5.50905   2 
  -1 -12   7 3.01490 5.20919   4 
   0  12  -7 40.9902 9.11831   2 
   0 -12   7 48.1365 9.53028   4 
  -1  12  -7 115.568 12.6445   2 
   1 -12   7 133.138 12.4197   4 
   1 -12   7 116.738 12.5450   9 
  -2  12  -7 88.1474 11.5987   2 
   2 -12   7 84.6428 11.0436   9 
   2 -12   7 73.1266 9.35983   4 
  -3  12  -7 21.1793 6.77733   2 
   3 -12   7 18.3579 3.37954  14 
   3 -12   7 19.3166 4.00486   5 
   3 -12   7 16.2415 7.13318   9 
   3 -12   7 19.3730 4.14212   5 
   3 -12   7 13.8966 3.12724  14 
  -4  12  -7 34.8481 8.99270   2 
   4 -12   7 37.3842 5.61558  14 
   4 -12   7 40.1037 6.25738   5 
   4 -12   7 39.8334 9.39682   9 
   4 -12   7 40.8879 6.06500   5 
   3  11  -7 37.5983 8.93514   2 
  -3 -11   7 35.2421 9.45978   4 
   2  11  -7 39.3402 9.10740   2 
  -2 -11   7 43.9682 9.78733   4 
   1  11  -7 39.5535 9.08571   2 
  -1 -11   7 29.3682 7.69034   4 
   0  11  -7 81.1038 10.5060   2 
   0 -11   7 69.8246 10.0172   9 
   0 -11   7 80.2710 10.2380   4 
  -1  11  -7 59.7928 9.47715   2 
   1 -11   7 71.8902 9.15217   4 
   1 -11   7 61.4793 5.93474   5 
   1 -11   7 55.6693 5.80944   5 
   1 -11   7 60.7140 4.94416  14 
   1 -11   7 55.6839 4.96567  14 
   1 -11   7 53.0331 9.05696   9 
  -2  11  -7 50.6275 9.26722   2 
  -2  11  -7 42.5648 9.17261   1 
   2 -11   7 56.0462 7.94575   4 
   2 -11   7 54.3159 5.39607  14 
   2 -11   7 52.5955 6.06671   5 
   2 -11   7 53.8171 9.27970   9 
   2 -11   7 49.8092 6.16449   5 
   2 -11   7 52.6204 5.21570  14 
  -3  11  -7 40.8106 9.11646   2 
  -3  11  -7 33.5257 7.37436   1 
   3 -11   7 45.9459 6.20862   5 
   3 -11   7 37.7154 8.76413   9 
   3 -11   7 37.3847 5.71997   5 
   3 -11   7 41.7781 5.65768  14 
  -4  11  -7 88.3304 11.9529   2 
  -4  11  -7 67.3975 10.0150   1 
   4 -11   7 90.5885 11.6607   9 
   4 -11   7 67.9618 8.07635   5 
   4 -11   7 76.9880 7.58589  14 
  -5  11  -7 33.9989 8.30992   1 
  -5  11  -7 49.4165 10.7694   2 
   5 -11   7 30.2920 6.34449   5 
   5 -11   7 40.5349 6.96195  14 
   5 -11   7 34.6149 8.13153   9 
  -6  11  -7 7.84869 5.80884  11 
   4  10  -7 10.9898 5.79656   2 
  -4 -10   7 23.8996 7.77163   4 
   3  10  -7 17.1817 5.77705   2 
  -3 -10   7 10.0645 6.09030   4 
   2  10  -7 61.0947 9.72814   2 
  -2 -10   7 49.9774 4.36801  14 
  -2 -10   7 48.4071 5.43238   5 
  -2 -10   7 58.3474 9.24302   4 
  -2 -10   7 57.5328 5.59632   5 
  -2 -10   7 55.4995 4.62989  14 
   1  10  -7 77.7257 10.0421   2 
  -1 -10   7 85.2521 5.75385  14 
  -1 -10   7 86.4839 6.72295   5 
  -1 -10   7 86.1151 6.65917   5 
  -1 -10   7 77.0169 5.75462  14 
  -1 -10   7 87.6353 10.3921   4 
   0  10  -7 97.7747 9.31706   1 
   0  10  -7 81.4380 10.2583   2 
   0 -10   7 93.7742 7.20130   5 
   0 -10   7 96.9416 6.50248  14 
   0 -10   7 96.9367 10.2240   4 
   0 -10   7 97.6574 10.4335   9 
   0 -10   7 107.569 7.63874   5 
   0 -10   7 96.6671 6.65288  14 
  -1  10  -7 81.5584 10.1611   2 
  -1  10  -7 85.1879 8.87821   1 
   1 -10   7 83.2508 6.55799  14 
   1 -10   7 73.8266 6.66037   5 
   1 -10   7 78.1992 6.21802  14 
   1 -10   7 78.9694 6.90586   5 
   1 -10   7 79.0208 8.91000   4 
   1 -10   7 73.2309 9.34050   9 
  -2  10  -7 73.5050 9.79503   2 
  -2  10  -7 58.2231 7.81902   1 
   2 -10   7 49.1088 6.15035   5 
   2 -10   7 52.6552 5.92451  14 
   2 -10   7 46.0800 5.15908   1 
   2 -10   7 40.5719 5.56727   5 
   2 -10   7 47.3888 7.09139   4 
   2 -10   7 45.4198 8.18714   9 
  -3  10  -7 37.7702 7.51765  11 
  -3  10  -7 48.9108 8.03299   1 
  -3  10  -7 40.0066 8.57143   2 
   3 -10   7 55.2059 8.73774   9 
   3 -10   7 53.5836 6.30522  14 
   3 -10   7 53.5233 6.89476   5 
   3 -10   7 45.3371 6.33478   4 
   3 -10   7 56.6506 5.71768   1 
  -4  10  -7 44.1315 7.62143  11 
  -4  10  -7 49.8373 8.60496   1 
  -4  10  -7 36.9476 8.58747   2 
   4 -10   7 31.2623 5.61002   1 
   4 -10   7 41.7492 6.54198  14 
   4 -10   7 31.9281 7.44802   9 
   4 -10   7 46.0200 7.08295   5 
  -5  10  -7 43.3264 9.01635   1 
  -5  10  -7 54.8407 8.97512  11 
  -5  10  -7 34.0206 8.56745   2 
   5 -10   7 29.6353 6.01338  14 
   5 -10   7 27.2157 7.70612   9 
   5 -10   7 34.3392 7.58416   5 
   5 -10   7 24.2028 5.56901   1 
  -6  10  -7 26.6508 7.50520   1 
  -6  10  -7 34.2499 8.21326  11 
   6 -10   7 17.0154 5.30159  14 
   6 -10   7 30.9505 11.1544   5 
   6 -10   7 47.1293 7.47877   1 
   6 -10   7 29.4439 8.49539   9 
   5   9  -7 1.02885 4.52897   2 
  -5  -9   7 3.58599 5.32050   4 
  -5  -9   7 1.11664 2.21368  14 
  -5  -9   7 2.76585 2.71547   5 
  -5  -9   7 2.68338 2.62592  14 
  -5  -9   7 0.84819 2.78530   5 
   4   9  -7 -0.6158 4.27075   2 
  -4  -9   7 0.60427 4.93318   4 
  -4  -9   7 3.42789 2.86537   5 
  -4  -9   7 2.02088 2.40773   5 
  -4  -9   7 1.46181 2.15218  14 
  -4  -9   7 1.09182 1.98922  14 
   3   9  -7 59.3180 9.41033   2 
   3   9  -7 48.4165 7.75406   1 
  -3  -9   7 45.5862 4.90992  14 
  -3  -9   7 45.3444 8.37020   4 
  -3  -9   7 48.3110 5.27462  14 
  -3  -9   7 46.4761 5.86794   5 
  -3  -9   7 37.8127 5.37275   5 
   2   9  -7 110.533 11.2163   2 
   2   9  -7 113.633 9.85759   1 
  -2  -9   7 97.1645 7.00492  14 
  -2  -9   7 107.473 10.7287   4 
  -2  -9   7 96.5874 7.53468   5 
  -2  -9   7 96.8800 6.78589  14 
  -2  -9   7 96.6026 7.44999   5 
   1   9  -7 83.8990 9.80341   2 
   1   9  -7 81.8269 8.65545   1 
  -1  -9   7 92.3743 9.63848   4 
  -1  -9   7 96.2909 6.61795   1 
  -1  -9   7 95.7317 6.82907  14 
  -1  -9   7 97.0652 7.45445   5 
  -1  -9   7 104.878 10.2425   9 
  -1  -9   7 102.001 7.41016   5 
  -1  -9   7 106.294 6.97476  14 
   0   9  -7 54.3894 8.28490   2 
   0   9  -7 48.3962 6.81329   1 
   0  -9   7 56.2447 5.68389  14 
   0  -9   7 54.6827 7.76646   9 
   0  -9   7 63.9467 7.81292   4 
   0  -9   7 53.1489 5.83096   5 
   0  -9   7 60.7030 6.11946   5 
   0  -9   7 56.5833 4.97991   1 
   0  -9   7 59.7280 5.45414  14 
  -1   9  -7 37.8653 7.37407   2 
  -1   9  -7 34.1988 6.35199   1 
   1  -9   7 37.2860 5.32786   5 
   1  -9   7 26.7329 6.20094   9 
   1  -9   7 35.7511 4.60890   1 
   1  -9   7 31.1616 4.95120  14 
   1  -9   7 36.4547 5.11331   5 
  -2   9  -7 59.6195 7.62967   1 
  -2   9  -7 65.8871 8.93871   2 
  -2   9  -7 53.0489 6.31574  11 
   2  -9   7 50.2004 6.30128   5 
   2  -9   7 64.3819 6.13887   1 
   2  -9   7 57.5608 6.12507  14 
   2  -9   7 56.3487 8.09474   9 
  -3   9  -7 65.0642 7.79540  11 
  -3   9  -7 60.2100 8.19326   1 
  -3   9  -7 67.6994 9.46174   2 
   3  -9   7 78.3352 9.44573   9 
   3  -9   7 85.1808 8.03894   5 
   3  -9   7 85.3598 7.80395  14 
   3  -9   7 74.9997 7.24961   1 
  -4   9  -7 100.665 10.0220  11 
  -4   9  -7 79.4863 9.97159   1 
  -4   9  -7 111.182 12.0429   2 
   4  -9   7 93.9949 8.57698   1 
   4  -9   7 93.7427 10.3782   9 
   4  -9   7 93.5802 9.08807   5 
   4  -9   7 83.0518 8.45053  14 
  -5   9  -7 64.1180 9.56723   1 
  -5   9  -7 55.2612 9.03643  11 
   5  -9   7 73.0474 10.1268   9 
   5  -9   7 58.2508 7.86478  14 
   5  -9   7 56.5161 7.84708   5 
   5  -9   7 59.0037 7.88276   1 
  -6   9  -7 6.74595 5.04143   1 
  -6   9  -7 6.83752 5.17983  11 
   6  -9   7 5.95805 5.09043   9 
   6  -9   7 11.7009 4.87847   1 
  -7   9  -7 8.76387 5.93064   1 
  -7   9  -7 12.6461 6.68659  11 
   7  -9   7 18.8362 6.19806   1 
   6   8  -7 4.45891 7.16019   1 
   6   8  -7 4.89812 5.90521   2 
  -6  -8   7 8.25797 6.15175   4 
  -6  -8   7 3.47089 3.12917  14 
  -6  -8   7 8.47837 4.09639   5 
   5   8  -7 19.1429 5.97200   1 
   5   8  -7 7.15670 4.78539   2 
  -5  -8   7 13.0175 6.50129   4 
  -5  -8   7 6.84624 3.75984   5 
  -5  -8   7 8.78220 3.29286  14 
   4   8  -7 73.1811 8.79160   1 
   4   8  -7 54.5200 9.34923   2 
  -4  -8   7 51.0554 6.45427   5 
  -4  -8   7 46.1515 5.95357   5 
  -4  -8   7 44.1567 5.86486  14 
  -4  -8   7 46.5346 8.94249   4 
   3   8  -7 196.856 13.2158   1 
   3   8  -7 220.020 15.3674   2 
  -3  -8   7 205.409 11.5276   5 
  -3  -8   7 181.403 10.5692  14 
  -3  -8   7 188.526 11.2615   5 
  -3  -8   7 194.923 14.0705   4 
  -3  -8   7 204.485 10.2712   1 
   2   8  -7 70.9163 8.85648   2 
   2   8  -7 64.8849 7.47414   1 
  -2  -8   7 63.0379 6.14288   5 
  -2  -8   7 61.6668 5.88707  14 
  -2  -8   7 55.9479 6.13478   5 
  -2  -8   7 65.0829 8.25970   4 
  -2  -8   7 63.9502 5.50779   1 
   1   8  -7 15.4959 4.63049   8 
   1   8  -7 22.7071 5.11572   1 
   1   8  -7 20.1285 5.39776   2 
  -1  -8   7 32.0683 4.62273   5 
  -1  -8   7 27.6330 4.48557  14 
  -1  -8   7 24.3900 4.71216   5 
  -1  -8   7 33.2759 4.31825   1 
  -1  -8   7 29.3142 6.37406   9 
   0   8  -7 52.7056 7.69227   2 
   0   8  -7 57.7305 5.61458  11 
   0   8  -7 50.8970 6.62130   1 
   0   8  -7 53.9355 7.12223   8 
   0  -8   7 48.8215 5.56448  14 
   0  -8   7 53.9628 5.88325   5 
   0  -8   7 46.3019 6.92833   9 
   0  -8   7 48.3512 5.44801   1 
   0  -8   7 53.8391 5.70118   5 
   0  -8   7 51.0991 4.63477   7 
  -1   8  -7 237.843 13.8952   1 
  -1   8  -7 246.517 14.7577   8 
  -1   8  -7 259.163 12.9649  11 
  -1   8  -7 246.907 15.3012   2 
   1  -8   7 224.007 12.4387   5 
   1  -8   7 218.992 11.0725   7 
   1  -8   7 215.066 11.7604   1 
   1  -8   7 216.222 14.2556   9 
   1  -8   7 228.851 12.4676   5 
   1  -8   7 223.944 11.9244  14 
  -2   8  -7 90.8582 8.14876  11 
  -2   8  -7 79.1070 8.16539   1 
  -2   8  -7 89.1976 9.54411   2 
   2  -8   7 78.2510 7.17120  14 
   2  -8   7 76.0557 7.35061   5 
   2  -8   7 75.8307 7.03074   1 
   2  -8   7 69.7825 8.54890   9 
  -3   8  -7 18.5777 5.50606   2 
  -3   8  -7 20.2809 5.26779   1 
  -3   8  -7 25.9011 5.66153  11 
   3  -8   7 14.8512 4.15647   1 
   3  -8   7 25.4512 5.09319  14 
   3  -8   7 20.0329 4.84323   5 
   3  -8   7 16.6957 5.43359   9 
  -4   8  -7 55.8419 8.38681   1 
  -4   8  -7 50.1998 8.46646   2 
  -4   8  -7 46.7400 7.58773  11 
   4  -8   7 44.7341 6.63759  14 
   4  -8   7 58.3180 8.26647   9 
   4  -8   7 43.9297 6.90264   1 
   4  -8   7 50.4869 7.00975   5 
  -5   8  -7 72.1489 9.62595   1 
  -5   8  -7 69.6288 9.13033  11 
   5  -8   7 62.6732 8.14412   1 
   5  -8   7 66.2079 9.54583   9 
  -6   8  -7 16.6481 6.54317  11 
  -6   8  -7 3.94799 4.62382   1 
   6  -8   7 3.68571 4.50389   9 
   6  -8   7 13.7938 5.40689   1 
  -7   8  -7 -1.1610 4.05036   1 
  -7   8  -7 -4.0501 4.55380  11 
   7  -8   7 0.01384 4.57128   9 
   7  -8   7 0.18174 3.76093   1 
   7   7  -7 18.3273 6.22177   1 
  -7  -7   7 15.0603 4.66502  14 
  -7  -7   7 27.0465 8.19238   4 
  -7  -7   7 19.0704 5.62681   5 
   6   7  -7 1.48127 4.52463   2 
   6   7  -7 0.62180 3.96953   1 
  -6  -7   7 -1.1922 2.65349   5 
  -6  -7   7 -0.3058 2.67470  14 
  -6  -7   7 7.86321 5.51662   4 
   5   7  -7 9.35979 4.58545   1 
   5   7  -7 6.54195 4.21068   2 
  -5  -7   7 11.1024 3.51178   1 
  -5  -7   7 12.7936 5.46921   4 
  -5  -7   7 11.1212 4.09513   5 
  -5  -7   7 6.77930 3.32589  14 
   4   7  -7 143.866 12.8316   2 
   4   7  -7 128.661 11.0144   1 
  -4  -7   7 159.302 12.4272   4 
  -4  -7   7 138.773 9.17121   1 
  -4  -7   7 149.651 9.73465  14 
  -4  -7   7 146.187 10.1157   5 
   3   7  -7 217.667 14.0425   8 
   3   7  -7 223.568 14.8942   2 
   3   7  -7 210.952 13.2629   1 
  -3  -7   7 205.065 11.4739  14 
  -3  -7   7 221.561 12.3198   5 
  -3  -7   7 231.828 12.5322   5 
  -3  -7   7 208.418 10.8295   7 
  -3  -7   7 222.395 11.5843   1 
   2   7  -7 129.611 9.65586   1 
   2   7  -7 131.958 10.9177   2 
   2   7  -7 113.795 9.70910   8 
  -2  -7   7 117.973 8.15013  14 
  -2  -7   7 121.354 8.62012   5 
  -2  -7   7 128.298 7.57613   7 
  -2  -7   7 130.061 8.37982   1 
  -2  -7   7 128.164 8.75585   5 
   1   7  -7 51.7546 7.19266   2 
   1   7  -7 53.5298 6.94606   8 
   1   7  -7 53.5445 6.53503   1 
   1   7  -7 62.5162 5.78645  11 
  -1  -7   7 67.6999 5.31074   7 
  -1  -7   7 74.2327 7.67275   9 
  -1  -7   7 68.8130 6.32815   5 
  -1  -7   7 71.9849 6.17670  14 
  -1  -7   7 65.7179 6.20195   5 
  -1  -7   7 71.9395 6.21383   1 
   0   7  -7 139.541 9.87481   1 
   0   7  -7 140.200 11.0375   2 
   0   7  -7 144.467 8.99789  11 
   0   7  -7 138.274 10.4258   8 
   0   7  -7 145.225 9.98090   3 
   0  -7   7 141.451 10.4418   9 
   0  -7   7 148.817 9.06663  14 
   0  -7   7 127.446 8.60068   1 
   0  -7   7 155.860 9.57272   5 
   0  -7   7 146.456 9.37995   5 
   0  -7   7 130.549 7.78285   7 
  -1   7  -7 453.954 20.5084   1 
  -1   7  -7 440.208 21.7002   2 
  -1   7  -7 443.509 20.0691   3 
  -1   7  -7 437.802 19.2661  11 
   1  -7   7 441.442 18.8843   1 
   1  -7   7 422.254 20.6662   9 
   1  -7   7 453.218 19.5281   5 
   1  -7   7 445.448 19.4067   5 
   1  -7   7 429.999 18.7533  14 
  -2   7  -7 194.960 12.1589   3 
  -2   7  -7 194.808 11.8842  11 
  -2   7  -7 183.825 13.1979   2 
  -2   7  -7 186.447 12.1296   1 
   2  -7   7 177.759 11.3598   5 
   2  -7   7 185.902 10.9225  14 
   2  -7   7 182.999 11.0750   1 
   2  -7   7 188.595 12.6748   9 
  -3   7  -7 143.270 10.9831   1 
  -3   7  -7 123.907 10.4407   3 
  -3   7  -7 123.685 11.3955   2 
  -3   7  -7 147.294 11.0786  11 
   3  -7   7 130.742 10.9134   9 
   3  -7   7 151.543 10.4009   1 
   3  -7   7 155.227 10.2409  14 
   3  -7   7 163.813 10.9489   5 
  -4   7  -7 77.1338 9.71939   2 
  -4   7  -7 66.5994 8.77064  11 
  -4   7  -7 94.3333 9.68176   1 
   4  -7   7 84.2914 9.22621   9 
   4  -7   7 88.1552 8.56971   1 
   4  -7   7 79.8652 8.53489   5 
  -5   7  -7 53.8627 8.49798   1 
  -5   7  -7 62.1838 8.80563  11 
   5  -7   7 66.7522 9.08857   9 
   5  -7   7 62.1136 8.27900   1 
  -6   7  -7 17.1658 6.01048   1 
  -6   7  -7 26.2467 7.38529  11 
   6  -7   7 24.6912 6.75487   1 
   6  -7   7 10.9877 5.42629   9 
  -7   7  -7 21.0547 7.46610  11 
  -7   7  -7 51.8066 9.85853   1 
   7  -7   7 26.0548 7.18539   1 
   7  -7   7 30.4415 8.37650   3 
   7   6  -7 13.2856 5.97256   1 
  -7  -6   7 11.0924 4.02903   1 
  -7  -6   7 8.00369 4.18018  14 
  -7  -6   7 12.4944 6.20637   4 
  -7  -6   7 14.2616 5.31270   5 
  -7  -6   7 10.8922 4.19292   1 
   6   6  -7 15.8647 5.62531   1 
   6   6  -7 23.9071 7.06762   2 
  -6  -6   7 16.2040 4.66574  14 
  -6  -6   7 14.0105 4.85441   5 
  -6  -6   7 14.9135 6.06867   4 
  -6  -6   7 12.8971 4.32011   1 
  -6  -6   7 12.4833 3.97659   7 
   5   6  -7 34.3175 7.49635   2 
   5   6  -7 37.4461 7.20797   1 
  -5  -6   7 28.0089 5.46787   1 
  -5  -6   7 34.3208 5.21778   7 
  -5  -6   7 46.8325 6.29939  14 
  -5  -6   7 34.2238 7.15615   4 
  -5  -6   7 38.1543 6.19451   5 
   4   6  -7 207.982 13.9931   8 
   4   6  -7 217.105 13.6917   1 
   4   6  -7 192.045 14.4132   2 
  -4  -6   7 224.597 12.1744  14 
  -4  -6   7 225.727 12.6736   5 
  -4  -6   7 217.953 11.4691   7 
  -4  -6   7 219.111 12.0204   1 
   3   6  -7 135.621 10.4686   8 
   3   6  -7 132.771 9.93982   1 
   3   6  -7 130.861 10.8154   2 
  -3  -6   7 127.357 9.07473   5 
  -3  -6   7 126.250 7.99500   7 
  -3  -6   7 129.087 8.77620  14 
  -3  -6   7 124.166 8.61691   1 
  -3  -6   7 122.836 8.83106   5 
   2   6  -7 32.5695 5.91631   2 
   2   6  -7 35.1171 5.22794   3 
   2   6  -7 30.8137 5.61434   8 
   2   6  -7 36.2162 4.55433  11 
   2   6  -7 31.0185 5.21483   1 
  -2  -6   7 29.8732 4.70752   5 
  -2  -6   7 26.7303 4.39999   5 
  -2  -6   7 26.1541 3.80848   7 
  -2  -6   7 30.7855 4.72301  14 
  -2  -6   7 21.6386 4.25899   1 
   1   6  -7 14.3166 4.03187   1 
   1   6  -7 8.57462 2.80956  11 
   1   6  -7 8.74993 3.36235   2 
   1   6  -7 14.3886 4.29588   8 
   1   6  -7 10.2358 3.49537   3 
  -1  -6   7 16.1816 3.03236   7 
  -1  -6   7 22.7719 4.10970   1 
  -1  -6   7 15.4517 3.43549   5 
  -1  -6   7 15.2108 3.65401  14 
  -1  -6   7 20.1314 3.93481   5 
  -1  -6   7 20.4341 4.62842   9 
   0   6  -7 238.234 13.5123   1 
   0   6  -7 249.592 12.9468  11 
   0   6  -7 249.237 14.8080   2 
   0   6  -7 260.850 14.5068   8 
   0   6  -7 261.516 13.9655   3 
   0  -6   7 259.434 12.9222   1 
   0  -6   7 279.991 13.5324   5 
   0  -6   7 261.720 12.7593  14 
   0  -6   7 283.193 14.5739   9 
   0  -6   7 293.361 13.8790   5 
   0  -6   7 274.612 12.4139   7 
  -1   6  -7 487.125 22.2702   2 
  -1   6  -7 454.404 20.6604   3 
  -1   6  -7 466.058 20.1272  11 
  -1   6  -7 455.541 20.5577   1 
   1  -6   7 464.153 20.0064   5 
   1  -6   7 464.420 19.6153  14 
   1  -6   7 447.810 19.3964   1 
   1  -6   7 461.244 21.8706   5 
   1  -6   7 449.426 20.5551   9 
  -2   6  -7 67.0253 7.04303   1 
  -2   6  -7 60.0403 7.56782   2 
  -2   6  -7 61.4426 7.13435   3 
  -2   6  -7 69.0724 7.31911  11 
   2  -6   7 63.1002 6.61832   1 
   2  -6   7 79.4124 7.68777   9 
   2  -6   7 77.1396 7.20456   5 
   2  -6   7 78.3002 7.01330  14 
  -3   6  -7 54.5344 7.09487   1 
  -3   6  -7 60.5168 7.99871   2 
  -3   6  -7 50.7057 7.08608   3 
  -3   6  -7 57.3992 7.23109  11 
   3  -6   7 78.9498 8.23088   9 
   3  -6   7 71.8676 7.19396   1 
   3  -6   7 70.6911 7.46073   5 
  -4   6  -7 76.1002 8.63085   1 
  -4   6  -7 60.5084 7.92570   3 
  -4   6  -7 72.0207 8.47275  11 
   4  -6   7 74.5009 8.07854   1 
   4  -6   7 69.3513 8.41109   9 
  -5   6  -7 124.195 11.7601  11 
  -5   6  -7 126.072 11.2457   1 
  -5   6  -7 123.273 11.3764   3 
   5  -6   7 123.154 10.9671   1 
  -6   6  -7 16.3772 5.61543   1 
  -6   6  -7 35.9410 8.10721  11 
   6  -6   7 11.2766 5.58921   3 
   6  -6   7 26.3293 7.04464   1 
  -7   6  -7 33.6387 8.07129   1 
  -7   6  -7 34.3210 8.73793  11 
   7  -6   7 29.8760 8.03779   1 
   8   5  -7 52.2776 9.95594   1 
  -8  -5   7 55.3067 8.62603  14 
  -8  -5   7 36.7512 7.69090   1 
  -8  -5   7 39.1952 7.82143   1 
  -8  -5   7 42.7470 8.24486   7 
  -8  -5   7 44.8496 9.08192   4 
   7   5  -7 50.9464 8.89595   1 
  -7  -5   7 46.8701 8.65454   4 
  -7  -5   7 26.6081 5.94351  14 
  -7  -5   7 34.6743 6.89556   5 
  -7  -5   7 47.6153 7.21905   7 
  -7  -5   7 46.5888 7.44539   1 
   6   5  -7 9.20328 5.14734   2 
   6   5  -7 9.34194 4.53581   1 
  -6  -5   7 7.04489 3.75271   5 
  -6  -5   7 -0.0318 3.46759   4 
  -6  -5   7 1.40399 2.92254   7 
  -6  -5   7 7.69408 3.86035   1 
  -6  -5   7 1.46750 2.76132  14 
   5   5  -7 46.1705 7.35849   1 
   5   5  -7 51.0089 7.84405   2 
  -5  -5   7 54.9603 6.67592   1 
  -5  -5   7 48.9217 6.39785  14 
  -5  -5   7 53.4059 5.83542   7 
  -5  -5   7 54.7736 6.72837   5 
   4   5  -7 211.399 13.4055   8 
   4   5  -7 213.016 14.1316   2 
   4   5  -7 199.103 12.6046   1 
   4   5  -7 198.579 12.6321   3 
  -4  -5   7 185.091 11.3219   1 
  -4  -5   7 201.731 11.0210   7 
  -4  -5   7 198.014 11.4204  14 
  -4  -5   7 189.112 11.7285   5 
   3   5  -7 340.013 16.9118   1 
   3   5  -7 361.560 17.9668   8 
   3   5  -7 371.426 18.5756   2 
   3   5  -7 371.544 17.4304   3 
  -3  -5   7 344.879 16.1133   1 
  -3  -5   7 346.305 15.3776   7 
  -3  -5   7 321.102 18.0179   5 
  -3  -5   7 363.898 16.6618   5 
  -3  -5   7 345.945 15.8748  14 
   2   5  -7 75.3052 7.35253   8 
   2   5  -7 73.5766 6.91799   3 
   2   5  -7 71.7600 7.42894   2 
   2   5  -7 65.2461 5.91630  11 
   2   5  -7 67.8114 6.55404   1 
  -2  -5   7 50.7756 5.40790  14 
  -2  -5   7 50.1581 5.55803   5 
  -2  -5   7 52.9354 5.98253   9 
  -2  -5   7 52.2062 5.57216   5 
  -2  -5   7 55.2005 5.70209   1 
  -2  -5   7 51.0210 5.03628   7 
   1   5  -7 119.198 8.88765   3 
   1   5  -7 123.949 8.32717  11 
   1   5  -7 122.660 9.43341   8 
   1   5  -7 127.945 8.93036   1 
   1   5  -7 126.322 9.74396   2 
  -1  -5   7 131.548 8.64822   5 
  -1  -5   7 151.691 11.4541   2 
  -1  -5   7 142.937 8.93443   5 
  -1  -5   7 140.082 9.13167   9 
  -1  -5   7 129.727 8.42699   1 
  -1  -5   7 127.564 8.21448  14 
  -1  -5   7 127.283 7.73929   7 
   0   5  -7 412.415 19.0661   8 
   0   5  -7 417.280 18.4730   1 
   0   5  -7 399.227 18.5156   3 
   0   5  -7 425.345 18.3136  14 
   0   5  -7 408.047 18.6540   5 
   0   5  -7 429.940 19.8978   2 
   0   5  -7 397.044 17.8515  11 
   0  -5   7 410.624 18.4139   9 
   0  -5   7 420.696 19.4427   2 
   0  -5   7 402.777 17.9702   5 
   0  -5   7 436.010 17.8584  14 
   0  -5   7 425.871 18.2069   5 
   0  -5   7 406.104 17.0166   7 
   0  -5   7 405.033 17.7954   1 
  -1   5  -7 311.302 16.6269   2 
  -1   5  -7 320.828 15.3729  14 
  -1   5  -7 314.145 15.3407  11 
  -1   5  -7 305.307 15.4665   1 
  -1   5  -7 319.268 15.8268   3 
   1  -5   7 299.402 15.1528   9 
   1  -5   7 306.208 14.9455   1 
   1  -5   7 293.087 15.8034   2 
   1  -5   7 319.795 15.2081   5 
   1  -5   7 348.464 21.5278   5 
   1  -5   7 315.973 14.7580  14 
  -2   5  -7 2.84789 2.95386  11 
  -2   5  -7 3.28547 2.62071   1 
  -2   5  -7 2.03601 2.58328   3 
  -2   5  -7 3.01202 2.29082  14 
  -2   5  -7 4.87153 3.08241   2 
   2  -5   7 8.67096 3.41551   9 
   2  -5   7 14.5758 5.03323   2 
   2  -5   7 7.97931 2.84926   1 
   2  -5   7 7.42020 3.24918   5 
  -3   5  -7 39.8895 6.66488   2 
  -3   5  -7 35.1356 5.85853   1 
  -3   5  -7 46.4271 6.57342  11 
  -3   5  -7 31.0468 5.62763   3 
  -3   5  -7 35.8712 5.75544  14 
   3  -5   7 26.5771 5.31966   9 
   3  -5   7 33.5676 5.69909   5 
   3  -5   7 29.5856 5.27025   1 
  -4   5  -7 64.5983 7.86628   3 
  -4   5  -7 66.7741 7.87881   1 
  -4   5  -7 68.3671 8.27765  11 
   4  -5   7 57.7497 7.35034   1 
  -5   5  -7 113.227 10.5340   1 
  -5   5  -7 110.697 10.7946   3 
  -5   5  -7 110.578 11.0167  11 
   5  -5   7 110.816 10.5203   1 
  -6   5  -7 11.0945 5.57424  11 
  -6   5  -7 12.0642 5.21228   1 
  -6   5  -7 6.49326 4.94357   3 
   6  -5   7 20.6881 6.02784   1 
  -7   5  -7 1.07575 4.85276  11 
  -7   5  -7 -2.5981 4.02074   1 
  -7   5  -7 -0.5306 4.52817   3 
   7  -5   7 5.26587 5.13765   1 
   8   4  -7 18.8624 6.40054   1 
  -8  -4   7 23.2739 6.26008  14 
  -8  -4   7 18.5116 6.08456   7 
  -8  -4   7 21.8593 6.47662   4 
  -8  -4   7 20.8863 6.01154   1 
   7   4  -7 45.6449 8.29702   1 
  -7  -4   7 39.4220 7.75759   4 
  -7  -4   7 47.9631 7.45947   1 
  -7  -4   7 46.2032 7.11441   7 
  -7  -4   7 42.9471 7.10780  14 
   6   4  -7 28.0132 6.63584   2 
   6   4  -7 29.5898 6.16597   1 
  -6  -4   7 26.5717 5.47366   7 
  -6  -4   7 19.6700 4.99850  14 
  -6  -4   7 15.3784 4.66808   1 
  -6  -4   7 14.7456 4.51393   5 
   5   4  -7 221.884 14.6608   2 
   5   4  -7 207.688 13.6214   3 
   5   4  -7 186.680 13.3196   8 
   5   4  -7 208.484 13.3266   1 
  -5  -4   7 217.108 12.6257   1 
  -5  -4   7 202.681 12.4823   5 
  -5  -4   7 205.606 11.8033   7 
  -5  -4   7 223.446 12.5561  14 
   4   4  -7 183.404 12.5393   8 
   4   4  -7 187.263 12.1771   3 
   4   4  -7 195.598 13.2704   2 
   4   4  -7 204.726 12.3952   1 
  -4  -4   7 191.718 10.8074   7 
  -4  -4   7 206.462 11.5111  14 
  -4  -4   7 186.937 11.4069   5 
  -4  -4   7 200.776 11.4706   1 
   3   4  -7 78.1113 7.62077   2 
   3   4  -7 79.1552 7.08227  14 
   3   4  -7 74.0837 7.01871   1 
   3   4  -7 75.5303 7.00743   3 
   3   4  -7 79.3097 7.49080   8 
  -3  -4   7 65.3827 6.34335   5 
  -3  -4   7 62.9465 6.21091  14 
  -3  -4   7 59.4097 6.00064   1 
  -3  -4   7 62.2818 7.25156   5 
  -3  -4   7 58.1673 5.77496   7 
   2   4  -7 31.4568 4.79886   1 
   2   4  -7 40.8572 5.06271  14 
   2   4  -7 36.1406 4.89760   5 
   2   4  -7 40.6320 5.52709   3 
   2   4  -7 41.9856 5.67561   8 
   2   4  -7 37.4595 5.45138   2 
   2   4  -7 38.6122 4.89688  11 
  -2  -4   7 45.9701 5.52507   2 
  -2  -4   7 45.2936 5.05724   9 
  -2  -4   7 46.4480 5.13084   1 
  -2  -4   7 45.0109 4.97609  14 
  -2  -4   7 49.0999 5.26520   5 
  -2  -4   7 46.4125 4.76781   7 
  -2  -4   7 47.8660 5.21115   5 
   1   4  -7 258.079 14.9003   5 
   1   4  -7 256.470 13.5393   8 
   1   4  -7 250.331 12.9369   5 
   1   4  -7 233.681 12.2039  11 
   1   4  -7 243.335 12.6562   1 
   1   4  -7 231.961 12.2959  14 
   1   4  -7 252.638 13.8393   2 
   1   4  -7 245.817 9.46488   6 
   1   4  -7 229.341 12.8318   3 
  -1  -4   7 249.506 12.3745   9 
  -1  -4   7 239.531 12.1052   1 
  -1  -4   7 242.412 11.8530  14 
  -1  -4   7 244.003 13.3389   2 
  -1  -4   7 258.435 12.5011   5 
  -1  -4   7 239.994 12.4635   5 
  -1  -4   7 248.121 11.6924   7 
   0   4  -7 519.300 21.7414   5 
   0   4  -7 521.538 21.9289   3 
   0   4  -7 537.709 21.5452  11 
   0   4  -7 498.039 21.1767   1 
   0   4  -7 513.588 21.6113   5 
   0   4  -7 524.771 22.8261   2 
   0   4  -7 552.503 22.5426   8 
   0  -4   7 508.619 20.9665   9 
   0  -4   7 515.592 22.6649   2 
   0  -4   7 524.069 21.0684   1 
   0  -4   7 517.943 21.2278   5 
   0  -4   7 529.048 22.7052   2 
   0  -4   7 513.417 20.8761  14 
  -1   4  -7 212.007 12.6311   2 
  -1   4  -7 217.708 12.0643   3 
  -1   4  -7 204.987 11.2511  14 
  -1   4  -7 191.850 11.2597   1 
  -1   4  -7 196.579 11.5228  11 
   1  -4   7 185.734 10.7773   1 
   1  -4   7 186.924 11.7698   2 
   1  -4   7 187.224 10.5746  14 
   1  -4   7 187.453 11.0160   5 
   1  -4   7 185.522 10.7637   9 
  -2   4  -7 7.06054 2.65861  14 
  -2   4  -7 8.06051 2.99449   5 
  -2   4  -7 9.21906 3.59862  11 
  -2   4  -7 7.46117 3.43083   3 
  -2   4  -7 5.29398 2.88247   2 
  -2   4  -7 6.19304 2.71710   1 
   2  -4   7 6.36621 2.86736   2 
   2  -4   7 15.3642 3.94378   1 
   2  -4   7 7.34720 2.87564   5 
   2  -4   7 15.3646 3.94765   9 
  -3   4  -7 170.902 11.9726  11 
  -3   4  -7 159.192 11.0038   1 
  -3   4  -7 187.239 12.1515   3 
  -3   4  -7 176.272 11.1589  14 
   3  -4   7 183.827 11.5826   1 
   3  -4   7 180.453 12.6840   2 
  -4   4  -7 230.420 14.8728  11 
  -4   4  -7 216.287 13.6313   1 
  -4   4  -7 237.992 14.7348   3 
  -4   4  -7 241.903 13.8197  14 
   4  -4   7 206.168 13.5776   1 
  -5   4  -7 36.1167 7.40183  11 
  -5   4  -7 41.3498 7.44240   3 
  -5   4  -7 33.6966 6.52938  14 
  -5   4  -7 31.0933 6.49566   1 
   5  -4   7 34.8448 7.16126   1 
  -6   4  -7 17.4473 6.43982  11 
  -6   4  -7 6.26438 4.48666   1 
  -6   4  -7 10.2217 5.50270   3 
   6  -4   7 13.5863 5.67506   1 
  -7   4  -7 21.5639 6.61663   1 
  -7   4  -7 30.6664 8.11232  11 
   7  -4   7 19.8017 6.88006   1 
   9   3  -7 7.29617 5.88849   1 
  -9  -3   7 12.0865 5.52367   1 
  -9  -3   7 5.28127 4.86106  14 
  -9  -3   7 1.62992 4.05788   1 
  -9  -3   7 4.75416 4.64891   7 
   8   3  -7 29.3780 7.60853   1 
  -8  -3   7 31.2165 6.84781   1 
  -8  -3   7 27.5194 6.91647   4 
  -8  -3   7 33.7754 7.23234   7 
  -8  -3   7 44.5681 7.88053  14 
  -8  -3   7 25.9400 7.59805   3 
   7   3  -7 35.8732 7.36146   1 
  -7  -3   7 37.0690 6.86206   4 
  -7  -3   7 43.9896 7.01277   7 
  -7  -3   7 34.1367 6.63039  14 
  -7  -3   7 41.1589 7.27139   1 
   6   3  -7 33.7828 6.75920   3 
   6   3  -7 38.6505 8.56192   2 
   6   3  -7 34.0223 6.47152   1 
  -6  -3   7 35.2941 5.90947   7 
  -6  -3   7 16.8946 4.29050  14 
  -6  -3   7 30.0968 5.90409   1 
   5   3  -7 70.0519 8.08922   2 
   5   3  -7 65.4860 7.66905   3 
   5   3  -7 67.8089 7.58077   1 
   5   3  -7 69.2303 7.92628   8 
  -5  -3   7 73.0687 6.81429   7 
  -5  -3   7 69.8123 7.03135  14 
  -5  -3   7 83.1241 7.61661   1 
  -5  -3   7 80.9763 7.58530   5 
   4   3  -7 49.6326 6.28344   1 
   4   3  -7 54.5517 6.92282   2 
   4   3  -7 58.3839 6.86473   8 
   4   3  -7 49.9562 6.40301   3 
   4   3  -7 64.7208 6.61659  14 
  -4  -3   7 51.5498 5.84521   1 
  -4  -3   7 60.1322 5.99653   7 
  -4  -3   7 58.8363 6.05654  14 
  -4  -3   7 62.4835 6.21763   5 
  -4  -3   7 65.0315 10.5203   2 
   3   3  -7 276.869 14.9539   2 
   3   3  -7 276.358 14.1091   5 
   3   3  -7 277.422 13.7099  14 
   3   3  -7 285.008 14.3708   3 
   3   3  -7 280.038 13.8471   1 
   3   3  -7 283.674 14.5785   8 
  -3  -3   7 249.818 12.6866   7 
  -3  -3   7 256.788 13.3321   1 
  -3  -3   7 269.794 13.5504   5 
  -3  -3   7 265.727 14.7158   2 
  -3  -3   7 259.803 13.0319  14 
   2   3  -7 301.147 14.0664  14 
   2   3  -7 290.668 14.0918   1 
   2   3  -7 296.002 14.1055   5 
   2   3  -7 307.291 14.9276   3 
   2   3  -7 292.230 14.1841  11 
   2   3  -7 290.326 14.2817   5 
   2   3  -7 302.892 14.8768   8 
   2   3  -7 282.607 14.9694   2 
  -2  -3   7 328.366 15.6652   2 
  -2  -3   7 277.852 13.6759   1 
  -2  -3   7 293.553 13.7347  14 
  -2  -3   7 293.035 13.3903   9 
  -2  -3   7 310.388 14.2941   5 
  -2  -3   7 296.943 13.4337   7 
   1   3  -7 482.276 20.6982   3 
   1   3  -7 478.778 20.1552   1 
   1   3  -7 482.096 20.4358   5 
   1   3  -7 488.063 21.4301   2 
   1   3  -7 498.196 20.8752   8 
   1   3  -7 498.546 20.1406  14 
   1   3  -7 498.050 20.3731  11 
   1   3  -7 475.002 20.0649   5 
  -1  -3   7 521.240 20.4763   5 
  -1  -3   7 493.101 19.4835   9 
  -1  -3   7 494.819 20.1031   1 
  -1  -3   7 471.572 21.1597   2 
  -1  -3   7 531.376 20.7789   5 
  -1  -3   7 498.765 19.6742   7 
  -1  -3   7 517.656 19.9827  14 
   0   3  -7 37.6788 5.23337  11 
   0   3  -7 45.6389 5.48771   3 
   0   3  -7 53.2676 5.19707  14 
   0   3  -7 44.2327 4.97588   1 
   0   3  -7 51.4215 5.38184   5 
   0   3  -7 51.5055 5.78452   2 
   0  -3   7 40.9772 4.67835   5 
   0  -3   7 33.2989 4.75626   2 
   0  -3   7 32.7852 4.23679   5 
   0  -3   7 35.5389 4.16063   9 
   0  -3   7 37.4734 4.68331   1 
  -1   3  -7 75.6447 6.58582  14 
  -1   3  -7 76.2013 7.34823   2 
  -1   3  -7 68.9398 6.44535   1 
  -1   3  -7 74.3980 6.71087   5 
  -1   3  -7 79.5210 7.12335  11 
  -1   3  -7 86.9560 7.38676   3 
   1  -3   7 82.2255 6.44851   9 
   1  -3   7 84.6996 7.60369   2 
   1  -3   7 87.4661 7.04417   5 
   1  -3   7 84.4699 6.82388   1 
  -2   3  -7 135.425 9.85576   3 
  -2   3  -7 136.962 10.2961   2 
  -2   3  -7 133.314 9.28883   1 
  -2   3  -7 147.223 9.54528  14 
  -2   3  -7 140.172 9.57224   5 
   2  -3   7 148.702 9.79525   5 
   2  -3   7 149.113 10.8479   2 
   2  -3   7 155.114 9.83033   1 
  -3   3  -7 291.104 16.0664  11 
  -3   3  -7 298.449 14.6675  14 
  -3   3  -7 269.229 14.6390   1 
  -3   3  -7 270.798 14.7633   5 
  -3   3  -7 298.311 16.0374   3 
   3  -3   7 280.159 14.9723   1 
   3  -3   7 260.066 15.8242   2 
  -4   3  -7 88.3517 8.51297  14 
  -4   3  -7 118.323 10.3182   3 
  -4   3  -7 98.4499 8.89446   5 
  -4   3  -7 104.657 9.88588  11 
  -4   3  -7 97.6818 8.84262   1 
   4  -3   7 110.791 10.3535   2 
   4  -3   7 97.0815 9.12800   1 
  -5   3  -7 9.04267 5.00545  11 
  -5   3  -7 4.02414 3.27351   1 
  -5   3  -7 2.30301 3.17928  14 
  -5   3  -7 7.05048 4.36182   3 
   5  -3   7 9.23260 4.41940   1 
  -6   3  -7 10.7578 4.64821   1 
  -6   3  -7 2.18358 4.29450   3 
  -6   3  -7 2.48028 3.65231  14 
  -6   3  -7 6.65950 4.95716  11 
   6  -3   7 4.34352 4.45030   1 
  -7   3  -7 35.3917 8.94962  11 
  -7   3  -7 43.5679 8.36158  14 
  -7   3  -7 26.6435 6.85015   1 
   7  -3   7 23.8868 6.65474   1 
   9   2  -7 13.0579 6.18344   1 
  -9  -2   7 17.9009 6.71905   1 
  -9  -2   7 12.1658 6.15834   7 
   8   2  -7 10.3373 4.93556   1 
  -8  -2   7 19.3403 6.32427   3 
  -8  -2   7 16.4332 5.12004   1 
  -8  -2   7 18.1642 5.47476   4 
  -8  -2   7 18.0305 5.63528   7 
   7   2  -7 87.0544 9.99049   3 
   7   2  -7 94.2940 9.91751   1 
  -7  -2   7 83.4828 8.76966   7 
  -7  -2   7 90.8300 9.30451   1 
  -7  -2   7 78.6153 8.52738  14 
   6   2  -7 80.1614 8.60706   1 
   6   2  -7 81.7991 9.03385   3 
  -6  -2   7 87.3076 8.09719   7 
  -6  -2   7 85.6929 8.16798  14 
  -6  -2   7 86.1353 8.33743   1 
   5   2  -7 26.8567 5.49689   3 
   5   2  -7 31.7794 5.85105   8 
   5   2  -7 26.7763 6.19691   2 
   5   2  -7 21.7579 4.99352  14 
   5   2  -7 31.8569 5.48561   1 
  -5  -2   7 29.3287 3.57522  12 
  -5  -2   7 27.0358 4.93207   7 
  -5  -2   7 33.3135 5.19830   5 
  -5  -2   7 30.7864 5.16359  14 
  -5  -2   7 36.4572 5.43152   1 
   4   2  -7 12.4779 3.84387   8 
   4   2  -7 16.0340 4.54465   2 
   4   2  -7 13.7439 3.70116   1 
   4   2  -7 13.0004 3.77702   3 
   4   2  -7 17.1642 3.76193  14 
  -4  -2   7 20.7787 4.15937  14 
  -4  -2   7 9.36885 2.72592   5 
  -4  -2   7 16.6626 4.34281   2 
  -4  -2   7 17.2402 3.73495   7 
  -4  -2   7 24.9814 4.29634   1 
   3   2  -7 163.535 10.6069   8 
   3   2  -7 165.334 10.0003  14 
   3   2  -7 167.867 10.6114   3 
   3   2  -7 178.280 10.5216   5 
   3   2  -7 170.822 10.2573   1 
   3   2  -7 173.060 11.1693   2 
   3   2  -7 173.789 10.4640  11 
  -3  -2   7 202.053 11.9040   2 
  -3  -2   7 188.167 10.2101  14 
  -3  -2   7 171.389 10.2746   5 
  -3  -2   7 175.185 9.81600   7 
  -3  -2   7 185.841 10.4556   5 
  -3  -2   7 190.007 10.4269   1 
   2   2  -7 561.380 23.0181   3 
   2   2  -7 565.238 23.0785   8 
   2   2  -7 569.078 22.8280  11 
   2   2  -7 550.269 21.9702  14 
   2   2  -7 569.697 22.3523   1 
   2   2  -7 549.309 23.3862   2 
   2   2  -7 565.802 22.4966   5 
  -2  -2   7 554.899 21.7380  14 
  -2  -2   7 565.690 22.1356   1 
  -2  -2   7 568.134 21.8732   7 
  -2  -2   7 550.966 20.7821   9 
  -2  -2   7 610.089 23.0656   5 
  -2  -2   7 552.846 23.4964   2 
  -2  -2   7 575.304 22.4260   5 
   1   2  -7 218.791 11.2889   5 
   1   2  -7 212.655 11.6819   3 
   1   2  -7 208.267 11.5145  11 
   1   2  -7 197.966 10.8290   1 
   1   2  -7 216.260 12.1034   2 
   1   2  -7 224.568 11.2294  14 
   1   2  -7 214.199 11.3930   5 
   1   2  -7 216.376 11.6475   8 
   1   2  -7 220.992 8.11405   6 
  -1  -2   7 228.668 10.3786   9 
  -1  -2   7 221.704 11.0444   7 
  -1  -2   7 222.147 11.3685   5 
  -1  -2   7 232.774 11.6228   5 
  -1  -2   7 227.035 11.1322  14 
  -1  -2   7 218.378 11.1819   1 
  -1  -2   7 222.472 12.4221   2 
   0   2  -7 137.410 9.04689   2 
   0   2  -7 130.631 7.93061  14 
   0   2  -7 120.426 8.40009   3 
   0   2  -7 121.332 7.98614   5 
   0   2  -7 126.014 7.95631   5 
   0   2  -7 129.347 8.66070  11 
   0   2  -7 129.250 7.99881   1 
   0   2  -7 119.867 5.93602  13 
   0  -2   7 106.919 6.82587   9 
   0  -2   7 100.874 7.39562   1 
   0  -2   7 93.9278 7.87211   2 
   0  -2   7 107.800 7.62616   5 
  -1   2  -7 194.696 7.73178  13 
  -1   2  -7 218.403 11.2650  14 
  -1   2  -7 204.760 11.4003   5 
  -1   2  -7 208.918 11.9939   3 
  -1   2  -7 199.831 11.0837   5 
  -1   2  -7 222.437 12.5018  11 
  -1   2  -7 206.293 11.1414   1 
  -1   2  -7 209.119 12.2847   2 
   1  -2   7 222.013 10.9289   9 
   1  -2   7 221.461 11.5131   5 
   1  -2   7 215.653 12.4969   2 
   1  -2   7 219.842 11.5283   1 
  -2   2  -7 437.357 18.8335  14 
  -2   2  -7 435.444 19.1891   5 
  -2   2  -7 404.441 18.7197   5 
  -2   2  -7 412.291 19.9171  11 
  -2   2  -7 412.800 18.5773   1 
  -2   2  -7 415.270 19.5066   3 
   2  -2   7 450.629 19.1660   1 
   2  -2   7 470.551 21.1720   2 
  -3   2  -7 219.677 12.5263   5 
  -3   2  -7 210.893 12.0877  14 
  -3   2  -7 212.832 12.1802   1 
  -3   2  -7 224.985 13.8640  11 
  -3   2  -7 204.048 13.0764   3 
   3  -2   7 210.809 13.9012   2 
   3  -2   7 209.564 12.6843   1 
  -4   2  -7 69.8993 8.62674  11 
  -4   2  -7 58.7896 6.84190  14 
  -4   2  -7 59.0744 6.99138   1 
  -4   2  -7 58.1307 6.80250   5 
  -4   2  -7 60.7028 7.71780   3 
   4  -2   7 52.8169 7.53101   2 
   4  -2   7 50.9314 7.10551   1 
  -5   2  -7 32.9031 6.18358   5 
  -5   2  -7 53.1464 7.26571   1 
  -5   2  -7 41.4140 8.05109   3 
  -5   2  -7 50.3349 8.09235  11 
  -5   2  -7 35.7348 6.62956  14 
   5  -2   7 32.8712 7.38525   2 
   5  -2   7 53.0616 7.82941   1 
  -6   2  -7 15.3964 5.91126   3 
  -6   2  -7 35.0019 6.97124  14 
  -6   2  -7 32.4067 6.86290   1 
  -6   2  -7 27.7217 7.57342  11 
   6  -2   7 37.6197 7.91324   1 
  -7   2  -7 28.6441 8.68640  11 
  -7   2  -7 43.1099 8.11498   1 
  -7   2  -7 30.6835 7.33271  14 
   7  -2   7 27.0598 8.03622   1 
   9   1  -7 6.14696 4.71176   1 
  -9  -1   7 6.28298 4.69137   7 
  -9  -1   7 4.60109 4.28155   1 
  -9  -1   7 4.17455 4.76591   3 
   8   1  -7 20.1260 6.48100   1 
   8   1  -7 17.9830 6.93724   3 
  -8  -1   7 21.6857 5.53823   1 
  -8  -1   7 16.2899 4.70390   4 
  -8  -1   7 15.0832 5.01643   7 
  -8  -1   7 16.3383 5.51256   3 
   7   1  -7 128.634 10.9972   1 
   7   1  -7 105.883 10.7352   3 
  -7  -1   7 116.632 9.88607   7 
  -7  -1   7 118.529 10.3058   1 
   6   1  -7 28.3219 5.45732  14 
   6   1  -7 22.4931 5.14390   1 
   6   1  -7 33.4373 6.24825   8 
   6   1  -7 32.1206 6.51053   3 
  -6  -1   7 21.0688 4.71959   1 
  -6  -1   7 19.5940 4.69941   7 
  -6  -1   7 22.5931 3.67081  12 
   5   1  -7 28.3784 6.83939   2 
   5   1  -7 26.6063 5.29458   3 
   5   1  -7 28.6994 5.00789  14 
   5   1  -7 28.5378 2.44920  10 
   5   1  -7 27.5330 5.08376   1 
   5   1  -7 30.2355 5.59523   8 
  -5  -1   7 17.0392 3.32301  12 
  -5  -1   7 10.3722 4.02589   2 
  -5  -1   7 12.3724 3.74504   1 
  -5  -1   7 15.9791 4.00053   7 
  -5  -1   7 17.5489 3.95816  14 
   4   1  -7 118.833 8.77572   8 
   4   1  -7 117.617 8.39895  14 
   4   1  -7 125.167 9.17881   3 
   4   1  -7 118.187 8.50987   1 
   4   1  -7 113.444 6.29304  10 
   4   1  -7 106.399 8.87604   2 
  -4  -1   7 113.774 8.24008   5 
  -4  -1   7 119.365 8.24490  14 
  -4  -1   7 124.105 9.53308   2 
  -4  -1   7 102.192 7.73530   7 
  -4  -1   7 117.147 8.37436   1 
   3   1  -7 505.804 20.5936  14 
   3   1  -7 510.769 21.4733  11 
   3   1  -7 535.946 22.3415   2 
   3   1  -7 512.141 21.6353   3 
   3   1  -7 525.012 21.2164   5 
   3   1  -7 512.071 20.7510   5 
   3   1  -7 507.621 21.3441   8 
   3   1  -7 503.047 20.8701   1 
  -3  -1   7 493.067 20.7205   1 
  -3  -1   7 511.527 20.5884  14 
  -3  -1   7 530.113 22.7579   2 
  -3  -1   7 511.144 20.5833   7 
   2   1  -7 275.347 13.3792   5 
   2   1  -7 264.288 13.8197  11 
   2   1  -7 295.587 13.3155   5 
   2   1  -7 264.772 13.3481   8 
   2   1  -7 271.218 13.0951   1 
   2   1  -7 276.282 13.0326  14 
   2   1  -7 289.557 11.4720   6 
   2   1  -7 278.874 13.9165   3 
   2   1  -7 292.702 14.3814   2 
  -2  -1   7 295.322 14.5598   2 
  -2  -1   7 296.434 16.7097   2 
  -2  -1   7 286.294 13.2200   7 
  -2  -1   7 282.728 13.2765   5 
  -2  -1   7 288.740 11.5585   9 
  -2  -1   7 299.842 13.4846   1 
  -2  -1   7 301.578 13.1306  14 
   1   1  -7 67.1595 6.20141  11 
   1   1  -7 70.9956 3.84001   6 
   1   1  -7 71.2635 5.77507   5 
   1   1  -7 72.2157 5.65368   5 
   1   1  -7 66.0537 5.47870   1 
   1   1  -7 83.2635 9.61418   2 
   1   1  -7 69.3852 5.53173  14 
   1   1  -7 71.3747 6.19417   3 
  -1  -1   7 51.6007 4.14022   9 
  -1  -1   7 53.0487 5.82231   2 
  -1  -1   7 47.1884 5.62224   2 
  -1  -1   7 48.6176 4.78218  14 
  -1  -1   7 57.5047 5.99173   2 
  -1  -1   7 55.0579 5.33552   1 
  -1  -1   7 50.8487 5.08245   7 
   0   1  -7 13.3597 3.25244   5 
   0   1  -7 13.7492 2.94905   5 
   0   1  -7 17.9439 4.15784  11 
   0   1  -7 12.5925 3.07193  14 
   0   1  -7 15.5450 2.34170  13 
   0   1  -7 15.2834 1.77142   6 
   0   1  -7 16.3665 3.65284   3 
   0   1  -7 17.8506 3.47613   1 
   0  -1   7 28.6863 4.48484   2 
   0  -1   7 30.0749 4.01091   5 
   0  -1   7 29.7523 4.02939   1 
  -1   1  -7 194.610 11.7327  11 
  -1   1  -7 188.635 8.03775  13 
  -1   1  -7 181.392 10.9330   3 
  -1   1  -7 194.804 10.2346  14 
  -1   1  -7 191.603 10.3493   5 
  -1   1  -7 176.792 9.95203   1 
  -1   1  -7 189.054 10.5408   5 
   1  -1   7 175.613 11.4558   2 
   1  -1   7 188.902 10.5970   1 
   1  -1   7 208.408 13.6691   5 
  -2   1  -7 107.807 7.71970   1 
  -2   1  -7 109.278 9.24144  11 
  -2   1  -7 109.978 7.84599  14 
  -2   1  -7 119.158 9.00765   3 
  -2   1  -7 115.534 8.21039   5 
  -2   1  -7 110.123 7.94396   5 
   2  -1   7 115.537 9.36897   2 
   2  -1   7 117.008 8.53910   1 
  -3   1  -7 32.5298 6.00611  11 
  -3   1  -7 36.4088 5.30996  14 
  -3   1  -7 32.6335 5.10553   5 
  -3   1  -7 33.8424 6.00901   3 
  -3   1  -7 30.0794 4.96865   1 
   3  -1   7 30.4661 5.53402   1 
   3  -1   7 31.0839 6.02513   2 
  -4   1  -7 47.8261 7.61276   3 
  -4   1  -7 60.0350 6.75216  14 
  -4   1  -7 54.3361 7.84485  11 
  -4   1  -7 45.7620 6.18569   1 
  -4   1  -7 42.0830 6.16705   5 
   4  -1   7 56.4196 7.15914   1 
   4  -1   7 54.3018 8.05920   2 
  -5   1  -7 13.3508 4.69658   5 
  -5   1  -7 7.41013 4.43270   3 
  -5   1  -7 12.5959 4.38184  14 
  -5   1  -7 14.3069 4.47047   1 
  -5   1  -7 1.78115 3.83336  11 
   5  -1   7 14.5508 4.81658   1 
   5  -1   7 12.7891 4.88964   2 
  -6   1  -7 16.1332 5.07099   5 
  -6   1  -7 20.3446 5.18667   1 
  -6   1  -7 15.6604 6.07039  11 
  -6   1  -7 21.2954 5.49721  14 
   6  -1   7 17.5433 6.03900   1 
  -7   1  -7 8.93278 4.35881   1 
  -7   1  -7 14.7175 5.19956  14 
  -7   1  -7 23.4895 7.97781  11 
  -7   1  -7 9.12951 4.60175   5 
   7  -1   7 11.5517 5.78814   1 
   9   0  -7 6.82220 5.14897   1 
  -9   0   7 7.34138 4.52327   7 
  -9   0   7 9.05744 4.88334   1 
   8   0  -7 49.7261 8.93823   3 
   8   0  -7 65.9552 8.95316   1 
  -8   0   7 53.2929 8.05192   7 
  -8   0   7 61.6481 8.79245   1 
  -8   0   7 50.5080 8.17420   3 
   7   0  -7 55.1921 7.81203   8 
   7   0  -7 58.1457 8.63998   3 
   7   0  -7 70.2003 8.48342   1 
   7   0  -7 55.3021 7.90000  14 
  -7   0   7 46.7121 6.90851   7 
  -7   0   7 65.3754 7.96967   1 
   6   0  -7 172.829 11.6990  14 
   6   0  -7 189.785 12.0011   1 
   6   0  -7 187.953 12.9620   3 
   6   0  -7 173.121 12.0675   8 
  -6   0   7 181.665 11.4953   7 
  -6   0   7 165.711 11.3694   1 
  -6   0   7 163.136 9.91740  12 
  -6   0   7 175.750 12.8141   2 
   5   0  -7 115.234 8.66427   1 
   5   0  -7 107.393 8.82799   8 
   5   0  -7 115.634 9.44832   3 
   5   0  -7 111.139 5.86667  10 
   5   0  -7 112.807 8.53121  14 
  -5   0   7 106.287 8.29771   7 
  -5   0   7 118.038 8.00355  12 
  -5   0   7 115.053 8.65308   1 
   4   0  -7 197.573 9.58705  10 
   4   0  -7 210.952 11.3202   5 
   4   0  -7 205.505 11.7654   8 
   4   0  -7 215.164 12.2549   3 
   4   0  -7 209.330 11.3635  14 
   4   0  -7 213.108 11.5362   1 
   4   0  -7 209.368 12.8778   2 
  -4   0   7 205.164 13.6119   5 
  -4   0   7 212.436 11.6840   1 
  -4   0   7 203.486 12.6135   2 
  -4   0   7 212.180 11.3913  14 
  -4   0   7 225.826 11.7496   7 
   3   0  -7 256.979 13.6351   3 
   3   0  -7 267.867 12.9087   1 
   3   0  -7 281.289 12.3707   6 
   3   0  -7 271.821 12.9222   5 
   3   0  -7 278.891 13.0277  14 
   3   0  -7 261.392 13.8370  11 
   3   0  -7 273.229 12.4831  10 
   3   0  -7 278.528 13.5067   8 
   3   0  -7 273.876 12.4740  14 
  -3   0   7 280.486 14.4416   2 
  -3   0   7 288.559 14.7104   2 
  -3   0   7 279.175 13.2173   7 
  -3   0   7 274.780 13.1620   1 
  -3   0   7 275.799 13.3562   5 
  -3   0   7 257.167 12.6982  14 
   2   0  -7 58.8326 4.29430   6 
   2   0  -7 58.5155 5.21478  14 
   2   0  -7 49.9568 4.87706   1 
   2   0  -7 54.4588 5.22589   8 
   2   0  -7 58.3170 5.82416   3 
   2   0  -7 50.4172 5.72356  11 
   2   0  -7 57.6999 5.37473   5 
   2   0  -7 53.1809 4.83254   5 
  -2   0   7 52.8972 5.21622   1 
  -2   0   7 54.5641 5.23822   7 
  -2   0   7 47.7688 4.81421   5 
  -2   0   7 46.2013 5.42560   2 
  -2   0   7 58.5264 5.07986  14 
  -2   0   7 55.0865 5.83158   2 
   1   0  -7 528.498 21.7575  11 
   1   0  -7 550.032 21.4770   3 
   1   0  -7 532.710 20.4413   5 
   1   0  -7 531.425 19.7834  13 
   1   0  -7 543.087 21.3743   2 
   1   0  -7 523.668 19.9201  14 
   1   0  -7 558.918 18.7115   6 
   1   0  -7 529.107 20.2607   5 
   1   0  -7 532.008 20.0154   1 
  -1   0   7 481.457 20.4081   7 
  -1   0   7 493.125 21.6245   2 
  -1   0   7 497.348 21.6236   2 
  -1   0   7 525.422 20.2114  14 
  -1   0   7 517.377 21.8165   2 
  -1   0   7 504.068 18.0597   9 
  -1   0   7 490.271 20.2193   1 
  -1   0   7 516.276 20.6446   5 
   0   0  -7 536.859 19.5087  13 
   0   0  -7 539.627 20.2204  14 
   0   0  -7 493.663 21.7713  11 
   0   0  -7 517.953 19.9544   1 
   0   0  -7 522.232 21.4897   3 
   0   0  -7 532.433 20.6592   5 
   0   0  -7 523.876 18.5769   6 
   0   0  -7 517.930 20.4261   5 
   0   0  -7 576.130 22.0326   2 
   0   0   7 515.490 21.5798   5 
   0   0   7 530.641 19.1095   9 
   0   0   7 535.688 20.9154   1 
   0   0   7 507.096 22.2183   2 
   0   0   7 513.699 22.1799   2 
  -1   0  -7 176.659 8.35096  13 
  -1   0  -7 164.545 9.06923   1 
  -1   0  -7 162.962 9.38463   5 
  -1   0  -7 174.834 9.60745   5 
  -1   0  -7 162.348 10.9348  11 
  -1   0  -7 161.175 9.02989  14 
  -1   0  -7 165.500 10.3554   3 
  -1   0  -7 172.622 10.4322   3 
   1   0   7 174.887 9.92214   1 
   1   0   7 188.363 11.4424   2 
  -2   0  -7 34.8029 5.42801   3 
  -2   0  -7 36.5164 4.50993   1 
  -2   0  -7 41.1683 6.16800  11 
  -2   0  -7 31.1232 4.33085  14 
  -2   0  -7 37.1651 4.81396   5 
   2   0   7 44.6877 5.49741   1 
   2   0   7 42.8994 6.17546   2 
  -3   0  -7 117.485 8.74102   5 
  -3   0  -7 119.839 8.30746  14 
  -3   0  -7 136.213 10.3085   3 
  -3   0  -7 117.760 8.03584   1 
  -3   0  -7 123.910 10.3481  11 
   3   0   7 117.289 9.13011   1 
   3   0   7 107.473 9.97579   2 
  -4   0  -7 75.9600 7.38556   5 
  -4   0  -7 63.7134 8.40519   3 
  -4   0  -7 53.0188 6.44663  14 
  -4   0  -7 67.8051 8.62113  11 
  -4   0  -7 68.2596 6.57402   1 
   4   0   7 67.4251 7.81587   1 
   4   0   7 58.6101 8.41550   2 
  -5   0  -7 57.1036 7.17903   5 
  -5   0  -7 50.7475 6.28903   1 
  -5   0  -7 55.6637 9.26592  11 
  -5   0  -7 54.8529 8.91558   3 
  -5   0  -7 46.9522 6.77946  14 
   5   0   7 51.7617 7.90011   1 
   5   0   7 48.4101 8.74846   2 
  -6   0  -7 -0.2835 4.33033  10 
  -6   0  -7 -0.0516 3.07810   5 
  -6   0  -7 2.76783 3.32678  14 
  -6   0  -7 0.36530 4.87654  11 
   6   0   7 -3.6397 2.82597   1 
   6   0   7 0.74795 3.66157   2 
 -10   1   7 1.28878 5.06243   7 
   9  -1  -7 17.4393 6.46271   3 
   9  -1  -7 5.62071 4.29284   1 
  -9   1   7 6.88623 4.75933   1 
  -9   1   7 12.6222 5.77179   7 
   8  -1  -7 17.2692 5.56879   1 
   8  -1  -7 19.3453 6.13951   3 
   8  -1  -7 28.7180 6.87826   8 
  -8   1   7 20.0019 5.79818   1 
  -8   1   7 24.2912 6.22717   7 
   7  -1  -7 43.1670 6.81792   1 
   7  -1  -7 32.3798 6.40525   8 
   7  -1  -7 33.6123 7.09843   3 
   7  -1  -7 26.0423 5.63772  14 
  -7   1   7 27.2820 8.31322   2 
  -7   1   7 20.0727 5.27496   3 
  -7   1   7 30.7567 6.27335   1 
  -7   1   7 23.8042 5.19511   7 
  -7   1   7 24.2799 4.74159  12 
   6  -1  -7 76.3051 7.94602   8 
   6  -1  -7 85.2560 8.97710   3 
   6  -1  -7 86.4163 8.09317   1 
   6  -1  -7 80.0412 7.96389  14 
  -6   1   7 93.0170 8.17385   7 
  -6   1   7 81.8890 7.96224   1 
  -6   1   7 83.2718 8.84764   2 
  -6   1   7 85.7327 7.34675  12 
   5  -1  -7 102.363 8.02007  14 
   5  -1  -7 89.5289 7.54462   1 
   5  -1  -7 99.1759 8.67176   3 
   5  -1  -7 106.948 6.36033  10 
   5  -1  -7 109.875 8.34785   8 
   5  -1  -7 105.545 7.84470   5 
  -5   1   7 105.142 8.12166  12 
  -5   1   7 112.490 9.45085   2 
  -5   1   7 116.101 8.50115   7 
  -5   1   7 111.420 8.40583   1 
   4  -1  -7 100.885 7.47702   6 
   4  -1  -7 101.941 8.11737   3 
   4  -1  -7 107.847 7.07920  14 
   4  -1  -7 101.346 7.15015   5 
   4  -1  -7 96.4628 7.12323  14 
   4  -1  -7 100.068 6.63174  10 
   4  -1  -7 102.610 7.57741   8 
   4  -1  -7 95.2351 7.12884   1 
  -4   1   7 105.700 7.83439   7 
  -4   1   7 97.7397 8.38868   2 
  -4   1   7 103.368 7.75045   1 
   3  -1  -7 135.285 8.02312   5 
   3  -1  -7 141.452 8.05551   6 
   3  -1  -7 136.050 7.95610  14 
   3  -1  -7 141.412 8.15036   8 
   3  -1  -7 131.751 8.84497   3 
   3  -1  -7 116.969 7.54324   1 
   3  -1  -7 128.504 9.13384  11 
   3  -1  -7 135.014 8.24347  10 
   3  -1  -7 149.072 13.5091   2 
  -3   1   7 118.383 8.09184   5 
  -3   1   7 126.433 8.30503   7 
  -3   1   7 114.897 8.83487   2 
  -3   1   7 110.307 8.58611   2 
  -3   1   7 140.964 8.46285   1 
   2  -1  -7 237.114 10.9288   6 
   2  -1  -7 246.501 11.1690   1 
   2  -1  -7 252.073 12.5707  10 
   2  -1  -7 226.308 12.8299  11 
   2  -1  -7 237.323 11.5635   5 
   2  -1  -7 235.747 11.0861  14 
   2  -1  -7 226.569 12.1548   3 
   2  -1  -7 242.571 12.0767  13 
   2  -1  -7 260.123 12.5533   2 
   2  -1  -7 239.515 11.3632   5 
  -2   1   7 259.537 11.9974   1 
  -2   1   7 257.105 13.1776   2 
  -2   1   7 256.063 12.9821   2 
  -2   1   7 245.605 12.1264   7 
   1  -1  -7 191.031 9.59885  14 
   1  -1  -7 196.036 9.48321   1 
   1  -1  -7 188.815 11.4814  11 
   1  -1  -7 192.903 10.2960  13 
   1  -1  -7 204.602 9.61141   6 
   1  -1  -7 200.681 11.4484  10 
   1  -1  -7 211.694 10.1312   5 
   1  -1  -7 192.704 9.99848   5 
   1  -1  -7 186.057 10.8057   3 
  -1   1   7 214.121 10.6230   1 
  -1   1   7 233.886 12.0249   2 
  -1   1   7 210.584 10.9700   7 
  -1   1   7 224.885 8.05325   9 
  -1   1   7 220.719 11.7299   2 
   0  -1  -7 438.665 17.4827  14 
   0  -1  -7 469.824 20.5004  10 
   0  -1  -7 479.609 17.8075   6 
   0  -1  -7 465.571 19.5497   3 
   0  -1  -7 471.495 18.2631   5 
   0  -1  -7 449.283 18.1353  13 
   0  -1  -7 480.482 20.7220  11 
   0  -1  -7 455.482 18.0606   5 
   0  -1  -7 465.263 17.4213   1 
   0   1   7 471.850 18.9580   1 
   0   1   7 459.889 20.3061   2 
   0   1   7 459.975 20.2054   2 
  -1  -1  -7 85.1015 5.49160   1 
  -1  -1  -7 85.6302 5.95927  13 
  -1  -1  -7 90.0873 8.18634  11 
  -1  -1  -7 71.2782 5.51820  14 
  -1  -1  -7 81.3609 6.04727   5 
  -1  -1  -7 81.4349 6.09337   5 
  -1  -1  -7 79.7766 7.71667  10 
  -1  -1  -7 94.4450 7.44227   3 
   1   1   7 77.0863 6.51023   1 
   1   1   7 69.7139 7.26083   2 
  -2  -1  -7 11.4412 3.91051  10 
  -2  -1  -7 22.6048 3.84094   5 
  -2  -1  -7 23.4076 4.84905   3 
  -2  -1  -7 16.7096 3.25570  14 
  -2  -1  -7 18.9483 4.73237  11 
  -2  -1  -7 21.1952 3.26569   1 
   2   1   7 23.1316 4.55894   1 
   2   1   7 29.2125 5.55015   2 
  -3  -1  -7 190.747 12.5810   3 
  -3  -1  -7 177.024 10.0555  14 
  -3  -1  -7 186.833 10.7496   5 
  -3  -1  -7 184.173 12.8823  10 
  -3  -1  -7 192.146 13.3471  11 
  -3  -1  -7 197.101 9.75705   1 
   3   1   7 194.596 13.4682   2 
   3   1   7 202.380 12.2169   1 
  -4  -1  -7 89.5064 10.1797  11 
  -4  -1  -7 88.0045 9.83157  10 
  -4  -1  -7 91.6393 6.61926   1 
  -4  -1  -7 93.3442 7.99056   5 
  -4  -1  -7 88.8753 9.63702   3 
  -4  -1  -7 87.0010 7.31024  14 
   4   1   7 85.2014 9.99284   2 
   4   1   7 103.912 9.29157   1 
  -5  -1  -7 9.72990 4.60076  10 
  -5  -1  -7 7.59332 4.90579  11 
  -5  -1  -7 4.47407 3.04024   5 
  -5  -1  -7 5.07839 3.41422  14 
   5   1   7 6.00483 4.35924   2 
   5   1   7 11.2695 4.73042   1 
  -6  -1  -7 6.19286 3.92304   5 
  -6  -1  -7 5.98153 5.21249  11 
  -6  -1  -7 8.21204 3.96378  14 
   6   1   7 9.12222 5.54173   2 
   6   1   7 8.53929 4.93163   1 
  10  -2  -7 9.27375 6.35792   1 
 -10   2   7 21.4213 10.7617   1 
 -10   2   7 10.0694 6.12750   7 
   9  -2  -7 12.9221 6.17342   3 
   9  -2  -7 12.2150 4.97874   1 
  -9   2   7 8.00918 4.82356   1 
  -9   2   7 11.0301 5.52972   7 
   8  -2  -7 25.7584 6.16360   1 
   8  -2  -7 18.7853 5.67255   8 
   8  -2  -7 17.9156 6.29838   3 
  -8   2   7 18.6446 5.52063   1 
  -8   2   7 23.6606 5.15066  12 
  -8   2   7 21.5776 5.81726   7 
   7  -2  -7 41.6704 7.54885   3 
   7  -2  -7 37.9142 6.51345   1 
   7  -2  -7 48.9598 6.95069   8 
  -7   2   7 29.7108 5.64571  12 
  -7   2   7 41.7929 6.85639   1 
  -7   2   7 31.1698 6.14672   7 
  -7   2   7 42.5138 7.44215   2 
   6  -2  -7 136.190 9.48768   1 
   6  -2  -7 137.566 9.63478  14 
   6  -2  -7 147.758 11.1578   3 
   6  -2  -7 117.295 9.24650   8 
  -6   2   7 138.961 10.0659   7 
  -6   2   7 140.255 10.1411  12 
  -6   2   7 134.648 11.1304   2 
  -6   2   7 130.961 9.88728   1 
   5  -2  -7 86.0641 8.10207   3 
   5  -2  -7 92.0275 7.93820   6 
   5  -2  -7 86.5813 6.90885   5 
   5  -2  -7 86.0090 7.14281   8 
   5  -2  -7 89.6976 7.06637   1 
   5  -2  -7 84.3461 7.09094  14 
   5  -2  -7 89.6216 6.34998  10 
  -5   2   7 84.1273 7.54821   7 
  -5   2   7 97.7009 8.22339  12 
  -5   2   7 89.7132 7.69760   1 
  -5   2   7 97.4801 8.85786   2 
   4  -2  -7 153.176 8.72821  14 
   4  -2  -7 162.131 10.4454  13 
   4  -2  -7 156.488 8.97148  10 
   4  -2  -7 160.167 8.70507   8 
   4  -2  -7 168.653 9.80807   6 
   4  -2  -7 150.634 8.48973   1 
   4  -2  -7 143.261 8.58053   5 
   4  -2  -7 142.048 9.62058   3 
  -4   2   7 133.807 9.02056   1 
  -4   2   7 129.407 9.85961   2 
  -4   2   7 129.545 9.13798   7 
   3  -2  -7 80.2919 6.92678  13 
   3  -2  -7 73.5027 5.38660  14 
   3  -2  -7 67.6322 5.25572   5 
   3  -2  -7 70.8581 4.99952   1 
   3  -2  -7 74.4896 6.03787   6 
   3  -2  -7 68.6799 6.89896  11 
   3  -2  -7 74.2310 6.29144  10 
   3  -2  -7 75.8270 6.47068   3 
  -3   2   7 54.5339 5.59716   7 
  -3   2   7 55.6353 6.01454   2 
  -3   2   7 54.3703 5.39382   1 
  -3   2   7 50.0196 5.90672   2 
   2  -2  -7 359.470 16.6357  10 
   2  -2  -7 332.877 16.0864  13 
   2  -2  -7 348.277 15.2580   6 
   2  -2  -7 357.139 16.0638   3 
   2  -2  -7 365.843 14.6631   5 
   2  -2  -7 337.476 16.8314  11 
   2  -2  -7 357.887 13.7619   1 
   2  -2  -7 354.018 14.2017  14 
  -2   2   7 373.062 16.8181   2 
  -2   2   7 383.922 16.2114   7 
  -2   2   7 386.408 16.8568   2 
  -2   2   7 392.613 15.8103   1 
   1  -2  -7 401.525 18.4595  10 
   1  -2  -7 409.384 14.4776   1 
   1  -2  -7 409.011 15.7217   5 
   1  -2  -7 400.757 16.5983   6 
   1  -2  -7 399.248 15.5646   5 
   1  -2  -7 398.736 18.4807  11 
   1  -2  -7 418.262 17.5028   3 
   1  -2  -7 383.417 17.1631  13 
   1  -2  -7 400.970 15.1126  14 
  -1   2   7 402.062 17.8942   2 
  -1   2   7 407.084 16.5901   1 
  -1   2   7 399.048 17.7973   2 
  -1   2   7 384.905 17.1289   7 
   0  -2  -7 92.1959 4.60900   1 
   0  -2  -7 91.1530 6.81810  13 
   0  -2  -7 89.4504 5.32774  14 
   0  -2  -7 93.5351 5.86907   5 
   0  -2  -7 100.476 6.02878   5 
   0  -2  -7 97.5741 8.11357  11 
   0  -2  -7 92.0084 6.53890   6 
   0  -2  -7 90.8243 7.21422   3 
   0  -2  -7 99.4773 8.33500  10 
   0   2   7 76.2866 6.31496   1 
   0   2   7 84.3515 7.37591   2 
   0   2   7 85.1521 7.33174   2 
  -1  -2  -7 11.9375 3.12923  13 
  -1  -2  -7 9.33051 1.67359   1 
  -1  -2  -7 11.0887 2.63657   5 
  -1  -2  -7 9.86726 2.18931  14 
  -1  -2  -7 11.0875 3.81457  11 
  -1  -2  -7 12.4012 3.60384   3 
  -1  -2  -7 10.3412 3.76717  10 
   1   2   7 9.19440 3.38753   2 
   1   2   7 6.18638 2.65542   1 
  -2  -2  -7 30.7732 3.56152  14 
  -2  -2  -7 25.4521 3.47278  14 
  -2  -2  -7 25.7360 3.75576   5 
  -2  -2  -7 28.0128 5.84732  11 
  -2  -2  -7 31.0905 6.10302  10 
  -2  -2  -7 30.1783 5.61049   3 
   2   2   7 46.1994 5.52725   1 
   2   2   7 37.2230 6.06549   2 
  -3  -2  -7 64.8500 8.11248  11 
  -3  -2  -7 73.3846 8.20269   3 
  -3  -2  -7 60.8614 5.61185   5 
  -3  -2  -7 63.8518 5.24794  14 
  -3  -2  -7 64.5990 5.19463  14 
  -3  -2  -7 70.9042 8.51636  10 
   3   2   7 78.2657 7.67459   1 
   3   2   7 67.8592 8.58537   2 
  -4  -2  -7 91.6979 6.64024  14 
  -4  -2  -7 106.255 10.9926  10 
  -4  -2  -7 95.5060 9.96597   3 
  -4  -2  -7 107.111 6.84304  14 
  -4  -2  -7 108.604 10.7806  11 
  -4  -2  -7 101.871 7.68782   5 
   4   2   7 89.4592 9.16501   1 
   4   2   7 104.383 10.9960   2 
  -5  -2  -7 5.04238 2.40781  14 
  -5  -2  -7 3.40330 3.07332   5 
  -5  -2  -7 6.27101 4.90437  11 
  -5  -2  -7 5.36284 2.51819  14 
  -5  -2  -7 4.32025 4.32950  10 
   5   2   7 8.73819 4.86922   2 
  10  -3  -7 40.4472 8.43932   1 
 -10   3   7 32.0850 8.52377   1 
 -10   3   7 29.8378 8.31372   7 
   9  -3  -7 4.78098 6.47855   8 
   9  -3  -7 1.29703 4.69400   3 
   9  -3  -7 10.8276 5.07293   1 
  -9   3   7 12.7090 5.62045   1 
  -9   3   7 16.9502 6.51412   7 
   8  -3  -7 33.3531 6.59642   1 
   8  -3  -7 23.4061 5.80791   8 
   8  -3  -7 24.6046 6.58279   3 
  -8   3   7 19.3467 5.98136   2 
  -8   3   7 23.9508 5.73821   1 
  -8   3   7 18.7713 5.36608  12 
  -8   3   7 23.6370 6.14480   7 
   7  -3  -7 28.7980 5.77997   1 
   7  -3  -7 31.9650 6.69105   3 
   7  -3  -7 21.8390 5.07737   8 
  -7   3   7 33.5475 6.89542   2 
  -7   3   7 26.0542 5.58676   1 
  -7   3   7 28.9307 6.19709  12 
  -7   3   7 22.8583 5.26737   7 
   6  -3  -7 113.929 8.33159   8 
   6  -3  -7 116.647 8.31146   1 
   6  -3  -7 103.699 8.15837   5 
   6  -3  -7 135.827 10.5500   3 
   6  -3  -7 114.218 9.73388   6 
   6  -3  -7 107.145 7.41953  10 
  -6   3   7 132.532 9.74942   7 
  -6   3   7 125.959 10.1772  12 
  -6   3   7 134.568 9.69057   1 
  -6   3   7 116.327 10.4493   2 
   5  -3  -7 91.7530 6.52717   1 
   5  -3  -7 94.2555 6.99455  10 
   5  -3  -7 88.0310 8.06716   3 
   5  -3  -7 86.6718 8.55041  13 
   5  -3  -7 95.1428 8.25615   6 
   5  -3  -7 88.8686 6.37064  14 
   5  -3  -7 90.2448 6.41708   8 
   5  -3  -7 97.0798 6.90661   5 
  -5   3   7 62.9836 7.55718   2 
  -5   3   7 75.9066 7.23917   7 
  -5   3   7 83.7221 8.39474  12 
  -5   3   7 85.9164 7.53246   1 
   4  -3  -7 343.372 14.3113  14 
   4  -3  -7 352.895 17.3436  13 
   4  -3  -7 338.707 15.7394  10 
   4  -3  -7 351.009 16.4176   6 
   4  -3  -7 358.267 14.7097   5 
   4  -3  -7 351.080 16.4012   3 
   4  -3  -7 349.662 13.7388   1 
  -4   3   7 333.063 15.6111   1 
  -4   3   7 337.857 16.0779   7 
  -4   3   7 322.469 16.8566   2 
   3  -3  -7 127.900 7.06262   5 
   3  -3  -7 128.606 9.47935  13 
   3  -3  -7 134.672 8.81130   3 
   3  -3  -7 127.351 6.78556  14 
   3  -3  -7 135.036 9.18139  10 
   3  -3  -7 135.691 8.81351   6 
   3  -3  -7 132.495 6.08664   1 
  -3   3   7 133.376 8.61458   7 
  -3   3   7 134.732 9.21186   2 
  -3   3   7 139.122 8.29141   1 
  -3   3   7 128.725 8.95643   2 
   2  -3  -7 236.732 10.1028   5 
   2  -3  -7 239.652 13.3175  10 
   2  -3  -7 247.095 13.3159  13 
   2  -3  -7 223.615 13.0978  11 
   2  -3  -7 233.276 12.1578   3 
   2  -3  -7 228.252 12.1942   6 
   2  -3  -7 236.127 9.48550  14 
  -2   3   7 256.304 12.9388   2 
  -2   3   7 262.721 12.9246   2 
  -2   3   7 269.010 11.9741   1 
  -2   3   7 267.167 12.6746   7 
   1  -3  -7 170.914 9.85370   6 
   1  -3  -7 154.648 10.2341  13 
   1  -3  -7 164.743 9.70989   3 
   1  -3  -7 150.598 10.7021  10 
   1  -3  -7 162.736 10.7974  11 
  -1   3   7 170.265 10.1471   2 
  -1   3   7 176.226 9.27387   1 
  -1   3   7 179.137 10.0630   7 
  -1   3   7 179.454 10.4400   2 
   0  -3  -7 285.988 13.6098   3 
   0  -3  -7 292.461 14.9869  11 
   0  -3  -7 272.744 15.2046  10 
   0  -3  -7 277.201 13.5482   6 
   0  -3  -7 281.575 14.2486  13 
   0   3   7 261.829 12.7028   1 
   0   3   7 248.125 13.5807   2 
   0   3   7 266.359 15.2733   2 
  -1  -3  -7 19.1525 4.71798  11 
  -1  -3  -7 26.2770 4.69157   3 
  -1  -3  -7 22.0144 4.40882  13 
  -1  -3  -7 22.9903 5.31525  10 
   1   3   7 12.9876 3.88898   2 
   1   3   7 11.3289 3.14367   1 
  -2  -3  -7 101.841 9.86171  10 
  -2  -3  -7 79.3380 8.32240  11 
  -2  -3  -7 102.494 8.69535   3 
   2   3   7 100.300 9.08555   2 
  -3  -3  -7 64.4192 8.74971  10 
  -3  -3  -7 81.6591 8.40408   3 
  -3  -3  -7 79.9409 8.76546  11 
   3   3   7 71.9503 8.76363   2 
  -4  -3  -7 14.6639 5.65620  10 
  -4  -3  -7 5.39503 4.16346  11 
   4   3   7 15.7637 5.61671   2 
  -5  -3  -7 1.71613 4.12845  11 
   5   3   7 5.61558 4.66553   2 
  10  -4  -7 9.48606 5.18529   1 
 -10   4   7 7.06492 5.37337   7 
 -10   4   7 7.42671 5.10851   1 
   9  -4  -7 13.5284 4.78905   8 
   9  -4  -7 14.7915 4.79109   1 
  -9   4   7 17.6069 6.36127   7 
  -9   4   7 21.0824 6.46325  12 
  -9   4   7 19.7438 6.32707   1 
   8  -4  -7 17.2698 4.70639   8 
   8  -4  -7 22.1137 6.20780   3 
   8  -4  -7 29.1219 6.96979   6 
   8  -4  -7 33.3576 5.93448   1 
  -8   4   7 18.7947 6.40335   2 
  -8   4   7 21.3323 5.80774   7 
  -8   4   7 16.2689 5.17539   1 
  -8   4   7 21.8446 6.49279  12 
   7  -4  -7 52.9056 8.38604  13 
   7  -4  -7 51.9897 7.63300   6 
   7  -4  -7 47.3564 5.92038   1 
   7  -4  -7 54.9147 7.91306   3 
   7  -4  -7 43.3258 5.62856   8 
  -7   4   7 52.8293 8.35628   2 
  -7   4   7 48.1665 6.76901   7 
  -7   4   7 37.6850 7.17123  12 
  -7   4   7 43.1598 6.79762   1 
   6  -4  -7 88.4800 6.51524   1 
   6  -4  -7 90.0289 6.17841   8 
   6  -4  -7 100.915 9.66273  13 
   6  -4  -7 88.5891 6.68126  14 
   6  -4  -7 83.5668 7.19389  10 
   6  -4  -7 71.3236 8.21753   6 
   6  -4  -7 82.3545 8.56933   3 
  -6   4   7 94.5766 8.25576   1 
  -6   4   7 90.8042 8.29115   7 
  -6   4   7 95.6837 9.37915  12 
  -6   4   7 96.2118 9.43288   2 
   5  -4  -7 110.985 9.26511   6 
   5  -4  -7 98.0870 9.45755  13 
   5  -4  -7 112.614 8.90733   3 
   5  -4  -7 98.7387 6.76314   5 
   5  -4  -7 107.157 8.20403  10 
   5  -4  -7 105.352 5.95428   1 
  -5   4   7 84.5494 8.53361   2 
  -5   4   7 97.0807 9.56894  12 
  -5   4   7 88.5353 7.86978   7 
  -5   4   7 103.576 8.19254   1 
   4  -4  -7 100.787 7.88463   3 
   4  -4  -7 104.722 8.44601   6 
   4  -4  -7 113.483 9.48518  13 
   4  -4  -7 105.251 8.32846  10 
   4  -4  -7 94.6873 5.94337   5 
  -4   4   7 82.2589 7.44621   7 
  -4   4   7 91.4137 8.10938   2 
  -4   4   7 95.0272 7.27768   1 
   3  -4  -7 79.6807 6.76914   3 
   3  -4  -7 73.0732 7.73334  13 
   3  -4  -7 80.4585 7.36254   6 
   3  -4  -7 76.0044 7.55516  10 
  -3   4   7 88.9278 7.23853   7 
  -3   4   7 106.218 9.00494   2 
  -3   4   7 81.9109 7.18518   2 
  -3   4   7 89.8513 6.49174   1 
   2  -4  -7 186.778 11.1809   6 
   2  -4  -7 196.156 12.1346  11 
   2  -4  -7 189.420 10.3736   3 
   2  -4  -7 189.671 11.9417  13 
   2  -4  -7 189.626 12.1834  10 
  -2   4   7 190.751 9.83315   1 
  -2   4   7 187.350 10.5940   7 
  -2   4   7 180.908 10.6771   2 
  -2   4   7 192.965 10.8457   2 
   1  -4  -7 158.192 11.0523  10 
   1  -4  -7 137.574 9.49112   6 
   1  -4  -7 149.218 10.3085  11 
   1  -4  -7 152.095 8.93352   3 
   1  -4  -7 147.775 10.1760  13 
  -1   4   7 115.615 8.46914   2 
  -1   4   7 111.987 8.21384   7 
  -1   4   7 120.893 7.66467   1 
  -1   4   7 120.525 8.52751   2 
   0  -4  -7 57.3068 6.45098   6 
   0  -4  -7 54.1373 6.70605  11 
   0  -4  -7 68.0935 6.21256   3 
   0  -4  -7 61.9185 6.95955  13 
   0  -4  -7 64.0727 7.75710  10 
   0   4   7 51.4481 5.96558   7 
   0   4   7 54.7577 6.02590   2 
  -1  -4  -7 33.6339 5.69849  11 
  -1  -4  -7 22.7633 5.54792  10 
  -1  -4  -7 31.0365 5.10317   3 
  -1  -4  -7 40.9119 5.88740  13 
   1   4   7 31.0350 5.31017   2 
  -2  -4  -7 113.680 10.7314  10 
  -2  -4  -7 104.018 8.80401   3 
  -2  -4  -7 116.171 9.79699  11 
   2   4   7 114.487 9.67986   2 
  -3  -4  -7 33.9582 7.41649  10 
  -3  -4  -7 28.0067 5.86520   3 
  -3  -4  -7 40.0275 6.85016  11 
   3   4   7 30.9513 6.86433   2 
   4   4   7 5.82192 4.49808   2 
   9  -5  -7 27.4575 7.45988   6 
   9  -5  -7 26.7757 5.71859   8 
   9  -5  -7 24.3625 5.63257   1 
  -9   5   7 20.4614 6.45152   7 
  -9   5   7 26.3820 6.62477   1 
  -9   5   7 33.3634 11.3919   2 
  -9   5   7 21.8323 7.24335  12 
   8  -5  -7 24.8746 5.01072   1 
   8  -5  -7 34.8802 7.89642   6 
   8  -5  -7 26.3560 4.48809   8 
   8  -5  -7 19.2684 6.46348  13 
   8  -5  -7 25.4640 6.71205   3 
  -8   5   7 20.3028 6.03549   1 
  -8   5   7 29.6420 7.24362  12 
  -8   5   7 10.5326 4.81549   7 
  -8   5   7 27.5598 7.54482   2 
   7  -5  -7 15.7572 5.07409   3 
   7  -5  -7 28.1145 6.94413   6 
   7  -5  -7 22.6729 6.91849  13 
   7  -5  -7 22.4827 4.64392   5 
   7  -5  -7 16.7062 3.56323   1 
  -7   5   7 27.3846 6.69258   2 
  -7   5   7 24.5504 6.23078  12 
  -7   5   7 14.6983 4.68306   7 
  -7   5   7 14.9727 4.51493   1 
   6  -5  -7 71.6594 6.21729   5 
   6  -5  -7 91.6008 8.85647   3 
   6  -5  -7 110.296 9.95286   6 
   6  -5  -7 83.0800 9.17683  13 
  -6   5   7 85.4601 8.47582   7 
  -6   5   7 88.0673 8.04824   1 
  -6   5   7 91.8247 9.33842   2 
  -6   5   7 91.1866 9.67854  12 
   5  -5  -7 81.7874 8.46723   6 
   5  -5  -7 85.5560 8.12548   3 
   5  -5  -7 83.4014 5.59076   5 
   5  -5  -7 90.4314 8.18576  10 
   5  -5  -7 97.7366 9.52824  13 
  -5   5   7 98.1301 8.19686   7 
  -5   5   7 93.6029 7.76334   1 
  -5   5   7 103.517 9.92043  12 
  -5   5   7 86.3825 8.51540   2 
   4  -5  -7 189.270 11.1575   3 
   4  -5  -7 200.625 12.3740   6 
   4  -5  -7 202.321 13.3446  13 
   4  -5  -7 189.302 12.1058  10 
  -4   5   7 177.192 11.5932   2 
  -4   5   7 188.618 10.6503   1 
  -4   5   7 194.945 11.3890   7 
   3  -5  -7 102.306 9.48582  13 
   3  -5  -7 107.480 9.24078  10 
   3  -5  -7 97.6268 7.40178   3 
   3  -5  -7 105.184 8.88756   6 
  -3   5   7 99.6944 7.94864   2 
  -3   5   7 109.764 8.07632   7 
   2  -5  -7 56.1722 6.99034  11 
   2  -5  -7 54.0499 7.35722  13 
   2  -5  -7 67.0919 7.36764   6 
   2  -5  -7 70.1693 7.95800  10 
   2  -5  -7 67.9813 6.02486   3 
  -2   5   7 74.2286 6.55686   7 
  -2   5   7 87.3075 6.84710   2 
  -2   5   7 66.3699 6.23032   2 
   1  -5  -7 115.375 9.43007   6 
   1  -5  -7 118.137 10.2828  10 
   1  -5  -7 102.529 9.53769  13 
   1  -5  -7 121.594 9.45770  11 
   1  -5  -7 108.299 7.42535   3 
  -1   5   7 114.512 8.81014   2 
  -1   5   7 107.154 7.80998   2 
  -1   5   7 94.3543 7.61673   7 
   0  -5  -7 77.2033 7.92420   6 
   0  -5  -7 63.9304 7.85726  13 
   0  -5  -7 73.6444 7.64073  11 
   0  -5  -7 73.3865 6.49823   3 
   0  -5  -7 73.4801 8.68694  10 
   0   5   7 62.8984 6.55808   2 
   0   5   7 64.7758 6.64702   7 
  -1  -5  -7 99.4115 10.3434  10 
  -1  -5  -7 98.3185 7.83346   3 
  -1  -5  -7 96.2980 8.76443  11 
   1   5   7 90.4616 8.35333   2 
  -2  -5  -7 66.5910 9.64253  10 
  -2  -5  -7 70.1868 7.39002   3 
  -2  -5  -7 79.2645 8.24071  11 
   2   5   7 62.1788 7.85093   2 
   3   5   7 12.6539 4.74753   2 
   4   5   7 2.59511 4.00551   2 
   9  -6  -7 17.3083 5.54837   5 
   9  -6  -7 10.2237 6.16626   6 
  -9   6   7 11.7847 5.48821   1 
  -9   6   7 28.4688 8.01766   2 
  -9   6   7 12.9626 5.68707   7 
   8  -6  -7 19.8790 6.67726  13 
   8  -6  -7 27.4139 5.70926   5 
   8  -6  -7 16.8356 4.27728   5 
   8  -6  -7 9.13869 5.30016   6 
  -8   6   7 13.2320 4.77663   1 
  -8   6   7 23.0389 7.02131  12 
  -8   6   7 9.47524 4.75314   7 
  -8   6   7 17.4880 6.23654   2 
   7  -6  -7 4.37482 3.74823   3 
   7  -6  -7 8.17023 5.08326  13 
   7  -6  -7 0.04765 1.85210   5 
   7  -6  -7 4.83934 2.86831   5 
   7  -6  -7 3.34336 3.97983   6 
  -7   6   7 -0.1334 3.41504  12 
  -7   6   7 5.91806 3.55089   1 
  -7   6   7 0.97066 3.44716   2 
  -7   6   7 10.7486 4.24879   7 
   6  -6  -7 31.8906 6.88239   6 
   6  -6  -7 23.3422 6.25292  13 
   6  -6  -7 27.1267 5.94275   3 
  -6   6   7 40.3435 6.85540   2 
  -6   6   7 35.9149 6.01496   7 
  -6   6   7 37.7549 7.57173  12 
   5  -6  -7 18.5708 4.76014  10 
   5  -6  -7 17.7024 5.92490  13 
   5  -6  -7 18.5083 5.14661   6 
   5  -6  -7 11.9110 3.87634   3 
  -5   6   7 15.7108 5.34368  12 
  -5   6   7 16.4376 4.65417   2 
  -5   6   7 15.9725 4.26674   7 
   4  -6  -7 44.0121 6.93008  10 
   4  -6  -7 50.8422 7.91576  13 
   4  -6  -7 41.0054 5.46307   3 
   4  -6  -7 39.6947 6.76946   6 
  -4   6   7 29.1965 5.22491   7 
  -4   6   7 38.4055 5.69168   2 
  -4   6   7 45.1077 7.62982  12 
   3  -6  -7 72.4220 8.87424  10 
   3  -6  -7 75.1049 6.53787   3 
   3  -6  -7 78.4836 8.42965   6 
   3  -6  -7 68.3118 8.56552  13 
  -3   6   7 83.4743 7.30032   2 
  -3   6   7 82.7712 7.10707   7 
   2  -6  -7 65.5429 7.66100   6 
   2  -6  -7 66.5349 8.27001  13 
   2  -6  -7 48.8179 5.21673   3 
   2  -6  -7 43.1340 7.54955  10 
  -2   6   7 52.6358 5.95421   7 
  -2   6   7 48.2549 5.45295   2 
   1  -6  -7 5.35902 3.99359   6 
   1  -6  -7 9.96049 4.62643  10 
   1  -6  -7 3.81036 2.98747  11 
   1  -6  -7 4.91173 4.23380  13 
   1  -6  -7 6.10269 2.65119   3 
  -1   6   7 6.01444 2.93345   7 
  -1   6   7 4.98423 2.56327   2 
  -1   6   7 9.13304 2.99122   2 
   0  -6  -7 83.4025 9.72920  10 
   0  -6  -7 87.3056 9.26692   6 
   0  -6  -7 83.5907 6.97736   3 
   0  -6  -7 94.1702 9.85160  13 
   0  -6  -7 83.5459 8.19206  11 
   0   6   7 85.1302 7.54052   2 
   0   6   7 80.7344 7.24809   7 
  -1  -6  -7 47.0976 5.99442   3 
  -1  -6  -7 43.0048 8.20403  10 
   1   6   7 62.4146 7.15506   2 
   2   6   7 27.1914 6.18988   2 
   3   6   7 4.57171 3.97561   2 
   9  -7  -7 25.4486 7.43558   6 
   9  -7  -7 20.5907 5.42324   5 
  -9   7   7 34.1492 7.60611   7 
  -9   7   7 19.3653 7.46555   2 
   8  -7  -7 16.3441 5.90337   6 
   8  -7  -7 12.1959 3.44067   5 
   8  -7  -7 22.5916 4.59816   5 
  -8   7   7 9.96589 4.87612   7 
  -8   7   7 16.7192 5.87880   2 
   7  -7  -7 6.17830 4.81044   6 
   7  -7  -7 18.5041 6.41301  13 
  -7   7   7 12.6544 5.25097   2 
  -7   7   7 13.8265 4.57344   7 
  -7   7   7 17.0688 5.95127  12 
   6  -7  -7 40.5158 8.48757  13 
   6  -7  -7 32.5767 6.18093   3 
   6  -7  -7 36.5420 7.40790   6 
  -6   7   7 22.4393 5.20992   7 
  -6   7   7 32.4919 6.78298   2 
  -6   7   7 31.6849 7.95295  12 
   5  -7  -7 130.906 10.9900  10 
   5  -7  -7 124.489 11.4390   6 
   5  -7  -7 124.580 9.56007   3 
   5  -7  -7 125.498 11.9582  13 
  -5   7   7 124.363 10.2008   2 
  -5   7   7 124.136 9.39788   7 
  -5   7   7 124.119 12.3595  12 
   4  -7  -7 75.6461 9.03309   6 
   4  -7  -7 83.4746 9.28721  10 
   4  -7  -7 94.2635 10.3686  13 
   4  -7  -7 81.5840 7.15503   3 
  -4   7   7 66.8255 9.34306  12 
  -4   7   7 63.8191 7.11334   2 
  -4   7   7 63.0036 6.88692   7 
   3  -7  -7 26.4715 6.06543   6 
   3  -7  -7 21.9446 4.24105   3 
   3  -7  -7 28.6503 6.89783  13 
   3  -7  -7 23.0985 6.14599  10 
  -3   7   7 29.2294 4.86942   2 
  -3   7   7 31.9264 5.21969   7 
  -3   7   7 31.8514 7.58113  12 
   2  -7  -7 26.9154 7.07952  13 
   2  -7  -7 37.9603 7.64714  10 
   2  -7  -7 26.4236 4.18178   3 
   2  -7  -7 26.9721 6.45756   6 
  -2   7   7 27.6969 6.17662   7 
  -2   7   7 28.3470 4.62608   2 
   1  -7  -7 30.5430 6.93270  10 
   1  -7  -7 45.9640 8.25131  13 
   1  -7  -7 44.7157 7.68381   6 
   1  -7  -7 36.6901 4.78732   3 
  -1   7   7 33.1599 4.92354   2 
   0  -7  -7 25.8762 4.65438   3 
   0  -7  -7 26.0757 6.47774   6 
   0  -7  -7 18.8700 6.31468  13 
   0   7   7 15.6263 4.06302   2 
  -1  -7  -7 22.9952 4.93051   3 
   1   7   7 9.70924 4.01439   2 
   2   7   7 -1.3713 2.86350   2 
   8  -8  -7 3.56553 4.97306   6 
  -8   8   7 3.18104 4.26821   2 
  -8   8   7 0.98661 3.87801   7 
   7  -8  -7 9.67382 5.63120   6 
  -7   8   7 18.2131 5.96327   2 
  -7   8   7 24.6883 5.70593   7 
   6  -8  -7 91.1481 10.9697   6 
   6  -8  -7 80.0915 10.8060  13 
  -6   8   7 81.5445 11.1211  12 
  -6   8   7 93.9461 8.80213   7 
  -6   8   7 105.530 10.0152   2 
   5  -8  -7 60.6896 9.21578  10 
   5  -8  -7 46.8322 8.68403   6 
   5  -8  -7 68.3751 9.88606  13 
   5  -8  -7 52.6767 6.64386   3 
  -5   8   7 58.8344 9.98600  12 
  -5   8   7 61.9920 7.46300   2 
   4  -8  -7 52.3379 8.60507  10 
   4  -8  -7 50.6661 8.63243   6 
   4  -8  -7 50.9027 6.02030   3 
   4  -8  -7 55.5371 8.77513  13 
  -4   8   7 63.9180 6.94095   2 
  -4   8   7 55.5352 9.38496  12 
   3  -8  -7 28.2625 7.70900  13 
   3  -8  -7 29.3302 4.57782   3 
   3  -8  -7 41.6937 8.48869  10 
   3  -8  -7 29.9948 7.15969   6 
  -3   8   7 38.1702 8.81738  12 
  -3   8   7 30.5044 5.11982   2 
   2  -8  -7 75.0625 5.91145   3 
   2  -8  -7 87.0141 10.4861   6 
   2  -8  -7 89.1975 11.2855  13 
  -2   8   7 74.0730 6.63146   2 
  -2   8   7 65.5470 9.90369  12 
   1  -8  -7 107.480 11.8748  13 
   1  -8  -7 76.5034 10.3369   6 
   1  -8  -7 84.2066 6.29113   3 
  -1   8   7 88.8739 6.94491   2 
   0   8   7 16.4702 3.88487   2 
   1   8   7 20.1415 4.81956   2 
   7  -9  -7 26.0346 7.50155   6 
  -7   9   7 26.6455 7.02025   2 
   6  -9  -7 52.0035 9.78716   6 
  -6   9   7 55.5508 8.10390   2 
   5  -9  -7 31.0019 7.87293   6 
  -5   9   7 19.0195 4.95984   2 
   4  -9  -7 -1.6250 3.99431   6 
   4  -9  -7 0.06278 2.25103   3 
  -4   9   7 -1.0410 2.31084   2 
   3  -9  -7 19.8303 6.49776   6 
  -3   9   7 31.2873 5.04450   2 
   2  -9  -7 45.7109 9.47602   6 
  -2   9   7 47.4514 5.33613   2 
   1  -9  -7 23.1582 7.09316   6 
  -1   9   7 20.8348 4.08279   2 
   5 -10  -7 5.97367 5.74104   6 
  -5  10   7 4.54793 3.25819   2 
   4 -10  -7 11.2913 5.88024   6 
  -4  10   7 9.36144 3.57319   2 
   3 -10  -7 61.4298 10.9404   6 
  -3  10   7 39.3567 4.85973   2 
   1  12  -8 33.6831 8.79450   2 
  -1 -12   8 31.7258 8.34247   4 
   0  12  -8 92.2935 12.3815   2 
   0 -12   8 79.0566 11.0534   4 
  -1  12  -8 56.3721 10.5745   2 
   1 -12   8 51.5950 5.86028   5 
   1 -12   8 54.2234 5.89431   5 
   1 -12   8 59.9513 9.88532   4 
   1 -12   8 80.8345 11.5354   9 
  -2  12  -8 25.8464 7.64903   2 
   2 -12   8 33.8767 5.02669  14 
   2 -12   8 28.1662 6.88174   4 
   2 -12   8 25.4757 5.05522   5 
   2 -12   8 24.3692 7.72421   9 
   2 -12   8 23.1978 4.79725   5 
   2 -12   8 22.7212 4.47420  14 
  -3  12  -8 44.9439 10.2592   2 
   3 -12   8 38.6519 6.56208   5 
   3 -12   8 30.0910 8.80694   9 
   3 -12   8 40.7846 5.98945  14 
   3  11  -8 26.0519 7.73772   2 
  -3 -11   8 21.3460 8.54149   4 
   2  11  -8 35.7245 9.16018   2 
  -2 -11   8 27.0880 8.08361   4 
   1  11  -8 88.6957 11.8975   2 
  -1 -11   8 79.8080 6.74389   5 
  -1 -11   8 77.9289 6.73635   5 
  -1 -11   8 88.1489 10.9973   4 
  -1 -11   8 79.2887 5.84290  14 
  -1 -11   8 81.0843 5.85117  14 
   0  11  -8 38.0032 8.61231   2 
   0 -11   8 39.0220 8.42257   4 
   0 -11   8 38.7064 4.79053  14 
   0 -11   8 32.9343 4.70797  14 
   0 -11   8 24.7856 6.92181   9 
   0 -11   8 38.0925 5.43401   5 
   0 -11   8 38.2327 5.59914   5 
  -1  11  -8 24.0703 7.13885   2 
  -1  11  -8 10.9725 4.84063   1 
   1 -11   8 28.5706 5.55921   5 
   1 -11   8 16.5483 3.89005  14 
   1 -11   8 16.6679 5.88409   4 
   1 -11   8 20.0270 4.48131   5 
   1 -11   8 23.4243 7.32054   9 
  -2  11  -8 25.3775 6.54138   1 
  -2  11  -8 29.7010 7.91709   2 
   2 -11   8 25.8064 5.43551   5 
   2 -11   8 23.5118 6.04384   4 
   2 -11   8 18.1441 6.52449   9 
   2 -11   8 26.5585 5.02983  14 
  -3  11  -8 95.0923 11.1952   1 
  -3  11  -8 101.015 13.0481   2 
   3 -11   8 96.1885 9.12085   5 
   3 -11   8 100.720 12.5294   9 
   3 -11   8 93.3909 8.44009  14 
  -4  11  -8 57.1138 10.7962   2 
  -4  11  -8 51.5269 9.97826   1 
   4 -11   8 54.8897 7.66330  14 
   4 -11   8 66.1751 8.61150   5 
   4 -11   8 52.2295 10.1854   9 
  -5  11  -8 21.2749 7.06976   1 
   5 -11   8 12.8957 4.87103  14 
   5 -11   8 15.5663 5.41614   5 
   4  10  -8 21.2807 7.34703   2 
  -4 -10   8 23.7239 8.36330   4 
  -4 -10   8 17.7438 3.55342  14 
  -4 -10   8 17.9875 4.16472   5 
  -4 -10   8 20.8300 4.61383   5 
  -4 -10   8 22.2742 4.31770  14 
   3  10  -8 27.0214 8.00215   2 
  -3 -10   8 22.1058 7.25868   4 
  -3 -10   8 27.4181 5.34386   5 
  -3 -10   8 21.9485 4.27714  14 
  -3 -10   8 32.6198 4.84536  14 
  -3 -10   8 26.0362 5.35732   5 
   2  10  -8 44.4487 9.03975   1 
   2  10  -8 48.8606 9.68034   2 
  -2 -10   8 43.9993 9.16789   4 
  -2 -10   8 42.6945 5.59134   5 
  -2 -10   8 34.3505 5.08175  14 
  -2 -10   8 33.8668 4.79207  14 
  -2 -10   8 34.0397 5.39021   5 
   1  10  -8 47.0694 9.18225   2 
   1  10  -8 41.3339 7.71094   1 
  -1 -10   8 42.0868 8.11931   4 
  -1 -10   8 54.4966 6.45583   5 
  -1 -10   8 59.2730 5.88339  14 
  -1 -10   8 46.4622 5.99508   5 
   0  10  -8 52.6199 9.28010   2 
   0  10  -8 45.4910 7.41865   1 
   0 -10   8 39.5597 5.55260  14 
   0 -10   8 30.3020 7.17417   9 
   0 -10   8 53.7254 8.62893   4 
   0 -10   8 43.3578 5.82836   5 
   0 -10   8 44.5219 6.40624   5 
  -1  10  -8 63.7078 8.62442   1 
  -1  10  -8 55.1278 9.52572   2 
   1 -10   8 60.4000 6.70539  14 
   1 -10   8 68.0022 9.46511   9 
   1 -10   8 69.1273 7.35751   5 
   1 -10   8 62.3774 8.28488   4 
   1 -10   8 61.6261 6.01455   1 
  -2  10  -8 66.3311 9.15243   1 
  -2  10  -8 70.8816 10.2092   2 
   2 -10   8 66.3732 6.59737   1 
   2 -10   8 66.5588 7.21357  14 
   2 -10   8 66.7514 9.58613   9 
   2 -10   8 79.0805 8.31437   4 
   2 -10   8 77.3948 8.17802   5 
  -3  10  -8 44.0078 8.76854   2 
  -3  10  -8 47.5554 8.52653   1 
  -3  10  -8 45.3879 7.40863  11 
   3 -10   8 36.4643 6.92384   5 
   3 -10   8 23.8648 6.68288   9 
   3 -10   8 29.7834 5.71560  14 
   3 -10   8 38.2795 5.77536   1 
  -4  10  -8 31.5185 7.77695   1 
  -4  10  -8 40.1689 10.4981   2 
  -4  10  -8 29.8773 7.11851  11 
   4 -10   8 19.8541 5.20905   1 
   4 -10   8 19.3255 5.30082   5 
   4 -10   8 22.2416 7.22986   9 
   4 -10   8 23.1872 5.81565  14 
  -5  10  -8 32.8766 8.08654  11 
  -5  10  -8 46.3199 9.49152   1 
   5 -10   8 30.5271 9.80024   5 
   5 -10   8 28.9056 6.62399  14 
   5 -10   8 28.4608 6.31528   1 
   5 -10   8 32.5588 8.76100   9 
   5   9  -8 4.80155 4.87163   2 
  -5  -9   8 -0.5473 2.73312  14 
  -5  -9   8 3.07383 5.72251   4 
  -5  -9   8 3.80967 3.18671   5 
   4   9  -8 12.6909 5.47360   1 
   4   9  -8 15.0414 6.46833   2 
  -4  -9   8 4.41308 3.07794  14 
  -4  -9   8 9.48868 5.95119   4 
  -4  -9   8 8.92227 3.77862   5 
   3   9  -8 54.7865 8.78855   1 
   3   9  -8 48.6041 9.53535   2 
  -3  -9   8 43.1434 6.42308   5 
  -3  -9   8 47.7279 6.01396  14 
  -3  -9   8 48.2304 8.95846   4 
  -3  -9   8 63.8074 6.90275   5 
   2   9  -8 45.8909 9.08929   2 
   2   9  -8 50.6628 7.85229   1 
  -2  -9   8 52.0810 6.15278   1 
  -2  -9   8 61.5508 6.32002  14 
  -2  -9   8 47.7821 6.34542   5 
  -2  -9   8 55.0270 6.27041   5 
  -2  -9   8 53.6176 8.49272   4 
   1   9  -8 58.8683 8.28255   1 
   1   9  -8 57.5681 9.09427   2 
  -1  -9   8 51.6413 8.35264   9 
  -1  -9   8 58.7085 6.95376   5 
  -1  -9   8 56.9025 6.69030   5 
  -1  -9   8 60.2359 5.77504   1 
  -1  -9   8 63.4214 6.38858  14 
  -1  -9   8 56.8136 8.16464   4 
   0   9  -8 22.0087 6.16763   2 
   0   9  -8 44.0820 7.12035   1 
   0  -9   8 39.8236 5.87704   5 
   0  -9   8 38.5425 5.19792   1 
   0  -9   8 37.3376 5.54045  14 
   0  -9   8 36.6114 7.01144   9 
  -1   9  -8 47.1419 6.21054  11 
  -1   9  -8 39.3074 7.22771   1 
  -1   9  -8 41.8489 8.02879   2 
   1  -9   8 48.9047 8.13967   9 
   1  -9   8 40.7365 6.02050  14 
   1  -9   8 45.5937 5.84029   1 
   1  -9   8 50.1628 6.56118   5 
  -2   9  -8 68.0014 9.34608   2 
  -2   9  -8 59.3788 7.64923  11 
  -2   9  -8 67.0451 8.82081   1 
   2  -9   8 70.6006 7.17675   1 
   2  -9   8 76.9664 8.01800   5 
   2  -9   8 84.8820 10.0947   9 
   2  -9   8 91.6942 8.08536  14 
  -3   9  -8 77.4312 9.24556  11 
  -3   9  -8 60.9922 9.50733   2 
  -3   9  -8 84.5228 9.62558   1 
   3  -9   8 69.0695 9.02796   9 
   3  -9   8 69.0696 7.71699   1 
   3  -9   8 82.2110 8.52941   5 
   3  -9   8 75.3913 8.16057  14 
  -4   9  -8 48.2269 8.77444  11 
  -4   9  -8 55.4478 9.07564   1 
   4  -9   8 44.5626 8.50132   9 
   4  -9   8 57.9364 7.74983   1 
   4  -9   8 51.1213 7.64180   5 
   4  -9   8 50.5713 7.41300  14 
  -5   9  -8 29.0749 7.59534  11 
  -5   9  -8 32.0945 7.41451   1 
   5  -9   8 31.9157 8.26340   9 
   5  -9   8 18.5584 5.45521  14 
   5  -9   8 25.5227 6.11930   1 
  -6   9  -8 15.0370 6.84681  11 
  -6   9  -8 10.8346 6.03767   1 
   6  -9   8 12.2094 6.02604   9 
   6  -9   8 13.8666 5.27205   1 
   6   8  -8 2.74089 4.68354   1 
   6   8  -8 6.24285 5.82184   2 
  -6  -8   8 4.21114 5.44033   4 
  -6  -8   8 2.15879 3.51225  14 
  -6  -8   8 10.3838 4.75317   5 
   5   8  -8 19.5863 6.43741   1 
   5   8  -8 18.7480 6.85953   2 
  -5  -8   8 18.7680 6.86269   4 
  -5  -8   8 15.5434 4.17396  14 
  -5  -8   8 18.8588 4.99386   5 
   4   8  -8 96.6802 10.6187   1 
   4   8  -8 105.125 12.2988   2 
  -4  -8   8 89.3084 8.47413   5 
  -4  -8   8 92.1807 11.0249   4 
  -4  -8   8 90.7607 8.23103  14 
  -4  -8   8 81.7990 7.18235   1 
   3   8  -8 56.4389 9.20391   2 
   3   8  -8 55.8810 8.25820   1 
  -3  -8   8 41.1512 7.76491   4 
  -3  -8   8 53.7771 5.86563   1 
  -3  -8   8 49.1839 6.09402  14 
  -3  -8   8 48.3527 6.50149   5 
   2   8  -8 40.5031 6.79172   1 
   2   8  -8 35.0097 6.80825   8 
   2   8  -8 47.3906 8.16643   2 
  -2  -8   8 35.0677 5.66533   5 
  -2  -8   8 42.6115 5.70863  14 
  -2  -8   8 38.7453 5.34220   1 
   1   8  -8 42.0791 7.15757   8 
   1   8  -8 33.5066 6.90513   2 
   1   8  -8 35.8977 6.49242   1 
  -1  -8   8 37.9824 5.31544   1 
  -1  -8   8 37.8527 5.50797   5 
  -1  -8   8 33.0065 6.30732   9 
  -1  -8   8 41.4155 4.56370   7 
  -1  -8   8 39.4848 5.57857  14 
   0   8  -8 66.6837 7.88988   1 
   0   8  -8 63.2429 6.45946  11 
   0   8  -8 64.5681 8.01387   8 
   0   8  -8 61.4721 8.51356   2 
   0  -8   8 67.9213 7.02162   5 
   0  -8   8 72.2156 6.99097  14 
   0  -8   8 62.9738 5.69426   7 
   0  -8   8 76.3602 6.97210   1 
   0  -8   8 66.8985 8.17544   9 
  -1   8  -8 158.230 11.4742   1 
  -1   8  -8 142.124 9.94243  11 
  -1   8  -8 151.245 12.4624   2 
   1  -8   8 134.873 9.50348   1 
   1  -8   8 138.758 11.5770   9 
   1  -8   8 125.718 9.61115   5 
   1  -8   8 122.817 9.11172  14 
   1  -8   8 127.149 8.55145   7 
  -2   8  -8 40.2777 6.43741  11 
  -2   8  -8 39.2965 6.87333   1 
  -2   8  -8 41.8974 7.51098   2 
   2  -8   8 32.7178 5.67508  14 
   2  -8   8 38.0540 7.17379   9 
   2  -8   8 32.3851 5.82206   1 
   2  -8   8 30.9576 5.75739   5 
  -3   8  -8 10.8732 4.80062  11 
  -3   8  -8 9.97136 5.00506   1 
  -3   8  -8 9.25411 4.72949   2 
   3  -8   8 5.50127 4.07178   9 
   3  -8   8 12.3535 3.97999  14 
   3  -8   8 10.0821 3.87489   1 
   3  -8   8 7.30166 4.06048   5 
  -4   8  -8 34.6337 7.37447   1 
  -4   8  -8 41.5929 8.32474  11 
   4  -8   8 38.8165 7.51105   9 
   4  -8   8 29.2852 6.20071  14 
   4  -8   8 29.1473 6.48132   1 
  -5   8  -8 43.2878 9.06415   1 
  -5   8  -8 50.8500 9.24755  11 
   5  -8   8 33.8803 8.06866   9 
   5  -8   8 49.7538 7.91956   1 
  -6   8  -8 1.91794 5.30441  11 
  -6   8  -8 0.03647 4.45204   1 
   6  -8   8 7.02555 5.12602   9 
   6  -8   8 2.82436 4.06806   1 
   6   7  -8 6.65771 5.05472   1 
   6   7  -8 6.40378 5.03772   2 
  -6  -7   8 9.12232 3.76306   1 
  -6  -7   8 0.25874 3.26114   5 
  -6  -7   8 -5.2410 3.64895   4 
  -6  -7   8 4.12296 3.20327  14 
   5   7  -8 35.0694 8.21395   2 
   5   7  -8 35.9084 7.60978   1 
  -5  -7   8 33.1337 6.25327  14 
  -5  -7   8 30.6408 7.29753   4 
  -5  -7   8 40.1184 6.22490   1 
  -5  -7   8 30.7866 6.27863   5 
   4   7  -8 94.2265 10.0701   1 
   4   7  -8 92.2072 10.2666   8 
   4   7  -8 91.7594 10.9153   2 
  -4  -7   8 105.602 8.63271  14 
  -4  -7   8 96.8227 8.73833   5 
  -4  -7   8 98.1712 7.72503   7 
  -4  -7   8 101.748 8.34395   1 
   3   7  -8 151.406 11.9280   8 
   3   7  -8 155.019 11.5891   1 
   3   7  -8 134.750 12.0983   2 
  -3  -7   8 146.346 9.09229   7 
  -3  -7   8 151.483 9.92299   1 
  -3  -7   8 143.406 10.2239   5 
  -3  -7   8 129.045 9.49805  14 
   2   7  -8 82.7204 7.10160  11 
   2   7  -8 82.8186 8.96252   8 
   2   7  -8 80.4206 9.17288   2 
   2   7  -8 95.0433 8.84973   1 
  -2  -7   8 109.541 8.66105   5 
  -2  -7   8 95.7614 7.92029  14 
  -2  -7   8 93.8543 6.97440   7 
  -2  -7   8 104.710 8.05867   1 
   1   7  -8 99.7694 9.89078   2 
   1   7  -8 115.297 10.2174   8 
   1   7  -8 114.471 9.60862   1 
   1   7  -8 104.973 8.04224  11 
  -1  -7   8 100.011 7.17887   7 
  -1  -7   8 111.903 9.67404   9 
  -1  -7   8 111.143 8.37407  14 
  -1  -7   8 110.262 8.62852   5 
  -1  -7   8 107.603 8.33160   1 
   0   7  -8 221.179 16.5205   3 
   0   7  -8 197.703 13.3707   8 
   0   7  -8 198.987 11.7338  11 
   0   7  -8 201.287 12.7279   1 
   0   7  -8 207.258 14.1116   2 
   0  -7   8 199.083 11.5002  14 
   0  -7   8 203.373 11.8308   1 
   0  -7   8 215.963 13.5250   9 
   0  -7   8 200.251 11.9859   5 
   0  -7   8 197.531 10.7263   7 
  -1   7  -8 163.055 12.5979   2 
  -1   7  -8 164.963 11.6242   1 
  -1   7  -8 168.127 11.5407   3 
  -1   7  -8 171.548 11.1387  11 
   1  -7   8 153.555 11.5468   9 
   1  -7   8 150.812 10.5337   5 
   1  -7   8 154.668 10.3404  14 
   1  -7   8 146.574 10.2115   1 
  -2   7  -8 158.867 12.8121   2 
  -2   7  -8 148.474 11.4618   1 
  -2   7  -8 155.034 11.3098  11 
  -2   7  -8 146.199 11.3763   3 
   2  -7   8 143.269 10.2654  14 
   2  -7   8 161.497 11.1936   5 
   2  -7   8 152.196 10.6170   1 
   2  -7   8 170.599 12.1637   9 
  -3   7  -8 65.4630 8.22066  11 
  -3   7  -8 60.0209 8.10610   1 
  -3   7  -8 66.9553 10.9692   2 
  -3   7  -8 72.7789 10.8826   3 
   3  -7   8 51.8879 7.02811  14 
   3  -7   8 65.4987 7.75800   1 
   3  -7   8 56.5044 7.75211   9 
  -4   7  -8 97.5866 10.2097   1 
  -4   7  -8 91.7637 10.6261  11 
   4  -7   8 85.7441 9.15581   1 
   4  -7   8 82.5790 9.75241   9 
  -5   7  -8 52.5858 9.08617   1 
  -5   7  -8 57.5833 9.38970  11 
   5  -7   8 50.7390 8.19981   1 
   5  -7   8 62.4622 9.55936   9 
  -6   7  -8 10.5254 5.71389   1 
  -6   7  -8 18.0355 7.03587  11 
   6  -7   8 4.76611 5.01375   9 
   6  -7   8 6.44065 4.84713   1 
   7   6  -8 9.72774 5.46424   1 
  -7  -6   8 4.32642 3.90103  14 
  -7  -6   8 2.87495 3.77332   5 
  -7  -6   8 -1.1159 4.28577   4 
  -7  -6   8 3.68286 3.84873   1 
   6   6  -8 18.1468 6.25628   8 
   6   6  -8 11.2694 5.18936   1 
  -6  -6   8 12.1718 6.03444   4 
  -6  -6   8 5.99058 3.84366   5 
  -6  -6   8 9.72921 4.13365   1 
  -6  -6   8 5.99925 3.63767   7 
  -6  -6   8 17.2267 5.19070  14 
   5   6  -8 62.8581 8.68053   1 
   5   6  -8 61.8931 9.22541   2 
   5   6  -8 53.8651 8.66313   8 
  -5  -6   8 64.3328 7.52738  14 
  -5  -6   8 57.4862 6.50813   7 
  -5  -6   8 69.5224 7.68280   1 
  -5  -6   8 70.2647 7.80555   5 
   4   6  -8 64.5162 9.04935   2 
   4   6  -8 76.9987 8.91808   8 
   4   6  -8 82.8061 9.13568   1 
  -4  -6   8 75.8192 7.58909   1 
  -4  -6   8 89.5371 8.25918   5 
  -4  -6   8 77.1365 7.63921  14 
  -4  -6   8 72.1404 6.79107   7 
   3   6  -8 23.5789 5.64243   8 
   3   6  -8 27.4525 6.32486   2 
   3   6  -8 29.8714 6.17083   1 
  -3  -6   8 29.7413 5.11486   5 
  -3  -6   8 23.7034 4.66405  14 
  -3  -6   8 28.9226 4.52514   7 
  -3  -6   8 20.3105 4.58168   1 
   2   6  -8 2.66964 2.86179   2 
   2   6  -8 9.52165 3.70355   3 
   2   6  -8 3.58748 3.23182   8 
   2   6  -8 7.46382 3.14283  11 
   2   6  -8 5.45651 3.16394   1 
  -2  -6   8 15.4367 3.45382   7 
  -2  -6   8 7.83584 2.91452   1 
  -2  -6   8 13.6412 3.76725  14 
  -2  -6   8 11.5938 4.08882   9 
  -2  -6   8 18.6594 4.41446   5 
   1   6  -8 36.0976 6.17665   2 
   1   6  -8 26.3198 4.74584  11 
   1   6  -8 27.6549 5.37528   1 
   1   6  -8 31.5152 5.62128   3 
   1   6  -8 26.2375 5.70433   8 
  -1  -6   8 34.1094 5.21187   1 
  -1  -6   8 36.8678 5.26699  14 
  -1  -6   8 36.9499 5.24627   5 
  -1  -6   8 40.7547 5.87446   9 
  -1  -6   8 45.0986 4.99099   7 
   0   6  -8 211.081 12.1827  11 
   0   6  -8 211.764 13.9079   2 
   0   6  -8 223.325 13.6982   8 
   0   6  -8 220.531 12.9159   1 
   0   6  -8 212.492 13.0228   3 
   0  -6   8 217.406 11.9444  14 
   0  -6   8 212.708 12.2915   5 
   0  -6   8 205.865 11.2095   7 
   0  -6   8 194.998 11.7328   1 
   0  -6   8 207.005 12.7102   9 
  -1   6  -8 177.398 12.7491   2 
  -1   6  -8 156.543 11.2232   1 
  -1   6  -8 182.550 11.5083  11 
  -1   6  -8 181.310 12.0480   3 
   1  -6   8 156.644 11.1570   9 
   1  -6   8 172.666 11.1748   5 
   1  -6   8 160.369 10.6984   1 
   1  -6   8 177.435 10.9938  14 
  -2   6  -8 33.0492 6.15553   1 
  -2   6  -8 35.2205 6.31340   3 
  -2   6  -8 27.0559 5.75435  11 
  -2   6  -8 36.2012 6.60649   2 
   2  -6   8 50.5994 6.36898  14 
   2  -6   8 40.1196 6.24711   5 
   2  -6   8 46.8537 6.51627   9 
   2  -6   8 44.4316 6.20386   1 
  -3   6  -8 48.2802 7.45844   3 
  -3   6  -8 44.3442 7.46542  11 
  -3   6  -8 52.3383 7.41112   1 
   3  -6   8 61.0556 7.35198   1 
   3  -6   8 57.7428 7.57976   9 
  -4   6  -8 94.1720 10.4224  11 
  -4   6  -8 106.192 10.8015   3 
  -4   6  -8 108.267 10.3915   1 
   4  -6   8 91.6441 9.53749   1 
   4  -6   8 105.983 10.4420   9 
  -5   6  -8 39.0791 7.74892   1 
  -5   6  -8 28.7631 7.01713  11 
  -5   6  -8 33.0790 7.34883   3 
   5  -6   8 49.1289 8.05872   1 
   5  -6   8 38.5066 7.85546   9 
  -6   6  -8 6.35205 5.57214  11 
  -6   6  -8 12.7364 5.63035   1 
   6  -6   8 11.0331 5.56375   1 
  -7   6  -8 8.42751 5.91446  11 
   8   5  -8 36.4432 9.02620   1 
  -8  -5   8 48.3529 8.66307   7 
  -8  -5   8 31.1575 6.92964   1 
  -8  -5   8 25.6684 7.77143   4 
  -8  -5   8 24.8410 6.61490  14 
   7   5  -8 33.9938 7.49954   1 
   7   5  -8 38.3906 8.51820   8 
  -7  -5   8 40.1975 7.28778   7 
  -7  -5   8 40.6639 7.40643   1 
  -7  -5   8 20.2998 6.87405   4 
  -7  -5   8 26.8860 6.20193  14 
   6   5  -8 16.0875 5.54228   1 
   6   5  -8 14.0495 5.36181   8 
  -6  -5   8 12.6911 4.23996   7 
  -6  -5   8 4.57649 3.20822  14 
  -6  -5   8 12.5346 5.10345   4 
  -6  -5   8 7.52142 4.21756   5 
  -6  -5   8 13.5464 4.54788   1 
   5   5  -8 55.4403 8.17251   8 
   5   5  -8 52.6079 8.35803   2 
   5   5  -8 48.0574 7.68037   1 
  -5  -5   8 56.4974 7.05864   1 
  -5  -5   8 47.9091 6.31055   7 
  -5  -5   8 50.7051 6.75740  14 
  -5  -5   8 56.3128 7.00293   5 
   4   5  -8 114.878 9.87271   1 
   4   5  -8 104.612 10.3630   2 
   4   5  -8 99.2249 9.72992   8 
   4   5  -8 113.293 10.0494   3 
  -4  -5   8 121.555 9.12672  14 
  -4  -5   8 107.285 8.74435   1 
  -4  -5   8 103.857 8.07329   7 
  -4  -5   8 113.783 9.05185   5 
   3   5  -8 80.5439 7.90375   3 
   3   5  -8 81.4122 8.07757   1 
   3   5  -8 88.2206 8.81790   2 
   3   5  -8 82.1442 8.38993   8 
  -3  -5   8 68.0804 7.05167   5 
  -3  -5   8 69.6595 7.07481  14 
  -3  -5   8 57.3887 6.53216   1 
  -3  -5   8 64.5539 6.36192   7 
   2   5  -8 121.351 9.27398   1 
   2   5  -8 117.658 9.70160   8 
   2   5  -8 124.164 10.1530   2 
   2   5  -8 119.033 9.40127   3 
   2   5  -8 116.758 8.62555  11 
  -2  -5   8 115.091 8.89944   9 
  -2  -5   8 109.298 8.37221   1 
  -2  -5   8 117.804 8.04905   7 
  -2  -5   8 122.632 8.89524   5 
  -2  -5   8 118.104 8.46750  14 
   1   5  -8 134.553 9.53842  11 
   1   5  -8 146.290 10.9780   2 
   1   5  -8 150.403 10.5531   3 
   1   5  -8 146.634 10.2163   1 
   1   5  -8 158.963 10.9844   8 
  -1  -5   8 137.078 9.43729   5 
  -1  -5   8 128.923 8.46954   7 
  -1  -5   8 125.335 9.08825   1 
  -1  -5   8 129.772 8.86736  14 
  -1  -5   8 149.229 9.79376   9 
   0   5  -8 231.432 14.1269   2 
   0   5  -8 221.613 12.6426  14 
   0   5  -8 228.636 12.8963   1 
   0   5  -8 231.367 13.7316   8 
   0   5  -8 220.412 13.0725   3 
   0   5  -8 232.852 12.8364  11 
   0  -5   8 191.447 11.9555   9 
   0  -5   8 202.904 11.2803   7 
   0  -5   8 211.028 11.8955  14 
   0  -5   8 204.920 12.1108   5 
   0  -5   8 223.777 12.3889   1 
  -1   5  -8 81.0348 8.53849   2 
  -1   5  -8 73.1314 7.65254   3 
  -1   5  -8 87.4657 8.04434  11 
  -1   5  -8 71.5321 7.18757  14 
  -1   5  -8 86.0530 7.97905   1 
   1  -5   8 73.8279 7.33282   9 
   1  -5   8 84.0071 7.53215   5 
   1  -5   8 92.4422 7.90922   1 
   1  -5   8 92.2079 7.48987  14 
  -2   5  -8 49.9202 7.05200   3 
  -2   5  -8 45.0410 6.71108  11 
  -2   5  -8 49.7045 6.66958   1 
  -2   5  -8 54.5485 7.80692   2 
  -2   5  -8 59.7296 7.22372  14 
   2  -5   8 57.9795 6.59750   1 
   2  -5   8 52.4212 6.62128   9 
   2  -5   8 44.8002 5.88041  14 
  -3   5  -8 68.0840 7.81677   1 
  -3   5  -8 77.2337 8.59562   3 
  -3   5  -8 64.9841 8.40776  11 
   3  -5   8 56.3912 7.18721   9 
   3  -5   8 50.2375 6.91084   1 
  -4   5  -8 87.3630 9.78178   3 
  -4   5  -8 72.2719 8.89617   1 
  -4   5  -8 65.5808 9.08891  11 
   4  -5   8 82.4065 9.03914   1 
   4  -5   8 77.3034 8.77176   9 
  -5   5  -8 6.94498 4.87040  11 
  -5   5  -8 4.32987 4.18287   3 
  -5   5  -8 3.22974 3.53964   1 
   5  -5   8 3.42084 3.90858   1 
  -6   5  -8 4.64449 4.53307   3 
  -6   5  -8 7.11514 4.80045   1 
  -6   5  -8 5.63524 5.39863  11 
   6  -5   8 11.6193 5.14055   1 
  -7   5  -8 32.6873 9.30093  11 
   8   4  -8 38.4228 8.48510   1 
  -8  -4   8 29.9596 7.90217   4 
  -8  -4   8 40.9550 8.14957   1 
  -8  -4   8 47.3336 8.33998   7 
  -8  -4   8 36.9230 7.44628  14 
   7   4  -8 25.8369 6.92506   8 
   7   4  -8 24.5018 6.56899   1 
  -7  -4   8 30.9309 6.96268   4 
  -7  -4   8 20.7893 5.68556   7 
  -7  -4   8 22.3123 5.79107  14 
  -7  -4   8 22.2755 5.76610   1 
   6   4  -8 25.0442 5.94047   1 
   6   4  -8 21.4694 6.52945   8 
  -6  -4   8 17.4715 4.94281  14 
  -6  -4   8 18.0953 4.74285   7 
  -6  -4   8 20.8650 5.32519   1 
   5   4  -8 53.8701 7.85874   8 
   5   4  -8 69.7951 8.28331   1 
   5   4  -8 65.2381 8.57619   2 
   5   4  -8 67.1719 8.24777   3 
  -5  -4   8 68.7262 7.62859   5 
  -5  -4   8 66.3234 7.38263  14 
  -5  -4   8 72.8776 7.22862   7 
  -5  -4   8 82.3103 7.99677   1 
   4   4  -8 61.7962 7.67910   8 
   4   4  -8 73.5174 7.96952   3 
   4   4  -8 75.3924 8.52639   2 
   4   4  -8 87.7754 8.35256   1 
  -4  -4   8 71.7966 7.17929  14 
  -4  -4   8 60.6149 6.76399   5 
  -4  -4   8 76.5092 7.09452   7 
  -4  -4   8 68.9330 7.10465   1 
   3   4  -8 117.297 9.34655   3 
   3   4  -8 115.011 9.55613   8 
   3   4  -8 110.783 8.97939   1 
   3   4  -8 120.927 9.99509   2 
  -3  -4   8 105.871 8.40191   1 
  -3  -4   8 102.103 8.13733  14 
  -3  -4   8 122.065 8.48184   7 
   2   4  -8 148.734 9.95790   1 
   2   4  -8 130.202 10.1370   8 
   2   4  -8 132.722 9.93108   3 
   2   4  -8 137.364 9.57276  11 
   2   4  -8 129.398 9.28741  14 
   2   4  -8 136.277 10.4848   2 
  -2  -4   8 149.038 9.36332  14 
  -2  -4   8 157.296 9.90551   5 
  -2  -4   8 138.174 9.33154   1 
  -2  -4   8 149.895 9.29375   9 
  -2  -4   8 132.727 8.69902   7 
   1   4  -8 269.958 14.0554   5 
   1   4  -8 247.825 14.0248   3 
   1   4  -8 257.224 14.1948   8 
   1   4  -8 236.903 13.0982  14 
   1   4  -8 235.317 13.1431  11 
   1   4  -8 255.382 13.6933   1 
   1   4  -8 242.717 14.4542   2 
  -1  -4   8 249.987 14.3972   2 
  -1  -4   8 245.738 12.9797   1 
  -1  -4   8 245.135 12.7610   9 
  -1  -4   8 266.005 13.4224   5 
  -1  -4   8 246.546 12.4617   7 
  -1  -4   8 264.728 13.0188  14 
   0   4  -8 118.683 9.17020  11 
   0   4  -8 124.856 8.72704  14 
   0   4  -8 132.201 9.58193   3 
   0   4  -8 119.078 9.64846   2 
   0   4  -8 125.726 9.11011   5 
   0  -4   8 115.036 8.54132   5 
   0  -4   8 119.992 9.66351   2 
   0  -4   8 117.892 8.27477   9 
   0  -4   8 110.776 8.27891  14 
   0  -4   8 126.777 9.77437   2 
   0  -4   8 106.025 8.25508   1 
  -1   4  -8 66.9069 6.65338  14 
  -1   4  -8 60.2063 6.65681   1 
  -1   4  -8 60.8671 7.24888   2 
  -1   4  -8 66.2940 7.30636  11 
  -1   4  -8 75.7982 7.64624   3 
   1  -4   8 59.1991 6.53271   5 
   1  -4   8 54.1270 6.77372   2 
   1  -4   8 54.4247 6.26199   1 
   1  -4   8 55.4095 6.12180  14 
   1  -4   8 52.4683 5.90747   9 
  -2   4  -8 219.253 14.0457  11 
  -2   4  -8 237.680 13.7199   1 
  -2   4  -8 231.847 13.8837   5 
  -2   4  -8 231.473 13.4456  14 
  -2   4  -8 232.454 14.3163   3 
   2  -4   8 237.979 14.8909   2 
   2  -4   8 241.005 13.5599   1 
   2  -4   8 243.973 13.5718   9 
  -3   4  -8 108.775 9.27629  14 
  -3   4  -8 110.441 10.1589  11 
  -3   4  -8 105.864 9.72603   3 
  -3   4  -8 107.301 9.43898   1 
   3  -4   8 108.523 9.36636   9 
   3  -4   8 105.622 9.34456   1 
  -4   4  -8 44.4298 7.13469   1 
  -4   4  -8 44.2176 6.73065  14 
  -4   4  -8 38.5406 7.54969  11 
  -4   4  -8 52.0859 8.07121   3 
   4  -4   8 42.7354 7.18692   1 
  -5   4  -8 -1.9988 3.13508   3 
  -5   4  -8 10.8931 4.43491   1 
  -5   4  -8 8.01557 5.13473  11 
  -5   4  -8 7.14484 3.90649  14 
   5  -4   8 6.18424 4.37929   1 
  -6   4  -8 32.9946 8.04112   3 
  -6   4  -8 45.6858 8.52439   1 
  -6   4  -8 35.4059 8.87645  11 
   6  -4   8 39.4954 8.45423   1 
  -7   4  -8 19.5036 7.62659  11 
  -7   4  -8 17.7904 7.43616   1 
   8   3  -8 44.6633 9.13949   1 
  -8  -3   8 42.9387 8.10265   4 
  -8  -3   8 44.2382 8.34886   7 
  -8  -3   8 26.8350 6.44233   1 
   7   3  -8 15.1633 5.20028   1 
   7   3  -8 15.4620 6.00235   8 
  -7  -3   8 10.7925 4.51500   7 
  -7  -3   8 10.9071 4.33447  14 
  -7  -3   8 11.0969 4.92205   1 
   6   3  -8 15.7430 4.91616   3 
   6   3  -8 25.3539 5.83224   1 
   6   3  -8 20.1664 5.66701   8 
  -6  -3   8 20.0917 4.85949   7 
  -6  -3   8 31.7761 6.26964   1 
  -6  -3   8 19.9861 5.06457  14 
   5   3  -8 15.6169 4.98288   8 
   5   3  -8 26.4850 5.91669   3 
   5   3  -8 15.7184 4.81879   1 
  -5  -3   8 27.4978 5.40638  14 
  -5  -3   8 23.5689 5.21428   1 
  -5  -3   8 21.6430 4.79191   7 
   4   3  -8 237.891 14.6958   2 
   4   3  -8 219.415 13.2262   1 
   4   3  -8 244.887 13.3710  14 
   4   3  -8 234.727 13.9266   8 
   4   3  -8 217.912 13.5337   3 
  -4  -3   8 196.006 12.0511  14 
  -4  -3   8 214.963 12.6369   1 
  -4  -3   8 194.360 11.7744   7 
   3   3  -8 213.280 12.6738   5 
   3   3  -8 225.560 13.6526   2 
   3   3  -8 213.438 12.9780   8 
   3   3  -8 206.745 12.8346   3 
   3   3  -8 222.854 12.3627  14 
   3   3  -8 215.185 12.3606  11 
   3   3  -8 200.768 12.1694   1 
  -3  -3   8 215.639 12.1513   1 
  -3  -3   8 213.763 11.6303   7 
  -3  -3   8 222.460 12.4334   5 
  -3  -3   8 209.681 11.8647  14 
  -3  -3   8 214.158 13.4823   2 
   2   3  -8 413.438 19.3019   3 
   2   3  -8 417.160 18.9010  11 
   2   3  -8 433.485 18.4529  14 
   2   3  -8 396.802 18.3063   1 
   2   3  -8 410.034 19.7176   2 
   2   3  -8 422.200 19.4487   8 
   2   3  -8 399.669 18.5403   5 
  -2  -3   8 397.483 17.6306   7 
  -2  -3   8 416.559 18.4664   5 
  -2  -3   8 404.782 18.2007   1 
  -2  -3   8 397.608 17.1601   9 
  -2  -3   8 409.723 17.8822  14 
  -2  -3   8 416.375 19.7683   2 
   1   3  -8 48.6491 5.68635   5 
   1   3  -8 53.3186 5.83392  14 
   1   3  -8 45.9737 5.95509   8 
   1   3  -8 43.0041 5.98068   3 
   1   3  -8 48.4848 5.96736  11 
   1   3  -8 51.5663 6.18727   2 
   1   3  -8 49.2245 5.63450   1 
  -1  -3   8 48.2460 5.43613   7 
  -1  -3   8 41.0850 5.11678   5 
  -1  -3   8 52.8967 5.18824   9 
  -1  -3   8 60.3132 5.78866  14 
  -1  -3   8 47.6361 5.97676   2 
  -1  -3   8 46.9601 5.50979   1 
   0   3  -8 26.8140 5.43424  11 
   0   3  -8 21.2262 4.28782  14 
   0   3  -8 27.7054 4.74007   1 
   0   3  -8 29.7751 5.15339   3 
   0   3  -8 39.7431 5.17727   5 
   0   3  -8 33.9764 5.36870   2 
   0  -3   8 18.7978 4.49696   2 
   0  -3   8 26.8091 4.27588  14 
   0  -3   8 23.1490 4.25362   5 
   0  -3   8 24.3143 4.79444   2 
   0  -3   8 24.9102 3.78419   9 
   0  -3   8 24.8500 4.56982   1 
  -1   3  -8 104.770 9.10591  11 
  -1   3  -8 112.278 8.45685  14 
  -1   3  -8 106.740 8.34658   1 
  -1   3  -8 106.118 9.12544   3 
  -1   3  -8 123.206 8.93479   5 
   1  -3   8 121.784 9.72996   2 
   1  -3   8 105.176 7.66137   9 
   1  -3   8 116.906 8.57375   1 
  -2   3  -8 218.009 12.7815   1 
  -2   3  -8 213.550 13.4916   3 
  -2   3  -8 219.120 12.8255  14 
  -2   3  -8 205.186 12.7893   5 
   2  -3   8 231.107 12.7739   9 
   2  -3   8 225.047 13.1058   1 
   2  -3   8 226.123 14.2716   2 
  -3   3  -8 83.9372 8.15132   1 
  -3   3  -8 92.2110 8.44008  14 
  -3   3  -8 82.5044 9.00552  11 
  -3   3  -8 84.6588 9.09530   3 
  -3   3  -8 74.6934 7.93876   5 
   3  -3   8 81.2151 8.26856   1 
   3  -3   8 72.9365 8.82034   2 
  -4   3  -8 21.8262 5.38718  14 
  -4   3  -8 20.3445 5.92171  11 
  -4   3  -8 18.4051 5.64800   3 
  -4   3  -8 27.0194 5.71488   1 
   4  -3   8 19.8901 5.59019   1 
   4  -3   8 15.5885 8.48515   2 
  -5   3  -8 25.9130 7.54063  11 
  -5   3  -8 23.0511 5.73614  14 
  -5   3  -8 22.9027 6.67980   3 
  -5   3  -8 19.1343 5.37004   1 
   5  -3   8 32.7150 7.29855   1 
  -6   3  -8 34.5212 7.31753  14 
  -6   3  -8 33.8940 8.73458  11 
  -6   3  -8 29.5943 6.92899   1 
   6  -3   8 32.6468 7.52833   1 
   9   2  -8 21.3767 7.02663   1 
  -9  -2   8 22.1684 6.95039   1 
  -9  -2   8 24.0108 7.38199   7 
   8   2  -8 2.30997 4.32817   1 
   8   2  -8 10.6157 4.94464   8 
  -8  -2   8 6.78348 4.38600   4 
  -8  -2   8 5.12212 4.18701   1 
  -8  -2   8 0.12952 3.78618   7 
   7   2  -8 0.94056 3.53078   1 
   7   2  -8 6.32695 4.50500   3 
   7   2  -8 4.38492 4.00853   8 
  -7  -2   8 4.08983 3.76861   7 
  -7  -2   8 3.96231 3.42815   1 
   6   2  -8 30.4317 6.96650   8 
   6   2  -8 29.7976 6.89671   3 
   6   2  -8 28.9227 6.15247   1 
  -6  -2   8 34.0681 6.27188   1 
  -6  -2   8 25.1404 5.25286   7 
   5   2  -8 106.584 9.74237   8 
   5   2  -8 114.602 9.47238  14 
   5   2  -8 123.798 10.4579   3 
   5   2  -8 130.503 10.0185   1 
  -5  -2   8 127.846 9.38904   7 
  -5  -2   8 120.638 9.50797   1 
  -5  -2   8 106.096 8.89273  14 
   4   2  -8 196.688 15.0767   2 
   4   2  -8 182.565 12.1282   3 
   4   2  -8 184.181 11.4362  14 
   4   2  -8 176.113 11.3670   1 
   4   2  -8 181.332 11.9406   8 
  -4  -2   8 182.966 11.0455   7 
  -4  -2   8 186.035 11.3040  14 
  -4  -2   8 186.495 11.4446   1 
   3   2  -8 214.731 13.1381  11 
   3   2  -8 237.067 13.7013   8 
   3   2  -8 252.177 14.5111   2 
   3   2  -8 244.606 13.2765   1 
   3   2  -8 235.685 13.8316   3 
   3   2  -8 235.546 12.9568  14 
   3   2  -8 211.318 12.9130   5 
  -3  -2   8 272.899 13.2122   7 
  -3  -2   8 276.127 13.8297   5 
  -3  -2   8 276.089 13.4194  14 
  -3  -2   8 280.216 15.3695   2 
  -3  -2   8 278.834 13.7498   1 
   2   2  -8 254.617 14.1521   8 
   2   2  -8 273.389 14.6392  11 
   2   2  -8 289.155 14.0602  14 
   2   2  -8 267.128 14.6836   3 
   2   2  -8 272.956 14.4802   5 
   2   2  -8 257.247 13.9217   5 
   2   2  -8 278.454 11.2419   6 
   2   2  -8 262.063 13.7907   1 
   2   2  -8 277.061 15.1500   2 
  -2  -2   8 305.384 14.0744   7 
  -2  -2   8 317.458 12.9642   9 
  -2  -2   8 292.647 15.4965   2 
  -2  -2   8 307.160 13.9775  14 
  -2  -2   8 303.727 14.2822   1 
  -2  -2   8 312.780 14.5496   5 
   1   2  -8 172.347 9.96091   5 
   1   2  -8 168.607 10.7743   2 
   1   2  -8 167.467 9.74442  14 
   1   2  -8 164.419 10.4534  11 
   1   2  -8 157.261 9.59140   1 
   1   2  -8 176.179 10.2811   5 
   1   2  -8 166.370 10.5968   3 
   1   2  -8 166.660 6.28520   6 
  -1  -2   8 124.496 9.92711   2 
  -1  -2   8 122.967 8.87273   1 
  -1  -2   8 139.095 9.34532   5 
  -1  -2   8 145.642 8.28479   9 
  -1  -2   8 135.544 9.03652   7 
   0   2  -8 363.336 16.6123   5 
   0   2  -8 357.665 17.2610   3 
   0   2  -8 370.777 13.6662  13 
   0   2  -8 352.396 16.0717  14 
   0   2  -8 369.738 16.4752   1 
   0   2  -8 366.364 16.5735   5 
   0   2  -8 360.459 17.4578  11 
   0  -2   8 328.128 16.0547   1 
   0  -2   8 335.941 17.3887   2 
   0  -2   8 327.640 15.9214  14 
   0  -2   8 334.078 14.8270   9 
  -1   2  -8 266.907 10.1791  13 
  -1   2  -8 251.348 16.8762   5 
  -1   2  -8 286.038 14.5000   5 
  -1   2  -8 269.426 15.3099  11 
  -1   2  -8 260.497 13.7068   1 
  -1   2  -8 271.402 14.9332   3 
  -1   2  -8 263.651 13.6655  14 
   1  -2   8 288.569 14.4799   1 
   1  -2   8 279.092 13.4060   9 
   1  -2   8 291.664 15.9735   2 
  -2   2  -8 238.302 14.5866   3 
  -2   2  -8 277.952 14.2013   1 
  -2   2  -8 258.231 13.9423  14 
  -2   2  -8 272.474 14.5671   5 
  -2   2  -8 261.218 15.6136  11 
   2  -2   8 287.398 16.5569   2 
   2  -2   8 297.275 15.1168   1 
  -3   2  -8 22.7448 5.69765   5 
  -3   2  -8 16.9122 4.42146   1 
  -3   2  -8 14.2431 4.86330  11 
  -3   2  -8 15.4981 4.78587   3 
  -3   2  -8 17.5232 4.48062  14 
   3  -2   8 17.7876 4.99488   1 
   3  -2   8 15.4315 4.77392   2 
  -4   2  -8 62.6160 8.67914   3 
  -4   2  -8 56.5242 7.28124   5 
  -4   2  -8 50.6504 7.36578  14 
  -4   2  -8 64.9349 7.62306   1 
  -4   2  -8 62.5896 8.91846  11 
   4  -2   8 46.1489 7.51765   1 
   4  -2   8 57.3935 8.51923   2 
  -5   2  -8 33.2337 7.90002  11 
  -5   2  -8 39.5781 6.91045   5 
  -5   2  -8 39.9618 8.51698   3 
  -5   2  -8 34.5638 6.67246   1 
  -5   2  -8 36.9110 6.93015  14 
   5  -2   8 37.9632 7.90122   1 
  -6   2  -8 20.5978 5.98704  14 
  -6   2  -8 34.0767 8.77653  11 
  -6   2  -8 29.7238 6.56121   1 
   6  -2   8 30.0874 7.95307   1 
   9   1  -8 20.2161 6.84242   1 
  -9  -1   8 14.8767 5.80672   1 
  -9  -1   8 6.57644 5.54048   7 
   8   1  -8 8.48732 4.80894   1 
   8   1  -8 9.09499 5.68804   3 
   8   1  -8 7.62353 4.39580   8 
  -8  -1   8 8.37958 4.67218   7 
  -8  -1   8 5.13484 4.44738   1 
  -8  -1   8 7.79617 5.00988   3 
   7   1  -8 0.03401 3.31850   1 
   7   1  -8 2.41980 3.96055   3 
   7   1  -8 7.65599 4.55969   8 
  -7  -1   8 9.18627 4.27695   1 
  -7  -1   8 8.08723 4.06685   7 
   6   1  -8 165.434 11.8149  14 
   6   1  -8 152.768 11.9984   8 
   6   1  -8 161.758 11.7767   1 
   6   1  -8 162.100 12.6002   3 
  -6  -1   8 158.841 9.73048  12 
  -6  -1   8 154.790 11.1263   7 
  -6  -1   8 163.468 11.6041   1 
   5   1  -8 116.380 9.70946   8 
   5   1  -8 117.948 9.42574  14 
   5   1  -8 125.871 9.63950   1 
   5   1  -8 113.968 10.1252   3 
  -5  -1   8 105.791 9.82843   2 
  -5  -1   8 124.463 9.29221   7 
  -5  -1   8 118.134 9.31349   1 
   4   1  -8 4.90077 2.72176  14 
   4   1  -8 0.69613 2.39799   3 
   4   1  -8 4.29656 2.91670   8 
   4   1  -8 2.94046 1.86155  10 
   4   1  -8 5.75795 2.94369   1 
  -4  -1   8 5.12099 2.91178   2 
  -4  -1   8 0.27716 1.89686   1 
  -4  -1   8 6.60934 3.20300   7 
   3   1  -8 78.6675 7.30870   8 
   3   1  -8 73.5046 6.86149   1 
   3   1  -8 78.9912 6.96869  14 
   3   1  -8 82.1575 7.62225   3 
   3   1  -8 73.4413 7.03489   5 
   3   1  -8 79.2973 5.81258   6 
   3   1  -8 78.9137 6.69792   5 
   3   1  -8 74.4089 7.34558  11 
  -3  -1   8 99.5482 8.50312   2 
  -3  -1   8 98.5401 7.51430   1 
   2   1  -8 157.325 10.3232  11 
   2   1  -8 151.053 9.07847   5 
   2   1  -8 161.582 14.7840   2 
   2   1  -8 147.651 7.12797   6 
   2   1  -8 127.742 8.69298   1 
   2   1  -8 146.391 9.92216   3 
   2   1  -8 137.981 9.16564   8 
   2   1  -8 137.538 9.14781   5 
   2   1  -8 148.365 9.08521  14 
  -2  -1   8 123.166 8.61424   7 
  -2  -1   8 138.669 8.91243  14 
  -2  -1   8 125.873 6.96035   9 
  -2  -1   8 125.770 9.68163   2 
   1   1  -8 155.245 9.20210   1 
   1   1  -8 146.989 6.61966   6 
   1   1  -8 144.013 9.72444   3 
   1   1  -8 154.449 8.16454  13 
   1   1  -8 149.573 8.95078  14 
   1   1  -8 151.341 9.09620   5 
   1   1  -8 140.172 9.95256  11 
   1   1  -8 154.039 9.34979   5 
  -1  -1   8 125.887 8.81555   7 
  -1  -1   8 142.989 7.55488   9 
  -1  -1   8 130.779 8.90267   1 
  -1  -1   8 127.211 9.87184   2 
  -1  -1   8 132.764 9.95793   2 
   0   1  -8 130.251 8.51406  14 
   0   1  -8 133.277 9.48751   3 
   0   1  -8 131.230 6.95507  13 
   0   1  -8 120.028 8.27000   5 
   0   1  -8 126.450 8.32473   1 
   0   1  -8 134.853 9.89865  11 
   0   1  -8 130.298 8.76069   5 
   0  -1   8 125.967 8.59075   1 
   0  -1   8 129.342 7.46804   9 
   0  -1   8 126.372 9.63729   2 
  -1   1  -8 138.720 8.95806  14 
  -1   1  -8 141.861 10.6818  11 
  -1   1  -8 136.603 6.86283  13 
  -1   1  -8 136.714 8.94669   1 
  -1   1  -8 129.582 9.92050   3 
  -1   1  -8 134.646 9.19314   5 
  -1   1  -8 134.821 9.02117   5 
   1  -1   8 177.451 10.4154   1 
   1  -1   8 167.889 11.3774   2 
  -2   1  -8 29.3737 5.62850   3 
  -2   1  -8 25.5045 5.06834   5 
  -2   1  -8 24.9007 4.65939  14 
  -2   1  -8 20.5315 4.30630   5 
  -2   1  -8 21.9863 5.66492  11 
  -2   1  -8 15.9352 3.90010   1 
   2  -1   8 29.3695 5.20048   1 
   2  -1   8 30.8951 6.14645   2 
  -3   1  -8 71.5495 8.14224   3 
  -3   1  -8 42.7936 6.20523   5 
  -3   1  -8 59.8819 6.82028  14 
  -3   1  -8 51.8178 7.85714  11 
  -3   1  -8 65.1246 6.69393   1 
   3  -1   8 52.6444 7.75098   2 
   3  -1   8 53.2857 7.07044   1 
  -4   1  -8 42.9197 6.45300  14 
  -4   1  -8 32.7958 7.09188   3 
  -4   1  -8 29.4631 5.58675   1 
  -4   1  -8 36.1888 7.52604  11 
  -4   1  -8 29.2352 6.19678   5 
   4  -1   8 23.4015 5.61484   1 
   4  -1   8 40.0573 7.52626   2 
  -5   1  -8 1.75471 4.46593   3 
  -5   1  -8 3.41222 4.56184  11 
  -5   1  -8 1.83657 3.12052   1 
  -5   1  -8 2.95972 3.69304   5 
  -5   1  -8 5.92182 3.64611  14 
   5  -1   8 2.99398 3.42034   2 
   5  -1   8 6.81878 4.76280   1 
  -6   1  -8 1.31461 4.97601  11 
  -6   1  -8 6.03798 4.19531   5 
  -6   1  -8 4.13858 3.65254   1 
  -6   1  -8 4.66679 3.95532  14 
   6  -1   8 5.51271 4.61541   1 
   9   0  -8 3.72581 4.80678   1 
  -9   0   8 4.23048 4.26758   1 
  -9   0   8 4.73380 5.30841   7 
   8   0  -8 0.59390 4.08923   3 
   8   0  -8 0.61893 3.51469   8 
   8   0  -8 -2.4672 3.78208   1 
  -8   0   8 0.81142 3.77778   7 
  -8   0   8 -2.2370 3.34295   1 
   7   0  -8 75.6868 9.80315   3 
   7   0  -8 83.7131 9.32269  14 
   7   0  -8 67.5774 8.78705   8 
   7   0  -8 81.4792 9.07778   1 
  -7   0   8 85.9330 9.19219   1 
  -7   0   8 68.0249 8.27362   7 
   6   0  -8 286.196 16.3611   8 
   6   0  -8 294.804 17.3200   3 
   6   0  -8 298.502 16.0894  14 
   6   0  -8 295.447 15.9798   1 
  -6   0   8 294.158 14.8288  12 
  -6   0   8 275.286 15.8854   1 
  -6   0   8 282.400 15.7304   7 
  -6   0   8 311.406 18.3694   2 
   5   0  -8 192.823 11.4465  14 
   5   0  -8 166.397 11.7294   3 
   5   0  -8 169.320 11.0273   1 
   5   0  -8 168.854 11.3230   8 
   5   0  -8 158.323 8.37714  10 
  -5   0   8 158.922 10.8470   7 
  -5   0   8 170.462 12.3066   2 
  -5   0   8 153.685 10.8619   1 
   4   0  -8 1.60329 1.78674  10 
   4   0  -8 1.93826 2.49037   8 
   4   0  -8 0.22806 2.14551  14 
   4   0  -8 5.17407 2.67547   1 
   4   0  -8 0.28033 2.07322   3 
   4   0  -8 1.64562 2.02062   5 
  -4   0   8 4.31604 2.95214   2 
  -4   0   8 3.03022 2.63158   7 
  -4   0   8 6.95748 3.19488   1 
   3   0  -8 3.16825 2.40675  14 
   3   0  -8 6.81303 2.75918   8 
   3   0  -8 4.36129 2.07658   6 
   3   0  -8 6.37309 2.62828   1 
   3   0  -8 5.48949 2.97117   3 
   3   0  -8 5.61377 2.71245  10 
   3   0  -8 7.27266 2.77106   5 
   3   0  -8 8.25922 3.39541  11 
  -3   0   8 11.5315 3.63225   2 
  -3   0   8 9.11916 2.91918   1 
  -3   0   8 10.0055 3.06207   7 
   2   0  -8 668.838 24.5942  13 
   2   0  -8 633.545 24.4405   5 
   2   0  -8 646.594 24.7817   5 
   2   0  -8 636.969 25.6901   3 
   2   0  -8 629.396 24.9836  10 
   2   0  -8 638.182 22.5868   6 
   2   0  -8 638.723 26.2321  11 
   2   0  -8 623.587 24.0622   1 
   2   0  -8 629.504 24.0850  14 
  -2   0   8 617.179 24.7098   1 
  -2   0   8 627.395 26.3633   2 
  -2   0   8 564.593 24.2944   7 
   1   0  -8 635.464 21.6157   6 
   1   0  -8 622.879 23.2391   1 
   1   0  -8 591.834 23.1006  14 
   1   0  -8 622.310 23.0529  13 
   1   0  -8 609.587 23.6975   5 
   1   0  -8 617.982 23.6218   5 
   1   0  -8 590.596 25.4013  11 
   1   0  -8 617.242 24.9228   3 
  -1   0   8 585.205 23.8163   1 
  -1   0   8 611.355 21.1369   9 
  -1   0   8 599.119 25.5312   2 
  -1   0   8 600.452 25.5308   2 
  -1   0   8 583.773 24.0733   7 
   0   0  -8 180.919 8.28007   6 
   0   0  -8 190.180 9.83309   1 
   0   0  -8 169.687 11.5208  11 
   0   0  -8 175.935 9.68449  14 
   0   0  -8 171.866 9.99338   5 
   0   0  -8 180.209 11.1897   3 
   0   0  -8 176.085 9.94383   5 
   0   0  -8 177.541 9.07338  13 
   0   0   8 175.102 10.3106   1 
   0   0   8 160.180 11.1865   2 
   0   0   8 173.758 8.65524   9 
  -1   0  -8 53.9878 5.71979   5 
  -1   0  -8 55.4585 7.18914  11 
  -1   0  -8 50.7477 5.34934   5 
  -1   0  -8 45.1509 5.14685  14 
  -1   0  -8 62.4502 4.77295  13 
  -1   0  -8 61.7408 5.56900   1 
  -1   0  -8 60.9562 6.87888   3 
   1   0   8 83.5540 8.02385   2 
   1   0   8 70.1672 6.68820   1 
  -2   0  -8 16.6824 3.65141  14 
  -2   0  -8 16.5775 4.58991   3 
  -2   0  -8 20.6060 4.33431   5 
  -2   0  -8 24.9407 5.85996  11 
  -2   0  -8 17.5070 3.72652   1 
   2   0   8 18.5193 5.33715   2 
   2   0   8 13.9314 4.05758   1 
  -3   0  -8 91.8172 9.74126  11 
  -3   0  -8 89.6399 7.37601   1 
  -3   0  -8 92.2360 7.74866  14 
  -3   0  -8 94.0518 7.99739   5 
  -3   0  -8 102.260 9.80287   3 
   3   0   8 95.7071 8.95249   1 
   3   0   8 83.9822 9.79133   2 
  -4   0  -8 112.072 9.43218   5 
  -4   0  -8 114.894 12.0153  11 
  -4   0  -8 119.373 8.42951   1 
  -4   0  -8 118.095 11.3506   3 
  -4   0  -8 97.0257 8.65522  14 
   4   0   8 109.354 11.5877   2 
   4   0   8 99.9233 10.0507   1 
  -5   0  -8 0.16189 5.05734  10 
  -5   0  -8 1.62589 3.38442   5 
  -5   0  -8 4.93557 5.18888  11 
  -5   0  -8 4.56476 3.70325  14 
   5   0   8 5.07065 3.95284   1 
   5   0   8 -0.0894 3.40041   2 
  -6   0  -8 3.06543 3.85133  14 
  -6   0  -8 2.46021 3.76959   5 
  -6   0  -8 2.96850 5.03672  11 
   6   0   8 -2.4269 3.71027   1 
   9  -1  -8 -1.6495 4.23978   3 
   9  -1  -8 3.61520 4.44904   1 
  -9   1   8 -2.2196 3.84388   7 
  -9   1   8 1.93569 4.26482   1 
   8  -1  -8 4.60928 4.13879   8 
   8  -1  -8 3.52022 4.42472   3 
   8  -1  -8 -0.7455 3.43984   1 
  -8   1   8 -0.2908 3.16723   1 
  -8   1   8 1.15433 3.65112   7 
   7  -1  -8 153.748 11.7447  14 
   7  -1  -8 143.731 12.5543   3 
   7  -1  -8 152.766 11.8405   1 
   7  -1  -8 146.987 11.7253   8 
  -7   1   8 161.781 12.2134   1 
  -7   1   8 148.103 11.4483   7 
  -7   1   8 165.736 11.0797  12 
   6  -1  -8 118.550 9.79838  14 
   6  -1  -8 114.319 9.58210   1 
   6  -1  -8 123.560 10.7959   3 
   6  -1  -8 132.723 10.3011   8 
  -6   1   8 144.571 10.5378   7 
  -6   1   8 131.253 9.71757  12 
  -6   1   8 119.866 9.98026   1 
  -6   1   8 132.130 11.3941   2 
   5  -1  -8 2.16923 2.82739   3 
   5  -1  -8 1.83457 2.43774   1 
   5  -1  -8 0.21650 2.24091  14 
   5  -1  -8 0.06659 2.28067   6 
   5  -1  -8 -0.5544 2.00599   8 
   5  -1  -8 0.93574 1.74279  10 
  -5   1   8 -0.7343 2.07578   1 
  -5   1   8 2.01448 2.52361   7 
  -5   1   8 0.74892 2.07394   2 
   4  -1  -8 12.0888 3.17552  14 
   4  -1  -8 9.48124 3.40670   3 
   4  -1  -8 11.7460 3.35234   8 
   4  -1  -8 10.9617 3.10265  10 
   4  -1  -8 7.68497 3.00819   6 
   4  -1  -8 10.5867 2.88842   5 
   4  -1  -8 10.5460 3.24388   1 
  -4   1   8 4.14521 2.64020   1 
  -4   1   8 3.23776 2.38737   7 
  -4   1   8 1.75337 2.26296   2 
   3  -1  -8 325.363 14.3472   1 
   3  -1  -8 308.995 15.6747   3 
   3  -1  -8 302.418 14.9098  10 
   3  -1  -8 328.511 14.2563   6 
   3  -1  -8 321.586 14.5261   5 
   3  -1  -8 318.444 15.5555  13 
   3  -1  -8 317.246 14.3584  14 
   3  -1  -8 284.350 15.9442  11 
  -3   1   8 319.615 15.0924   1 
  -3   1   8 321.238 16.5176   2 
  -3   1   8 300.613 15.0226   7 
   2  -1  -8 433.129 17.9970   5 
   2  -1  -8 399.139 19.6139  11 
   2  -1  -8 418.549 17.2624  14 
   2  -1  -8 432.473 19.1334   3 
   2  -1  -8 430.135 17.0639   6 
   2  -1  -8 427.170 17.6115   5 
   2  -1  -8 443.232 19.3392  10 
   2  -1  -8 409.092 18.1016  13 
   2  -1  -8 423.235 17.2168   1 
  -2   1   8 417.121 18.5720   7 
  -2   1   8 442.876 18.3933   1 
  -2   1   8 426.498 19.7781   2 
   1  -1  -8 240.052 13.8515  11 
   1  -1  -8 226.670 11.9062  13 
   1  -1  -8 225.660 10.9977   1 
   1  -1  -8 236.549 13.0397   3 
   1  -1  -8 231.695 11.5810   5 
   1  -1  -8 220.459 11.6209   5 
   1  -1  -8 242.062 13.6821  10 
   1  -1  -8 240.636 11.1737   6 
   1  -1  -8 236.936 11.3388  14 
  -1   1   8 257.188 12.6048   1 
  -1   1   8 248.051 12.9223   7 
  -1   1   8 260.058 14.0298   2 
  -1   1   8 265.304 9.49388   9 
  -1   1   8 246.989 13.7414   2 
   0  -1  -8 24.0122 5.16331  11 
   0  -1  -8 22.7013 3.26833   1 
   0  -1  -8 25.5642 3.77474   5 
   0  -1  -8 21.1693 3.47071  13 
   0  -1  -8 18.2187 3.15089   6 
   0  -1  -8 22.4871 3.82423   5 
   0  -1  -8 17.3804 3.48798  14 
   0  -1  -8 23.2125 4.79270   3 
   0  -1  -8 24.1313 5.09405  10 
   0   1   8 26.5166 3.14418   9 
   0   1   8 25.1235 4.96965   2 
   0   1   8 31.7290 4.59376   1 
  -1  -1  -8 28.5869 3.88532  13 
  -1  -1  -8 32.0465 6.39164  11 
  -1  -1  -8 25.7592 5.71397  10 
  -1  -1  -8 27.2761 4.25442   5 
  -1  -1  -8 28.1575 3.58591   1 
  -1  -1  -8 28.2731 3.93580  14 
  -1  -1  -8 30.8216 5.36286   3 
  -1  -1  -8 31.8483 4.25209   5 
   1   1   8 27.8546 5.65460   2 
   1   1   8 20.7524 4.43403   1 
  -2  -1  -8 108.179 10.0926  11 
  -2  -1  -8 112.717 6.74838   1 
  -2  -1  -8 96.2199 9.61879  10 
  -2  -1  -8 109.850 7.87084   5 
  -2  -1  -8 103.155 7.34056  14 
  -2  -1  -8 112.399 9.56517   3 
   2   1   8 101.533 9.70912   2 
   2   1   8 107.727 8.91221   1 
  -3  -1  -8 99.4721 10.1414  11 
  -3  -1  -8 76.0509 8.84386   3 
  -3  -1  -8 74.8065 5.83044   1 
  -3  -1  -8 76.3300 6.62110  14 
  -3  -1  -8 94.4165 10.2768  10 
  -3  -1  -8 84.8429 7.26442   5 
   3   1   8 62.4008 8.86973   2 
   3   1   8 77.2023 8.41899   1 
  -4  -1  -8 78.9489 9.84908   3 
  -4  -1  -8 78.2350 10.2483  10 
  -4  -1  -8 81.0369 7.06426  14 
  -4  -1  -8 68.7249 9.42910  11 
  -4  -1  -8 66.6149 7.30198   5 
   4   1   8 78.4263 8.89595   1 
   4   1   8 71.9792 10.1856   2 
  -5  -1  -8 1.58394 4.52802  11 
  -5  -1  -8 6.23208 3.33147  14 
  -5  -1  -8 2.57156 3.18815   5 
   5   1   8 13.8997 6.21629   2 
   5   1   8 20.3152 6.28939   1 
   9  -2  -8 2.54147 4.48157   1 
  -9   2   8 -0.9158 4.36432   7 
  -9   2   8 0.36384 3.95339   1 
   8  -2  -8 18.9402 5.43550   8 
   8  -2  -8 19.2444 6.54639   3 
   8  -2  -8 19.0723 5.36646   1 
  -8   2   8 14.5594 5.06125   1 
  -8   2   8 4.25452 3.81338   7 
   7  -2  -8 40.7882 7.48529   3 
   7  -2  -8 54.6627 7.35310   8 
   7  -2  -8 65.0760 7.67817   1 
  -7   2   8 44.5940 7.09617   7 
  -7   2   8 49.4740 7.99138   2 
  -7   2   8 58.0838 7.99690   1 
  -7   2   8 57.9999 7.30626  12 
   6  -2  -8 102.576 9.31245   6 
   6  -2  -8 99.8966 9.79364   3 
   6  -2  -8 102.382 8.62382  14 
   6  -2  -8 95.7757 8.30091   1 
   6  -2  -8 90.2403 8.26010   8 
  -6   2   8 102.900 9.14984  12 
  -6   2   8 100.111 9.16922   1 
  -6   2   8 113.658 9.49010   7 
  -6   2   8 93.6108 9.82103   2 
   5  -2  -8 24.8645 4.31936  10 
   5  -2  -8 28.3615 4.74544   1 
   5  -2  -8 23.9930 4.46742   8 
   5  -2  -8 25.4924 4.30024   5 
   5  -2  -8 19.3139 4.59553   6 
   5  -2  -8 27.7591 4.96754  14 
   5  -2  -8 25.1674 5.44081   3 
  -5   2   8 17.0631 4.53339   2 
  -5   2   8 11.0215 3.84780   7 
  -5   2   8 17.1194 4.46714   1 
   4  -2  -8 81.1056 6.31074   8 
   4  -2  -8 82.6530 6.29523   1 
   4  -2  -8 85.7806 7.38065   6 
   4  -2  -8 84.5791 7.70826   3 
   4  -2  -8 82.6836 6.65142  14 
   4  -2  -8 81.2464 8.03699  13 
   4  -2  -8 87.1416 6.56588   5 
   4  -2  -8 79.7496 6.90223  10 
  -4   2   8 60.6515 6.51346   1 
  -4   2   8 61.7178 6.73666   7 
  -4   2   8 66.2999 7.55791   2 
   3  -2  -8 145.886 9.88694  10 
   3  -2  -8 139.256 8.84542   6 
   3  -2  -8 134.752 7.58173   1 
   3  -2  -8 133.063 9.47961   3 
   3  -2  -8 139.327 10.3536  11 
   3  -2  -8 137.980 9.72692  13 
   3  -2  -8 145.311 8.42939   5 
   3  -2  -8 131.000 7.88812  14 
  -3   2   8 145.324 9.52335   7 
  -3   2   8 142.912 10.1724   2 
  -3   2   8 158.812 9.45150   1 
   2  -2  -8 157.701 10.0597  13 
   2  -2  -8 156.971 9.02307   6 
   2  -2  -8 151.781 9.86876   3 
   2  -2  -8 146.158 10.5791  11 
   2  -2  -8 143.870 7.34715   1 
   2  -2  -8 143.208 7.91898  14 
   2  -2  -8 138.298 9.99615  10 
   2  -2  -8 144.433 8.26397   5 
  -2   2   8 159.014 9.42358   1 
  -2   2   8 157.522 9.82276   7 
  -2   2   8 142.780 10.0875   2 
   1  -2  -8 61.3305 6.96892  11 
   1  -2  -8 52.5689 4.82969   5 
   1  -2  -8 65.7723 6.66496   3 
   1  -2  -8 55.6294 5.84830  13 
   1  -2  -8 54.0848 6.77239  10 
   1  -2  -8 46.4021 4.89108   6 
   1  -2  -8 50.9347 4.67804   5 
   1  -2  -8 53.3959 4.58296  14 
   1  -2  -8 56.3997 3.85708   1 
  -1   2   8 58.2496 6.31043   7 
  -1   2   8 58.8196 6.43739   2 
  -1   2   8 49.1570 5.31197   1 
   0  -2  -8 26.7180 3.68424   5 
   0  -2  -8 29.3036 2.55458   1 
   0  -2  -8 26.5150 4.26682  13 
   0  -2  -8 29.5689 4.09568   6 
   0  -2  -8 26.1411 3.35535  14 
   0  -2  -8 26.9450 3.77172   5 
   0  -2  -8 26.8215 5.09748   3 
   0  -2  -8 25.7989 5.43662  10 
   0  -2  -8 31.9237 5.89125  11 
   0   2   8 19.5036 4.11463   1 
   0   2   8 24.2509 5.05958   2 
  -1  -2  -8 34.3853 6.35945  10 
  -1  -2  -8 19.4372 4.60851   3 
  -1  -2  -8 21.1824 3.28842  14 
  -1  -2  -8 22.4545 4.15852  13 
  -1  -2  -8 21.9006 5.60192  11 
  -1  -2  -8 30.2059 3.91979   5 
   1   2   8 21.4468 4.38587   1 
   1   2   8 25.5149 5.69128   2 
  -2  -2  -8 54.1316 4.70324  14 
  -2  -2  -8 58.3181 7.38591   3 
  -2  -2  -8 55.9801 5.25086   5 
  -2  -2  -8 60.3188 8.27817  10 
  -2  -2  -8 62.3500 4.99128  14 
  -2  -2  -8 59.1320 8.00294  11 
   2   2   8 68.1214 7.28353   1 
   2   2   8 62.7558 7.94642   2 
  -3  -2  -8 77.4695 8.89341   3 
  -3  -2  -8 68.0813 6.12433   5 
  -3  -2  -8 58.9138 5.22792  14 
  -3  -2  -8 70.9688 9.39948  10 
  -3  -2  -8 64.4496 9.04578  11 
  -3  -2  -8 64.4001 5.33907  14 
   3   2   8 74.5847 9.59904   2 
   3   2   8 84.7694 9.47595   1 
  -4  -2  -8 7.39519 2.44688  14 
  -4  -2  -8 5.33177 2.90286   5 
  -4  -2  -8 15.6086 3.25787  14 
  -4  -2  -8 17.8068 6.17400  11 
   4   2   8 7.63104 4.50265   2 
  -5  -2  -8 1.45673 4.52779  11 
  -5  -2  -8 7.77698 2.82132  14 
  -5  -2  -8 11.6023 3.68784   5 
   5   2   8 16.0394 6.52443   2 
   9  -3  -8 51.7952 8.41435   1 
  -9   3   8 40.0476 8.80454   1 
  -9   3   8 35.6777 8.02252   7 
   8  -3  -8 3.00061 4.56124   6 
   8  -3  -8 7.98142 4.91812   3 
   8  -3  -8 7.79449 3.93502   8 
   8  -3  -8 4.51770 4.02723   1 
  -8   3   8 14.9598 5.68916   1 
  -8   3   8 8.00938 4.26834  12 
  -8   3   8 9.07308 6.28776   2 
  -8   3   8 8.36737 4.74064   7 
   7  -3  -8 36.7485 7.41136   6 
   7  -3  -8 43.6886 7.70883   3 
   7  -3  -8 39.9219 6.34655   1 
   7  -3  -8 45.6507 6.30690   8 
  -7   3   8 45.4112 7.40281   7 
  -7   3   8 42.7593 7.68957   2 
  -7   3   8 47.5217 7.27750  12 
  -7   3   8 44.2326 7.24487   1 
   6  -3  -8 39.0137 5.33453   1 
   6  -3  -8 27.7592 6.24296   3 
   6  -3  -8 33.8399 6.51538   6 
   6  -3  -8 33.8262 7.24795  13 
   6  -3  -8 29.2023 5.52840  10 
   6  -3  -8 32.8725 5.00860   8 
  -6   3   8 40.7665 6.90024  12 
  -6   3   8 35.0572 6.17241   1 
  -6   3   8 37.6864 6.92471   2 
  -6   3   8 39.0367 6.61322   7 
   5  -3  -8 77.3913 5.87978   8 
   5  -3  -8 80.4935 6.69542  14 
   5  -3  -8 76.6726 7.16358  10 
   5  -3  -8 83.9787 8.18333   3 
   5  -3  -8 90.0834 6.43507   1 
   5  -3  -8 77.1670 6.55781   5 
   5  -3  -8 93.6516 9.08150  13 
   5  -3  -8 88.3059 8.30773   6 
  -5   3   8 76.1537 8.39134   2 
  -5   3   8 73.8339 7.65235   7 
  -5   3   8 78.0700 7.62031   1 
   4  -3  -8 178.363 9.64227   5 
   4  -3  -8 175.223 11.1670  10 
   4  -3  -8 189.395 8.75714   1 
   4  -3  -8 196.058 12.4849  13 
   4  -3  -8 176.609 11.1589   6 
   4  -3  -8 180.506 9.35194  14 
   4  -3  -8 185.754 11.5875   3 
  -4   3   8 176.996 10.8307   1 
  -4   3   8 171.835 11.1356   7 
  -4   3   8 173.760 12.1380   2 
   3  -3  -8 148.453 6.50379   1 
   3  -3  -8 147.827 10.6035  13 
   3  -3  -8 140.784 7.44510  14 
   3  -3  -8 156.266 9.67753   6 
   3  -3  -8 134.770 9.51064   3 
   3  -3  -8 146.385 8.01550   5 
   3  -3  -8 153.693 10.5194  10 
   3  -3  -8 143.236 10.8206  11 
  -3   3   8 145.152 10.2606   2 
  -3   3   8 143.955 9.09945   1 
  -3   3   8 157.340 10.0198   7 
   2  -3  -8 56.7002 4.07064  14 
   2  -3  -8 58.6329 4.54052   5 
   2  -3  -8 47.1513 5.59145   6 
   2  -3  -8 66.4735 7.33084  10 
   2  -3  -8 63.9863 6.94717  13 
   2  -3  -8 71.2122 6.65637   3 
   2  -3  -8 56.4107 7.04428  11 
  -2   3   8 71.8668 6.67258   7 
  -2   3   8 73.5160 6.25391   1 
  -2   3   8 79.8104 7.28320   2 
   1  -3  -8 34.7384 5.47603  13 
   1  -3  -8 37.0292 5.10627   6 
   1  -3  -8 35.9307 5.32946   3 
   1  -3  -8 32.7826 6.14842  10 
   1  -3  -8 43.1597 6.37545  11 
  -1   3   8 38.0186 5.35508   7 
  -1   3   8 38.1019 5.51321   2 
  -1   3   8 44.4656 5.00660   1 
   0  -3  -8 130.288 9.31844   3 
   0  -3  -8 114.859 8.94078  13 
   0  -3  -8 115.577 10.2731  10 
   0  -3  -8 127.958 8.76934   6 
   0  -3  -8 109.169 9.95562  11 
   0   3   8 117.456 8.98796   7 
   0   3   8 116.786 8.32216   1 
   0   3   8 115.122 9.38893   2 
  -1  -3  -8 81.4240 7.89249   3 
  -1  -3  -8 76.4311 8.89039  10 
  -1  -3  -8 73.6734 8.33326  11 
  -1  -3  -8 76.5378 7.30323  13 
   1   3   8 82.7475 8.53826   2 
  -2  -3  -8 35.5412 7.20201  10 
  -2  -3  -8 47.9581 6.91508   3 
  -2  -3  -8 44.3990 7.44926  11 
   2   3   8 43.2858 7.02623   2 
  -3  -3  -8 13.2687 5.02065  11 
  -3  -3  -8 8.94482 4.77900  10 
   3   3   8 18.8544 5.96131   2 
  -4  -3  -8 5.07837 4.43770  11 
   4   3   8 11.9609 5.10135   2 
   9  -4  -8 40.5844 7.15826   1 
   9  -4  -8 27.0047 7.63619   6 
  -9   4   8 14.4692 6.00857   7 
  -9   4   8 29.5636 7.62749   1 
   8  -4  -8 43.1248 8.26362   6 
   8  -4  -8 14.1006 4.22924   8 
   8  -4  -8 32.0549 8.18419  13 
   8  -4  -8 29.7741 5.81065   1 
  -8   4   8 20.2767 6.58019  12 
  -8   4   8 15.3018 5.51638   1 
  -8   4   8 14.6011 6.22363   2 
  -8   4   8 22.2097 6.11575   7 
   7  -4  -8 12.7553 3.32826   8 
   7  -4  -8 11.8931 3.55356   1 
   7  -4  -8 10.4371 4.68699   3 
   7  -4  -8 13.2223 5.70492  13 
   7  -4  -8 16.4880 5.47896   6 
  -7   4   8 10.5887 4.44436   1 
  -7   4   8 21.1609 6.11472  12 
  -7   4   8 11.5133 4.42534   7 
  -7   4   8 16.3357 6.04343   2 
   6  -4  -8 73.7358 7.28346  10 
   6  -4  -8 75.1031 8.56134   3 
   6  -4  -8 65.9287 6.32018   5 
   6  -4  -8 71.6531 8.60824   6 
   6  -4  -8 85.9241 9.60458  13 
   6  -4  -8 81.1454 5.96438   1 
  -6   4   8 77.1342 9.24352   2 
  -6   4   8 86.4766 9.63065  12 
  -6   4   8 81.4055 8.41752   7 
  -6   4   8 72.3466 7.93420   1 
   5  -4  -8 81.6322 6.26207   5 
   5  -4  -8 86.9244 7.88654  10 
   5  -4  -8 83.0764 8.25320   3 
   5  -4  -8 77.7504 8.78031  13 
   5  -4  -8 91.5146 8.61812   6 
  -5   4   8 77.0566 8.47208   2 
  -5   4   8 81.5420 9.11257  12 
  -5   4   8 84.0846 7.87664   1 
  -5   4   8 76.5041 7.85493   7 
   4  -4  -8 62.5730 7.06066  10 
   4  -4  -8 76.3316 5.25525   5 
   4  -4  -8 66.8366 7.25129   6 
   4  -4  -8 65.1175 6.91727   3 
   4  -4  -8 67.5781 7.88036  13 
  -4   4   8 55.0065 6.79781   7 
  -4   4   8 53.5043 6.96080   2 
  -4   4   8 50.7762 6.03319   1 
   3  -4  -8 78.4984 7.09857   3 
   3  -4  -8 63.4145 7.46730  10 
   3  -4  -8 62.9875 7.01300   6 
   3  -4  -8 70.5135 8.03287  13 
  -3   4   8 76.8362 7.24863   7 
  -3   4   8 56.3219 6.57580   2 
  -3   4   8 69.1450 6.23087   1 
   2  -4  -8 34.8812 6.16507  11 
   2  -4  -8 37.9367 6.38753  10 
   2  -4  -8 29.7191 4.89293   3 
   2  -4  -8 29.9422 5.38425   6 
   2  -4  -8 34.7651 6.25713  13 
  -2   4   8 34.8225 5.21081   2 
  -2   4   8 39.6748 5.65284   7 
   1  -4  -8 69.7381 7.27221   6 
   1  -4  -8 78.3225 7.81377  13 
   1  -4  -8 71.3263 6.73363   3 
   1  -4  -8 80.1819 8.71572  10 
   1  -4  -8 68.2182 7.84285  11 
  -1   4   8 64.1224 6.92860   2 
  -1   4   8 67.1103 6.85908   7 
   0  -4  -8 80.9613 8.71118  11 
   0  -4  -8 75.9501 7.40489   3 
   0  -4  -8 77.1331 7.95230  13 
   0  -4  -8 71.6531 8.79650  10 
   0  -4  -8 75.1289 7.58761   6 
   0   4   8 63.2058 7.26920   2 
   0   4   8 74.2936 7.45826   7 
  -1  -4  -8 84.1560 8.17622   3 
  -1  -4  -8 92.6948 10.1641  10 
  -1  -4  -8 79.8107 8.87549  11 
   1   4   8 87.3638 8.85067   2 
  -2  -4  -8 9.90411 4.62257  11 
  -2  -4  -8 7.11219 4.60116  10 
  -2  -4  -8 6.34212 3.55322   3 
   2   4   8 5.21841 3.89649   2 
  -3  -4  -8 9.86756 4.55536  11 
   3   4   8 8.76219 4.95023   2 
   9  -5  -8 26.2793 7.84006   6 
  -9   5   8 19.5049 6.63292   1 
  -9   5   8 21.1241 6.58258   7 
  -9   5   8 23.5442 7.17550  12 
   8  -5  -8 6.20039 6.00213  13 
   8  -5  -8 -1.8073 3.43857   6 
  -8   5   8 2.84391 4.26476   2 
  -8   5   8 4.50159 3.98417   1 
  -8   5   8 6.41651 4.07067   7 
  -8   5   8 0.58038 3.73821  12 
   7  -5  -8 24.2997 4.58422   5 
   7  -5  -8 27.7008 6.59294   6 
   7  -5  -8 22.7275 6.07804   3 
   7  -5  -8 17.4050 6.29160  13 
  -7   5   8 29.6250 6.48680   7 
  -7   5   8 31.6832 6.72641   1 
  -7   5   8 30.2958 7.01895  12 
  -7   5   8 39.7371 8.11260   2 
   6  -5  -8 65.0631 8.29837   3 
   6  -5  -8 58.2195 8.67870  13 
   6  -5  -8 61.5913 7.23928  10 
   6  -5  -8 67.7694 8.57111   6 
   6  -5  -8 70.9392 5.95227   5 
  -6   5   8 72.3265 9.12802   2 
  -6   5   8 60.1999 7.39956   1 
  -6   5   8 70.8923 9.41510  12 
  -6   5   8 83.2764 8.36212   7 
   5  -5  -8 127.807 10.7174   6 
   5  -5  -8 127.443 10.1417   3 
   5  -5  -8 123.600 11.1501  13 
   5  -5  -8 118.898 9.98844  10 
  -5   5   8 105.915 10.9799  12 
  -5   5   8 127.717 10.7063   2 
  -5   5   8 132.615 10.1022   7 
   4  -5  -8 98.5491 9.05729   6 
   4  -5  -8 97.5649 9.50004  10 
   4  -5  -8 100.703 10.0974  13 
   4  -5  -8 88.1392 8.03639   3 
  -4   5   8 92.3455 8.68830   2 
  -4   5   8 87.2238 8.16455   7 
   3  -5  -8 68.9182 8.29604  13 
   3  -5  -8 61.6172 8.14151  10 
   3  -5  -8 51.3105 7.13910   6 
   3  -5  -8 67.0274 6.69728   3 
  -3   5   8 67.4111 7.07486   2 
  -3   5   8 68.9626 7.01082   7 
   2  -5  -8 61.8594 6.53259   3 
   2  -5  -8 60.5067 8.24015  10 
   2  -5  -8 80.7084 8.53984  13 
   2  -5  -8 74.0333 8.32066  11 
   2  -5  -8 68.2195 7.69761   6 
  -2   5   8 61.2249 6.81848   2 
  -2   5   8 78.7520 7.29014   7 
   1  -5  -8 51.6550 7.99799  10 
   1  -5  -8 53.5802 7.13361   6 
   1  -5  -8 61.9863 7.89966  13 
   1  -5  -8 56.4095 7.51211  11 
   1  -5  -8 51.1627 6.03205   3 
  -1   5   8 51.9868 6.47858   2 
  -1   5   8 46.0524 6.20219   2 
  -1   5   8 51.1661 6.44947   7 
   0  -5  -8 71.4441 8.52955   6 
   0  -5  -8 79.6535 9.10367  13 
   0  -5  -8 79.5101 9.70179  10 
   0  -5  -8 90.6395 8.00188   3 
   0  -5  -8 80.1008 8.80438  11 
   0   5   8 83.1782 8.16605   2 
   0   5   8 80.7899 7.86147   7 
  -1  -5  -8 63.6845 9.43030  10 
  -1  -5  -8 53.5469 7.65464  11 
  -1  -5  -8 51.8890 6.84495   3 
   1   5   8 57.8595 7.31891   7 
   1   5   8 58.0162 7.70471   2 
   2   5   8 2.42600 3.57091   2 
   3   5   8 7.72212 4.85090   2 
   9  -6  -8 5.45626 5.37652   6 
   9  -6  -8 5.52840 4.33065   5 
  -9   6   8 11.1891 5.84326   7 
  -9   6   8 9.02228 5.55790   1 
  -9   6   8 3.75547 5.00453   2 
   8  -6  -8 3.29632 2.61308   5 
   8  -6  -8 1.10479 2.91815   5 
   8  -6  -8 7.41970 4.93323   6 
  -8   6   8 5.84449 4.29247   7 
  -8   6   8 4.65750 4.93125   2 
  -8   6   8 7.06872 4.78338  12 
   7  -6  -8 17.7118 4.05182   5 
   7  -6  -8 19.7009 3.87981   5 
   7  -6  -8 24.5098 6.67555   6 
   7  -6  -8 29.2563 7.84022  13 
  -7   6   8 24.8781 6.68955   2 
  -7   6   8 20.9633 6.83703  12 
  -7   6   8 24.8721 6.05218   7 
   6  -6  -8 4.79670 3.51785   3 
   6  -6  -8 5.33244 4.09923   6 
   6  -6  -8 10.1133 5.28321  13 
   6  -6  -8 11.3279 4.29324  10 
  -6   6   8 14.3945 4.85612   2 
  -6   6   8 8.67905 5.34992  12 
  -6   6   8 8.64724 4.25775   7 
   5  -6  -8 33.2087 7.58004  13 
   5  -6  -8 23.0342 5.60181  10 
   5  -6  -8 32.2201 6.73455   6 
   5  -6  -8 26.4565 5.75805   3 
  -5   6   8 22.7182 5.33145   7 
  -5   6   8 34.8107 8.16635  12 
  -5   6   8 25.6488 6.02382   2 
   4  -6  -8 14.0376 4.71680   6 
   4  -6  -8 21.6352 4.78568   3 
   4  -6  -8 19.6871 6.03737  13 
   4  -6  -8 11.7382 5.01169  10 
  -4   6   8 24.8978 5.56152   2 
  -4   6   8 32.4695 5.64847   7 
  -4   6   8 16.1495 6.04724  12 
   3  -6  -8 63.9366 8.65313  13 
   3  -6  -8 50.9206 7.48745   6 
   3  -6  -8 50.0412 5.97448   3 
   3  -6  -8 50.6295 8.24041  10 
  -3   6   8 55.6754 6.74455   7 
  -3   6   8 62.8639 7.04661   2 
   2  -6  -8 27.7775 6.84354  13 
   2  -6  -8 20.6563 5.66883  10 
   2  -6  -8 20.0862 4.41143   3 
   2  -6  -8 24.9402 5.85056   6 
  -2   6   8 30.9993 5.70987   7 
  -2   6   8 27.7444 5.03888   2 
   1  -6  -8 47.7316 8.31403  10 
   1  -6  -8 48.3353 5.89851   3 
   1  -6  -8 46.5082 8.19719  13 
   1  -6  -8 52.6261 7.45511  11 
   1  -6  -8 58.8903 8.06575   6 
  -1   6   8 53.2404 6.46422   2 
  -1   6   8 50.3544 6.44093   2 
  -1   6   8 46.5164 6.28752   7 
   0  -6  -8 23.5349 6.13365   6 
   0  -6  -8 30.1127 6.27898  11 
   0  -6  -8 26.1722 5.06451   3 
   0  -6  -8 30.0196 7.22513  13 
   0   6   8 32.9687 5.99404   2 
   0   6   8 33.9476 5.86522   7 
   1   6   8 26.7491 6.07630   2 
   2   6   8 10.6932 4.67471   2 
   8  -7  -8 13.8118 5.83139   6 
  -8   7   8 9.52768 4.69726   7 
  -8   7   8 15.0565 6.02744   2 
   7  -7  -8 25.5533 6.93352   6 
  -7   7   8 25.2723 6.08635   7 
  -7   7   8 27.6023 7.20108   2 
   6  -7  -8 53.3707 9.12569  13 
   6  -7  -8 53.5998 8.87062   6 
  -6   7   8 56.0646 7.60047   7 
  -6   7   8 49.1696 7.92103   2 
  -6   7   8 58.8105 10.2984  12 
   5  -7  -8 31.3227 7.35538   6 
   5  -7  -8 19.3083 4.92125   3 
   5  -7  -8 23.8418 6.35804  10 
   5  -7  -8 29.8145 7.72173  13 
  -5   7   8 27.4656 7.80904  12 
  -5   7   8 22.9905 5.59869   2 
  -5   7   8 16.0354 4.68068   7 
   4  -7  -8 25.4473 6.99218  13 
   4  -7  -8 27.2124 6.74174  10 
   4  -7  -8 37.8524 5.82994   3 
   4  -7  -8 42.4486 7.84965   6 
  -4   7   8 35.9167 6.08429   7 
  -4   7   8 32.0734 6.07908   2 
  -4   7   8 32.7210 7.73346  12 
   3  -7  -8 36.2171 7.34023   6 
   3  -7  -8 38.6257 5.38751   3 
   3  -7  -8 35.2220 7.38635  10 
   3  -7  -8 38.3704 8.42309  13 
  -3   7   8 41.4359 6.11402   2 
  -3   7   8 44.0494 6.31546   7 
   2  -7  -8 46.1864 8.07231   6 
   2  -7  -8 40.9768 5.49148   3 
   2  -7  -8 42.1407 8.79867  13 
   2  -7  -8 40.8324 10.2592  10 
  -2   7   8 39.3911 5.78650   2 
   1  -7  -8 14.8424 3.77764   3 
   1  -7  -8 15.4714 5.57680   6 
   1  -7  -8 18.1422 6.11246  13 
  -1   7   8 16.0073 4.17046   2 
   0  -7  -8 4.96013 4.63663  13 
   0   7   8 4.03260 3.35843   2 
   1   7   8 6.38104 4.13706   2 
   7  -8  -8 37.7505 8.44597   6 
  -7   8   8 39.7336 8.49342   2 
  -7   8   8 44.0469 7.75965   7 
   6  -8  -8 20.6765 7.09305   6 
  -6   8   8 21.1168 5.91362   2 
  -6   8   8 27.4722 7.09052   7 
   5  -8  -8 21.5268 6.79442   6 
  -5   8   8 29.7153 6.44924   2 
   4  -8  -8 42.7693 8.60063   6 
   4  -8  -8 30.2220 9.98736  13 
   4  -8  -8 30.2275 5.57714   3 
  -4   8   8 38.3682 6.41399   2 
   3  -8  -8 94.2435 10.8811   6 
   3  -8  -8 103.470 7.91984   3 
   3  -8  -8 98.6372 12.5905  13 
  -3   8   8 88.6146 17.7387  12 
  -3   8   8 101.541 8.66876   2 
   2  -8  -8 67.1433 9.87005   6 
   2  -8  -8 48.6260 5.69225   3 
  -2   8   8 51.7899 6.37350   2 
   1  -8  -8 9.33779 5.16157   6 
  -1   8   8 16.4730 4.02288   2 
   6  -9  -8 10.8829 5.81574   6 
  -6   9   8 13.7992 5.42794   2 
   5  -9  -8 -1.0961 4.30836   6 
  -5   9   8 8.99309 3.97524   2 
   4  -9  -8 32.4775 8.52770   6 
  -4   9   8 18.4124 4.81723   2 
   3  -9  -8 23.5500 7.41136   6 
  -3   9   8 34.9637 5.79049   2 
  -1  12  -9 62.5496 11.2835   2 
   1 -12   9 37.5356 6.42747   5 
   1 -12   9 46.5320 9.62612   4 
   1 -12   9 42.6911 6.46283   5 
   1 -12   9 34.7005 5.41565  14 
  -2  12  -9 70.2359 12.3753   2 
   2 -12   9 50.3733 7.22898   5 
   2 -12   9 56.0654 6.75433  14 
   2  11  -9 31.0872 8.67490   2 
  -2 -11   9 28.1222 5.71434   5 
  -2 -11   9 46.6702 9.90721   4 
  -2 -11   9 33.9713 5.67367   5 
  -2 -11   9 32.2478 5.11765  14 
   1  11  -9 49.8420 10.6302   2 
  -1 -11   9 40.7216 6.03023   5 
  -1 -11   9 32.5498 5.32493  14 
  -1 -11   9 29.3514 6.18338   5 
  -1 -11   9 52.0620 9.72564   4 
   0  11  -9 44.2564 9.92423   2 
   0  11  -9 32.0589 7.33996   1 
   0 -11   9 34.1954 5.70475  14 
   0 -11   9 22.4765 7.20635   4 
   0 -11   9 31.1667 6.19576   5 
   0 -11   9 35.1464 8.86507   9 
  -1  11  -9 25.3082 6.89484   1 
  -1  11  -9 21.9906 7.53640   2 
   1 -11   9 27.2754 7.57278   9 
   1 -11   9 27.9735 7.30049   4 
   1 -11   9 26.1975 5.17408  14 
   1 -11   9 27.5793 5.81274   5 
  -2  11  -9 54.2406 9.70328   1 
  -2  11  -9 91.5223 12.3180   2 
   2 -11   9 72.9128 8.10107  14 
   2 -11   9 69.5060 8.31304   5 
   2 -11   9 81.3589 9.55356   4 
   2 -11   9 76.2243 10.9501   9 
  -3  11  -9 39.1073 8.54164   1 
   3 -11   9 33.9130 7.10575   5 
   3 -11   9 29.0489 8.42945   9 
   3 -11   9 39.0971 6.94452  14 
  -4  11  -9 36.0777 8.61801   1 
   4 -11   9 32.8562 6.53466  14 
   4 -11   9 41.0943 7.86196   5 
   3  10  -9 6.54918 4.98288   1 
   3  10  -9 -1.1791 4.34244   2 
  -3 -10   9 12.6258 4.34734   5 
  -3 -10   9 12.6327 3.94448  14 
  -3 -10   9 9.87520 5.94396   4 
   2  10  -9 31.3718 8.46447   2 
   2  10  -9 22.1571 6.66801   1 
  -2 -10   9 21.2335 5.10953   5 
  -2 -10   9 32.2198 8.20869   4 
  -2 -10   9 20.2398 4.51128  14 
   1  10  -9 48.4044 8.48316   1 
   1  10  -9 68.8075 10.7084   2 
  -1 -10   9 48.6061 8.78876   4 
  -1 -10   9 56.4224 7.19168   5 
  -1 -10   9 59.3458 6.84795  14 
  -1 -10   9 49.4433 9.21445   9 
   0  10  -9 60.2361 8.74690   1 
   0  10  -9 67.5069 10.4844   2 
   0 -10   9 56.0943 7.01670  14 
   0 -10   9 65.0479 7.52439   5 
   0 -10   9 52.0471 8.77660   4 
   0 -10   9 54.7710 9.26729   9 
   0 -10   9 56.5648 6.44079   1 
  -1  10  -9 54.0315 9.90001   2 
  -1  10  -9 62.8782 9.09005   1 
   1 -10   9 75.3107 7.37973   1 
   1 -10   9 54.2840 7.23165  14 
   1 -10   9 64.1850 9.66204   9 
   1 -10   9 67.3206 8.09375   5 
  -2  10  -9 69.5034 9.73570   1 
  -2  10  -9 59.0433 10.0253   2 
   2 -10   9 67.1079 9.88932   9 
   2 -10   9 70.8499 7.66213   1 
   2 -10   9 75.3396 8.13295  14 
   2 -10   9 69.7909 8.43615   5 
  -3  10  -9 11.8595 5.95037   1 
  -3  10  -9 18.0490 6.06797  11 
   3 -10   9 3.50197 3.47867  14 
   3 -10   9 6.70701 4.19290   5 
   3 -10   9 0.42711 4.29570   9 
   3 -10   9 5.76058 3.61733   1 
  -4  10  -9 20.9343 7.20261  11 
  -4  10  -9 31.9890 7.56451   1 
   4 -10   9 22.5906 6.08621   1 
   4 -10   9 27.2521 7.45921   9 
   4 -10   9 19.5919 5.60070  14 
  -5  10  -9 35.1623 8.93576  11 
  -5  10  -9 27.5197 7.97027   1 
   5 -10   9 27.6480 6.58013  14 
   5 -10   9 38.2040 7.64586   1 
   4   9  -9 4.20914 4.52423   1 
   4   9  -9 6.28393 5.46954   2 
  -4  -9   9 -1.7924 4.58612   4 
  -4  -9   9 4.24273 3.48624   5 
  -4  -9   9 6.21677 3.78227  14 
   3   9  -9 6.68996 4.87330   1 
   3   9  -9 9.68943 5.80591   2 
  -3  -9   9 7.56346 3.85582   5 
  -3  -9   9 9.54690 3.69136  14 
  -3  -9   9 9.48694 5.89654   4 
   2   9  -9 96.4344 11.9444   2 
   2   9  -9 89.7480 10.4008   1 
  -2  -9   9 84.3942 8.06261  14 
  -2  -9   9 93.0230 7.74632   1 
  -2  -9   9 92.3175 8.66811   5 
   1   9  -9 75.9802 9.56176   1 
   1   9  -9 72.4818 9.98962   2 
  -1  -9   9 80.3782 7.52458   1 
  -1  -9   9 88.5295 8.22788  14 
  -1  -9   9 72.8402 8.06824   5 
  -1  -9   9 89.5754 10.0383   9 
   0   9  -9 25.2433 6.85798   8 
   0   9  -9 20.0822 6.04170   2 
   0   9  -9 23.0901 6.31630   1 
   0  -9   9 25.6472 6.65072   9 
   0  -9   9 24.1079 5.16080   1 
   0  -9   9 18.4132 4.76848  14 
   0  -9   9 29.8012 6.34989   5 
  -1   9  -9 28.8323 7.64797   2 
  -1   9  -9 32.0289 6.93390   1 
  -1   9  -9 27.7676 5.95755  11 
   1  -9   9 54.6393 8.66976   9 
   1  -9   9 38.0046 6.68655   5 
   1  -9   9 40.1343 6.13522   1 
   1  -9   9 44.8180 6.71688  14 
  -2   9  -9 28.6142 6.77912   1 
  -2   9  -9 25.9346 6.33269  11 
  -2   9  -9 31.7559 7.78949   2 
   2  -9   9 46.0442 8.10585   9 
   2  -9   9 35.9330 6.27948   1 
   2  -9   9 40.2231 6.64514  14 
   2  -9   9 45.7746 7.08540   5 
  -3   9  -9 52.7796 9.11844   1 
  -3   9  -9 54.1289 8.59700  11 
   3  -9   9 48.9679 7.69392  14 
   3  -9   9 43.0331 7.18677   1 
   3  -9   9 46.6579 8.39062   9 
  -4   9  -9 74.9411 10.7271  11 
  -4   9  -9 79.4608 10.5680   1 
   4  -9   9 65.6905 8.73468   1 
   4  -9   9 77.7237 10.5575   9 
   4  -9   9 63.9300 8.64078  14 
  -5   9  -9 16.8009 7.08820  11 
  -5   9  -9 23.4221 7.15823   1 
   5  -9   9 15.3115 5.59658  14 
   5  -9   9 30.7154 8.42218   9 
   5  -9   9 25.7269 6.72373   1 
   5   8  -9 36.3592 8.08182   1 
   5   8  -9 25.2794 7.44850   2 
  -5  -8   9 28.3167 6.06938  14 
  -5  -8   9 46.7770 9.61432   4 
  -5  -8   9 39.2439 7.15224   5 
   4   8  -9 8.49802 5.13358   1 
   4   8  -9 4.80596 4.67218   2 
  -4  -8   9 4.67830 3.71874   5 
  -4  -8   9 3.00452 4.57862   4 
  -4  -8   9 7.26577 3.61731  14 
  -4  -8   9 5.98500 3.20057   1 
   3   8  -9 40.4429 8.59312   2 
   3   8  -9 42.0925 8.08021   1 
  -3  -8   9 29.9593 5.98304  14 
  -3  -8   9 41.3441 6.55879   5 
  -3  -8   9 33.8227 5.81766   1 
   2   8  -9 94.4703 10.3246   8 
   2   8  -9 86.5933 9.66099   1 
   2   8  -9 97.6909 10.9122   2 
  -2  -8   9 85.8804 8.50916   5 
  -2  -8   9 109.274 8.73632   1 
  -2  -8   9 92.7525 8.45888  14 
   1   8  -9 36.8980 7.24085   2 
   1   8  -9 43.1086 7.70643   8 
   1   8  -9 43.8109 6.06107  11 
   1   8  -9 35.6930 7.18144   1 
  -1  -8   9 32.1359 4.75057   7 
  -1  -8   9 31.3949 5.81642   5 
  -1  -8   9 37.5607 5.99361   1 
  -1  -8   9 29.5621 5.78306  14 
  -1  -8   9 33.4191 6.99169   9 
   0   8  -9 30.9877 6.91957   8 
   0   8  -9 34.2502 7.21409   2 
   0   8  -9 40.2000 7.25129   1 
   0   8  -9 38.0607 6.06271  11 
   0  -8   9 34.8400 4.96430   7 
   0  -8   9 34.4539 5.94105   1 
   0  -8   9 33.8942 7.20481   9 
   0  -8   9 24.2791 5.15071  14 
   0  -8   9 34.9892 6.04717   5 
  -1   8  -9 35.0588 6.97214   1 
  -1   8  -9 29.0475 6.09648  11 
  -1   8  -9 34.0302 7.34403   2 
   1  -8   9 29.5167 5.91160   5 
   1  -8   9 31.4725 4.98524   7 
   1  -8   9 33.6243 5.91710   1 
   1  -8   9 24.1610 6.56364   9 
   1  -8   9 28.2759 5.72568  14 
  -2   8  -9 46.1911 7.46897  11 
  -2   8  -9 47.7160 8.03755   1 
   2  -8   9 42.0457 6.75994   5 
   2  -8   9 45.8659 6.91222   1 
   2  -8   9 48.1790 8.00149   9 
   2  -8   9 52.9153 7.24190  14 
  -3   8  -9 17.0237 5.62037  11 
  -3   8  -9 27.0319 6.81043   1 
   3  -8   9 13.1121 5.41530   9 
   3  -8   9 21.3739 5.39556  14 
   3  -8   9 10.8830 4.64914   1 
  -4   8  -9 57.1600 9.21519   1 
  -4   8  -9 59.1594 9.43336  11 
   4  -8   9 61.7481 9.49943   9 
   4  -8   9 68.9916 9.01088   1 
   4  -8   9 47.8073 7.76602  14 
  -5   8  -9 32.0245 8.73351  11 
  -5   8  -9 27.5431 7.63807   1 
   5  -8   9 30.2736 7.18434   1 
   5  -8   9 14.7056 6.03207   9 
  -6   8  -9 -1.4846 5.38154  11 
   6   7  -9 11.5865 5.50915   1 
  -6  -7   9 20.0438 5.23284   1 
  -6  -7   9 13.2387 5.62552   5 
  -6  -7   9 19.9523 5.45628  14 
  -6  -7   9 10.9591 6.46514   4 
   5   7  -9 9.36334 5.19551   1 
  -5  -7   9 16.0201 6.26468   4 
  -5  -7   9 17.1153 4.80655  14 
  -5  -7   9 13.2250 4.70135   5 
  -5  -7   9 11.8307 4.33391   1 
   4   7  -9 36.1177 7.31743   1 
   4   7  -9 43.1163 8.10440   8 
   4   7  -9 38.7824 8.24859   2 
  -4  -7   9 31.6430 6.32335  14 
  -4  -7   9 32.2502 6.17907   1 
  -4  -7   9 37.5015 5.34065   7 
  -4  -7   9 29.5045 6.19830   5 
   3   7  -9 128.399 11.8516   8 
   3   7  -9 139.681 12.6962   2 
   3   7  -9 133.832 11.6580   1 
  -3  -7   9 147.671 9.63952   7 
  -3  -7   9 140.005 10.5832   5 
  -3  -7   9 135.560 10.0636  14 
  -3  -7   9 136.494 10.2806   1 
   2   7  -9 126.976 11.8289   2 
   2   7  -9 138.666 10.0548  11 
   2   7  -9 143.170 11.5285   1 
   2   7  -9 146.313 12.2768   8 
  -2  -7   9 158.936 10.7421   1 
  -2  -7   9 151.239 10.5166  14 
  -2  -7   9 140.349 10.4325   5 
  -2  -7   9 156.444 9.63824   7 
   1   7  -9 43.4913 7.41928   1 
   1   7  -9 60.1528 6.88187  11 
   1   7  -9 51.9640 7.88204   8 
   1   7  -9 50.7645 7.80642   2 
  -1  -7   9 57.3823 6.79210   1 
  -1  -7   9 46.9083 6.44509  14 
  -1  -7   9 60.9690 5.97813   7 
  -1  -7   9 50.8539 7.13039   9 
  -1  -7   9 55.1741 6.80743   5 
   0   7  -9 73.9279 9.14183   8 
   0   7  -9 75.5926 8.64137   1 
   0   7  -9 87.0262 8.32266  11 
   0   7  -9 89.5253 9.76678   2 
   0  -7   9 77.8400 7.56025  14 
   0  -7   9 83.1168 8.87306   9 
   0  -7   9 75.1572 6.84508   7 
   0  -7   9 94.5895 8.43301   5 
   0  -7   9 71.3237 7.67065   1 
  -1   7  -9 159.438 11.6134  11 
  -1   7  -9 166.696 13.2526   2 
  -1   7  -9 163.081 12.2220   1 
   1  -7   9 171.791 11.6654   1 
   1  -7   9 164.744 12.2548   9 
   1  -7   9 161.208 11.2162  14 
   1  -7   9 153.923 11.3308   5 
  -2   7  -9 87.2047 9.29420  11 
  -2   7  -9 99.8163 9.99061   1 
   2  -7   9 88.4284 8.83636   1 
   2  -7   9 73.6436 7.91688  14 
   2  -7   9 86.4702 9.30120   9 
  -3   7  -9 81.8040 10.3580  11 
  -3   7  -9 91.6002 10.2215   1 
   3  -7   9 90.9963 9.58600   1 
   3  -7   9 90.4711 9.23438  14 
   3  -7   9 89.6855 9.78438   9 
  -4   7  -9 81.8515 10.9032  11 
  -4   7  -9 78.6860 9.96262   1 
   4  -7   9 60.6707 8.66638   1 
   4  -7   9 78.1951 9.57163   9 
  -5   7  -9 12.9990 6.71749  11 
  -5   7  -9 12.1319 5.30579   1 
   5  -7   9 8.19694 5.67852   9 
   5  -7   9 8.53567 5.11111   1 
  -6   7  -9 2.55598 5.39450   1 
  -6   7  -9 10.9644 6.67669  11 
   6  -7   9 5.23030 5.48619   9 
   6  -7   9 -0.9603 4.75970   1 
   7   6  -9 5.04888 4.83289   1 
  -7  -6   9 3.59315 3.98650   1 
  -7  -6   9 4.05094 3.80302  14 
  -7  -6   9 11.0563 6.03385   4 
   6   6  -9 4.37087 4.40350   8 
   6   6  -9 13.1441 5.83903   1 
  -6  -6   9 9.15129 4.32403  14 
  -6  -6   9 8.51135 4.18709   7 
  -6  -6   9 8.38516 5.69011   4 
  -6  -6   9 9.66024 4.36590   1 
   5   6  -9 11.9923 5.21073   1 
   5   6  -9 9.67679 5.17222   8 
  -5  -6   9 13.1953 4.19165   7 
  -5  -6   9 12.2215 4.61504   5 
  -5  -6   9 12.9022 4.55564  14 
  -5  -6   9 21.1642 5.48355   1 
   4   6  -9 38.0780 7.70236   2 
   4   6  -9 44.1327 7.87785   8 
   4   6  -9 37.2910 7.51275   1 
  -4  -6   9 34.2129 6.30763   5 
  -4  -6   9 34.1139 5.60585   7 
  -4  -6   9 48.4737 6.75142   1 
  -4  -6   9 37.4960 6.43812  14 
   3   6  -9 29.5748 6.66568   8 
   3   6  -9 28.8782 6.14859   1 
   3   6  -9 28.3416 6.64596   2 
  -3  -6   9 32.7159 5.12120   7 
  -3  -6   9 32.0191 5.89149   1 
  -3  -6   9 33.3421 5.69262   5 
  -3  -6   9 29.9193 5.79245  14 
   2   6  -9 35.2424 6.80951   8 
   2   6  -9 28.9900 6.20708   2 
   2   6  -9 21.0285 5.27078   3 
   2   6  -9 29.9142 6.25339   1 
   2   6  -9 32.3923 5.47891  11 
  -2  -6   9 27.4634 5.80221   9 
  -2  -6   9 36.8399 5.74788  14 
  -2  -6   9 34.0316 5.67583   1 
  -2  -6   9 28.5160 4.82885   7 
  -2  -6   9 31.1119 5.33610   5 
   1   6  -9 33.2243 6.43929   1 
   1   6  -9 40.0610 6.54601   3 
   1   6  -9 27.0308 5.49297  11 
   1   6  -9 37.1438 6.66646   2 
   1   6  -9 39.6796 6.77566   8 
  -1  -6   9 40.9805 5.94047  14 
  -1  -6   9 41.2095 5.45685   7 
  -1  -6   9 37.1417 5.86269   1 
  -1  -6   9 60.0387 6.79190   5 
  -1  -6   9 38.7343 5.98717   9 
   0   6  -9 95.1620 9.06940   3 
   0   6  -9 89.2435 9.48988   2 
   0   6  -9 91.2755 8.59795  11 
   0   6  -9 84.5242 8.77666   1 
   0  -6   9 93.4681 7.78405   7 
   0  -6   9 97.4196 8.53385   1 
   0  -6   9 89.1379 8.55980   9 
   0  -6   9 81.3429 8.09166   5 
   0  -6   9 96.4665 8.18843  14 
  -1   6  -9 80.5154 8.54403  11 
  -1   6  -9 100.963 9.42722   3 
  -1   6  -9 87.3152 8.90970   1 
   1  -6   9 92.4398 8.59865   1 
   1  -6   9 93.1459 8.40975  14 
   1  -6   9 88.5907 8.74611   9 
  -2   6  -9 40.9023 7.06099   1 
  -2   6  -9 36.2100 7.05998   3 
  -2   6  -9 48.3467 7.56036  11 
   2  -6   9 50.7811 7.17110   9 
   2  -6   9 37.6780 6.46996  14 
   2  -6   9 35.3843 6.52797   1 
  -3   6  -9 50.0214 8.58376  11 
  -3   6  -9 49.4320 7.81217   1 
  -3   6  -9 42.2714 7.75030   3 
   3  -6   9 62.1490 7.99485   1 
   3  -6   9 53.2858 7.77908   9 
  -4   6  -9 55.3854 9.30889   3 
  -4   6  -9 68.1660 9.87131  11 
  -4   6  -9 70.4954 9.20308   1 
   4  -6   9 63.4741 9.25582   9 
   4  -6   9 70.9230 8.87073   1 
  -5   6  -9 12.6630 6.60753  11 
  -5   6  -9 11.8691 5.54052   1 
   5  -6   9 21.8519 6.33885   1 
   5  -6   9 19.4016 6.55382   9 
  -6   6  -9 6.16426 5.74086  11 
  -6   6  -9 19.6847 6.90196   1 
   6  -6   9 11.4794 6.03664   1 
   6  -6   9 15.0703 6.34294   9 
   7   5  -9 8.26528 5.36600   1 
   7   5  -9 15.7020 6.31130   8 
  -7  -5   9 9.53470 4.70071   1 
  -7  -5   9 7.96020 4.68796  14 
  -7  -5   9 6.20565 5.46117   4 
  -7  -5   9 6.42640 4.37108   7 
   6   5  -9 6.50537 4.46275   1 
   6   5  -9 12.9448 5.86152   8 
  -6  -5   9 12.5606 4.66540   1 
  -6  -5   9 8.74794 4.19155   7 
  -6  -5   9 12.8187 4.56074  14 
   5   5  -9 61.5219 8.50518   1 
   5   5  -9 40.2120 7.65496   8 
  -5  -5   9 52.7373 7.24191   1 
  -5  -5   9 52.3109 7.10258  14 
  -5  -5   9 51.1673 6.86543   7 
   4   5  -9 72.8249 8.62347   1 
   4   5  -9 66.6582 8.64522   8 
   4   5  -9 81.2944 10.0324   2 
  -4  -5   9 73.9130 7.74368  14 
  -4  -5   9 61.1338 7.45616   1 
  -4  -5   9 65.7068 7.01874   7 
   3   5  -9 114.913 9.99389   3 
   3   5  -9 111.844 10.2431   8 
   3   5  -9 108.416 10.3985   2 
   3   5  -9 111.257 9.93709   1 
  -3  -5   9 108.771 9.13694   1 
  -3  -5   9 113.508 9.06319  14 
  -3  -5   9 102.301 8.33104   7 
   2   5  -9 43.0360 5.95327  11 
   2   5  -9 44.0729 6.87255   2 
   2   5  -9 42.7556 6.54388   3 
   2   5  -9 35.5765 6.30179   1 
   2   5  -9 52.5941 7.48922   8 
  -2  -5   9 42.7826 5.83741   9 
  -2  -5   9 41.8294 5.80359  14 
  -2  -5   9 35.9069 5.41663   7 
  -2  -5   9 46.6845 6.24201   1 
  -2  -5   9 46.1649 6.16225   5 
   1   5  -9 80.4256 8.61674   8 
   1   5  -9 89.4677 8.68429   1 
   1   5  -9 92.1165 9.22402   2 
   1   5  -9 92.6171 8.49843  11 
   1   5  -9 93.1494 8.96113   3 
  -1  -5   9 82.2119 7.72968   9 
  -1  -5   9 100.934 8.44279   1 
  -1  -5   9 89.8952 7.80185  14 
  -1  -5   9 103.922 8.47777   5 
  -1  -5   9 81.5998 7.31109   7 
   0   5  -9 83.2828 8.24661  11 
   0   5  -9 84.7705 9.23800   2 
   0   5  -9 89.7827 8.51623   1 
   0   5  -9 83.7561 8.51780   3 
   0  -5   9 69.7838 7.45364   1 
   0  -5   9 81.4247 7.28008   7 
   0  -5   9 81.7901 7.67976  14 
   0  -5   9 70.4531 7.37745   9 
  -1   5  -9 56.1817 7.60636  11 
  -1   5  -9 58.3187 7.78779   3 
  -1   5  -9 54.3348 7.09706   1 
   1  -5   9 53.1205 6.41722  14 
   1  -5   9 53.1425 6.95659   1 
   1  -5   9 53.4646 6.61818   9 
  -2   5  -9 72.5942 8.24082   1 
  -2   5  -9 65.3702 8.29591   3 
  -2   5  -9 56.0612 7.95628  11 
   2  -5   9 62.8968 7.51521   9 
   2  -5   9 78.5070 8.10027   1 
  -3   5  -9 18.0458 5.21917   1 
  -3   5  -9 12.5669 4.86057   3 
  -3   5  -9 23.8601 6.28199  11 
   3  -5   9 30.4826 6.50424   9 
   3  -5   9 25.9576 5.72032   1 
  -4   5  -9 9.96942 4.72971   3 
  -4   5  -9 8.41171 5.07618  11 
  -4   5  -9 10.9561 4.62368   1 
   4  -5   9 13.5123 5.19269   1 
   4  -5   9 7.88254 4.66289   9 
  -5   5  -9 3.08941 4.29281   1 
  -5   5  -9 5.27082 4.57709   3 
  -5   5  -9 2.97143 5.29751  11 
   5  -5   9 8.51260 4.76590   1 
  -6   5  -9 14.8092 7.43114  11 
  -6   5  -9 4.88896 4.80469   1 
   6  -5   9 6.90879 5.37744   1 
   8   4  -9 10.9989 6.05452   1 
  -8  -4   9 16.3970 5.93307   7 
  -8  -4   9 20.5168 7.05929   4 
  -8  -4   9 5.36941 4.25328   1 
   7   4  -9 13.6384 5.89520   8 
   7   4  -9 13.7031 5.30959   1 
  -7  -4   9 3.47239 3.62363  14 
  -7  -4   9 15.7772 5.60119   7 
  -7  -4   9 10.6921 4.80602   1 
   6   4  -9 30.6507 6.79969   1 
   6   4  -9 35.6698 7.96487   8 
  -6  -4   9 37.7967 6.96877  14 
  -6  -4   9 35.5257 6.64165   7 
  -6  -4   9 48.4602 7.33744   1 
   5   4  -9 41.1853 7.21485   3 
   5   4  -9 40.3019 7.32610   8 
   5   4  -9 43.1450 7.43057   1 
  -5  -4   9 47.5320 6.96911   1 
  -5  -4   9 49.1120 6.58743   7 
  -5  -4   9 38.7285 6.63917  14 
   4   4  -9 100.890 9.61426   1 
   4   4  -9 102.800 10.0521   8 
   4   4  -9 119.816 10.2787   3 
  -4  -4   9 112.713 9.24072  14 
  -4  -4   9 105.535 8.80724   7 
  -4  -4   9 107.425 9.29967   1 
   3   4  -9 96.7938 9.53192   8 
   3   4  -9 115.999 9.92990   3 
   3   4  -9 105.001 9.39092   1 
   3   4  -9 100.124 8.91151  11 
   3   4  -9 102.214 11.0341   2 
  -3  -4   9 110.860 9.06273   1 
  -3  -4   9 116.690 8.98722  14 
  -3  -4   9 116.300 8.74182   7 
   2   4  -9 110.480 9.68381   8 
   2   4  -9 115.450 9.35883   1 
   2   4  -9 103.637 8.89276  11 
   2   4  -9 99.9087 9.32574   3 
   2   4  -9 102.172 8.71719  14 
   2   4  -9 104.146 9.66598   2 
  -2  -4   9 128.906 8.66923   9 
  -2  -4   9 122.772 9.15363   1 
  -2  -4   9 108.835 8.37750   7 
  -2  -4   9 128.862 9.11041  14 
   1   4  -9 59.7948 9.71200   2 
   1   4  -9 41.0648 6.45864   8 
   1   4  -9 43.6942 6.22313  11 
   1   4  -9 43.4328 6.28459   1 
   1   4  -9 53.6075 6.60199  14 
   1   4  -9 45.7648 6.75389   3 
  -1  -4   9 50.3495 5.68178   7 
  -1  -4   9 42.0038 5.36500   9 
  -1  -4   9 52.9654 6.27690   1 
  -1  -4   9 49.1301 5.91781  14 
   0   4  -9 175.108 11.8522   3 
   0   4  -9 176.471 11.1609  14 
   0   4  -9 163.859 11.3117  11 
   0   4  -9 165.160 11.1591   1 
   0  -4   9 150.224 9.91281   9 
   0  -4   9 143.443 11.5008   2 
   0  -4   9 151.529 10.4757   1 
   0  -4   9 145.929 10.2685  14 
   0  -4   9 148.649 10.0415   7 
   0  -4   9 146.244 11.6054   2 
  -1   4  -9 161.350 11.9550   3 
  -1   4  -9 163.200 12.0438  11 
  -1   4  -9 163.166 11.2956   1 
  -1   4  -9 172.761 11.4619  14 
   1  -4   9 171.138 11.4637   1 
   1  -4   9 169.666 13.8342   2 
   1  -4   9 163.718 10.6686   9 
  -2   4  -9 62.3861 8.27335  11 
  -2   4  -9 81.9067 8.33588  14 
  -2   4  -9 77.4882 8.32516   1 
  -2   4  -9 75.6770 8.68303   3 
   2  -4   9 72.1852 7.56895   9 
   2  -4   9 65.4396 7.68433   1 
  -3   4  -9 52.3676 8.28577  11 
  -3   4  -9 55.1476 7.66268  14 
  -3   4  -9 49.5521 8.09284   3 
  -3   4  -9 55.5483 7.72999   1 
   3  -4   9 63.8684 7.98451   1 
   3  -4   9 52.7720 7.18433   9 
  -4   4  -9 30.7108 6.54472   1 
  -4   4  -9 29.8112 7.63552  11 
  -4   4  -9 26.8036 6.87837   3 
  -4   4  -9 33.9430 6.92791  14 
   4  -4   9 23.2239 6.28917   1 
  -5   4  -9 37.5134 9.27815  11 
  -5   4  -9 38.2229 7.75139   1 
  -5   4  -9 40.8467 8.13758  14 
  -5   4  -9 40.6508 8.83290   3 
   5  -4   9 48.3775 8.94612   1 
  -6   4  -9 19.8877 7.58227  11 
  -6   4  -9 24.7292 6.58888   1 
   6  -4   9 19.1596 6.86588   1 
   8   3  -9 16.5374 6.52369   1 
  -8  -3   9 7.48243 5.12562   7 
  -8  -3   9 9.75963 5.61672   1 
  -8  -3   9 2.77872 4.27864   4 
   7   3  -9 17.9021 6.24850   1 
   7   3  -9 16.3863 6.04292   8 
  -7  -3   9 21.4082 5.83800   7 
  -7  -3   9 19.7704 5.69651   1 
   6   3  -9 31.9581 7.12668   3 
   6   3  -9 38.9676 7.58133   8 
   6   3  -9 37.8057 7.44759   1 
  -6  -3   9 46.3663 7.39248   1 
  -6  -3   9 39.7962 7.05978   7 
   5   3  -9 82.2000 9.43508   8 
   5   3  -9 80.8306 8.96142   1 
   5   3  -9 73.2968 8.99817   3 
  -5  -3   9 79.5312 8.38918   1 
  -5  -3   9 88.2053 8.34768   7 
   4   3  -9 44.8859 7.02819   3 
   4   3  -9 57.9072 10.8945  14 
   4   3  -9 48.1479 7.10532   8 
   4   3  -9 40.5794 6.59025   1 
  -4  -3   9 36.1899 5.78027   7 
  -4  -3   9 37.1975 6.07601  14 
  -4  -3   9 41.9405 6.15376   1 
   3   3  -9 108.435 9.09222  11 
   3   3  -9 93.8557 8.45971  14 
   3   3  -9 101.065 9.24604   3 
   3   3  -9 95.1507 9.18671   8 
   3   3  -9 99.4801 8.62298   1 
  -3  -3   9 94.5811 8.09941  14 
  -3  -3   9 104.195 8.23145   7 
  -3  -3   9 125.795 13.2638   2 
  -3  -3   9 98.4424 8.45799   1 
   2   3  -9 131.990 9.99889   8 
   2   3  -9 115.124 9.52475  11 
   2   3  -9 126.394 9.62435   5 
   2   3  -9 125.484 9.57342   1 
   2   3  -9 116.072 9.75029   3 
   2   3  -9 128.125 9.33678  14 
  -2  -3   9 118.473 8.76691   7 
  -2  -3   9 122.172 10.0887   2 
  -2  -3   9 129.311 8.29148   9 
  -2  -3   9 135.709 9.59462   1 
  -2  -3   9 126.487 8.95621  14 
   1   3  -9 151.006 10.0993   1 
   1   3  -9 149.202 10.0304  14 
   1   3  -9 140.272 10.6820   3 
   1   3  -9 153.370 10.7866  11 
   1   3  -9 140.072 10.1029   5 
  -1  -3   9 134.013 10.6281   2 
  -1  -3   9 135.785 8.73667   9 
  -1  -3   9 132.267 9.66754   1 
  -1  -3   9 122.676 9.19813   7 
   0   3  -9 99.7614 9.13205   3 
   0   3  -9 102.857 8.60282   5 
   0   3  -9 95.5331 7.61562  13 
   0   3  -9 90.1304 8.16557   1 
   0   3  -9 98.5081 8.22159  14 
   0   3  -9 108.569 9.31394  11 
   0  -3   9 86.2933 6.90177   9 
   0  -3   9 89.3603 8.82324   2 
   0  -3   9 87.7636 8.07346   1 
  -1   3  -9 198.115 12.5835   5 
  -1   3  -9 191.846 12.0580  14 
  -1   3  -9 187.553 13.0236   3 
  -1   3  -9 195.639 13.4120  11 
  -1   3  -9 178.278 11.9360   1 
   1  -3   9 217.542 11.8723   9 
   1  -3   9 225.191 14.1746   2 
   1  -3   9 205.100 12.4218   1 
  -2   3  -9 59.2909 7.04472  14 
  -2   3  -9 49.8318 6.78663   1 
  -2   3  -9 44.9739 7.25202   3 
  -2   3  -9 35.1992 6.88174  11 
   2  -3   9 47.4985 6.73612   1 
   2  -3   9 50.7479 6.30512   9 
   2  -3   9 55.0622 7.72761   2 
  -3   3  -9 37.4393 6.98453   3 
  -3   3  -9 30.0448 5.99429   5 
  -3   3  -9 22.4851 6.28094  11 
  -3   3  -9 38.6955 6.52318   1 
  -3   3  -9 41.5767 6.74959  14 
   3  -3   9 33.2578 6.84303   1 
   3  -3   9 35.0551 7.24275   2 
  -4   3  -9 43.0904 8.25261   3 
  -4   3  -9 32.8589 7.89529  11 
  -4   3  -9 40.6238 7.33295   1 
  -4   3  -9 41.7476 7.45363  14 
   4  -3   9 37.2990 7.75350   1 
  -5   3  -9 19.7586 7.36202   3 
  -5   3  -9 9.53951 5.95668  11 
  -5   3  -9 18.3947 5.79063  14 
  -5   3  -9 17.6479 5.53530   1 
   5  -3   9 17.9120 6.18610   1 
  -6   3  -9 3.81200 5.64177  11 
  -6   3  -9 8.27410 5.26779  14 
  -6   3  -9 1.91510 3.90964   1 
   6  -3   9 11.3184 6.18233   1 
   8   2  -9 7.37996 5.44162   1 
  -8  -2   9 12.6489 5.96100   1 
  -8  -2   9 10.6291 5.07672   7 
   7   2  -9 26.1249 6.69604   1 
   7   2  -9 17.5470 5.91050   8 
   7   2  -9 13.7228 5.42217   3 
  -7  -2   9 19.5265 5.83974   1 
  -7  -2   9 15.9636 5.12582   7 
   6   2  -9 53.2103 7.94187   1 
   6   2  -9 53.5434 7.98355   8 
   6   2  -9 63.7300 8.83327   3 
  -6  -2   9 49.8744 7.37356   7 
  -6  -2   9 45.3747 7.23292   1 
   5   2  -9 115.558 9.64425  14 
   5   2  -9 83.7977 9.32177   3 
   5   2  -9 100.571 9.35478   1 
   5   2  -9 109.198 9.98037   8 
  -5  -2   9 97.5137 8.98767   1 
  -5  -2   9 82.3687 8.40950   7 
   4   2  -9 35.0091 6.33093   3 
   4   2  -9 41.2602 6.29844  14 
   4   2  -9 34.2948 6.03446   1 
   4   2  -9 38.0658 6.29873   8 
  -4  -2   9 49.0210 6.85150   2 
  -4  -2   9 39.9224 6.11524   7 
  -4  -2   9 47.7895 6.57636   1 
   3   2  -9 164.445 11.4780   5 
   3   2  -9 170.604 11.8587   8 
   3   2  -9 188.613 9.41639   6 
   3   2  -9 185.695 12.5750   3 
   3   2  -9 170.651 11.2215  14 
   3   2  -9 176.602 12.0636  11 
   3   2  -9 191.520 11.9255   1 
  -3  -2   9 196.697 11.6191   7 
  -3  -2   9 213.759 13.6122   2 
  -3  -2   9 216.135 12.2956   1 
   2   2  -9 69.8415 7.26685   5 
   2   2  -9 82.4719 8.06889  11 
   2   2  -9 86.6961 7.56823  14 
   2   2  -9 78.3667 7.35858   1 
   2   2  -9 75.9417 4.65322   6 
   2   2  -9 70.5299 7.43296   8 
   2   2  -9 75.8708 7.86002   3 
  -2  -2   9 71.0328 7.00274   1 
  -2  -2   9 66.4584 7.46101   2 
  -2  -2   9 79.1834 7.12424   7 
  -2  -2   9 73.4826 5.73782   9 
   1   2  -9 225.647 12.7562   5 
   1   2  -9 227.405 12.3672  14 
   1   2  -9 233.896 13.6838   3 
   1   2  -9 209.406 12.1794   1 
   1   2  -9 249.623 14.0701  11 
   1   2  -9 214.956 10.6096  13 
  -1  -2   9 215.267 13.8070   2 
  -1  -2   9 208.065 12.2722   7 
  -1  -2   9 208.939 10.7869   9 
  -1  -2   9 199.112 12.1732   1 
   0   2  -9 117.182 8.80619  14 
   0   2  -9 117.400 6.47520  13 
   0   2  -9 125.137 9.07135   1 
   0   2  -9 115.215 9.82989  11 
   0   2  -9 119.010 9.90018   3 
   0   2  -9 124.053 9.25936   5 
   0  -2   9 103.698 9.44905   2 
   0  -2   9 114.059 8.96269   1 
   0  -2   9 109.181 7.49300   9 
  -1   2  -9 166.073 11.1404   5 
  -1   2  -9 174.334 11.0586  14 
  -1   2  -9 171.792 12.7212  11 
  -1   2  -9 176.635 11.2977   1 
  -1   2  -9 170.550 12.3690   3 
   1  -2   9 187.731 10.5894   9 
   1  -2   9 189.745 13.1571   2 
   1  -2   9 187.492 11.7552   1 
  -2   2  -9 31.7340 5.64948   5 
  -2   2  -9 43.5990 7.27573  11 
  -2   2  -9 36.7705 5.98597  14 
  -2   2  -9 41.5771 6.16991   1 
  -2   2  -9 40.6983 6.99850   3 
   2  -2   9 43.8602 6.60897   1 
   2  -2   9 39.1638 5.69484   9 
   2  -2   9 43.1044 6.96618   2 
  -3   2  -9 99.9055 8.98594   1 
  -3   2  -9 101.999 10.9581  11 
  -3   2  -9 92.3172 9.87507   3 
  -3   2  -9 110.300 9.41472  14 
  -3   2  -9 81.9647 8.63535   5 
   3  -2   9 88.2668 10.0946   2 
   3  -2   9 90.6121 9.43843   1 
  -4   2  -9 52.2233 9.31146  11 
  -4   2  -9 59.9351 7.94584  14 
  -4   2  -9 51.4137 7.44858   5 
  -4   2  -9 57.4530 7.77057   1 
  -4   2  -9 60.4038 9.17965   3 
   4  -2   9 50.5190 8.23708   1 
   4  -2   9 50.9882 9.13788   2 
  -5   2  -9 15.7827 5.05369   1 
  -5   2  -9 27.7976 6.38771  14 
  -5   2  -9 13.9776 6.68598   5 
  -5   2  -9 27.2672 7.99102  11 
   5  -2   9 20.7753 5.90253   1 
  -9  -1   9 6.32012 8.71050   1 
  -9  -1   9 3.11604 4.85263   7 
   8   1  -9 1.44899 4.49966   3 
   8   1  -9 9.98120 5.75547   8 
   8   1  -9 -0.6895 4.17547   1 
  -8  -1   9 2.76980 3.88810   1 
  -8  -1   9 6.51048 4.53303   7 
   7   1  -9 43.0006 7.77023   8 
   7   1  -9 42.4156 7.97552   3 
   7   1  -9 47.0119 8.12150   1 
  -7  -1   9 20.7277 5.61909   1 
  -7  -1   9 32.7265 6.76094   7 
   6   1  -9 101.453 10.1848   8 
   6   1  -9 121.574 11.3796   3 
   6   1  -9 114.339 10.3907  14 
   6   1  -9 113.672 10.2854   1 
  -6  -1   9 107.681 9.90112   1 
  -6  -1   9 100.976 9.70676   7 
   5   1  -9 36.3779 6.36457   1 
   5   1  -9 39.6892 6.53227   8 
   5   1  -9 40.4286 6.40168  14 
   5   1  -9 38.3823 6.93354   3 
  -5  -1   9 25.4209 5.36402   7 
  -5  -1   9 31.4216 6.01243   1 
  -5  -1   9 32.3563 6.15251   2 
   4   1  -9 4.87325 3.04808   1 
   4   1  -9 8.11325 3.66954   8 
   4   1  -9 2.56447 2.86252  14 
   4   1  -9 6.26911 2.63387  10 
   4   1  -9 6.77501 3.36473   3 
  -4  -1   9 11.3248 3.72649   7 
  -4  -1   9 10.0624 3.59009   2 
  -4  -1   9 11.5011 4.08900   1 
   3   1  -9 71.2800 7.23104   1 
   3   1  -9 73.5396 7.31408   8 
   3   1  -9 76.7328 5.67138   6 
   3   1  -9 69.9440 7.81650   3 
   3   1  -9 82.6313 7.37633  14 
   3   1  -9 77.2600 7.98390  11 
   3   1  -9 68.3081 7.22014   5 
  -3  -1   9 78.4523 8.17337   2 
  -3  -1   9 69.7607 7.15546   1 
  -3  -1   9 79.4081 7.23242   7 
   2   1  -9 228.036 9.99825   6 
   2   1  -9 233.519 13.8551   3 
   2   1  -9 243.441 13.2725   5 
   2   1  -9 239.677 14.2237  11 
   2   1  -9 238.438 12.6927   1 
   2   1  -9 250.193 12.4730  13 
   2   1  -9 221.029 12.4157  14 
  -2  -1   9 222.266 14.1261   2 
  -2  -1   9 224.549 12.8151   7 
  -2  -1   9 244.863 13.1558   1 
  -2  -1   9 229.852 10.3438   9 
   1   1  -9 55.3116 6.78570   3 
   1   1  -9 53.4870 6.90024  11 
   1   1  -9 47.1310 5.80346   1 
   1   1  -9 51.1355 4.71838  13 
   1   1  -9 49.7867 5.94972   5 
   1   1  -9 48.6791 5.75592   5 
   1   1  -9 46.7611 5.66605  14 
  -1  -1   9 41.2361 5.63981   1 
  -1  -1   9 44.5214 5.87494   7 
  -1  -1   9 53.1202 6.92934   2 
  -1  -1   9 42.9205 4.29039   9 
  -1  -1   9 40.0962 6.16124   2 
   0   1  -9 40.6866 5.37310   1 
   0   1  -9 40.6387 3.96974  13 
   0   1  -9 33.4056 5.24578   5 
   0   1  -9 33.5789 6.09964   3 
   0   1  -9 36.4803 5.33355  14 
   0   1  -9 40.6084 5.66413   5 
   0   1  -9 30.7670 6.03862  11 
   0  -1   9 54.5539 6.16860   1 
   0  -1   9 60.3813 5.06129   9 
   0  -1   9 53.8493 6.94606   2 
  -1   1  -9 41.1446 5.48585  14 
  -1   1  -9 54.9772 7.23463   3 
  -1   1  -9 40.5266 6.79514  11 
  -1   1  -9 46.1080 5.74647   1 
  -1   1  -9 42.7178 5.81917   5 
   1  -1   9 47.0060 7.14050   2 
   1  -1   9 54.2687 6.54240   1 
   1  -1   9 47.5510 5.23214   9 
  -2   1  -9 29.7386 5.36814   5 
  -2   1  -9 44.8792 7.43513  11 
  -2   1  -9 33.8644 6.78589   3 
  -2   1  -9 35.4255 5.52843  14 
  -2   1  -9 29.2318 5.34469   1 
   2  -1   9 37.8366 6.94775   2 
   2  -1   9 32.5623 5.97276   1 
  -3   1  -9 50.6737 6.83298  14 
  -3   1  -9 53.7913 6.80366   1 
  -3   1  -9 53.6909 8.16397   3 
  -3   1  -9 47.3077 8.60940  11 
  -3   1  -9 48.4094 6.77609   5 
   3  -1   9 53.4531 8.51011   2 
   3  -1   9 47.5607 7.40524   1 
  -4   1  -9 7.65360 5.09841  11 
  -4   1  -9 7.97217 3.82479  14 
  -4   1  -9 9.74920 3.79478   1 
  -4   1  -9 12.0929 5.38514   3 
  -4   1  -9 6.60402 3.87463   5 
   4  -1   9 6.88193 4.15924   2 
   4  -1   9 7.11618 4.40028   1 
  -5   1  -9 8.81017 4.12452  14 
  -5   1  -9 5.31298 3.95509   5 
  -5   1  -9 2.35293 5.05569  11 
  -5   1  -9 4.09465 3.20727   1 
   5  -1   9 11.0089 5.32186   1 
   9   0  -9 2.42889 4.78417   1 
  -9   0   9 5.73870 5.39964   7 
  -9   0   9 1.96951 4.67523   1 
   8   0  -9 1.07559 4.04451   1 
   8   0  -9 5.86510 4.43858   8 
   8   0  -9 -0.4962 4.14482   3 
  -8   0   9 2.40928 3.60729   1 
  -8   0   9 -2.9782 3.45200   7 
   7   0  -9 114.097 10.7952   1 
   7   0  -9 110.130 10.7419   8 
   7   0  -9 109.017 10.8241  14 
   7   0  -9 115.574 11.7440   3 
  -7   0   9 104.709 10.3986   7 
  -7   0   9 106.748 10.7017   1 
   6   0  -9 154.636 11.9055   8 
   6   0  -9 165.574 12.0270  14 
   6   0  -9 161.858 12.8773   3 
   6   0  -9 161.021 11.6430   1 
  -6   0   9 163.874 11.0120  12 
  -6   0   9 137.410 11.2564   7 
  -6   0   9 153.625 11.8642   1 
   5   0  -9 53.4921 6.73608   1 
   5   0  -9 58.9744 7.19983   8 
   5   0  -9 56.5865 5.70758  10 
   5   0  -9 63.8377 7.07421  14 
   5   0  -9 51.2920 7.49924   3 
  -5   0   9 52.9800 7.41380   2 
  -5   0   9 46.8145 6.76491   7 
  -5   0   9 51.6874 7.02601   1 
   4   0  -9 28.2292 4.61457  10 
   4   0  -9 34.2756 4.81132   6 
   4   0  -9 27.5897 5.28995   1 
   4   0  -9 29.5230 5.31473  14 
   4   0  -9 37.1907 6.23939   3 
   4   0  -9 34.2333 5.48920   8 
  -4   0   9 39.0204 5.85515   1 
  -4   0   9 40.1613 5.76117   7 
   3   0  -9 131.749 10.1532   3 
   3   0  -9 125.509 9.34315  13 
   3   0  -9 133.206 9.26373  14 
   3   0  -9 139.471 9.20477   1 
   3   0  -9 125.603 9.12573  10 
   3   0  -9 127.343 7.80852   6 
   3   0  -9 133.831 9.20368   5 
   3   0  -9 126.620 10.3762  11 
  -3   0   9 128.411 10.4299   2 
  -3   0   9 118.829 9.13762   7 
  -3   0   9 141.401 9.72555   1 
   2   0  -9 111.962 8.10685   1 
   2   0  -9 126.955 8.54143  14 
   2   0  -9 108.425 8.82938  10 
   2   0  -9 112.821 9.69736  11 
   2   0  -9 114.314 8.60915   5 
   2   0  -9 115.003 6.80667   6 
   2   0  -9 118.503 9.53029   3 
   2   0  -9 114.407 8.24557  13 
   2   0  -9 98.7250 7.66755   5 
  -2   0   9 111.816 8.64618   1 
  -2   0   9 117.685 9.73028   2 
  -2   0   9 115.273 8.84676   7 
   1   0  -9 271.821 15.2750  11 
   1   0  -9 253.844 12.6455  14 
   1   0  -9 251.380 12.2812  13 
   1   0  -9 249.316 12.4122   1 
   1   0  -9 251.226 12.8132   5 
   1   0  -9 248.610 10.7753   6 
   1   0  -9 258.283 13.1969   5 
   1   0  -9 253.033 14.1254   3 
  -1   0   9 232.449 10.5178   9 
  -1   0   9 221.701 13.1668   7 
  -1   0   9 230.697 14.5412   2 
  -1   0   9 227.534 14.4328   2 
  -1   0   9 239.445 13.3849   1 
   0   0  -9 45.8839 5.51807   5 
   0   0  -9 54.1784 6.85093   3 
   0   0  -9 46.8012 5.24339   1 
   0   0  -9 44.4784 7.01272  11 
   0   0  -9 43.1299 4.42030  13 
   0   0  -9 47.8034 5.40059  14 
   0   0  -9 41.8663 5.04135   5 
   0   0   9 38.2538 5.43455   1 
   0   0   9 34.0249 3.94038   9 
   0   0   9 46.6506 6.62390   2 
  -1   0  -9 65.1004 6.58998   5 
  -1   0  -9 55.8014 5.64288   1 
  -1   0  -9 53.7241 5.91942   5 
  -1   0  -9 57.8821 6.15367  14 
  -1   0  -9 54.5395 7.30387   3 
  -1   0  -9 62.1775 8.03297  11 
   1   0   9 58.5129 7.86628   2 
   1   0   9 47.5453 6.31006   1 
  -2   0  -9 42.9309 5.92902   5 
  -2   0  -9 42.6476 7.15538   3 
  -2   0  -9 43.7981 7.85471  11 
  -2   0  -9 46.5407 5.80237  14 
  -2   0  -9 36.4327 5.08831   1 
   2   0   9 57.1737 8.36168   2 
   2   0   9 44.6672 6.72505   1 
  -3   0  -9 36.5383 7.91573  11 
  -3   0  -9 27.0725 4.92299   1 
  -3   0  -9 41.2066 7.63796   3 
  -3   0  -9 32.7201 5.73503  14 
  -3   0  -9 40.6749 6.06420   5 
   3   0   9 29.6429 7.14402   2 
   3   0   9 43.3190 7.16937   1 
  -4   0  -9 23.9169 5.50143   5 
  -4   0  -9 24.0062 5.16219  14 
  -4   0  -9 18.7746 6.41948  11 
   4   0   9 20.0274 6.49640   2 
   4   0   9 21.0970 5.74826   1 
  -5   0  -9 7.22268 4.13374   5 
  -5   0  -9 10.4870 4.36925  14 
  -5   0  -9 9.98387 5.76694  11 
   5   0   9 7.22536 5.45741   2 
   5   0   9 3.05828 4.77133   1 
   9  -1  -9 3.73791 4.82137   1 
  -9   1   9 7.63774 5.68058   7 
  -9   1   9 2.88803 4.35569   1 
   8  -1  -9 4.40742 4.14341  14 
   8  -1  -9 7.00667 4.97960   3 
   8  -1  -9 12.4355 5.53163   1 
   8  -1  -9 9.43019 4.65786   8 
  -8   1   9 8.69069 4.79098   1 
  -8   1   9 7.45606 4.91435   7 
   7  -1  -9 69.0333 8.73966  14 
   7  -1  -9 79.3981 9.81783   3 
   7  -1  -9 59.4268 8.47746   8 
   7  -1  -9 73.3575 8.91968   1 
  -7   1   9 73.7301 7.94072  12 
  -7   1   9 81.8621 9.14654   7 
  -7   1   9 88.7114 9.49588   1 
   6  -1  -9 113.277 9.53007   1 
   6  -1  -9 124.632 10.2005  14 
   6  -1  -9 101.478 10.4077   3 
   6  -1  -9 102.480 9.38021   8 
   6  -1  -9 118.862 9.97925   6 
  -6   1   9 110.064 9.86526   7 
  -6   1   9 119.974 10.0494  12 
  -6   1   9 119.610 10.3191   1 
  -6   1   9 104.378 10.6478   2 
   5  -1  -9 4.34724 3.09974  14 
   5  -1  -9 3.21182 2.64532   1 
   5  -1  -9 3.33663 2.21869  10 
   5  -1  -9 4.13451 2.98233   8 
   5  -1  -9 3.83369 3.29170   3 
   5  -1  -9 -1.5306 1.82745   6 
  -5   1   9 7.55976 3.90199   7 
  -5   1   9 2.62531 3.26477   2 
  -5   1   9 2.01806 2.96388   1 
   4  -1  -9 31.0244 4.68515   5 
   4  -1  -9 35.6953 6.22303  13 
   4  -1  -9 25.6633 4.52449   6 
   4  -1  -9 29.8940 4.91024  10 
   4  -1  -9 22.6158 5.19565   3 
   4  -1  -9 29.0179 5.01625  14 
   4  -1  -9 26.9245 4.74576   8 
   4  -1  -9 23.6871 4.70941   1 
  -4   1   9 33.6825 6.20594   2 
  -4   1   9 20.2871 4.59023   7 
  -4   1   9 24.5948 5.13029   1 
   3  -1  -9 186.810 10.5705   5 
   3  -1  -9 162.017 11.9177  11 
   3  -1  -9 168.116 11.4151   3 
   3  -1  -9 153.818 10.7089  10 
   3  -1  -9 167.131 10.1084  14 
   3  -1  -9 176.783 10.0489   1 
   3  -1  -9 177.790 9.79009   6 
   3  -1  -9 179.608 11.3161  13 
  -3   1   9 170.951 11.0846   7 
  -3   1   9 174.650 12.1471   2 
  -3   1   9 178.465 11.0270   1 
   2  -1  -9 72.6208 5.88670   6 
   2  -1  -9 75.8378 7.72423   3 
   2  -1  -9 71.9077 8.16754  11 
   2  -1  -9 78.5224 7.74085  10 
   2  -1  -9 86.7867 7.46191  13 
   2  -1  -9 66.6301 6.29915  14 
   2  -1  -9 83.1937 7.07159   5 
   2  -1  -9 76.4208 6.45805   5 
   2  -1  -9 81.6144 6.33125   1 
  -2   1   9 93.7575 7.95808   7 
  -2   1   9 94.6549 8.69812   2 
  -2   1   9 91.9193 7.52483   1 
   1  -1  -9 108.576 7.22508   1 
   1  -1  -9 109.785 8.02851  13 
   1  -1  -9 116.158 8.26381   5 
   1  -1  -9 108.465 9.11803   3 
   1  -1  -9 121.506 7.90039  14 
   1  -1  -9 111.612 9.87105  11 
   1  -1  -9 117.665 7.31955   6 
   1  -1  -9 113.783 7.79572   5 
   1  -1  -9 122.959 10.1951  10 
  -1   1   9 135.777 9.20727   1 
  -1   1   9 127.841 10.2289   2 
  -1   1   9 126.188 10.1862   2 
  -1   1   9 123.647 9.43346   7 
   0  -1  -9 134.857 8.61096   5 
   0  -1  -9 120.760 8.19672  13 
   0  -1  -9 124.236 8.15555  14 
   0  -1  -9 146.875 10.6970   3 
   0  -1  -9 134.741 8.80195   5 
   0  -1  -9 121.911 10.6668  11 
   0  -1  -9 142.730 7.85633   1 
   0  -1  -9 133.618 7.94544   6 
   0  -1  -9 117.782 10.5143  10 
   0   1   9 143.724 9.76190   1 
   0   1   9 150.683 11.1610   2 
  -1  -1  -9 73.2111 6.51965   5 
  -1  -1  -9 52.9102 7.97581  10 
  -1  -1  -9 69.3964 8.38128  11 
  -1  -1  -9 62.4187 5.09916   1 
  -1  -1  -9 68.8604 7.87145   3 
  -1  -1  -9 62.2339 5.89039  14 
   1   1   9 75.7863 8.61416   2 
   1   1   9 73.0867 7.42450   1 
  -2  -1  -9 29.0285 6.20860   3 
  -2  -1  -9 14.1867 5.07615  11 
  -2  -1  -9 26.4923 4.58998  14 
  -2  -1  -9 26.9137 6.58841  10 
  -2  -1  -9 21.4580 4.73690   5 
   2   1   9 20.3464 6.09465   2 
   2   1   9 15.4361 4.54949   1 
  -3  -1  -9 42.4040 8.75551  11 
  -3  -1  -9 43.0956 7.85229   3 
  -3  -1  -9 49.6776 6.30940   5 
  -3  -1  -9 50.3192 5.89812  14 
  -3  -1  -9 50.1144 8.61537  10 
   3   1   9 38.9257 8.26877   2 
   3   1   9 39.3611 6.99798   1 
  -4  -1  -9 23.2431 7.46945  11 
  -4  -1  -9 9.10032 3.51701  14 
  -4  -1  -9 16.0644 4.33201   5 
   4   1   9 7.60200 4.52623   1 
   4   1   9 14.1096 5.98984   2 
   9  -2  -9 9.43992 5.13896   1 
  -9   2   9 2.17590 4.29121   1 
  -9   2   9 13.4887 6.30658   7 
   8  -2  -9 3.50185 4.12639   1 
   8  -2  -9 4.01964 3.93004   8 
   8  -2  -9 1.41206 4.38398   3 
  -8   2   9 5.85231 4.41593   7 
  -8   2   9 0.53430 3.48652   1 
   7  -2  -9 20.7530 5.94057   6 
   7  -2  -9 21.1675 6.17677   3 
   7  -2  -9 19.9255 5.14250   8 
   7  -2  -9 13.9220 4.45431  14 
   7  -2  -9 24.8706 5.63594   1 
  -7   2   9 31.0966 6.60664   7 
  -7   2   9 31.6399 7.27427   2 
  -7   2   9 22.5055 5.57926   1 
  -7   2   9 29.3905 6.56172  12 
   6  -2  -9 30.2362 6.04757  14 
   6  -2  -9 32.4210 6.79447   3 
   6  -2  -9 45.3069 6.29057   1 
   6  -2  -9 37.3098 6.64645   6 
   6  -2  -9 40.6953 6.11443   8 
  -6   2   9 34.0601 6.75713  12 
  -6   2   9 31.8122 6.34992   1 
  -6   2   9 35.4314 6.91685   2 
  -6   2   9 29.2686 6.17005   7 
   5  -2  -9 56.7709 6.57907  14 
   5  -2  -9 56.5782 6.07183   8 
   5  -2  -9 70.3334 7.41940   6 
   5  -2  -9 54.2793 7.53252   3 
   5  -2  -9 64.6852 6.46540   1 
   5  -2  -9 60.6968 6.31483  10 
   5  -2  -9 49.4957 7.65359  13 
  -5   2   9 55.2384 7.83191   2 
  -5   2   9 53.6502 7.04749   7 
  -5   2   9 59.3167 7.30691   1 
   4  -2  -9 19.4438 3.90240   5 
   4  -2  -9 20.1713 4.85560   3 
   4  -2  -9 23.6452 4.09958   1 
   4  -2  -9 23.1845 4.62884   6 
   4  -2  -9 19.3149 4.00052  14 
   4  -2  -9 22.0875 5.40577  13 
   4  -2  -9 24.6727 4.89680  10 
  -4   2   9 16.8955 4.82413   2 
  -4   2   9 19.5866 4.54084   1 
  -4   2   9 17.1094 4.36210   7 
   3  -2  -9 24.3772 3.91372   5 
   3  -2  -9 26.7304 4.35276   6 
   3  -2  -9 39.4403 6.72499  11 
   3  -2  -9 26.0339 5.27090  10 
   3  -2  -9 26.1755 5.20545   3 
   3  -2  -9 29.8985 4.35366  14 
   3  -2  -9 36.3242 5.85911  13 
   3  -2  -9 27.2148 3.63421   1 
  -3   2   9 22.7820 5.34705   2 
  -3   2   9 22.2619 4.55979   1 
  -3   2   9 20.8421 4.66641   7 
   2  -2  -9 99.0944 6.74898  14 
   2  -2  -9 96.0769 8.50426   3 
   2  -2  -9 101.230 5.94567   1 
   2  -2  -9 100.932 9.09739  10 
   2  -2  -9 92.0795 6.75304   5 
   2  -2  -9 103.729 9.52936  11 
   2  -2  -9 100.852 7.38955   6 
   2  -2  -9 96.6749 8.45173  13 
  -2   2   9 105.660 8.63731   7 
  -2   2   9 120.859 8.63291   1 
  -2   2   9 93.8463 8.81329   2 
   1  -2  -9 81.8682 7.31962  13 
   1  -2  -9 75.4784 7.44496   3 
   1  -2  -9 72.0273 4.41719   1 
   1  -2  -9 70.0120 5.77147   5 
   1  -2  -9 60.0313 7.72199  10 
   1  -2  -9 55.7341 7.45579  11 
   1  -2  -9 66.1486 5.93584   6 
   1  -2  -9 73.7211 5.63488  14 
  -1   2   9 59.8829 7.50855   2 
  -1   2   9 65.2588 7.63351   2 
  -1   2   9 74.7079 6.97174   1 
  -1   2   9 74.0798 7.44667   7 
   0  -2  -9 49.7612 7.42292  11 
   0  -2  -9 51.4751 7.61433  10 
   0  -2  -9 56.1428 5.76115   6 
   0  -2  -9 47.2408 6.72769   3 
   0  -2  -9 50.1610 4.63111  14 
   0  -2  -9 56.1226 6.05374  13 
   0  -2  -9 66.3599 5.59494   5 
   0   2   9 54.7785 6.82120   7 
   0   2   9 51.1135 6.18096   1 
   0   2   9 52.6982 7.24202   2 
  -1  -2  -9 10.7166 4.92260  10 
  -1  -2  -9 12.0167 4.62072  11 
  -1  -2  -9 9.14164 2.42174  14 
  -1  -2  -9 11.7561 3.19612   5 
  -1  -2  -9 12.9057 4.37156   3 
   1   2   9 7.07373 3.62182   1 
   1   2   9 8.57706 3.92487   2 
  -2  -2  -9 4.24758 4.16892  11 
  -2  -2  -9 5.31984 2.31412  14 
  -2  -2  -9 2.98812 3.87762  10 
  -2  -2  -9 3.53373 2.07250  14 
  -2  -2  -9 4.35134 2.51022   5 
  -2  -2  -9 9.22132 4.23200   3 
   2   2   9 6.38353 4.34469   2 
  -3  -2  -9 35.1960 5.01468   5 
  -3  -2  -9 30.9475 7.31524  11 
  -3  -2  -9 35.5733 4.20542  14 
  -3  -2  -9 38.6693 4.41121  14 
   3   2   9 36.6536 8.04282   2 
  -4  -2  -9 28.1265 7.69125  11 
  -4  -2  -9 21.1196 4.15978   5 
   4   2   9 17.8162 6.38857   2 
   9  -3  -9 10.7922 4.63089   1 
   9  -3  -9 13.1349 6.25006   6 
  -9   3   9 9.57566 6.04861   1 
  -9   3   9 11.3466 5.80527   7 
   8  -3  -9 -0.3604 3.30071   1 
   8  -3  -9 0.43237 2.78611   8 
   8  -3  -9 6.35427 4.71711   6 
  -8   3   9 0.42005 3.76469   1 
  -8   3   9 5.49114 3.93360  12 
  -8   3   9 1.73342 3.71208   7 
   7  -3  -9 35.1243 5.75041   8 
   7  -3  -9 33.6544 7.43325   6 
   7  -3  -9 35.5638 8.07165  13 
   7  -3  -9 34.4097 6.24719   1 
   7  -3  -9 30.8320 6.97676   3 
  -7   3   9 34.3369 7.19374   1 
  -7   3   9 40.0036 7.62330  12 
  -7   3   9 44.8086 7.53884   7 
  -7   3   9 37.6481 7.72094   2 
   6  -3  -9 55.1091 8.55061  13 
   6  -3  -9 63.6424 8.01895   6 
   6  -3  -9 62.8446 6.31199   1 
   6  -3  -9 53.5011 5.69143   8 
   6  -3  -9 56.6717 7.96572   3 
  -6   3   9 60.8275 8.60423   2 
  -6   3   9 62.4648 7.88704   1 
  -6   3   9 63.9249 8.08959   7 
  -6   3   9 55.6268 8.16367  12 
   5  -3  -9 75.6985 7.67800  10 
   5  -3  -9 70.5568 8.77950  13 
   5  -3  -9 80.3406 8.06978   6 
   5  -3  -9 70.5124 5.76897   1 
   5  -3  -9 76.7725 6.61150   5 
   5  -3  -9 73.2420 6.61329  14 
   5  -3  -9 65.2609 7.84505   3 
  -5   3   9 69.4480 7.83328   7 
  -5   3   9 73.7110 8.80690   2 
  -5   3   9 57.7719 7.34327   1 
   4  -3  -9 87.0002 8.47480  10 
   4  -3  -9 83.5558 8.20564   3 
   4  -3  -9 81.5247 5.29585   1 
   4  -3  -9 90.3004 9.07639  13 
   4  -3  -9 80.4600 6.32798   5 
   4  -3  -9 80.4523 6.22742  14 
   4  -3  -9 86.1961 7.89730   6 
  -4   3   9 77.2240 8.01336   7 
  -4   3   9 79.9228 7.67671   1 
  -4   3   9 69.1608 8.31227   2 
   3  -3  -9 59.6897 7.03130   3 
   3  -3  -9 75.2369 8.42542  11 
   3  -3  -9 68.6203 6.82146   6 
   3  -3  -9 62.6548 7.60094  10 
   3  -3  -9 58.1175 4.88618  14 
   3  -3  -9 67.4797 5.53638   5 
   3  -3  -9 64.9477 7.69962  13 
  -3   3   9 60.9392 7.28509   2 
  -3   3   9 69.1962 7.39679   7 
  -3   3   9 65.0221 6.60832   1 
   2  -3  -9 60.2513 6.56288   6 
   2  -3  -9 75.9488 7.87550  13 
   2  -3  -9 69.7013 4.63259  14 
   2  -3  -9 78.9439 5.54529   5 
   2  -3  -9 74.7115 8.35387  11 
   2  -3  -9 72.1316 8.43163  10 
   2  -3  -9 64.2155 7.24755   3 
  -2   3   9 84.4886 7.28851   1 
  -2   3   9 87.2501 8.42023   2 
  -2   3   9 69.5593 7.33696   7 
   1  -3  -9 84.9018 7.38531   6 
   1  -3  -9 93.0171 8.30091  13 
   1  -3  -9 82.0516 9.30120  10 
   1  -3  -9 87.4051 9.25347  11 
   1  -3  -9 76.2049 7.80854   3 
  -1   3   9 82.7083 8.53553   2 
  -1   3   9 86.1032 7.55729   1 
  -1   3   9 79.9651 7.81128   7 
  -1   3   9 101.043 9.11593   2 
   0  -3  -9 24.1014 5.03937  13 
   0  -3  -9 25.4661 5.94964  10 
   0  -3  -9 25.1937 5.47424   3 
   0  -3  -9 31.2175 6.58925  11 
   0  -3  -9 20.3119 4.54352   6 
   0   3   9 22.5297 5.42179   2 
   0   3   9 12.1175 4.19428   7 
  -1  -3  -9 51.3393 7.38149   3 
  -1  -3  -9 56.4593 8.54221  10 
  -1  -3  -9 51.7845 8.04263  11 
   1   3   9 51.7621 7.75269   2 
  -2  -3  -9 7.57253 4.13177  11 
   2   3   9 10.0183 4.81394   2 
  -3  -3  -9 5.57266 4.75998  11 
   3   3   9 8.21677 4.72428   2 
   9  -4  -9 9.97610 5.74531   6 
   9  -4  -9 5.15416 4.06152   1 
  -9   4   9 0.00412 4.39219   7 
  -9   4   9 3.41195 4.19092   1 
   8  -4  -9 22.4738 4.95976   1 
   8  -4  -9 13.7218 6.07489   6 
   8  -4  -9 13.5888 3.63441   8 
  -8   4   9 17.9483 6.56424   2 
  -8   4   9 21.5905 6.59515  12 
  -8   4   9 13.4160 5.31186   7 
  -8   4   9 17.0710 5.72079   1 
   7  -4  -9 33.8841 7.94017  13 
   7  -4  -9 35.7857 7.95706   3 
   7  -4  -9 43.3887 8.06696   6 
  -7   4   9 33.8520 7.12668   7 
  -7   4   9 29.3792 6.75453   1 
  -7   4   9 37.3674 8.00566  12 
  -7   4   9 26.2539 6.92202   2 
   6  -4  -9 61.1512 8.83766  13 
   6  -4  -9 63.8587 8.29163   6 
   6  -4  -9 54.9455 5.96687   5 
   6  -4  -9 61.1965 8.38659   3 
  -6   4   9 65.6430 8.02981   1 
  -6   4   9 67.5274 8.24532   7 
  -6   4   9 68.4824 9.35137  12 
  -6   4   9 75.2888 9.42621   2 
   5  -4  -9 35.5532 6.41138  10 
   5  -4  -9 39.2419 6.52668   3 
   5  -4  -9 27.9986 6.03714   6 
   5  -4  -9 43.3440 7.68877  13 
   5  -4  -9 30.5481 4.45931   5 
  -5   4   9 34.0596 6.78578   2 
  -5   4   9 46.3452 6.88945   7 
  -5   4   9 31.5420 6.06211   1 
   4  -4  -9 44.1114 6.41949   3 
   4  -4  -9 44.1091 4.44599   5 
   4  -4  -9 43.3958 6.81777  10 
   4  -4  -9 45.3223 6.67135   6 
   4  -4  -9 46.9193 7.42800  13 
  -4   4   9 36.9911 5.77949   1 
  -4   4   9 44.0713 6.80868   7 
  -4   4   9 45.1186 7.15019   2 
   3  -4  -9 26.3146 6.17320  10 
   3  -4  -9 27.3243 5.49262   6 
   3  -4  -9 30.8017 6.36269  13 
   3  -4  -9 22.6612 5.15102   3 
  -3   4   9 22.8225 5.02266   7 
  -3   4   9 17.2061 4.62331   2 
   2  -4  -9 31.6066 5.53511   3 
   2  -4  -9 32.4701 6.42929  13 
   2  -4  -9 26.2219 5.94217  10 
   2  -4  -9 35.7428 6.75844  11 
   2  -4  -9 31.8108 5.51376   6 
  -2   4   9 29.6083 5.68794   2 
  -2   4   9 26.1326 5.48872   7 
   1  -4  -9 20.2414 5.74930  11 
   1  -4  -9 27.3152 6.04502  13 
   1  -4  -9 29.6572 5.31549   3 
   1  -4  -9 24.9804 5.20586   6 
   1  -4  -9 12.2582 4.88641  10 
  -1   4   9 25.4366 5.24184   7 
  -1   4   9 25.5504 5.76966   2 
  -1   4   9 26.4059 5.60652   2 
   0  -4  -9 66.5346 7.65677   3 
   0  -4  -9 69.7903 7.82104  13 
   0  -4  -9 63.2994 8.33156  11 
   0  -4  -9 59.9181 7.24720   6 
   0  -4  -9 53.0936 8.53214  10 
   0   4   9 60.1327 7.58840   2 
   0   4   9 51.6370 7.06044   7 
  -1  -4  -9 36.6974 7.47848  11 
  -1  -4  -9 28.4701 6.16400   3 
   1   4   9 29.5675 6.84854   2 
   1   4   9 23.8089 5.86979   7 
  -2  -4  -9 16.5763 5.67768  11 
   2   4   9 17.9180 5.99314   2 
   3   4   9 2.35172 4.47205   2 
   8  -5  -9 18.7312 6.34432   6 
  -8   5   9 15.9258 5.66648   7 
  -8   5   9 13.7298 6.05146  12 
  -8   5   9 19.5577 5.63168   1 
  -8   5   9 16.4814 7.00134   2 
   7  -5  -9 50.9556 8.87747  13 
   7  -5  -9 43.0205 5.62751   5 
   7  -5  -9 36.0389 7.79908   6 
  -7   5   9 49.3755 8.92656   2 
  -7   5   9 46.3689 7.87626   1 
  -7   5   9 45.1696 7.82312   7 
  -7   5   9 54.4589 8.93623  12 
   6  -5  -9 27.1101 5.84846  10 
   6  -5  -9 29.2958 4.51817   5 
   6  -5  -9 30.1571 6.72477   6 
   6  -5  -9 21.7401 5.79971   3 
   6  -5  -9 37.5004 8.32783  13 
  -6   5   9 26.0371 6.14694   7 
  -6   5   9 32.4391 7.42806   2 
  -6   5   9 32.2809 7.57899  12 
   5  -5  -9 44.1039 6.93803   3 
   5  -5  -9 44.9966 7.35630  10 
   5  -5  -9 53.3835 8.63001  13 
   5  -5  -9 45.3472 7.34087   6 
  -5   5   9 46.1202 8.65601  12 
  -5   5   9 48.1833 7.43556   7 
  -5   5   9 44.9975 7.58965   2 
   4  -5  -9 75.2390 9.29208  10 
   4  -5  -9 80.7389 8.75458   6 
   4  -5  -9 75.0085 7.91761   3 
   4  -5  -9 77.6219 9.35046  13 
  -4   5   9 72.1095 8.39848   2 
  -4   5   9 70.7960 8.09967   7 
   3  -5  -9 53.8084 6.68755   3 
   3  -5  -9 40.2776 7.56694  13 
   3  -5  -9 55.0494 7.65092   6 
   3  -5  -9 54.0354 8.38997  10 
  -3   5   9 42.6684 6.60916   2 
  -3   5   9 41.6832 6.43146   7 
   2  -5  -9 24.0074 5.71892   6 
   2  -5  -9 28.3954 5.54313   3 
   2  -5  -9 33.4734 6.82296  11 
   2  -5  -9 33.5459 7.28724  10 
   2  -5  -9 29.4157 6.65646  13 
  -2   5   9 33.9759 6.01267   2 
  -2   5   9 43.5359 6.46177   7 
   1  -5  -9 49.8220 8.04480  13 
   1  -5  -9 43.7476 6.33606   3 
   1  -5  -9 42.1343 7.59049  11 
   1  -5  -9 30.9427 7.43650  10 
   1  -5  -9 48.5016 7.08005   6 
  -1   5   9 35.0508 6.19446   7 
  -1   5   9 47.5544 7.06908   2 
  -1   5   9 50.0835 7.14636   2 
   0  -5  -9 68.5342 9.02965  11 
   0  -5  -9 61.0267 7.55149   3 
   0  -5  -9 64.8804 8.80780  13 
   0   5   9 80.2732 8.32175   7 
   0   5   9 70.6939 8.24089   2 
  -1  -5  -9 39.3219 7.28662  11 
   1   5   9 38.7100 7.46982   2 
   1   5   9 31.5639 6.40573   7 
   2   5   9 8.24290 4.64492   2 
   8  -6  -9 19.9706 4.88975   5 
   8  -6  -9 17.4112 4.40275   5 
   8  -6  -9 18.5945 6.97093   6 
  -8   6   9 11.9749 6.00462   2 
  -8   6   9 14.4053 5.84026   7 
   7  -6  -9 3.60151 4.44691   6 
  -7   6   9 -0.7179 3.41029   2 
  -7   6   9 3.32846 3.69665   7 
   6  -6  -9 5.26786 4.19496  10 
   6  -6  -9 3.65107 4.31443   6 
   6  -6  -9 2.84202 4.56990  13 
  -6   6   9 9.03380 5.91795  12 
  -6   6   9 6.98373 4.69718   2 
  -6   6   9 6.15847 3.94465   7 
   5  -6  -9 11.3775 4.44108   3 
   5  -6  -9 10.1748 4.74581   6 
   5  -6  -9 15.4101 6.02969  13 
   5  -6  -9 10.0612 4.76689  10 
  -5   6   9 23.9186 7.11654  12 
  -5   6   9 18.6771 5.51327   2 
  -5   6   9 19.4714 5.30065   7 
   4  -6  -9 41.3471 8.24613  13 
   4  -6  -9 33.9500 6.09301   3 
   4  -6  -9 48.3112 8.04995   6 
   4  -6  -9 46.9586 8.07725  10 
  -4   6   9 36.7866 6.65647   7 
  -4   6   9 39.0865 6.80532   2 
   3  -6  -9 50.2362 8.30359   6 
   3  -6  -9 50.3604 6.52932   3 
   3  -6  -9 44.8708 8.39097  10 
   3  -6  -9 46.1958 8.29846  13 
  -3   6   9 35.1201 6.47737   2 
  -3   6   9 39.8396 6.62743   7 
   2  -6  -9 24.2920 5.20124   3 
   2  -6  -9 23.2632 5.82239   6 
   2  -6  -9 23.7751 6.71252  13 
  -2   6   9 30.0220 5.91740   2 
  -2   6   9 28.5018 5.75102   7 
   1  -6  -9 55.9367 8.22152  11 
   1  -6  -9 42.3858 8.42576  13 
   1  -6  -9 42.2740 6.67172   3 
   1  -6  -9 39.5076 7.89475   6 
  -1   6   9 44.3578 6.89851   2 
  -1   6   9 54.5770 7.25425   7 
   0  -6  -9 18.7254 6.03702  13 
   0   6   9 21.3952 5.41694   2 
   1   6   9 5.37904 4.30334   2 
   7  -7  -9 25.5097 7.49766   6 
  -7   7   9 15.4901 5.52597   7 
  -7   7   9 20.5675 6.87782   2 
   6  -7  -9 11.5726 5.87498   6 
   6  -7  -9 6.72218 4.50755  10 
  -6   7   9 12.2294 4.81094   7 
  -6   7   9 10.0057 4.99878   2 
   5  -7  -9 13.2438 7.10630  10 
   5  -7  -9 22.2842 6.95238   6 
  -5   7   9 16.8333 4.93641   7 
  -5   7   9 23.4170 6.23577   2 
   4  -7  -9 41.3476 9.20293  13 
   4  -7  -9 47.1756 8.45957   6 
  -4   7   9 32.0819 6.74794   2 
  -4   7   9 43.3104 6.98476   7 
   3  -7  -9 64.1669 9.84954  13 
   3  -7  -9 55.0074 8.58669   6 
  -3   7   9 33.5946 6.61994   2 
   2  -7  -9 4.07364 5.04516  13 
   2  -7  -9 16.8521 5.97354   6 
  -2   7   9 12.4794 4.40632   2 
   1  -7  -9 4.27450 4.43076   6 
   1  -7  -9 3.58665 5.98944  13 
  -1   7   9 11.4688 4.14730   2 
   6  -8  -9 5.83640 5.12164   6 
  -6   8   9 10.8950 5.03079   2 
   5  -8  -9 38.9133 9.05905   6 
  -5   8   9 31.9314 7.07038   2 
   4  -8  -9 59.5225 10.2962   6 
  -4   8   9 60.3070 7.98745   2 
   3  -8  -9 32.5341 7.67918   6 
  -3   8   9 27.9116 6.10395   2 
   2  -8  -9 11.1469 6.27241   6 
  -2   8   9 19.1199 4.91440   2 
   1  11 -10 62.4412 12.1214   2 
   1  11 -10 51.7399 9.62759   1 
  -1 -11  10 44.6473 6.61117  14 
  -1 -11  10 39.2835 7.04211   5 
  -1 -11  10 42.6896 9.45513   4 
   0  11 -10 38.8223 9.40298   2 
   0  11 -10 50.1139 9.92023   1 
   0 -11  10 37.9433 9.19438   9 
   0 -11  10 30.2814 7.66118   4 
   0 -11  10 36.6378 6.64574  14 
   0 -11  10 37.5326 7.57789   5 
  -1  11 -10 28.9075 7.74781   1 
   1 -11  10 36.5561 7.14586   5 
   1 -11  10 26.7122 7.72814   9 
   1 -11  10 36.6151 8.27187   4 
   1 -11  10 39.7827 7.04108  14 
  -2  11 -10 27.2667 7.49288   1 
   2 -11  10 30.6768 6.39157  14 
   2 -11  10 39.2304 11.0085   9 
   2 -11  10 23.3458 6.07895   5 
   2 -11  10 27.5046 7.02463   4 
   3  10 -10 14.5794 6.29420   1 
   3  10 -10 11.8846 6.82027   2 
  -3 -10  10 10.9799 4.67771   5 
  -3 -10  10 13.8877 4.28891  14 
  -3 -10  10 12.4369 6.72764   4 
   2  10 -10 36.0622 8.38391   1 
   2  10 -10 30.2279 8.87069   2 
  -2 -10  10 23.0169 7.50047   4 
  -2 -10  10 33.7893 6.48554  14 
  -2 -10  10 41.0834 7.13733   5 
   1  10 -10 62.0671 10.9130   2 
   1  10 -10 60.8221 9.49462   1 
  -1 -10  10 46.2813 7.61341   5 
  -1 -10  10 49.5546 7.24400  14 
  -1 -10  10 40.1870 9.07709   9 
   0  10 -10 22.3741 6.44108   1 
   0  10 -10 30.3396 8.12178   2 
   0 -10  10 16.9174 5.28936   5 
   0 -10  10 30.2511 6.10740  14 
   0 -10  10 17.9901 6.90526   9 
   0 -10  10 24.1185 5.21846   1 
  -1  10 -10 53.0225 9.30537   1 
   1 -10  10 67.0154 8.49905  14 
   1 -10  10 67.4453 8.63581   5 
   1 -10  10 61.9487 9.80102   9 
   1 -10  10 63.1956 7.68809   1 
  -2  10 -10 28.7173 7.48811   1 
   2 -10  10 21.2677 5.56949   1 
   2 -10  10 27.2864 6.50574   5 
   2 -10  10 27.1153 7.58310   9 
   2 -10  10 23.2171 5.69430  14 
  -3  10 -10 23.3089 6.97654   1 
  -3  10 -10 26.1229 7.11473  11 
   3 -10  10 20.6429 5.61564   1 
   3 -10  10 24.3824 6.25686  14 
   3 -10  10 8.21858 5.76422   9 
  -4  10 -10 27.4682 8.10898   1 
  -4  10 -10 19.0988 6.94203  11 
   4 -10  10 15.2369 5.13742   1 
   4 -10  10 10.6146 5.31835  14 
   4   9 -10 -4.3161 4.12579   1 
  -4  -9  10 1.64737 5.82708   4 
  -4  -9  10 3.02367 3.46657  14 
  -4  -9  10 5.05294 3.95268   5 
   3   9 -10 27.1139 8.30984   2 
   3   9 -10 34.7721 8.27369   1 
  -3  -9  10 36.3023 6.25348   1 
  -3  -9  10 25.5315 7.42996   4 
  -3  -9  10 33.2251 6.72799  14 
  -3  -9  10 41.1097 7.26979   5 
   2   9 -10 99.3668 11.2402   1 
   2   9 -10 95.1578 12.0603   2 
  -2  -9  10 100.229 9.10748   1 
  -2  -9  10 87.1664 8.92617  14 
  -2  -9  10 90.8149 9.37125   5 
   1   9 -10 40.8421 8.27341   1 
   1   9 -10 36.9121 8.34797   2 
  -1  -9  10 34.6257 6.32279   1 
  -1  -9  10 34.6622 6.71550  14 
  -1  -9  10 35.9514 6.71033   5 
  -1  -9  10 32.8855 7.76397   9 
   0   9 -10 10.5991 5.01757   1 
   0   9 -10 19.1242 7.77597   2 
   0  -9  10 7.07358 4.61873   9 
   0  -9  10 20.5051 5.50191   5 
   0  -9  10 12.2067 4.43343   1 
   0  -9  10 17.3474 5.07525  14 
  -1   9 -10 39.3083 8.09581   1 
  -1   9 -10 23.7199 5.97444  11 
   1  -9  10 51.7698 7.71779   5 
   1  -9  10 34.7835 6.68314  14 
   1  -9  10 38.5422 6.82347   1 
   1  -9  10 28.0205 7.06583   9 
  -2   9 -10 43.5538 8.94901   1 
  -2   9 -10 32.2113 7.08722  11 
   2  -9  10 32.1366 6.50196  14 
   2  -9  10 34.5712 6.85121   1 
   2  -9  10 38.0765 8.42769   9 
  -3   9 -10 30.2879 7.73786   1 
  -3   9 -10 46.3168 8.76661  11 
   3  -9  10 37.5713 7.35933  14 
   3  -9  10 39.8778 8.88726   9 
   3  -9  10 48.6995 7.95568   1 
  -4   9 -10 47.7102 9.75193  11 
  -4   9 -10 48.1980 9.76583   1 
   4  -9  10 39.8203 8.05134   1 
   4  -9  10 32.6216 8.22140   9 
   4  -9  10 50.1077 8.30927  14 
   5   8 -10 19.4969 7.06712   1 
  -5  -8  10 28.5388 6.07222   1 
  -5  -8  10 27.8923 8.46945   4 
  -5  -8  10 19.9802 5.62311  14 
  -5  -8  10 26.9779 6.57101   5 
   4   8 -10 13.1332 6.12606   1 
  -4  -8  10 3.41882 3.59014   5 
  -4  -8  10 -3.8244 2.66992  14 
  -4  -8  10 4.50734 3.48380   1 
   3   8 -10 61.9933 9.65337   1 
   3   8 -10 48.9091 8.98511   8 
  -3  -8  10 56.9525 7.51137   1 
  -3  -8  10 54.8191 7.69536   5 
  -3  -8  10 64.7775 7.98458  14 
   2   8 -10 57.2495 9.74136   2 
   2   8 -10 65.5409 9.53454   8 
   2   8 -10 66.6144 9.47134   1 
  -2  -8  10 50.2459 9.52267   7 
  -2  -8  10 62.8348 7.78307   1 
  -2  -8  10 63.7297 8.06801   5 
  -2  -8  10 56.2948 7.74882  14 
   1   8 -10 31.5714 6.24420  11 
   1   8 -10 47.7218 8.10722   8 
   1   8 -10 35.5737 7.51111   1 
   1   8 -10 36.0308 9.03515   2 
  -1  -8  10 29.5829 6.17467   1 
  -1  -8  10 25.9565 4.90368   7 
  -1  -8  10 22.3605 5.51799  14 
  -1  -8  10 20.8941 6.02576   9 
  -1  -8  10 15.8728 4.60142   5 
   0   8 -10 20.5100 6.07924   1 
   0   8 -10 11.0086 4.54759  11 
   0  -8  10 9.32326 3.93594  14 
   0  -8  10 12.7678 5.12001   9 
   0  -8  10 12.4755 3.87614   7 
   0  -8  10 5.16410 3.63853   1 
   0  -8  10 9.28710 4.50499   5 
  -1   8 -10 45.0643 7.45528  11 
  -1   8 -10 62.9168 8.84077   1 
   1  -8  10 55.4735 6.77184   7 
   1  -8  10 53.7639 8.45352   9 
   1  -8  10 47.8838 7.13260  14 
   1  -8  10 60.8494 7.74924   1 
  -2   8 -10 4.85198 4.54009  11 
  -2   8 -10 14.5996 5.69980   1 
   2  -8  10 8.57580 5.01726   9 
   2  -8  10 10.6346 4.82575   1 
   2  -8  10 6.42195 3.86090  14 
  -3   8 -10 27.8817 7.48559   1 
  -3   8 -10 18.5520 6.57851  11 
   3  -8  10 20.8679 6.63728   9 
   3  -8  10 20.2403 5.52366  14 
   3  -8  10 16.2043 5.34258   1 
  -4   8 -10 33.1564 8.64070  11 
  -4   8 -10 33.8695 8.53901   1 
   4  -8  10 50.3171 8.73884   1 
   4  -8  10 29.3511 7.63161   9 
  -5   8 -10 15.2740 7.40994  11 
   5  -8  10 15.4429 6.61998   9 
   6   7 -10 10.4829 5.63869   1 
  -6  -7  10 16.2916 7.05791   4 
  -6  -7  10 13.0617 4.98801  14 
  -6  -7  10 24.6431 6.18573   1 
   5   7 -10 17.2516 6.55134   8 
   5   7 -10 14.8566 5.94451   1 
  -5  -7  10 7.02105 3.97317  14 
  -5  -7  10 6.74527 4.02625   1 
   4   7 -10 60.2227 9.66229   1 
   4   7 -10 63.6802 9.72355   8 
  -4  -7  10 69.6559 8.33314   1 
  -4  -7  10 71.0247 8.33751  14 
  -4  -7  10 68.2394 7.38078   7 
   3   7 -10 104.722 11.1376   1 
   3   7 -10 104.938 11.3151   8 
  -3  -7  10 111.643 9.74542   1 
  -3  -7  10 101.418 8.62450   7 
  -3  -7  10 113.469 9.91154  14 
  -3  -7  10 113.708 11.2114   5 
   2   7 -10 55.5263 7.12866  11 
   2   7 -10 54.1689 8.70989   8 
   2   7 -10 68.8417 9.13653   1 
  -2  -7  10 60.7984 6.73753   7 
  -2  -7  10 63.1473 7.71430  14 
  -2  -7  10 73.0548 8.13421   1 
   1   7 -10 58.0390 8.69429   8 
   1   7 -10 53.2049 7.19109  11 
   1   7 -10 57.4777 8.41085   1 
  -1  -7  10 60.9380 7.81268   1 
  -1  -7  10 59.8965 7.42281  14 
  -1  -7  10 56.3957 6.57128   7 
  -1  -7  10 51.5215 7.69380   9 
   0   7 -10 77.5420 8.56575  11 
   0   7 -10 70.2480 9.10509   1 
   0  -7  10 75.0977 8.85711   9 
   0  -7  10 69.6992 7.25632   7 
   0  -7  10 68.8783 7.95048   1 
   0  -7  10 69.1474 7.67217  14 
  -1   7 -10 79.4864 9.27366  11 
  -1   7 -10 96.8337 10.1064   1 
   1  -7  10 78.5484 9.16135   9 
   1  -7  10 80.3829 8.83017   1 
   1  -7  10 95.9509 9.11985  14 
   1  -7  10 85.9699 8.45648   7 
  -2   7 -10 66.0185 9.38525   1 
  -2   7 -10 55.0556 8.78456  11 
   2  -7  10 55.9125 8.26702   9 
   2  -7  10 50.3580 8.71761  14 
   2  -7  10 53.1493 7.83446   1 
  -3   7 -10 94.2857 11.1954  11 
  -3   7 -10 77.6147 10.2941   1 
   3  -7  10 78.0967 9.86649   1 
   3  -7  10 70.6667 9.45743   9 
  -4   7 -10 47.5221 9.93324  11 
  -4   7 -10 53.9732 9.48563   1 
   4  -7  10 55.7809 9.34867   1 
   4  -7  10 51.4898 9.09067   9 
  -5   7 -10 16.8381 7.14350  11 
  -5   7 -10 8.04433 5.31932   1 
   5  -7  10 0.78277 4.55278   9 
   5  -7  10 17.7701 6.44937   1 
   6   6 -10 44.4006 9.16805   1 
   6   6 -10 26.7753 7.24469   8 
  -6  -6  10 45.0180 7.90396   1 
  -6  -6  10 38.3344 7.73286  14 
  -6  -6  10 29.9224 6.38358   7 
   5   6 -10 21.8303 6.63230   1 
   5   6 -10 16.9760 6.10140   8 
  -5  -6  10 20.5533 5.14197   7 
  -5  -6  10 25.4781 6.12087  14 
  -5  -6  10 18.9317 5.71611   1 
   4   6 -10 11.0938 5.36195   1 
   4   6 -10 11.4249 5.30385   8 
  -4  -6  10 32.7746 5.90407   7 
  -4  -6  10 28.8610 6.43094   1 
  -4  -6  10 22.2352 5.38954  14 
   3   6 -10 38.3271 7.75292   1 
   3   6 -10 38.1275 7.63393   8 
  -3  -6  10 37.1137 6.71206  14 
  -3  -6  10 41.0147 6.16821   7 
  -3  -6  10 39.0933 6.42501   1 
   2   6 -10 3.50484 3.41555  11 
   2   6 -10 11.5757 5.16503   8 
   2   6 -10 8.81516 4.36465   1 
  -2  -6  10 10.8506 3.75465   7 
  -2  -6  10 5.47108 3.28827  14 
  -2  -6  10 7.56788 4.01538   9 
  -2  -6  10 6.07821 3.32815   1 
   1   6 -10 38.5428 7.32806   8 
   1   6 -10 39.8709 6.96832   3 
   1   6 -10 42.2108 6.83143  11 
   1   6 -10 40.1358 7.21242   1 
  -1  -6  10 54.2172 6.48674   7 
  -1  -6  10 41.8808 6.47461   9 
  -1  -6  10 37.9159 6.25529  14 
  -1  -6  10 43.2555 6.77298   1 
   0   6 -10 76.4480 9.15912   3 
   0   6 -10 70.2564 8.31300  11 
   0   6 -10 80.2935 9.04229   1 
   0  -6  10 75.1074 7.73693   7 
   0  -6  10 81.5474 8.52724   1 
   0  -6  10 87.8697 8.84941   9 
   0  -6  10 72.2607 7.86695  14 
  -1   6 -10 53.9723 7.86674  11 
  -1   6 -10 70.2481 8.57090   1 
  -1   6 -10 53.1645 8.19964   3 
   1  -6  10 44.4120 7.00622   9 
   1  -6  10 41.2019 6.87877   1 
  -2   6 -10 36.7548 7.67157   1 
  -2   6 -10 40.6049 7.51640  11 
  -2   6 -10 32.6828 7.33203   3 
   2  -6  10 46.6516 7.40818   9 
   2  -6  10 37.5680 7.34188   1 
  -3   6 -10 54.2767 9.24409  11 
  -3   6 -10 70.7523 9.36739   1 
  -3   6 -10 52.9280 9.00325   3 
   3  -6  10 62.5813 8.65770   9 
   3  -6  10 89.8530 9.85753   1 
  -4   6 -10 28.6423 7.12338   1 
  -4   6 -10 32.7395 10.8371   3 
  -4   6 -10 21.2503 7.21372  11 
   4  -6  10 33.3045 7.82232   1 
   4  -6  10 34.0067 7.52909   9 
  -5   6 -10 30.8558 9.02394  11 
  -5   6 -10 17.6617 6.21170   1 
   5  -6  10 17.3107 6.53036   1 
   5  -6  10 13.6853 6.37870   9 
   7   5 -10 18.7295 6.40392   1 
  -7  -5  10 25.9309 6.62647   7 
  -7  -5  10 30.7730 7.94183  14 
  -7  -5  10 24.7449 6.54966   1 
   6   5 -10 23.2709 6.79036   8 
   6   5 -10 21.4037 6.12443   1 
  -6  -5  10 30.0044 6.65566   7 
  -6  -5  10 24.1292 6.01498  14 
  -6  -5  10 37.3845 7.52804   1 
   5   5 -10 24.6705 6.70844   1 
   5   5 -10 30.8793 7.44143   8 
  -5  -5  10 25.9505 5.92838  14 
  -5  -5  10 29.4360 5.84257   7 
  -5  -5  10 30.0258 6.34658   1 
   4   5 -10 30.9459 6.76001   1 
   4   5 -10 33.1220 7.86303   8 
  -4  -5  10 34.1940 6.00478   7 
  -4  -5  10 33.1071 6.26676  14 
  -4  -5  10 33.3706 6.42091   1 
   3   5 -10 52.5036 7.24319  11 
   3   5 -10 61.1782 8.17940   3 
   3   5 -10 68.0435 8.58193   1 
   3   5 -10 56.9862 8.55818   8 
  -3  -5  10 45.8614 6.71462  14 
  -3  -5  10 48.1993 7.11433   1 
  -3  -5  10 41.1707 6.12325   7 
   2   5 -10 58.1974 7.97486   1 
   2   5 -10 50.1109 6.98233  11 
   2   5 -10 58.4788 8.00566   8 
   2   5 -10 49.0192 7.69513   3 
  -2  -5  10 51.6675 6.75917  14 
  -2  -5  10 39.8312 6.60530   1 
  -2  -5  10 50.7783 6.45645   9 
  -2  -5  10 45.2160 6.27898   7 
   1   5 -10 53.4025 7.71846   3 
   1   5 -10 49.9255 7.95034   8 
   1   5 -10 56.2707 7.64636   1 
   1   5 -10 56.7277 7.65296  11 
  -1  -5  10 58.7429 7.15464   1 
  -1  -5  10 54.7102 6.59984   9 
  -1  -5  10 54.1238 6.43383   7 
  -1  -5  10 61.3697 6.98834  14 
   0   5 -10 81.7272 8.90675   1 
   0   5 -10 87.3774 9.43117   3 
   0   5 -10 85.4806 9.22699  11 
   0  -5  10 79.0305 7.78154   7 
   0  -5  10 85.3266 8.54324   1 
   0  -5  10 81.2525 8.05277   9 
  -1   5 -10 70.8569 8.58676  11 
  -1   5 -10 66.2218 8.18702   1 
  -1   5 -10 71.7314 8.97995   3 
   1  -5  10 67.4210 8.07034   1 
   1  -5  10 56.2922 7.06757   9 
  -2   5 -10 13.0565 5.42245  11 
  -2   5 -10 14.7348 5.32693   1 
  -2   5 -10 7.82413 4.40264   3 
   2  -5  10 15.3980 4.81653   1 
   2  -5  10 15.9402 4.92515   9 
  -3   5 -10 37.7647 7.46131   1 
  -3   5 -10 32.2593 7.67082  11 
  -3   5 -10 36.9062 8.04321   3 
   3  -5  10 26.5385 6.25245   9 
   3  -5  10 21.3372 5.65300   1 
  -4   5 -10 6.52710 5.50332  11 
  -4   5 -10 3.79104 4.58045   3 
  -4   5 -10 7.06484 4.84453   1 
   4  -5  10 5.45907 4.32024   9 
   4  -5  10 2.65630 4.34284   1 
  -5   5 -10 3.94548 4.63452   1 
  -5   5 -10 3.83970 5.38823  11 
   5  -5  10 6.74526 5.11821   1 
   5  -5  10 3.59048 4.49541   9 
   7   4 -10 48.0703 9.40410   1 
   7   4 -10 34.0960 10.8448   8 
  -7  -4  10 46.8557 7.75298   7 
  -7  -4  10 53.0155 8.79493   1 
   6   4 -10 16.5371 5.90322   1 
   6   4 -10 17.9118 6.75445   8 
  -6  -4  10 26.4879 6.21939   7 
  -6  -4  10 19.0498 5.56075   1 
   5   4 -10 10.3626 4.67130   1 
   5   4 -10 3.44559 3.92466   8 
   5   4 -10 9.87371 5.44256   3 
  -5  -4  10 11.4281 4.69719   1 
  -5  -4  10 5.60857 3.87378   7 
   4   4 -10 58.7098 8.52229   8 
   4   4 -10 55.9903 8.14828   1 
   4   4 -10 52.9604 8.00429   3 
  -4  -4  10 52.3767 7.32104   7 
  -4  -4  10 57.6892 7.53554   1 
   3   4 -10 87.0744 9.45625   8 
   3   4 -10 82.3850 8.90372   3 
   3   4 -10 78.9677 8.82247   1 
   3   4 -10 77.7829 8.47631  11 
  -3  -4  10 76.6005 7.73383   7 
  -3  -4  10 64.1225 7.74807   1 
   2   4 -10 94.0854 9.34443   1 
   2   4 -10 103.169 9.55464  11 
   2   4 -10 95.8962 9.65487   8 
   2   4 -10 100.652 9.94992   3 
  -2  -4  10 110.181 9.42851   1 
  -2  -4  10 109.974 8.80790   7 
  -2  -4  10 112.176 8.46636   9 
   1   4 -10 95.4136 9.43800   3 
   1   4 -10 94.6876 8.78828  14 
   1   4 -10 86.2139 8.68020   1 
   1   4 -10 73.5223 8.58949  11 
  -1  -4  10 81.4653 7.91802   7 
  -1  -4  10 100.157 8.00010   9 
  -1  -4  10 94.1440 8.67013   1 
   0   4 -10 124.182 10.7694   3 
   0   4 -10 118.479 10.1533   1 
   0   4 -10 107.208 10.0090  11 
   0  -4  10 96.0512 8.36811   9 
   0  -4  10 97.2345 9.14690   1 
   0  -4  10 110.067 9.13730   7 
  -1   4 -10 44.4663 7.18865   1 
  -1   4 -10 49.5663 7.54916   3 
  -1   4 -10 59.1185 8.36531  11 
  -1   4 -10 49.9978 7.02346  14 
   1  -4  10 49.1022 6.37010   9 
   1  -4  10 52.3502 7.24637   1 
  -2   4 -10 33.3625 7.77334  11 
  -2   4 -10 32.9917 6.56671  14 
  -2   4 -10 32.8605 6.52146   1 
  -2   4 -10 18.1030 5.49470   3 
   2  -4  10 18.9065 4.89101   9 
   2  -4  10 44.2510 6.99402   1 
  -3   4 -10 38.0685 7.88023   3 
  -3   4 -10 37.0520 7.35221   1 
  -3   4 -10 32.7209 7.80764  11 
  -3   4 -10 27.0991 6.00740  14 
   3  -4  10 23.5218 6.22776   1 
   3  -4  10 27.1705 6.23210   9 
  -4   4 -10 57.6235 10.2390  11 
  -4   4 -10 38.9098 8.66609   3 
  -4   4 -10 56.5310 8.79474  14 
  -4   4 -10 61.0197 8.89301   1 
   4  -4  10 54.9514 9.01851   1 
   4  -4  10 53.3118 8.40583   9 
  -5   4 -10 21.7379 6.38820   1 
  -5   4 -10 23.2944 8.50815  11 
  -5   4 -10 12.4508 6.62642  14 
   5  -4  10 20.0384 6.88787   1 
   8   3 -10 5.64054 5.28767   1 
  -8  -3  10 14.0107 5.79165   7 
  -8  -3  10 15.2809 6.19931   1 
   7   3 -10 6.15781 4.62938   1 
   7   3 -10 5.71020 4.47563   8 
  -7  -3  10 6.86149 4.09454   7 
  -7  -3  10 4.12284 4.35513   1 
   6   3 -10 8.87881 4.66526   8 
   6   3 -10 9.42540 4.91029   3 
   6   3 -10 8.71152 4.89182   1 
  -6  -3  10 8.38074 4.46097   7 
  -6  -3  10 12.1386 4.69093   1 
   5   3 -10 64.2924 8.64064   1 
   5   3 -10 67.5770 8.83260   8 
   5   3 -10 66.3333 9.09169   3 
  -5  -3  10 61.9657 7.95654   1 
  -5  -3  10 56.7102 7.89917   7 
   4   3 -10 91.9882 9.30875   1 
   4   3 -10 80.7437 9.17231   3 
   4   3 -10 82.3473 9.32667   8 
  -4  -3  10 82.1055 8.73663   1 
  -4  -3  10 76.2095 8.26645   7 
   3   3 -10 104.081 10.0306   3 
   3   3 -10 98.5919 9.72542   8 
   3   3 -10 111.843 9.55080  14 
   3   3 -10 94.7472 9.40149  11 
   3   3 -10 117.013 9.86869   1 
  -3  -3  10 119.220 9.45389   7 
  -3  -3  10 108.723 9.48395   1 
   2   3 -10 89.1819 9.12397   3 
   2   3 -10 81.9935 8.25822  14 
   2   3 -10 89.7312 9.04346   8 
   2   3 -10 76.2539 8.56963  11 
   2   3 -10 88.8270 8.66274   1 
  -2  -3  10 81.5889 8.12231   1 
  -2  -3  10 74.9126 7.66733   7 
  -2  -3  10 76.5389 6.62404   9 
   1   3 -10 71.4178 7.84359   1 
   1   3 -10 74.6372 8.56631   3 
   1   3 -10 70.1148 7.52286  14 
   1   3 -10 69.0274 8.53197  11 
  -1  -3  10 66.9475 7.24352   7 
  -1  -3  10 72.5775 7.85202   1 
  -1  -3  10 59.4902 7.77010   2 
  -1  -3  10 82.4203 6.84980   9 
   0   3 -10 23.4766 5.69761   5 
   0   3 -10 21.1477 5.51979   3 
   0   3 -10 29.2905 5.86659   1 
   0   3 -10 28.4363 5.76304  14 
   0   3 -10 25.8331 6.09519  11 
   0  -3  10 27.1721 4.47746   9 
   0  -3  10 20.4500 4.80561   1 
   0  -3  10 32.8569 6.14418   2 
   0  -3  10 31.1840 6.06852   2 
   0  -3  10 26.0466 5.30690   7 
  -1   3 -10 25.2027 5.45902  14 
  -1   3 -10 25.6828 6.12733  11 
  -1   3 -10 34.5668 6.16634   1 
  -1   3 -10 32.0309 5.76206   5 
  -1   3 -10 30.6681 6.50271   3 
   1  -3  10 23.3421 4.66670   9 
   1  -3  10 23.9200 5.96800   2 
   1  -3  10 13.3082 4.21480   1 
  -2   3 -10 54.5347 8.35417   3 
  -2   3 -10 64.9272 9.24290  11 
  -2   3 -10 59.2515 7.63674  14 
  -2   3 -10 60.7588 7.89350   1 
   2  -3  10 60.7271 7.90333   1 
   2  -3  10 49.5552 6.55279   9 
  -3   3 -10 83.9669 9.35413  14 
  -3   3 -10 80.9011 10.1457   3 
  -3   3 -10 91.5500 9.33770   1 
  -3   3 -10 66.0505 10.1353  11 
   3  -3  10 77.6046 8.81823   9 
   3  -3  10 81.2751 9.46586   1 
  -4   3 -10 16.2962 5.19723  14 
  -4   3 -10 8.77542 5.41408   3 
  -4   3 -10 14.6771 6.34606  11 
  -4   3 -10 15.9887 5.24248   1 
   4  -3  10 11.6830 5.08792   1 
  -5   3 -10 3.60671 4.10877   1 
  -5   3 -10 1.67503 5.25292  11 
  -5   3 -10 3.82255 4.21358  14 
   5  -3  10 8.48008 5.24991   1 
   8   2 -10 24.2670 7.21334   1 
  -8  -2  10 16.3071 6.17878   1 
  -8  -2  10 15.8965 6.07441   7 
   7   2 -10 9.16766 5.40089   3 
   7   2 -10 0.98607 4.48354   1 
   7   2 -10 6.05953 4.65892   8 
  -7  -2  10 4.22706 4.06281   7 
  -7  -2  10 3.02507 3.92509   1 
   6   2 -10 22.4091 6.26743   8 
   6   2 -10 37.5323 7.52052   1 
   6   2 -10 30.5062 7.18896   3 
  -6  -2  10 23.5069 6.06036   7 
  -6  -2  10 24.3330 6.11156   1 
   5   2 -10 40.7951 7.35006   1 
   5   2 -10 54.1314 7.51981  14 
   5   2 -10 65.9236 8.40932   8 
   5   2 -10 49.9232 8.00209   3 
  -5  -2  10 38.4038 6.69062   7 
  -5  -2  10 45.1618 7.25287   1 
   4   2 -10 97.3297 10.0040   3 
   4   2 -10 122.391 10.2387   1 
   4   2 -10 114.691 8.25778  10 
   4   2 -10 114.049 9.89659  14 
   4   2 -10 120.290 7.99230   6 
   4   2 -10 109.120 10.3004   8 
  -4  -2  10 131.936 10.2340   7 
  -4  -2  10 114.191 10.0303   1 
   3   2 -10 93.5778 8.97300   5 
   3   2 -10 98.2696 9.45082  11 
   3   2 -10 89.7988 9.32325   3 
   3   2 -10 89.3729 8.96181   8 
   3   2 -10 89.5260 8.60026   1 
   3   2 -10 91.8656 8.67191  14 
  -3  -2  10 113.187 9.03471   7 
  -3  -2  10 111.626 9.25598   1 
  -3  -2  10 103.502 9.90469   2 
   2   2 -10 82.9292 8.11749  14 
   2   2 -10 78.6030 8.11169   5 
   2   2 -10 91.5210 9.23423  11 
   2   2 -10 99.9154 9.48887   3 
   2   2 -10 95.9096 8.50030   1 
  -2  -2  10 94.9230 8.46533   7 
  -2  -2  10 106.923 8.86679   1 
  -2  -2  10 91.9271 6.58112   9 
  -2  -2  10 91.1276 9.09672   2 
   1   2 -10 74.0515 7.60886   1 
   1   2 -10 73.6957 8.45020   3 
   1   2 -10 77.2663 7.58927  14 
   1   2 -10 84.5951 8.91418  11 
   1   2 -10 67.9086 7.39500   5 
   1   2 -10 64.5932 5.45130  13 
  -1  -2  10 50.9129 6.71071   1 
  -1  -2  10 63.0330 5.74519   9 
  -1  -2  10 59.2068 7.76917   2 
  -1  -2  10 65.8665 7.28044   7 
   0   2 -10 45.0134 6.44080   5 
   0   2 -10 63.4561 7.08774  14 
   0   2 -10 62.3826 8.04345   3 
   0   2 -10 53.1552 6.66980   1 
   0   2 -10 59.8002 7.95834  11 
   0  -2  10 42.1605 5.04347   9 
   0  -2  10 63.4022 7.38104   1 
   0  -2  10 54.8402 6.89756   7 
   0  -2  10 56.1348 7.50066   2 
   0  -2  10 59.3030 7.65016   2 
  -1   2 -10 47.2946 7.43855   3 
  -1   2 -10 47.0162 6.56969  14 
  -1   2 -10 51.6828 6.84151   5 
  -1   2 -10 46.5951 6.80955   1 
  -1   2 -10 48.1383 7.78686  11 
   1  -2  10 55.5611 7.76051   2 
   1  -2  10 54.3239 7.06787   1 
   1  -2  10 48.9247 5.74904   9 
  -2   2 -10 97.8089 8.95230   1 
  -2   2 -10 84.1453 10.1970  11 
  -2   2 -10 76.3859 9.62493   3 
  -2   2 -10 94.3290 8.84377  14 
  -2   2 -10 81.1260 8.52247   5 
   2  -2  10 84.1844 8.01147   9 
   2  -2  10 78.1033 9.77126   2 
   2  -2  10 84.8091 9.19744   1 
  -3   2 -10 73.8381 10.1502  11 
  -3   2 -10 56.7613 7.83704  14 
  -3   2 -10 64.0347 8.26296   5 
  -3   2 -10 58.1262 7.91777   1 
  -3   2 -10 61.6849 9.17966   3 
   3  -2  10 79.2507 9.39349   1 
   3  -2  10 74.9971 10.0050   2 
  -4   2 -10 13.2276 4.92310  14 
  -4   2 -10 19.7981 5.91529   5 
  -4   2 -10 9.74881 4.36674   1 
  -4   2 -10 11.9671 5.84516  11 
   4  -2  10 17.4154 6.05151   1 
  -5   2 -10 2.20365 5.12178  11 
  -5   2 -10 2.20206 3.78367  14 
  -5   2 -10 -1.3143 3.28143   1 
   5  -2  10 1.01567 4.09416   1 
   8   1 -10 0.21793 5.45438   3 
   8   1 -10 -1.3565 4.05175   1 
  -8  -1  10 3.21682 3.91492   1 
  -8  -1  10 0.81494 3.98393   7 
   7   1 -10 17.0754 6.14907   3 
   7   1 -10 17.8828 6.00443   8 
   7   1 -10 28.7335 6.71096   1 
  -7  -1  10 17.3076 5.29061   1 
  -7  -1  10 8.11767 4.55713   7 
   6   1 -10 76.8228 9.35240   8 
   6   1 -10 98.4066 10.7624   3 
   6   1 -10 72.9941 8.97981  14 
   6   1 -10 91.7434 9.78933   1 
  -6  -1  10 78.6402 9.45709   7 
  -6  -1  10 77.4368 9.19518   1 
   5   1 -10 19.3823 5.06813   1 
   5   1 -10 13.0477 4.41147  14 
   5   1 -10 34.3031 6.89764   3 
   5   1 -10 18.6885 5.44228   8 
  -5  -1  10 22.1172 5.49093   7 
  -5  -1  10 21.0689 5.60041   1 
   4   1 -10 10.0248 3.13014   6 
   4   1 -10 11.3150 4.14828   8 
   4   1 -10 9.01561 4.00714   3 
   4   1 -10 14.6896 4.38183   1 
   4   1 -10 8.58689 3.20077  10 
   4   1 -10 8.66794 3.90544  14 
  -4  -1  10 12.1631 4.11531   7 
  -4  -1  10 17.5254 4.81663   1 
  -4  -1  10 19.7673 5.71299   2 
   3   1 -10 33.9340 6.34264  11 
   3   1 -10 40.7895 5.93450  10 
   3   1 -10 43.4855 6.33485   1 
   3   1 -10 48.0819 7.09560   3 
   3   1 -10 44.6910 6.61733   8 
   3   1 -10 42.8625 6.43663   5 
   3   1 -10 34.7183 6.02710  14 
  -3  -1  10 28.9924 5.61943   7 
  -3  -1  10 47.0834 7.04362   2 
  -3  -1  10 44.1514 6.31708   1 
   2   1 -10 20.7056 4.72691   1 
   2   1 -10 18.4161 4.44002   5 
   2   1 -10 15.0158 4.98899  11 
   2   1 -10 20.2506 4.09681  13 
   2   1 -10 15.7474 4.84167   3 
   2   1 -10 22.0744 4.98730  14 
  -2  -1  10 15.9040 4.78107   2 
  -2  -1  10 12.6940 4.03087   7 
  -2  -1  10 20.7558 4.59340   1 
   1   1 -10 58.5178 6.85731   5 
   1   1 -10 34.0963 5.74720  14 
   1   1 -10 47.7830 7.22883  11 
   1   1 -10 44.0902 4.84361  13 
   1   1 -10 50.5372 6.26294   1 
   1   1 -10 52.4116 7.30493   3 
  -1  -1  10 36.0874 5.91539   1 
  -1  -1  10 38.8092 6.62995   2 
  -1  -1  10 46.9389 6.46488   7 
   0   1 -10 49.1186 6.23683  14 
   0   1 -10 57.3507 7.73159   3 
   0   1 -10 48.6805 6.21031   1 
   0   1 -10 56.1247 8.00124  11 
   0   1 -10 49.4844 6.51036   5 
   0  -1  10 53.8041 6.87947   1 
   0  -1  10 57.6103 7.20499   7 
   0  -1  10 54.5108 7.68972   2 
  -1   1 -10 46.4596 6.41663   5 
  -1   1 -10 44.8766 7.45631   3 
  -1   1 -10 37.2074 7.23083  11 
  -1   1 -10 51.4827 6.55606  14 
  -1   1 -10 32.4851 5.38222   1 
   1  -1  10 58.1184 8.17631   2 
   1  -1  10 51.2633 7.06847   1 
   1  -1  10 49.9475 5.91477   9 
  -2   1 -10 86.0524 10.6302  11 
  -2   1 -10 72.0419 9.24954   3 
  -2   1 -10 82.5089 7.99760   1 
  -2   1 -10 74.9894 8.09189   5 
  -2   1 -10 71.6064 7.79610  14 
   2  -1  10 91.1190 10.3365   2 
   2  -1  10 81.3633 7.93434   9 
   2  -1  10 85.1206 9.05147   1 
  -3   1 -10 0.00174 2.96910   5 
  -3   1 -10 1.41682 3.00285   1 
  -3   1 -10 4.72219 3.51738  14 
  -3   1 -10 1.83666 3.92023  11 
  -3   1 -10 0.56353 3.55804   3 
   3  -1  10 3.74214 4.24722   2 
   3  -1  10 -0.9576 3.13331   1 
  -4   1 -10 -3.4657 2.79260   5 
  -4   1 -10 7.32552 5.51999  11 
  -4   1 -10 0.63577 2.85450  14 
  -4   1 -10 -1.8826 2.51496   1 
   4  -1  10 2.25632 4.07190   2 
   4  -1  10 4.61478 4.24525   1 
   8   0 -10 22.4801 7.61864   3 
   8   0 -10 27.0993 6.96151   1 
  -8   0  10 29.8172 7.50873   1 
  -8   0  10 21.1262 6.50887   7 
   7   0 -10 43.3729 7.87379   1 
   7   0 -10 50.0969 9.22824   3 
   7   0 -10 19.4836 5.94811  14 
   7   0 -10 45.8172 8.01577   8 
  -7   0  10 35.5837 7.61136   1 
  -7   0  10 25.3208 6.45317   7 
   6   0 -10 76.3484 8.61582   1 
   6   0 -10 86.9798 8.67968   6 
   6   0 -10 105.298 9.88304  14 
   6   0 -10 78.1289 9.73834   3 
   6   0 -10 80.0395 9.11568   8 
  -6   0  10 82.4574 9.22937   7 
  -6   0  10 85.7931 8.47161  12 
  -6   0  10 70.7081 8.88183   1 
   5   0 -10 54.2755 7.22186   1 
   5   0 -10 55.0523 7.90400   3 
   5   0 -10 56.6858 7.35774   8 
   5   0 -10 53.5554 7.03192  14 
   5   0 -10 44.1032 5.91173   6 
  -5   0  10 35.6823 6.71021   7 
  -5   0  10 38.4534 6.88355   1 
   4   0 -10 31.3310 6.40746   3 
   4   0 -10 30.6638 5.53638  10 
   4   0 -10 29.2210 5.63908  14 
   4   0 -10 38.8087 6.22450   1 
   4   0 -10 31.0030 5.85585   8 
   4   0 -10 28.3419 4.54665   6 
  -4   0  10 30.6253 5.83602   7 
  -4   0  10 28.3601 5.84102   1 
  -4   0  10 34.1217 6.57232   2 
   3   0 -10 36.9192 5.75663  10 
   3   0 -10 33.4348 6.50982  11 
   3   0 -10 34.1412 6.26399   3 
   3   0 -10 36.7563 5.68106   1 
   3   0 -10 39.1291 5.99750  14 
   3   0 -10 39.5443 4.43974   6 
   3   0 -10 42.2213 6.08002  13 
  -3   0  10 39.2946 6.67505   2 
  -3   0  10 38.0494 5.96155   7 
  -3   0  10 33.6802 5.88985   1 
   2   0 -10 142.881 10.0422   5 
   2   0 -10 132.168 9.25334  13 
   2   0 -10 138.704 9.42872  14 
   2   0 -10 130.200 11.1734  11 
   2   0 -10 130.916 10.4427  10 
   2   0 -10 141.994 11.0945   3 
   2   0 -10 137.644 9.39262   1 
  -2   0  10 122.625 9.88636   7 
  -2   0  10 123.347 10.9378   2 
  -2   0  10 115.086 9.62766   1 
   1   0 -10 118.015 10.2806  10 
   1   0 -10 119.467 10.0756   3 
   1   0 -10 121.464 10.1340   5 
   1   0 -10 106.521 8.46839  14 
   1   0 -10 119.384 8.17097  13 
   1   0 -10 129.645 8.73674   1 
   1   0 -10 130.850 11.1555  11 
   1   0 -10 115.663 9.04609   5 
  -1   0  10 115.316 10.7081   2 
  -1   0  10 114.186 10.6366   2 
  -1   0  10 103.575 9.38632   7 
  -1   0  10 113.917 9.39841   1 
   0   0 -10 88.8562 9.61967  10 
   0   0 -10 115.336 9.87793   5 
   0   0 -10 109.743 8.43620  14 
   0   0 -10 103.311 8.45310   5 
   0   0 -10 105.095 10.5026  11 
   0   0 -10 111.884 8.00334   1 
   0   0 -10 101.727 9.90181   3 
   0   0  10 101.808 8.90079   1 
   0   0  10 105.192 9.51963   7 
   0   0  10 109.363 10.5239   2 
  -1   0 -10 8.41002 4.53689  11 
  -1   0 -10 6.80960 4.09443   3 
  -1   0 -10 9.18760 3.09815   1 
  -1   0 -10 10.9569 3.44587  14 
  -1   0 -10 8.65015 3.44234   5 
   1   0  10 10.6751 4.24845   2 
   1   0  10 15.4243 4.78173   1 
  -2   0 -10 4.05894 3.82782   3 
  -2   0 -10 4.80004 4.03383  10 
  -2   0 -10 7.41206 4.79715  11 
  -2   0 -10 5.89726 2.57994   1 
  -2   0 -10 4.88676 3.36728   5 
  -2   0 -10 5.65630 3.14235  14 
   2   0  10 7.24199 4.15316   1 
   2   0  10 7.10439 4.47378   2 
  -3   0 -10 27.6506 6.12125   5 
  -3   0 -10 32.3210 6.03651  14 
  -3   0 -10 31.6291 7.84803  11 
   3   0  10 38.5464 7.96841   1 
   3   0  10 27.7133 7.68211   2 
  -4   0 -10 20.4538 4.88480  14 
  -4   0 -10 19.5742 5.48801   5 
  -4   0 -10 18.4259 6.62137  11 
   4   0  10 14.8947 5.80962   1 
   4   0  10 3.27052 4.48091   2 
   8  -1 -10 3.81645 4.19351   1 
   8  -1 -10 -0.9421 3.70386  14 
  -8   1  10 4.54663 4.26280   1 
  -8   1  10 -0.7522 3.79612   7 
   7  -1 -10 38.4208 8.27480   3 
   7  -1 -10 41.8161 7.76829   6 
   7  -1 -10 48.7355 7.81501   8 
   7  -1 -10 49.6198 8.07143   1 
   7  -1 -10 32.0694 6.78172  14 
  -7   1  10 33.6201 8.41910  12 
  -7   1  10 37.1957 7.74780   1 
  -7   1  10 47.5654 8.17312   7 
   6  -1 -10 46.9464 7.03479   1 
   6  -1 -10 49.0219 7.11522   8 
   6  -1 -10 42.5085 6.93030   6 
   6  -1 -10 40.2415 7.73381   3 
   6  -1 -10 45.6942 7.52996  14 
  -6   1  10 59.4448 8.11841   7 
  -6   1  10 49.4625 7.71816   1 
  -6   1  10 46.4605 7.27904  12 
  -6   1  10 51.9669 8.39042   2 
   5  -1 -10 41.5765 6.10076   1 
   5  -1 -10 34.4067 7.10929   3 
   5  -1 -10 39.5971 5.90221   6 
   5  -1 -10 36.2349 6.05475  10 
   5  -1 -10 40.4275 6.11279   8 
   5  -1 -10 46.6957 6.74684  14 
   5  -1 -10 41.1026 6.99449  13 
  -5   1  10 40.1917 6.91757   7 
  -5   1  10 54.8027 7.46522   1 
  -5   1  10 30.0103 6.70278   2 
   4  -1 -10 45.8536 5.92287   1 
   4  -1 -10 38.3937 6.68222  13 
   4  -1 -10 35.8176 5.00502   6 
   4  -1 -10 35.3693 5.83554  10 
   4  -1 -10 36.4563 6.56365   3 
   4  -1 -10 35.8427 5.77932  14 
  -4   1  10 41.4693 7.28168   2 
  -4   1  10 45.5370 6.73380   1 
  -4   1  10 40.7416 6.60192   7 
   3  -1 -10 17.6243 5.04417   3 
   3  -1 -10 20.0249 4.80962  13 
   3  -1 -10 18.8708 3.97886   1 
   3  -1 -10 18.2599 4.15622  14 
   3  -1 -10 22.7105 5.24304  10 
   3  -1 -10 15.2918 3.84250   5 
   3  -1 -10 19.2898 3.74848   6 
   3  -1 -10 19.8468 5.52019  11 
  -3   1  10 19.1908 5.53849   2 
  -3   1  10 18.2191 4.69898   7 
  -3   1  10 17.4122 4.53829   1 
   2  -1 -10 149.306 10.3590  13 
   2  -1 -10 145.843 12.0884  11 
   2  -1 -10 148.326 10.4954   6 
   2  -1 -10 157.698 9.79267   5 
   2  -1 -10 145.297 11.5227  10 
   2  -1 -10 147.654 8.99112   1 
   2  -1 -10 156.110 11.6306   3 
   2  -1 -10 165.643 9.95612  14 
  -2   1  10 153.529 11.1165   7 
  -2   1  10 163.830 12.4005   2 
  -2   1  10 156.454 10.8555   1 
   1  -1 -10 105.692 10.4459  11 
   1  -1 -10 99.4363 8.16782   5 
   1  -1 -10 121.060 10.0540   3 
   1  -1 -10 109.165 7.27797   1 
   1  -1 -10 110.250 10.2575  10 
   1  -1 -10 95.1567 7.55539  14 
   1  -1 -10 126.669 8.43812   5 
   1  -1 -10 111.466 8.45428  13 
  -1   1  10 99.1628 10.1190   2 
  -1   1  10 124.397 10.0293   7 
  -1   1  10 121.409 9.62124   1 
  -1   1  10 128.701 11.0872   2 
   0  -1 -10 51.4572 5.75233   5 
   0  -1 -10 53.6226 5.84342  14 
   0  -1 -10 56.4082 8.36142  11 
   0  -1 -10 63.8768 8.47307  10 
   0  -1 -10 57.8811 7.80237   3 
   0  -1 -10 55.4188 6.28044   5 
   0  -1 -10 55.5878 5.08386   1 
   0   1  10 62.5082 7.11687   1 
   0   1  10 78.4761 8.30066   7 
   0   1  10 55.4178 8.04336   2 
  -1  -1 -10 16.6332 5.24108   3 
  -1  -1 -10 18.0671 5.80844  10 
  -1  -1 -10 15.2082 3.71951  14 
  -1  -1 -10 19.9078 4.41437   5 
  -1  -1 -10 15.7697 5.51704  11 
   1   1  10 27.3308 6.65915   2 
   1   1  10 20.3047 5.14314   1 
  -2  -1 -10 26.9634 5.25123   5 
  -2  -1 -10 36.3341 5.33138  14 
  -2  -1 -10 28.7398 7.32931  11 
   2   1  10 22.6296 5.71568   1 
   2   1  10 28.5999 7.12389   2 
  -3  -1 -10 16.8752 4.53272   5 
  -3  -1 -10 20.6585 7.06229  11 
  -3  -1 -10 23.0746 4.63129  14 
   3   1  10 12.3441 5.63838   2 
   8  -2 -10 7.03337 4.67700   6 
   8  -2 -10 9.59148 5.14977   1 
  -8   2  10 5.37305 4.38206   1 
  -8   2  10 8.87942 5.43918   7 
   7  -2 -10 19.7728 5.40314  14 
   7  -2 -10 15.8852 5.65612   6 
   7  -2 -10 15.8058 4.93200   8 
   7  -2 -10 25.5479 5.68920   1 
   7  -2 -10 19.4368 6.39903   3 
  -7   2  10 23.7509 6.71945   2 
  -7   2  10 17.8983 5.93555   1 
  -7   2  10 16.7105 5.57474   7 
  -7   2  10 21.5693 6.10278  12 
   6  -2 -10 40.1673 6.74570  14 
   6  -2 -10 47.1289 8.06482  13 
   6  -2 -10 52.2782 6.77495   1 
   6  -2 -10 42.8460 6.12640   8 
   6  -2 -10 32.5748 6.66522   6 
   6  -2 -10 38.4010 7.73834   3 
  -6   2  10 39.9157 7.96909   2 
  -6   2  10 64.9739 8.42385   7 
  -6   2  10 42.2650 7.44507  12 
  -6   2  10 41.5476 7.43527   1 
   5  -2 -10 19.2152 4.24198   1 
   5  -2 -10 28.3891 6.57023  13 
   5  -2 -10 28.8034 5.69327  14 
   5  -2 -10 26.5196 5.51230   6 
   5  -2 -10 23.3107 5.78491   3 
   5  -2 -10 22.9361 5.00559  10 
  -5   2  10 21.1261 5.29944   1 
  -5   2  10 17.4775 5.36300   2 
  -5   2  10 25.5265 5.69380   7 
   4  -2 -10 18.0796 4.14520   5 
   4  -2 -10 19.7750 4.23080  14 
   4  -2 -10 22.8709 5.79750  13 
   4  -2 -10 15.2507 4.80123   3 
   4  -2 -10 17.1013 4.82326  10 
   4  -2 -10 14.9062 3.88891   6 
   4  -2 -10 24.0982 4.12112   1 
  -4   2  10 17.4229 5.30854   2 
  -4   2  10 21.3602 4.99339   7 
  -4   2  10 17.0989 4.64626   1 
   3  -2 -10 20.0892 5.27554  13 
   3  -2 -10 22.2651 4.25023   6 
   3  -2 -10 21.2572 3.42165   1 
   3  -2 -10 18.8853 6.05702  11 
   3  -2 -10 18.0616 5.00591   3 
   3  -2 -10 15.0806 4.93792  10 
   3  -2 -10 22.6176 4.10950  14 
   3  -2 -10 18.2292 4.02778   5 
  -3   2  10 24.7196 5.42167   7 
  -3   2  10 18.7552 4.91543   1 
  -3   2  10 18.9783 5.05158   2 
   2  -2 -10 37.1358 6.08847  13 
   2  -2 -10 43.6511 6.96510  10 
   2  -2 -10 33.2719 4.68788   5 
   2  -2 -10 36.9827 6.58742   3 
   2  -2 -10 37.5493 4.69047  14 
   2  -2 -10 39.2060 5.20398   6 
   2  -2 -10 41.4784 7.47867  11 
  -2   2  10 37.5987 5.87298   1 
  -2   2  10 43.7555 7.09047   2 
  -2   2  10 37.6667 6.18524   7 
   1  -2 -10 49.2248 6.06561  13 
   1  -2 -10 54.5716 5.47012   5 
   1  -2 -10 64.5870 8.58378  11 
   1  -2 -10 44.7083 6.98363   3 
   1  -2 -10 48.7442 5.04944  14 
   1  -2 -10 59.5864 8.40680  10 
  -1   2  10 65.4337 8.43734   2 
  -1   2  10 63.6905 7.56436   7 
  -1   2  10 59.3031 8.06688   2 
  -1   2  10 65.7206 7.25785   1 
   0  -2 -10 15.5860 3.48971   5 
   0  -2 -10 12.1000 4.48798   3 
   0  -2 -10 10.4642 4.91378  10 
   0  -2 -10 14.9459 3.11359  14 
   0  -2 -10 7.00423 4.65822  11 
   0   2  10 11.9481 4.35090   7 
   0   2  10 7.32149 3.42209   1 
   0   2  10 14.0985 4.91059   2 
  -1  -2 -10 8.38467 5.01919  11 
  -1  -2 -10 11.1147 2.68839  14 
  -1  -2 -10 6.41583 4.72967  10 
  -1  -2 -10 13.3625 3.58336   5 
  -1  -2 -10 6.53922 4.20151   3 
   1   2  10 9.97513 4.95940   2 
  -2  -2 -10 31.7916 3.95095  14 
  -2  -2 -10 44.1959 8.71490  11 
  -2  -2 -10 33.9554 4.91196   5 
  -2  -2 -10 36.1632 3.93187  14 
   2   2  10 43.1504 8.50321   2 
  -3  -2 -10 5.82655 5.21530  11 
   3   2  10 12.6705 5.95341   2 
   8  -3 -10 2.33821 3.37116   8 
   8  -3 -10 10.5582 4.65744   1 
   8  -3 -10 4.15576 4.45848   6 
  -8   3  10 9.76227 5.36744   7 
  -8   3  10 8.89771 4.92962   1 
  -8   3  10 3.83482 4.68359  12 
   7  -3 -10 22.2516 4.85046   8 
   7  -3 -10 24.2925 6.58529   6 
   7  -3 -10 17.5916 6.56617  13 
   7  -3 -10 23.2304 5.20105   1 
  -7   3  10 30.5724 6.96164   7 
  -7   3  10 17.5258 6.44243   2 
  -7   3  10 25.8196 6.54987   1 
  -7   3  10 25.1679 6.98769  12 
   6  -3 -10 44.9123 8.30235  13 
   6  -3 -10 60.9006 6.11504   1 
   6  -3 -10 52.8648 8.31594   3 
   6  -3 -10 70.7916 8.52498   6 
  -6   3  10 60.7384 8.85262  12 
  -6   3  10 50.5530 8.79668   2 
  -6   3  10 49.7018 7.96667   1 
  -6   3  10 53.7255 8.35517   7 
   5  -3 -10 33.8981 6.18912   6 
   5  -3 -10 36.3855 6.40709  10 
   5  -3 -10 36.2197 5.45834  14 
   5  -3 -10 45.5585 7.40061   3 
   5  -3 -10 37.9518 7.26918  13 
   5  -3 -10 37.2634 5.17447   5 
  -5   3  10 34.4439 6.66882   1 
  -5   3  10 42.0259 7.69421   2 
  -5   3  10 33.9254 6.60292   7 
   4  -3 -10 57.5142 5.77337   5 
   4  -3 -10 47.5187 7.75964  13 
   4  -3 -10 52.3058 7.60604  10 
   4  -3 -10 53.4376 6.79126   6 
   4  -3 -10 57.0023 7.38260   3 
   4  -3 -10 59.1273 5.58217  14 
  -4   3  10 49.6153 6.83243   1 
  -4   3  10 50.7782 7.82956   2 
  -4   3  10 44.2574 7.10033   7 
   3  -3 -10 23.2300 5.52371   3 
   3  -3 -10 30.9219 7.00118  11 
   3  -3 -10 21.5537 3.64658  14 
   3  -3 -10 27.6883 6.39492  13 
   3  -3 -10 20.6440 4.79399   6 
   3  -3 -10 24.9072 6.04187  10 
   3  -3 -10 25.4523 4.16335   5 
  -3   3  10 25.9707 5.93174   2 
  -3   3  10 23.3049 5.19336   1 
  -3   3  10 27.4684 5.89982   7 
   2  -3 -10 59.5935 7.50369   3 
   2  -3 -10 48.9506 8.11663  10 
   2  -3 -10 54.3316 4.05299  14 
   2  -3 -10 61.1282 6.50640   6 
   2  -3 -10 54.1489 8.09546  11 
   2  -3 -10 61.2347 7.61176  13 
   2  -3 -10 54.6823 4.93210   5 
  -2   3  10 48.9160 7.47716   2 
  -2   3  10 50.1376 7.19062   7 
   1  -3 -10 27.3470 6.83274  10 
   1  -3 -10 22.1871 5.20025  13 
   1  -3 -10 28.2659 5.80549   3 
   1  -3 -10 26.7771 6.64958  11 
   1  -3 -10 19.8321 5.64852   6 
  -1   3  10 20.5854 5.56275   7 
  -1   3  10 20.4924 5.48309   2 
  -1   3  10 22.6763 5.93229   2 
   0  -3 -10 52.7497 8.69765  11 
   0  -3 -10 41.6308 7.21681   3 
   0  -3 -10 42.3985 8.26825  10 
   0   3  10 41.2301 7.39718   2 
   0   3  10 43.7989 7.45068   7 
  -1  -3 -10 27.1920 7.26570  11 
   1   3  10 19.1304 5.78284   7 
   1   3  10 27.8950 6.96122   2 
  -2  -3 -10 13.5241 6.09490  11 
   2   3  10 10.6847 5.22965   2 
   8  -4 -10 12.1116 5.83499   6 
  -8   4  10 11.0327 5.44291   7 
  -8   4  10 9.29631 5.09019   1 
  -8   4  10 12.1971 6.62594  12 
  -8   4  10 13.5929 6.71690   2 
   7  -4 -10 11.9286 5.34518   6 
  -7   4  10 6.81649 4.69283   2 
  -7   4  10 7.92493 4.81360   7 
  -7   4  10 11.3494 5.27735   1 
  -7   4  10 8.44617 5.31092  12 
   6  -4 -10 12.2068 3.50849   5 
   6  -4 -10 14.0068 4.80569   6 
   6  -4 -10 10.5780 5.34787  13 
  -6   4  10 23.3372 7.05531  12 
  -6   4  10 13.4876 4.97932   1 
  -6   4  10 3.00662 3.98693   7 
  -6   4  10 13.6940 5.56647   2 
   5  -4 -10 20.3678 5.54132   6 
   5  -4 -10 42.8628 5.12518   5 
   5  -4 -10 32.9125 7.70548  13 
   5  -4 -10 36.5473 7.14258  10 
   5  -4 -10 40.8870 7.32837   3 
  -5   4  10 36.7922 6.98903   7 
  -5   4  10 40.7976 7.83059   2 
   4  -4 -10 27.5722 6.97911  13 
   4  -4 -10 38.5176 6.43041   6 
   4  -4 -10 36.7534 7.30673  10 
   4  -4 -10 30.0119 6.40570   3 
  -4   4  10 35.5207 6.86776   7 
  -4   4  10 27.0839 6.65777   2 
   3  -4 -10 28.0818 6.50472  13 
   3  -4 -10 23.6676 5.52333   3 
   3  -4 -10 37.5568 6.27952   6 
   3  -4 -10 20.4983 5.97765  10 
  -3   4  10 21.0376 5.53225   2 
  -3   4  10 18.7746 5.16167   7 
   2  -4 -10 8.79169 3.94965   6 
   2  -4 -10 12.5900 5.63730  11 
   2  -4 -10 14.4577 5.18272  13 
   2  -4 -10 14.2809 5.19562  10 
   2  -4 -10 8.29862 3.80063   3 
  -2   4  10 18.6622 5.10606   2 
  -2   4  10 16.5261 4.93791   7 
   1  -4 -10 30.3704 7.19836  10 
   1  -4 -10 39.9554 7.11974  13 
   1  -4 -10 22.2819 6.47378  11 
   1  -4 -10 37.9153 6.56712   3 
   1  -4 -10 33.5726 5.99447   6 
  -1   4  10 41.6082 7.15857   2 
  -1   4  10 37.0324 7.07082   2 
  -1   4  10 35.3553 6.60636   7 
   0  -4 -10 29.5995 7.55690  11 
   0   4  10 41.5311 7.38114   7 
   0   4  10 46.1758 7.97409   2 
  -1  -4 -10 11.8613 5.90422  11 
   1   4  10 9.85527 4.82865   2 
   1   4  10 13.0135 5.41572   7 
   8  -5 -10 17.1531 6.33489   6 
  -8   5  10 10.5402 6.16088   2 
  -8   5  10 8.34572 5.32152   7 
   7  -5 -10 4.80399 2.87520   5 
   7  -5 -10 6.90077 4.58223   6 
  -7   5  10 2.99778 4.26193   2 
  -7   5  10 1.70057 4.08981   7 
   6  -5 -10 36.7286 8.38255  13 
   6  -5 -10 45.2240 8.02413   6 
  -6   5  10 37.9192 7.42795   7 
  -6   5  10 38.2556 8.17369   2 
  -6   5  10 44.0742 9.20587  12 
   5  -5 -10 58.2385 8.28936   6 
   5  -5 -10 53.2021 9.36602  13 
   5  -5 -10 49.5935 7.89335  10 
  -5   5  10 53.2744 8.34359   7 
  -5   5  10 55.2206 9.52223  12 
  -5   5  10 62.1416 9.04203   2 
   4  -5 -10 35.3419 7.83341  13 
   4  -5 -10 37.5234 7.76377  10 
   4  -5 -10 25.2759 9.16986   3 
   4  -5 -10 43.0545 7.48448   6 
  -4   5  10 38.6100 7.21854   7 
  -4   5  10 33.1066 7.15281   2 
   3  -5 -10 51.4160 7.78197   6 
   3  -5 -10 49.0368 8.50658  10 
   3  -5 -10 65.7484 9.30067  13 
   3  -5 -10 44.6900 7.77362   3 
  -3   5  10 42.3099 7.46395   2 
  -3   5  10 41.9863 7.25340   7 
   2  -5 -10 30.8392 6.58813   6 
   2  -5 -10 58.3923 8.94586  11 
   2  -5 -10 39.7100 8.05249  13 
  -2   5  10 32.9243 6.72493   2 
  -2   5  10 26.9231 6.15018   7 
   1  -5 -10 47.7800 7.47309   6 
   1  -5 -10 32.3363 7.45166  13 
   1  -5 -10 35.4037 8.09671  11 
  -1   5  10 41.4134 7.61062   2 
  -1   5  10 52.4834 7.65648   7 
   0  -5 -10 22.1345 6.88334  11 
   0   5  10 27.2234 6.64890   7 
   0   5  10 28.8453 7.01480   2 
   1   5  10 28.3599 6.74811   7 
   1   5  10 21.5898 6.36562   2 
   7  -6 -10 10.3068 5.45622   6 
  -7   6  10 9.67564 5.10863   7 
  -7   6  10 3.21255 4.56381   2 
   6  -6 -10 9.05493 5.19520   6 
  -6   6  10 15.0679 5.82469   2 
  -6   6  10 7.92774 4.74960   7 
   5  -6 -10 42.5122 8.63180   6 
   5  -6 -10 36.1307 9.27279  10 
  -5   6  10 37.5792 7.59289   7 
  -5   6  10 47.4763 8.23686   2 
   4  -6 -10 7.29345 4.86259   6 
   4  -6 -10 18.7096 7.30421  13 
  -4   6  10 17.6647 5.39508   7 
  -4   6  10 18.6795 5.71741   2 
   3  -6 -10 41.4017 8.87701  13 
   3  -6 -10 22.8506 6.12808   6 
  -3   6  10 24.1448 5.77382   7 
  -3   6  10 29.2863 6.59678   2 
   2  -6 -10 19.1299 5.94674   6 
   2  -6 -10 29.2897 7.82936  13 
  -2   6  10 19.6376 5.36611   7 
  -2   6  10 25.1782 6.17680   2 
   1  -6 -10 24.2996 6.87156  11 
   1  -6 -10 21.3336 7.06532  13 
   1  -6 -10 16.5990 5.76797   6 
  -1   6  10 31.2349 6.83021   2 
   6  -7 -10 6.50432 5.06985   6 
  -6   7  10 10.2051 4.85315   7 
  -6   7  10 5.81410 4.45563   2 
   5  -7 -10 14.0468 6.01478   6 
  -5   7  10 12.0487 5.06912   7 
  -5   7  10 11.1619 5.26332   2 
   4  -7 -10 21.5267 7.19760   6 
  -4   7  10 31.1915 7.06444   2 
   3  -7 -10 24.0248 6.85538   6 
  -3   7  10 20.1821 5.59473   2 
   2  10 -11 34.4153 8.20579   1 
  -2 -10  11 44.7465 7.40522  14 
  -2 -10  11 27.2815 6.64303   5 
   1  10 -11 27.4286 7.72391   1 
  -1 -10  11 29.5706 6.41812  14 
  -1 -10  11 31.2748 6.30759   1 
  -1 -10  11 24.7843 7.56624   9 
  -1 -10  11 21.8854 6.23001   5 
   0  10 -11 24.2757 7.33017   1 
   0 -10  11 18.8663 5.36244   1 
   0 -10  11 9.20324 4.89717   5 
   0 -10  11 17.6169 5.40685  14 
   0 -10  11 29.6582 8.28851   9 
  -1  10 -11 23.3262 7.18795   1 
   1 -10  11 31.9891 8.22514   9 
   1 -10  11 31.4405 6.69742   1 
   1 -10  11 31.0239 6.87233  14 
  -2  10 -11 31.2258 8.03272   1 
   2 -10  11 45.8188 7.90029   1 
   2 -10  11 40.6808 8.08745  14 
   2 -10  11 35.8863 8.85947   9 
   3   9 -11 23.9246 7.55819   1 
  -3  -9  11 24.4693 6.00607  14 
  -3  -9  11 35.1254 6.87314   1 
  -3  -9  11 29.2177 6.83269   5 
   2   9 -11 44.3329 9.06175   1 
  -2  -9  11 40.6442 7.78476   5 
  -2  -9  11 36.4679 6.99376  14 
  -2  -9  11 40.7834 7.27125   1 
   1   9 -11 29.6340 8.05783   8 
   1   9 -11 26.6976 7.47160   1 
  -1  -9  11 34.2229 7.70156   9 
  -1  -9  11 33.7736 7.18351   1 
  -1  -9  11 45.6245 7.81393  14 
   0   9 -11 33.9885 8.00539   1 
   0  -9  11 34.5631 6.90742  14 
   0  -9  11 24.6536 6.88502   9 
   0  -9  11 48.9592 7.64572   1 
  -1   9 -11 25.0590 6.88845  11 
  -1   9 -11 31.0166 7.70645   1 
   1  -9  11 44.5373 9.10677   9 
   1  -9  11 39.9171 7.49787  14 
   1  -9  11 34.8978 7.25300   1 
   1  -9  11 36.1754 8.32750   7 
  -2   9 -11 26.3796 6.98927  11 
  -2   9 -11 17.8891 6.36263   1 
   2  -9  11 22.5575 5.89618   1 
   2  -9  11 20.0591 6.44473  14 
   2  -9  11 17.5376 5.38905   7 
   2  -9  11 21.5180 7.27496   9 
  -3   9 -11 38.6045 8.69875   1 
  -3   9 -11 33.9486 8.71027  11 
   3  -9  11 30.7185 7.46425   1 
   3  -9  11 36.1021 8.81876   9 
   4   8 -11 8.65715 5.76262   1 
   4   8 -11 10.5879 7.29847   8 
  -4  -8  11 8.97628 4.65092  14 
  -4  -8  11 21.6657 5.87640   1 
   3   8 -11 13.1793 5.77918   1 
   3   8 -11 10.4887 5.90928   8 
  -3  -8  11 9.10429 4.48105  14 
  -3  -8  11 14.6241 5.31038   1 
   2   8 -11 41.8611 8.89372   1 
   2   8 -11 37.6975 8.61486   8 
  -2  -8  11 33.9119 7.00447   1 
  -2  -8  11 27.9402 6.34949  14 
  -2  -8  11 26.4392 5.78308   7 
   1   8 -11 45.6918 8.74368   1 
   1   8 -11 34.7194 7.21865  11 
   1   8 -11 43.9154 8.93626   8 
  -1  -8  11 35.3184 7.17111  14 
  -1  -8  11 35.1759 7.56640   9 
  -1  -8  11 30.8279 6.71825   1 
  -1  -8  11 34.1935 5.99909   7 
   0   8 -11 24.0248 6.53567   1 
   0   8 -11 28.4662 6.77561  11 
   0  -8  11 30.8656 6.66540  14 
   0  -8  11 26.4055 6.43072   1 
   0  -8  11 27.7850 5.87473   7 
   0  -8  11 15.3118 5.32985   9 
  -1   8 -11 5.09676 4.06736  11 
  -1   8 -11 4.45678 4.88997   1 
   1  -8  11 8.64274 4.98471   9 
   1  -8  11 9.21055 4.20335  14 
   1  -8  11 6.42177 4.08915   1 
   1  -8  11 3.75160 3.46443   7 
  -2   8 -11 14.1427 5.96696   1 
  -2   8 -11 20.0865 6.66320  11 
   2  -8  11 12.1208 5.18375   9 
   2  -8  11 8.88170 4.94284   1 
  -3   8 -11 25.9213 7.39414   1 
  -3   8 -11 15.1922 6.34447  11 
   3  -8  11 18.6050 6.55239   9 
   3  -8  11 19.7940 6.19478   1 
  -4   8 -11 8.16778 6.24661  11 
   4  -8  11 21.2025 7.30839   9 
   5   7 -11 16.5961 6.45625   1 
   5   7 -11 18.0598 6.96875   8 
  -5  -7  11 11.6722 4.67668   1 
  -5  -7  11 21.9096 5.99632  14 
   4   7 -11 20.7932 6.85575   1 
   4   7 -11 16.8611 6.23303   8 
  -4  -7  11 11.4645 4.38662   7 
  -4  -7  11 8.45175 4.52929   1 
  -4  -7  11 15.3409 5.26783  14 
   3   7 -11 40.8582 8.52367   8 
   3   7 -11 43.7149 8.90513   1 
  -3  -7  11 52.6329 8.07856   1 
  -3  -7  11 40.0617 7.38934  14 
  -3  -7  11 43.1559 6.69245   7 
   2   7 -11 85.9316 9.28210  11 
   2   7 -11 89.9688 10.7919   1 
   2   7 -11 77.0291 10.0808   8 
  -2  -7  11 93.4568 9.87641   1 
  -2  -7  11 75.8155 9.00071  14 
  -2  -7  11 98.1087 8.87626   7 
   1   7 -11 78.0728 9.13565  11 
   1   7 -11 74.5537 9.95041   1 
   1   7 -11 75.8620 10.4886   8 
  -1  -7  11 76.7437 8.24368   7 
  -1  -7  11 78.5334 8.83091  14 
  -1  -7  11 75.0627 9.12765   9 
  -1  -7  11 94.2090 9.64535   1 
   0   7 -11 78.9666 10.2115   1 
   0   7 -11 62.4421 8.68062  11 
   0  -7  11 57.0591 7.40776   7 
   0  -7  11 75.7204 8.89447  14 
   0  -7  11 58.8282 8.23066   1 
   0  -7  11 55.3163 8.23022   9 
  -1   7 -11 19.4555 6.02325   1 
  -1   7 -11 21.1032 6.11394  11 
   1  -7  11 15.6717 5.15553   7 
   1  -7  11 16.7943 5.55833   1 
   1  -7  11 22.8784 6.27302   9 
  -2   7 -11 64.6030 9.72145   1 
  -2   7 -11 44.0282 8.80627  11 
   2  -7  11 45.4691 8.22443   1 
   2  -7  11 53.7051 8.59938   9 
  -3   7 -11 79.6252 10.9377  11 
  -3   7 -11 81.1825 11.0179   1 
   3  -7  11 71.3644 10.0939   9 
   3  -7  11 60.7332 9.71929   1 
  -4   7 -11 30.9477 8.52537  11 
  -4   7 -11 25.3169 7.85451   1 
   4  -7  11 28.2128 7.92084   1 
   4  -7  11 13.0577 5.73977   9 
   6   6 -11 33.7069 8.53661   1 
  -6  -6  11 39.0896 8.09233   1 
  -6  -6  11 31.4793 6.76725   7 
  -6  -6  11 26.0792 6.61445  14 
   5   6 -11 6.95878 5.15397   8 
   5   6 -11 3.68942 4.79204   1 
  -5  -6  11 10.2132 4.40835  14 
  -5  -6  11 17.0801 5.28583   7 
  -5  -6  11 10.0597 4.35082   1 
   4   6 -11 2.29568 4.35707   1 
   4   6 -11 9.35629 5.27984   8 
  -4  -6  11 3.31340 3.41048   7 
  -4  -6  11 4.54456 3.74333  14 
  -4  -6  11 3.66726 3.88459   1 
   3   6 -11 14.5676 5.27028   1 
   3   6 -11 6.33855 4.47794   8 
  -3  -6  11 8.58608 4.22342   1 
  -3  -6  11 19.1076 5.42772  14 
  -3  -6  11 7.30808 3.97214   7 
   2   6 -11 72.6943 9.67704   1 
   2   6 -11 53.7560 8.75825   8 
   2   6 -11 56.7316 8.03175  11 
  -2  -6  11 58.8565 11.6834  14 
  -2  -6  11 70.1196 7.99330   7 
  -2  -6  11 72.5592 8.46330   9 
  -2  -6  11 67.5875 8.56643   1 
   1   6 -11 49.2363 8.28351   1 
   1   6 -11 47.3959 8.00684  11 
  -1  -6  11 56.8987 7.70274   9 
  -1  -6  11 70.7848 8.55362   1 
  -1  -6  11 52.8048 7.08205   7 
   0   6 -11 31.7411 7.43991  11 
   0   6 -11 21.7160 6.12285   1 
   0   6 -11 24.7950 6.48046   3 
   0  -6  11 17.8909 5.26686   1 
   0  -6  11 25.5172 5.80554   7 
   0  -6  11 30.5727 6.45829   9 
  -1   6 -11 19.2470 6.13834  11 
  -1   6 -11 26.1889 6.63316   1 
  -1   6 -11 21.7566 6.61640   3 
   1  -6  11 17.3670 5.75895   1 
   1  -6  11 26.9552 6.06249   7 
   1  -6  11 28.3520 6.38908   9 
  -2   6 -11 32.6705 7.53963   1 
  -2   6 -11 39.0970 8.52359   3 
  -2   6 -11 32.4989 7.74870  11 
   2  -6  11 36.8287 7.28037   9 
   2  -6  11 39.0898 8.02875   1 
  -3   6 -11 38.5249 8.13220   1 
  -3   6 -11 37.0495 9.02308  11 
   3  -6  11 24.2932 6.35600   9 
   3  -6  11 32.1322 7.69818   1 
  -4   6 -11 20.2616 7.58117  11 
  -4   6 -11 12.0092 5.88155   1 
   4  -6  11 13.0551 5.70503   9 
   4  -6  11 19.2075 6.09519   1 
   6   5 -11 10.2703 5.42286   1 
  -6  -5  11 5.04499 4.41080   1 
  -6  -5  11 8.19674 4.48507   7 
   5   5 -11 12.0318 5.67320   8 
   5   5 -11 23.2728 6.87618   1 
  -5  -5  11 19.4087 5.43727   7 
  -5  -5  11 12.9708 4.92862   1 
   4   5 -11 55.6990 9.43899   8 
   4   5 -11 69.8462 9.56502   1 
  -4  -5  11 52.1588 7.63046   7 
  -4  -5  11 45.1905 7.71030   1 
   3   5 -11 46.0330 8.10035   3 
   3   5 -11 37.9150 7.89254   1 
   3   5 -11 41.8855 7.60412  11 
   3   5 -11 44.5856 8.23000   8 
  -3  -5  11 26.0721 5.78310   7 
  -3  -5  11 47.2225 7.67300   1 
   2   5 -11 73.3036 9.33183   1 
   2   5 -11 60.3264 8.85391   3 
   2   5 -11 65.8168 8.64027  11 
   2   5 -11 59.9214 8.93314   8 
  -2  -5  11 66.5704 8.31255   1 
  -2  -5  11 66.9401 7.51412   9 
  -2  -5  11 65.7003 7.78673   7 
   1   5 -11 37.1419 7.52100   3 
   1   5 -11 43.6063 7.62667  11 
   1   5 -11 34.4530 7.17499   1 
  -1  -5  11 43.2944 6.99268   1 
  -1  -5  11 32.3978 5.93088   9 
  -1  -5  11 28.4406 5.99016   7 
   0   5 -11 19.2543 6.01323   3 
   0   5 -11 30.2655 7.13878  11 
   0   5 -11 29.2415 6.53818   1 
   0  -5  11 21.7057 5.29858   9 
   0  -5  11 19.9160 5.26974   7 
   0  -5  11 25.2848 6.21835   1 
  -1   5 -11 8.46826 4.44330   1 
  -1   5 -11 4.88509 4.45508  11 
  -1   5 -11 9.04974 4.71228   3 
   1  -5  11 8.03860 3.98433   9 
   1  -5  11 14.8080 5.16066   1 
  -2   5 -11 33.5013 8.18504  11 
  -2   5 -11 41.3559 8.13049   1 
  -2   5 -11 41.4999 8.54362   3 
   2  -5  11 40.4144 7.43169   9 
   2  -5  11 42.1477 8.18808   1 
  -3   5 -11 11.9091 5.40127   3 
  -3   5 -11 12.6364 6.00776  11 
  -3   5 -11 6.39121 4.32483   1 
   3  -5  11 7.02678 4.73273   1 
   3  -5  11 13.1494 4.90474   9 
  -4   5 -11 7.40732 6.33695  11 
  -4   5 -11 12.7443 5.40771   1 
   4  -5  11 1.04977 4.47673   9 
   4  -5  11 4.26594 4.53117   1 
   7   4 -11 26.2450 7.60313   1 
  -7  -4  11 21.1335 6.26117   7 
  -7  -4  11 20.2895 6.53400   1 
   6   4 -11 9.58692 5.04603   1 
   6   4 -11 20.0730 6.88001   8 
  -6  -4  11 7.23827 4.38100   1 
  -6  -4  11 14.4483 5.50297   7 
   5   4 -11 23.9539 6.29568   1 
   5   4 -11 22.9984 6.59489   8 
  -5  -4  11 22.4396 5.79959   1 
  -5  -4  11 23.0107 5.92803   7 
   4   4 -11 46.5982 8.16050   3 
   4   4 -11 51.4548 8.59793   1 
   4   4 -11 50.2417 8.43683   8 
  -4  -4  11 32.6203 7.01810   1 
  -4  -4  11 43.4858 7.01718   7 
   3   4 -11 63.9391 8.42878   1 
   3   4 -11 47.9046 7.92680   8 
   3   4 -11 50.1657 7.80625  11 
   3   4 -11 57.8374 8.45668   3 
  -3  -4  11 68.7042 8.35687   1 
  -3  -4  11 52.4109 7.21211   7 
   2   4 -11 36.6559 7.27518   1 
   2   4 -11 34.9395 7.51084   3 
   2   4 -11 48.9536 7.66597  11 
   2   4 -11 45.7284 7.90266   8 
  -2  -4  11 46.6521 6.74320   7 
  -2  -4  11 40.8130 5.73142   9 
  -2  -4  11 46.3281 7.21672   1 
   1   4 -11 55.5554 9.21072  14 
   1   4 -11 55.4462 8.28693   3 
   1   4 -11 54.1696 8.03904  11 
   1   4 -11 45.8559 7.52844   1 
  -1  -4  11 58.0900 7.36773   7 
  -1  -4  11 62.9296 7.97158   1 
  -1  -4  11 55.8641 6.55352   9 
   0   4 -11 44.2406 7.46626  14 
   0   4 -11 41.2347 7.66226  11 
   0   4 -11 48.7274 7.70877   1 
   0   4 -11 40.7867 7.63974   3 
   0  -4  11 40.8769 6.75863   7 
   0  -4  11 39.8408 6.13264   9 
   0  -4  11 35.8668 6.80733   1 
  -1   4 -11 40.6974 7.90357  11 
  -1   4 -11 19.8925 5.16563  14 
  -1   4 -11 24.7550 6.52135   3 
  -1   4 -11 34.2913 7.13574   1 
   1  -4  11 41.9633 7.60366   1 
   1  -4  11 27.1650 5.54401   9 
  -2   4 -11 54.1729 8.97603   3 
  -2   4 -11 42.5480 9.02899  11 
  -2   4 -11 46.5808 7.70979  14 
  -2   4 -11 51.0989 8.49739   1 
   2  -4  11 41.2808 7.84202   1 
   2  -4  11 40.7784 6.82223   9 
  -3   4 -11 20.4873 6.00943  14 
  -3   4 -11 32.3779 8.04252  11 
  -3   4 -11 22.9231 7.04715   3 
  -3   4 -11 18.3542 6.00502   1 
   3  -4  11 25.5831 6.33571   9 
   3  -4  11 21.0280 6.12458   1 
  -4   4 -11 4.99663 5.93394  11 
  -4   4 -11 14.9743 5.99362  14 
  -4   4 -11 11.6197 5.21317   1 
   4  -4  11 15.6456 6.07581   9 
   4  -4  11 8.52706 5.47311   1 
   7   3 -11 -2.8840 3.65121   1 
  -7  -3  11 -2.7977 3.24461   1 
  -7  -3  11 -1.5299 3.72078   7 
   6   3 -11 24.7943 9.06148   3 
   6   3 -11 25.6741 7.03185   1 
   6   3 -11 18.8358 6.44607   8 
  -6  -3  11 14.9295 5.63625   7 
  -6  -3  11 11.6797 5.07594   1 
   5   3 -11 47.2153 8.51481   1 
   5   3 -11 44.2006 8.39038   8 
   5   3 -11 38.2107 8.09855   3 
  -5  -3  11 44.8041 7.63108   7 
  -5  -3  11 52.2098 8.10048   1 
   4   3 -11 69.1426 8.94053   1 
   4   3 -11 66.7189 8.83272   8 
   4   3 -11 55.3760 8.65209   3 
  -4  -3  11 57.3090 7.75292   7 
  -4  -3  11 55.8720 8.19890   1 
   3   3 -11 33.6296 6.89372   1 
   3   3 -11 36.0028 6.72828  14 
   3   3 -11 40.7912 7.55699  11 
   3   3 -11 36.2044 7.22969   8 
   3   3 -11 50.0693 8.24300   3 
  -3  -3  11 44.6089 7.30560   1 
  -3  -3  11 43.4009 6.86022   7 
   2   3 -11 61.0736 8.67409  11 
   2   3 -11 63.1635 8.10989   1 
   2   3 -11 40.8482 7.08628  14 
   2   3 -11 63.1168 8.53522   3 
  -2  -3  11 49.3127 7.32148   9 
  -2  -3  11 52.7891 7.23564   7 
  -2  -3  11 48.0969 7.24323   1 
   1   3 -11 13.7377 5.10211   3 
   1   3 -11 20.6329 5.31639  14 
   1   3 -11 25.1266 5.68467   1 
   1   3 -11 21.8464 5.90652  11 
  -1  -3  11 19.7374 4.31697   9 
  -1  -3  11 12.7119 4.43265   7 
  -1  -3  11 18.4552 4.98430   1 
   0   3 -11 26.8327 5.59839  14 
   0   3 -11 25.0258 6.52059  11 
   0   3 -11 34.1017 7.55120   3 
   0   3 -11 28.5324 5.89925   1 
   0  -3  11 30.0071 5.06864   9 
   0  -3  11 23.1269 5.73962   7 
   0  -3  11 23.2210 5.63548   1 
  -1   3 -11 44.0694 7.30237  14 
  -1   3 -11 49.6856 8.65296  11 
  -1   3 -11 54.9505 8.45097   3 
  -1   3 -11 45.3803 7.49372   1 
   1  -3  11 55.6929 8.02644   1 
   1  -3  11 49.6114 6.39609   9 
  -2   3 -11 82.7749 9.19428   1 
  -2   3 -11 56.7910 9.57064   3 
  -2   3 -11 58.3049 9.38595  11 
  -2   3 -11 62.3657 8.45493  14 
   2  -3  11 57.8894 8.51001   1 
   2  -3  11 53.6709 7.30072   9 
  -3   3 -11 16.9042 5.38885   1 
  -3   3 -11 16.2051 5.05089  14 
  -3   3 -11 4.89625 5.00095  11 
   3  -3  11 10.6740 4.97442   9 
   3  -3  11 14.0337 5.48604   1 
  -4   3 -11 4.54836 4.49464   1 
  -4   3 -11 0.27404 5.38549  11 
  -4   3 -11 -0.3649 3.58966  14 
   4  -3  11 0.53916 4.21643   9 
   4  -3  11 0.82324 3.98164   1 
  -8  -2  11 10.0729 5.53848   7 
   7   2 -11 9.30626 5.21098   1 
   7   2 -11 6.40172 6.00630   3 
  -7  -2  11 4.36601 4.67748   7 
  -7  -2  11 10.5968 5.37307   1 
   6   2 -11 14.9976 5.78896   3 
   6   2 -11 8.77812 4.78377   8 
   6   2 -11 18.7799 5.97602   1 
  -6  -2  11 11.1580 4.94319   7 
  -6  -2  11 12.3643 4.95424   1 
   5   2 -11 43.0883 7.79493   8 
   5   2 -11 37.5085 8.04771   3 
   5   2 -11 39.8692 7.34425  14 
   5   2 -11 48.4204 7.98816   1 
  -5  -2  11 37.6537 7.25029   7 
  -5  -2  11 40.6354 7.56363   1 
   4   2 -11 31.2090 6.68961   8 
   4   2 -11 33.5473 6.78327   1 
   4   2 -11 27.1290 5.89586  14 
   4   2 -11 29.3440 6.81572   3 
  -4  -2  11 35.2313 6.93828   1 
  -4  -2  11 42.0340 7.05163   7 
   3   2 -11 58.2762 8.49493   3 
   3   2 -11 55.9726 8.48781  11 
   3   2 -11 54.3947 7.61888   1 
   3   2 -11 47.9750 7.10185  14 
  -3  -2  11 54.3889 7.53491   7 
  -3  -2  11 56.9868 7.61449   1 
   2   2 -11 50.7118 7.15652   5 
   2   2 -11 48.1571 7.75729   3 
   2   2 -11 45.6150 6.85117   1 
   2   2 -11 38.0726 6.60864  14 
   2   2 -11 45.8106 7.63506  11 
  -2  -2  11 44.4918 7.27043   2 
  -2  -2  11 36.6029 6.52444   7 
  -2  -2  11 51.4034 7.11435   1 
   1   2 -11 51.9795 7.27578  14 
   1   2 -11 59.9715 7.61332   5 
   1   2 -11 46.6533 7.61516   3 
   1   2 -11 58.9349 8.40565  11 
   1   2 -11 47.0617 6.89080   1 
  -1  -2  11 45.6329 7.53842   2 
  -1  -2  11 38.3016 6.73039   1 
  -1  -2  11 43.2043 6.96894   7 
   0   2 -11 56.0506 7.46385   5 
   0   2 -11 57.5954 8.84319  11 
   0   2 -11 67.3808 7.79139  14 
   0   2 -11 54.5318 8.44226   3 
   0   2 -11 69.7763 7.89672   1 
   0  -2  11 47.0033 7.43400   7 
   0  -2  11 57.7944 8.37026   2 
   0  -2  11 63.3569 8.50919   2 
   0  -2  11 53.8610 7.88753   1 
  -1   2 -11 43.5499 7.09961  14 
  -1   2 -11 47.9988 8.13361   3 
  -1   2 -11 47.6651 6.99809   1 
  -1   2 -11 54.7142 8.73792  11 
  -1   2 -11 54.9715 7.54753   5 
   1  -2  11 37.6564 7.30719   1 
   1  -2  11 51.6623 8.36813   2 
  -2   2 -11 35.6941 8.35276  11 
  -2   2 -11 30.8144 7.27958   3 
  -2   2 -11 32.7766 6.82213   5 
  -2   2 -11 34.6932 6.74567   1 
  -2   2 -11 38.0479 6.91981  14 
   2  -2  11 26.2335 6.63701   1 
  -3   2 -11 8.12921 5.87095  11 
  -3   2 -11 12.8790 4.81346  14 
  -3   2 -11 10.2072 4.68990   5 
  -3   2 -11 12.0059 4.70523   1 
   3  -2  11 7.07840 4.29315   1 
  -4   2 -11 11.9914 4.56344   1 
  -4   2 -11 8.09464 6.00575  11 
  -4   2 -11 6.31175 5.51991   5 
  -4   2 -11 9.42715 4.56616  14 
   4  -2  11 12.0527 5.45590   1 
   8   1 -11 2.54535 4.90488   1 
  -8  -1  11 0.16930 4.49686   7 
  -8  -1  11 1.64230 4.56421   1 
   7   1 -11 1.77704 4.19967   3 
   7   1 -11 7.13019 4.56641   1 
  -7  -1  11 0.87383 4.10174   7 
  -7  -1  11 3.63658 4.22848   1 
   6   1 -11 38.5023 7.13950   6 
   6   1 -11 27.1266 6.97233   8 
   6   1 -11 32.1227 7.54101   3 
   6   1 -11 16.0453 5.39612   1 
   6   1 -11 14.0507 5.08514  14 
  -6  -1  11 26.0818 6.36747   7 
  -6  -1  11 14.6349 5.11164   1 
   5   1 -11 47.6978 7.67235   8 
   5   1 -11 58.9647 7.96436   1 
   5   1 -11 47.6963 8.31774   3 
   5   1 -11 56.2179 7.94399  14 
  -5  -1  11 57.9629 8.44657   1 
  -5  -1  11 54.2935 8.25801   7 
   4   1 -11 19.9222 4.75341  10 
   4   1 -11 23.0120 5.49021   1 
   4   1 -11 26.1038 5.77492  14 
   4   1 -11 21.1965 5.88578   3 
   4   1 -11 36.8207 6.79629   8 
  -4  -1  11 26.3563 6.18194   1 
  -4  -1  11 17.7830 5.24199   7 
  -4  -1  11 28.4659 6.64597   2 
   3   1 -11 9.97674 3.95221   1 
   3   1 -11 8.14755 3.95165  10 
   3   1 -11 16.4790 4.67740  13 
   3   1 -11 11.1957 4.80856  11 
   3   1 -11 19.7587 5.04626  14 
   3   1 -11 9.66127 4.49640   3 
   3   1 -11 12.7850 4.67885   5 
  -3  -1  11 27.5751 6.13468   1 
  -3  -1  11 17.7303 5.56230   2 
  -3  -1  11 22.9473 5.57086   7 
   2   1 -11 20.1176 4.40852  13 
   2   1 -11 11.9044 4.03157   1 
   2   1 -11 16.5506 4.53594  14 
   2   1 -11 15.1288 5.30931   3 
   2   1 -11 16.7936 5.00963   5 
   2   1 -11 15.6462 5.64274  11 
   2   1 -11 15.7401 4.93150  10 
  -2  -1  11 19.5537 5.25401   7 
  -2  -1  11 16.1625 4.54516   1 
  -2  -1  11 12.2247 4.91172   2 
   1   1 -11 23.1556 5.94053   3 
   1   1 -11 26.9577 5.43408   1 
   1   1 -11 29.7861 7.39955  11 
   1   1 -11 21.1566 5.00775  14 
   1   1 -11 15.4377 4.76054   5 
  -1  -1  11 26.6608 6.19908   1 
  -1  -1  11 26.7087 6.91220   2 
  -1  -1  11 30.7304 6.23296   7 
   0   1 -11 28.9305 5.57273   5 
   0   1 -11 17.0473 4.46844  14 
   0   1 -11 20.2468 4.84009   1 
   0   1 -11 19.4363 5.69114   3 
   0   1 -11 15.2409 5.67187  11 
   0  -1  11 21.1120 5.81142   2 
   0  -1  11 11.1343 4.66701   7 
   0  -1  11 11.1428 4.52325   1 
   0  -1  11 16.0434 5.26945   2 
  -1   1 -11 45.4736 6.74711  14 
  -1   1 -11 33.3760 5.96140   1 
  -1   1 -11 37.8045 6.47382   5 
  -1   1 -11 31.8323 7.50832  11 
  -1   1 -11 39.0151 7.84769   3 
   1  -1  11 32.3602 6.62192   1 
   1  -1  11 39.3909 7.76606   2 
  -2   1 -11 6.49539 3.69265  14 
  -2   1 -11 6.36512 5.08330  11 
  -2   1 -11 9.11455 3.93005   1 
  -2   1 -11 10.4760 4.40434   5 
   2  -1  11 16.9852 5.51830   1 
   2  -1  11 13.1629 5.31187   2 
  -3   1 -11 0.76662 4.62742  11 
  -3   1 -11 6.66797 4.21763   1 
  -3   1 -11 -0.4687 3.11007  14 
  -3   1 -11 3.45047 3.43895   5 
   3  -1  11 7.54905 4.68222   1 
   3  -1  11 7.64107 5.47791   2 
   8   0 -11 2.78045 4.45903   1 
  -8   0  11 3.88024 4.03113   1 
  -8   0  11 1.67590 5.18916   7 
   7   0 -11 57.6688 9.27015  14 
   7   0 -11 45.0930 7.79657   6 
   7   0 -11 53.1230 8.66042   1 
  -7   0  11 39.6395 8.23603   1 
  -7   0  11 43.8785 8.42879   7 
   6   0 -11 60.4320 8.26834   1 
   6   0 -11 42.2951 7.77710  14 
   6   0 -11 45.3916 7.56744   8 
   6   0 -11 45.5334 8.99264   3 
   6   0 -11 54.8235 7.28674   6 
  -6   0  11 54.5701 8.48471   7 
  -6   0  11 56.6420 8.72688   1 
   5   0 -11 58.0665 7.74061  14 
   5   0 -11 42.7846 8.15719   3 
   5   0 -11 53.1363 7.46082   1 
   5   0 -11 56.6499 7.78711   8 
  -5   0  11 39.4835 7.58626   7 
  -5   0  11 50.8986 8.01245   1 
  -5   0  11 46.7818 8.00366   2 
   4   0 -11 22.7255 5.84678   3 
   4   0 -11 10.1723 4.10353   1 
   4   0 -11 20.0437 5.02602  14 
   4   0 -11 20.6905 5.56575  13 
   4   0 -11 13.8065 4.34317  10 
  -4   0  11 9.44427 4.23208   7 
  -4   0  11 19.9349 5.66985   1 
  -4   0  11 16.1123 5.67959   2 
   3   0 -11 19.2006 5.20086  10 
   3   0 -11 18.9385 5.42561   3 
   3   0 -11 14.9661 4.45340  13 
   3   0 -11 22.4063 5.95736  11 
   3   0 -11 23.2564 5.10378   1 
   3   0 -11 18.1275 4.70472  14 
  -3   0  11 13.4588 4.51147   7 
  -3   0  11 11.1681 4.59159   2 
  -3   0  11 14.2825 4.65833   1 
   2   0 -11 105.191 10.3132   3 
   2   0 -11 94.2057 10.4106  11 
   2   0 -11 82.2032 7.74907   1 
   2   0 -11 99.5634 8.89104   5 
   2   0 -11 98.9096 8.50245  14 
   2   0 -11 81.9221 9.17332  10 
   2   0 -11 98.5141 8.17527  13 
  -2   0  11 95.5758 10.2639   2 
  -2   0  11 87.5661 9.16786   7 
  -2   0  11 73.8304 8.45387   1 
   1   0 -11 78.9845 7.78154  14 
   1   0 -11 85.4143 7.49266   1 
   1   0 -11 86.4947 9.91856  10 
   1   0 -11 76.0607 8.09081   5 
   1   0 -11 97.7028 9.81632   3 
   1   0 -11 85.6653 10.2901  11 
  -1   0  11 63.6757 8.54177   7 
  -1   0  11 78.7787 9.67609   2 
  -1   0  11 81.9017 8.67130   1 
   0   0 -11 16.3917 4.17638  14 
   0   0 -11 17.0076 4.60772   5 
   0   0 -11 14.7301 3.88600   1 
   0   0 -11 23.1088 6.98248  11 
   0   0 -11 18.2962 5.64485   3 
   0   0 -11 8.96670 4.66308  10 
   0   0  11 11.8712 4.92932   2 
   0   0  11 11.1260 4.51559   7 
   0   0  11 18.6384 5.48483   2 
   0   0  11 8.59685 3.86866   1 
  -1   0 -11 9.16228 3.49636  14 
  -1   0 -11 15.3731 3.75485   1 
  -1   0 -11 15.3489 5.95711  11 
  -1   0 -11 10.9495 3.93644   5 
  -1   0 -11 11.4301 5.62167  10 
  -1   0 -11 4.16998 4.37591   3 
   1   0  11 9.43009 3.92366   1 
   1   0  11 8.74154 5.04534   2 
  -2   0 -11 22.2847 6.93930  11 
  -2   0 -11 17.7897 4.47392  14 
  -2   0 -11 19.3909 5.08739   5 
   2   0  11 24.1736 7.11745   2 
   2   0  11 24.5339 6.63022   1 
  -3   0 -11 9.13372 3.92385  14 
  -3   0 -11 18.0813 6.93416  11 
  -3   0 -11 4.58324 4.02881   5 
   3   0  11 9.07092 4.98897   1 
   3   0  11 10.7131 5.83586   2 
   8  -1 -11 5.78388 5.01292  14 
   8  -1 -11 0.42678 4.24250   6 
   8  -1 -11 3.46006 4.50994   1 
  -8   1  11 9.63205 5.45028   7 
  -8   1  11 -2.3609 4.08890   1 
   7  -1 -11 24.5267 6.46375   1 
   7  -1 -11 23.7804 6.44075   6 
   7  -1 -11 10.8434 4.87249  14 
  -7   1  11 18.2979 5.95063   1 
  -7   1  11 32.0389 7.63759   7 
   6  -1 -11 57.3535 7.70076   1 
   6  -1 -11 45.7652 8.69625  13 
   6  -1 -11 40.7652 6.98542   6 
   6  -1 -11 49.3689 8.90293   3 
   6  -1 -11 55.6805 7.55853   8 
   6  -1 -11 51.9017 8.37975  14 
  -6   1  11 66.2656 14.1640   2 
  -6   1  11 49.2242 8.38527   1 
  -6   1  11 45.4843 8.18628   7 
   5  -1 -11 29.5382 5.77944   1 
   5  -1 -11 29.6720 7.13494  13 
   5  -1 -11 23.7497 5.06845   6 
   5  -1 -11 18.6478 5.99392   3 
   5  -1 -11 19.1652 5.00296  14 
  -5   1  11 21.1875 5.93796   2 
  -5   1  11 29.8985 7.02603   1 
  -5   1  11 23.2352 6.25945   7 
   4  -1 -11 2.17685 3.06898  10 
   4  -1 -11 6.95212 3.11137   1 
   4  -1 -11 1.61648 3.46877  13 
   4  -1 -11 5.09897 3.15915  14 
   4  -1 -11 3.59525 3.69857   3 
  -4   1  11 -0.0889 3.00860   7 
  -4   1  11 5.21985 3.60433   1 
  -4   1  11 4.52698 3.75953   2 
   3  -1 -11 57.4153 5.96949   1 
   3  -1 -11 47.3490 8.28897  11 
   3  -1 -11 54.4782 7.33043  13 
   3  -1 -11 44.8403 6.40631  14 
   3  -1 -11 58.9615 8.11849   3 
   3  -1 -11 56.9617 7.76605  10 
  -3   1  11 57.9220 7.82062   7 
  -3   1  11 57.6704 7.52693   1 
  -3   1  11 49.3173 8.08752   2 
   2  -1 -11 79.3724 9.16496  10 
   2  -1 -11 75.0781 6.43662   1 
   2  -1 -11 76.3246 7.70859  13 
   2  -1 -11 70.4988 7.17988   5 
   2  -1 -11 81.0617 9.20232   3 
   2  -1 -11 76.7740 7.41130  14 
   2  -1 -11 73.3246 9.57490  11 
  -2   1  11 88.4446 9.94070   2 
  -2   1  11 76.8667 8.68646   7 
  -2   1  11 75.4415 8.36879   1 
   1  -1 -11 76.6413 7.51159   5 
   1  -1 -11 65.5652 9.37561  11 
   1  -1 -11 80.3348 9.83008  10 
   1  -1 -11 70.8789 8.88490   3 
   1  -1 -11 71.3323 6.84014  14 
   1  -1 -11 69.8602 6.94983   5 
  -1   1  11 76.3521 8.38490   1 
  -1   1  11 86.9372 9.07653   7 
  -1   1  11 68.1178 9.34871   2 
   0  -1 -11 9.20934 3.71903   5 
   0  -1 -11 5.45792 3.02062  14 
   0  -1 -11 6.44786 4.47222   3 
   0  -1 -11 2.63184 3.99127  11 
   0  -1 -11 11.6110 5.09289  10 
   0  -1 -11 8.73181 3.07994   5 
   0   1  11 9.09333 4.62940   2 
   0   1  11 5.66985 3.55156   1 
   0   1  11 18.1906 5.62553   7 
  -1  -1 -11 50.8940 9.04150  11 
  -1  -1 -11 51.0523 6.12478  14 
  -1  -1 -11 46.0243 6.34727   5 
   1   1  11 39.1688 7.05333   1 
   1   1  11 55.7384 8.91830   2 
  -2  -1 -11 25.6223 5.28892   5 
  -2  -1 -11 39.1074 5.62981  14 
  -2  -1 -11 41.8395 8.79088  11 
   2   1  11 36.5871 8.61383   2 
   8  -2 -11 3.99388 4.23803   1 
   8  -2 -11 27.4578 7.30265   6 
  -8   2  11 11.7550 5.81405   1 
  -8   2  11 25.1406 8.04879   7 
   7  -2 -11 6.27148 3.82890   8 
   7  -2 -11 11.2658 4.43409   1 
   7  -2 -11 16.9320 5.70555   6 
   7  -2 -11 7.92277 4.47289  14 
  -7   2  11 3.66433 4.52487   1 
  -7   2  11 11.0749 5.50052  12 
  -7   2  11 7.32773 5.22567   7 
   6  -2 -11 7.28722 3.41727   1 
   6  -2 -11 5.57478 3.73298  14 
   6  -2 -11 8.40111 4.29221   6 
   6  -2 -11 9.57662 5.19329  13 
  -6   2  11 10.1264 4.68865   7 
  -6   2  11 4.71793 4.38350   1 
  -6   2  11 6.41702 3.96926   2 
  -6   2  11 3.68885 4.00215  12 
   5  -2 -11 7.17905 3.48032   6 
   5  -2 -11 12.7946 5.29649  13 
   5  -2 -11 6.94005 4.45534   3 
   5  -2 -11 7.35242 2.99747   1 
   5  -2 -11 7.83725 3.74044  14 
  -5   2  11 6.51652 4.53798   2 
  -5   2  11 1.19195 3.50382   1 
  -5   2  11 7.04740 4.38474   7 
   4  -2 -11 14.1898 4.04965  14 
   4  -2 -11 23.9845 6.07947   5 
   4  -2 -11 15.5598 4.67182   1 
   4  -2 -11 11.9886 4.96730  13 
   4  -2 -11 15.0185 5.42614   3 
   4  -2 -11 10.1742 4.32757  10 
   4  -2 -11 24.4370 6.05724   6 
  -4   2  11 11.4242 4.43387   1 
  -4   2  11 17.0505 5.64079   2 
  -4   2  11 15.5715 5.06633   7 
   3  -2 -11 63.7701 8.74167  10 
   3  -2 -11 40.9570 5.55365   5 
   3  -2 -11 45.5473 8.39710  11 
   3  -2 -11 49.9649 5.96149  14 
   3  -2 -11 55.0744 7.82913  13 
   3  -2 -11 60.9370 8.27016   3 
  -3   2  11 52.2812 8.26351   2 
  -3   2  11 56.6085 7.35440   1 
  -3   2  11 54.6688 7.98517   7 
   2  -2 -11 32.3549 6.76838   3 
   2  -2 -11 31.9332 4.68613  14 
   2  -2 -11 26.3110 6.70348  11 
   2  -2 -11 27.5526 6.90121  10 
   2  -2 -11 27.9697 4.59994   5 
   2  -2 -11 30.1567 5.93325  13 
  -2   2  11 36.8926 6.93680   7 
  -2   2  11 32.6501 7.21676   2 
  -2   2  11 33.2450 6.29504   1 
   1  -2 -11 2.94374 4.26060  11 
   1  -2 -11 4.12445 2.79299   5 
   1  -2 -11 4.27116 2.36489  14 
   1  -2 -11 1.54697 3.97356  10 
   1  -2 -11 6.20571 3.93392   3 
  -1   2  11 4.24348 3.77712   7 
  -1   2  11 0.50044 3.60260   1 
  -1   2  11 2.44826 3.56531   2 
   0  -2 -11 11.0362 5.30532  11 
   0  -2 -11 11.1408 2.70442  14 
   0   2  11 10.8203 5.17639   7 
   0   2  11 7.10183 4.52817   2 
  -1  -2 -11 29.1573 7.97813  11 
  -1  -2 -11 34.6957 5.00558   5 
  -1  -2 -11 29.4414 3.82078  14 
   1   2  11 25.2709 6.48384   7 
   1   2  11 44.2994 8.50369   2 
  -2  -2 -11 0.59747 5.07066  11 
   2   2  11 9.58438 5.59747   2 
   8  -3 -11 -3.3214 3.78505   6 
  -8   3  11 2.35318 4.26344   1 
  -8   3  11 -1.3891 4.24328   7 
   7  -3 -11 -1.2216 3.32641   6 
  -7   3  11 6.18689 4.88996   7 
  -7   3  11 0.16817 3.84982   1 
  -7   3  11 1.07649 4.39573  12 
  -7   3  11 1.55435 4.09800   2 
   6  -3 -11 33.1359 6.63378   6 
   6  -3 -11 17.9252 6.56710  13 
  -6   3  11 30.1673 7.58707  12 
  -6   3  11 24.9443 6.66840   7 
  -6   3  11 26.6105 7.39126   2 
  -6   3  11 16.6979 5.80845   1 
   5  -3 -11 84.0816 7.34825  14 
   5  -3 -11 79.5359 8.38653   6 
   5  -3 -11 79.7516 10.1122  13 
   5  -3 -11 75.2860 7.00479   5 
   5  -3 -11 68.3042 8.85628  10 
  -5   3  11 72.3604 9.92182   2 
  -5   3  11 81.7490 9.62596   1 
  -5   3  11 64.4194 9.05271   7 
   4  -3 -11 41.9101 7.96061  13 
   4  -3 -11 35.3128 6.04576   6 
   4  -3 -11 36.9730 5.23907   5 
   4  -3 -11 20.8038 5.95258  10 
   4  -3 -11 31.7523 4.82984  14 
   4  -3 -11 24.0246 9.27821   3 
  -4   3  11 44.4092 7.80266   7 
  -4   3  11 47.3417 8.37508   2 
  -4   3  11 38.8050 6.97463   1 
   3  -3 -11 34.0304 7.24483   3 
   3  -3 -11 22.7638 6.63570  11 
   3  -3 -11 35.5486 7.20458  10 
   3  -3 -11 38.6721 7.30708  13 
   3  -3 -11 33.0255 4.61356   5 
   3  -3 -11 31.4658 4.05492  14 
  -3   3  11 24.6696 6.26135   7 
  -3   3  11 23.1644 6.12115   2 
   2  -3 -11 23.0275 6.53800  10 
   2  -3 -11 16.7336 5.20577  13 
   2  -3 -11 16.1774 6.19277  11 
  -2   3  11 15.2219 5.37035   7 
  -2   3  11 20.1812 5.78792   2 
   1  -3 -11 4.87629 4.43645  11 
  -1   3  11 7.36843 4.67274   2 
  -1   3  11 7.91232 4.42392   7 
   0  -3 -11 23.2009 6.97349  11 
   0   3  11 37.0478 7.80706   2 
   0   3  11 37.6085 7.56879   7 
   0   3  11 35.0435 7.69021   2 
  -1  -3 -11 41.2302 8.61504  11 
   1   3  11 17.9196 6.11794   7 
   1   3  11 44.0252 8.45111   2 
   7  -4 -11 15.2960 5.49564   6 
  -7   4  11 3.80519 7.28474   1 
  -7   4  11 9.95394 5.95768   2 
  -7   4  11 23.6252 6.55312   7 
   6  -4 -11 15.7116 5.39750   6 
   6  -4 -11 25.7484 5.03633   5 
  -6   4  11 45.2153 8.39889   7 
  -6   4  11 27.5683 7.44103   2 
   5  -4 -11 63.6442 9.85883  13 
   5  -4 -11 58.6163 8.91680  10 
   5  -4 -11 56.7308 5.83206   5 
   5  -4 -11 47.7490 7.85527   6 
  -5   4  11 48.8973 8.80805   7 
  -5   4  11 67.2594 9.85438   2 
   4  -4 -11 21.7777 6.36793  10 
   4  -4 -11 20.4008 5.37207   6 
   4  -4 -11 12.1123 5.65998  13 
  -4   4  11 27.7145 6.95761   2 
  -4   4  11 33.7193 7.03009   7 
   3  -4 -11 26.7669 6.95670  13 
   3  -4 -11 19.9694 7.21301  10 
  -3   4  11 10.4367 4.68432   7 
  -3   4  11 11.3073 5.26932   2 
   2  -4 -11 19.1586 6.50651  11 
   2  -4 -11 28.7382 6.79294  13 
  -2   4  11 9.79231 4.91752   2 
  -2   4  11 13.2366 5.26727   7 
   1  -4 -11 36.5906 8.51845  11 
  -1   4  11 30.2937 6.93385   7 
  -1   4  11 35.1410 7.92095   2 
   0  -4 -11 18.1781 6.54830  11 
   0   4  11 26.7397 6.99092   2 
   0   4  11 18.9294 6.24516   2 
   0   4  11 22.2396 6.21286   7 
   6  -5 -11 60.5407 9.54156   6 
  -6   5  11 58.5339 10.0399   2 
  -6   5  11 58.3299 9.64727   7 
   5  -5 -11 17.3102 5.61240   6 
  -5   5  11 37.3361 8.21644   2 
  -5   5  11 38.6786 7.51958   7 
   4  -5 -11 10.0949 4.71726   6 
   4  -5 -11 12.6049 5.86877  13 
  -4   5  11 9.35801 4.85900   2 
  -4   5  11 10.4085 5.08181   7 
   3  -5 -11 58.9520 9.28190  13 
   3  -5 -11 57.4227 9.52881   6 
  -3   5  11 44.6209 8.11395   7 
  -3   5  11 38.1887 7.82366   2 
   2  -5 -11 32.5582 7.91667  13 
   2  -5 -11 30.4532 8.10699  11 
  -2   5  11 23.1403 6.25845   2 
  -2   5  11 19.7224 5.69256   7 
   1  -5 -11 16.9872 6.69928  11 
  -1   5  11 41.8963 7.95820   7 
  -1   5  11 34.7675 7.72451   2 
   5  -6 -11 5.71388 4.65575   6 
  -5   6  11 26.5851 7.38233   2 
  -5   6  11 16.0890 5.81921   7 
   4  -6 -11 18.9326 6.67320   6 
  -4   6  11 14.0017 5.80019   2 
  -4   6  11 13.5871 5.34887   7 
   3  -6 -11 37.0825 7.96952   6 
  -3   6  11 32.8076 7.18979   7 
  -3   6  11 34.0440 7.74081   2 
   2   9 -12 63.3006 11.3093   1 
  -2  -9  12 48.1781 8.88230  14 
  -2  -9  12 47.8309 8.38573   1 
   1   9 -12 35.4375 8.22005   1 
  -1  -9  12 32.0109 7.59829   9 
  -1  -9  12 34.4688 7.57168   1 
  -1  -9  12 42.4281 8.10561  14 
   0   9 -12 18.7273 7.00235   1 
   0  -9  12 23.3978 6.11601  14 
   0  -9  12 18.5869 6.46172   9 
   0  -9  12 19.6582 5.90523   1 
  -1   9 -12 15.6318 6.51255   1 
  -1   9 -12 22.2899 6.69868  11 
   1  -9  12 25.2223 8.68642   7 
   1  -9  12 27.8699 6.89411  14 
   1  -9  12 43.1731 8.42059   1 
   1  -9  12 18.6127 6.53137   9 
   3   8 -12 13.5772 6.36139   1 
  -3  -8  12 16.3272 5.42458   1 
  -3  -8  12 20.7460 5.77678  14 
   2   8 -12 57.7555 10.6787   8 
   2   8 -12 71.8049 11.1682   1 
  -2  -8  12 60.9884 9.08188   1 
  -2  -8  12 67.3506 8.14892   7 
  -2  -8  12 52.2447 8.90305  14 
   1   8 -12 24.7328 7.31203   1 
   1   8 -12 22.1760 6.49048  11 
  -1  -8  12 23.4718 6.71513   9 
  -1  -8  12 23.7536 6.38730  14 
  -1  -8  12 16.1700 5.05680   7 
  -1  -8  12 21.4191 6.32497   1 
   0   8 -12 0.43228 4.06314  11 
   0   8 -12 -1.4206 4.18621   1 
   0  -8  12 0.55423 3.25469   7 
   0  -8  12 6.11374 4.36953   9 
   0  -8  12 1.75601 3.91588   1 
  -1   8 -12 -1.8728 4.05811   1 
  -1   8 -12 8.27433 5.48393  11 
   1  -8  12 1.01822 4.26359   9 
   1  -8  12 4.22497 4.04126   1 
   1  -8  12 5.06472 4.11721   7 
  -2   8 -12 23.3420 7.70606  11 
  -2   8 -12 27.0475 7.77073   1 
   2  -8  12 19.9714 6.90975   9 
   2  -8  12 20.5408 6.19343   7 
   2  -8  12 23.3011 6.94689   1 
   4   7 -12 12.6265 5.93373   1 
  -4  -7  12 8.61791 4.46819   7 
  -4  -7  12 5.82451 5.68574  14 
  -4  -7  12 13.8695 5.47007   1 
   3   7 -12 64.0901 10.6089   8 
   3   7 -12 78.2396 11.3086   1 
  -3  -7  12 81.5344 9.97862   1 
  -3  -7  12 71.4951 8.96552   7 
   2   7 -12 99.7582 11.8588   1 
   2   7 -12 76.8646 9.60853  11 
   2   7 -12 72.2834 10.5628   8 
  -2  -7  12 82.7135 8.99307   7 
  -2  -7  12 79.2999 9.82885   1 
   1   7 -12 30.9806 7.21438  11 
   1   7 -12 31.1366 7.61470   1 
  -1  -7  12 30.7587 7.04323   1 
  -1  -7  12 26.5705 6.79416   9 
  -1  -7  12 34.0113 6.81902   7 
   0   7 -12 9.77775 5.18891  11 
   0   7 -12 8.01443 5.21867   1 
   0  -7  12 2.45231 3.60006   9 
   0  -7  12 3.27992 4.36818   1 
   0  -7  12 1.14320 3.60134   7 
  -1   7 -12 43.7506 8.98869  11 
  -1   7 -12 59.5907 10.2294   1 
   1  -7  12 44.3772 8.34437   9 
   1  -7  12 54.0941 9.05711   1 
   1  -7  12 40.6463 7.86816   7 
  -2   7 -12 62.3690 10.7761   1 
  -2   7 -12 58.2795 10.4379  11 
   2  -7  12 58.9184 9.33339   1 
   2  -7  12 51.8420 8.92059   9 
  -3   7 -12 21.2714 7.81147  11 
   3  -7  12 20.3563 6.58018   9 
   5   6 -12 2.02275 5.19052   1 
  -5  -6  12 7.56741 4.67704   7 
  -5  -6  12 6.47932 4.37551   1 
   4   6 -12 9.15136 5.88649   1 
   4   6 -12 6.06747 5.45512   8 
  -4  -6  12 13.5337 5.60292   1 
  -4  -6  12 20.9014 5.89090   7 
   3   6 -12 41.2543 8.18217  11 
   3   6 -12 35.0102 7.77962   1 
   3   6 -12 43.1792 8.97473   8 
  -3  -6  12 42.4699 7.61339   7 
  -3  -6  12 44.1244 8.21706   1 
   2   6 -12 14.6939 6.16876   1 
   2   6 -12 7.41773 4.59250  11 
   2   6 -12 6.20887 4.85526   8 
  -2  -6  12 9.91155 4.68889   1 
  -2  -6  12 14.1751 4.84171   7 
   1   6 -12 14.6714 5.53365  11 
   1   6 -12 13.6651 5.47057   1 
  -1  -6  12 5.71327 4.35091   1 
  -1  -6  12 12.9194 4.87583   7 
  -1  -6  12 10.1555 4.86655   9 
   0   6 -12 32.9602 7.80843  11 
   0   6 -12 43.5661 8.68074   1 
   0  -6  12 27.1743 6.58030   9 
   0  -6  12 31.9220 7.06751   7 
   0  -6  12 28.6567 6.67171   1 
  -1   6 -12 58.4452 9.80354   1 
  -1   6 -12 52.0371 9.55305  11 
   1  -6  12 67.4145 9.21323   7 
   1  -6  12 43.5491 7.88781   9 
   1  -6  12 57.7816 8.84265   1 
  -2   6 -12 34.3291 8.48503  11 
  -2   6 -12 30.5556 7.49539   1 
   2  -6  12 36.7197 7.65607   9 
   2  -6  12 34.6189 7.75676   1 
  -3   6 -12 7.48861 6.22487  11 
  -3   6 -12 2.89265 5.56287   1 
   3  -6  12 1.71468 5.80733   1 
   3  -6  12 9.31254 5.57222   9 
  -6  -5  12 16.7427 9.39474   1 
  -6  -5  12 1.09332 4.08613   7 
   5   5 -12 15.4326 6.08838   1 
  -5  -5  12 13.9989 5.51389   1 
  -5  -5  12 22.2365 6.19893   7 
   4   5 -12 15.6221 6.16229   8 
   4   5 -12 7.36177 5.31464   1 
  -4  -5  12 10.9671 4.95928   7 
  -4  -5  12 11.5427 4.77357   1 
   3   5 -12 27.5464 6.87929   1 
   3   5 -12 22.4979 6.37669  11 
   3   5 -12 27.4838 7.18968   8 
  -3  -5  12 19.9809 5.53740   7 
  -3  -5  12 21.6198 6.18306   1 
   2   5 -12 19.6107 6.08164   1 
   2   5 -12 25.3746 6.95153   3 
   2   5 -12 20.6105 6.43033  11 
  -2  -5  12 23.5133 5.81363   9 
  -2  -5  12 28.4900 6.91959   1 
  -2  -5  12 22.7907 5.86505   7 
   1   5 -12 32.1230 7.69929  11 
   1   5 -12 20.3367 6.81860   3 
   1   5 -12 36.6709 7.74479   1 
  -1  -5  12 28.3846 5.82262   9 
  -1  -5  12 29.2768 6.71025   7 
  -1  -5  12 35.5728 7.60198   1 
   0   5 -12 32.8155 7.96609   3 
   0   5 -12 20.7652 6.49009  11 
   0   5 -12 47.2157 8.55674   1 
   0  -5  12 50.8454 8.36879   7 
   0  -5  12 51.0992 7.40463   9 
   0  -5  12 48.0058 8.18495   1 
  -1   5 -12 27.5051 7.79090   3 
  -1   5 -12 24.2528 6.92925   1 
  -1   5 -12 48.0978 9.35799  11 
   1  -5  12 26.3914 6.89215   1 
   1  -5  12 21.7202 5.97284   9 
   1  -5  12 32.7082 7.21260   7 
  -2   5 -12 7.29561 4.95611   1 
  -2   5 -12 10.9801 5.95150  11 
  -2   5 -12 2.55587 4.80027   3 
   2  -5  12 9.04079 4.64729   9 
   2  -5  12 4.41905 4.56105   1 
  -3   5 -12 6.50790 5.11519   1 
  -3   5 -12 10.7341 6.26485  11 
   3  -5  12 6.26540 5.15484   1 
   3  -5  12 0.18477 3.36060   9 
   6   4 -12 12.4261 6.20173   1 
  -6  -4  12 28.8847 7.53439   1 
  -6  -4  12 22.0676 6.24156   7 
   5   4 -12 24.0761 6.98046   1 
  -5  -4  12 11.8981 5.34335   7 
  -5  -4  12 22.9378 6.45637   1 
   4   4 -12 6.01888 4.70830   8 
   4   4 -12 5.52937 4.79530   3 
   4   4 -12 14.0685 5.68269   1 
  -4  -4  12 10.4574 4.58301   1 
  -4  -4  12 9.91972 5.04420   7 
   3   4 -12 16.1158 5.92217   8 
   3   4 -12 16.6799 6.09606  11 
   3   4 -12 20.3720 6.42734   3 
   3   4 -12 8.09020 4.64451   1 
  -3  -4  12 9.90652 4.50441   7 
  -3  -4  12 11.3864 5.04199   1 
   2   4 -12 51.1917 8.93542   3 
   2   4 -12 46.1431 8.34874   1 
   2   4 -12 51.4393 8.80837  11 
  -2  -4  12 43.3571 7.81008   1 
  -2  -4  12 48.4975 7.65529   7 
   1   4 -12 54.7802 9.34997  11 
   1   4 -12 52.3567 8.95382   3 
   1   4 -12 54.6158 8.75164   1 
  -1  -4  12 60.4084 8.28744   7 
  -1  -4  12 73.4902 9.11532   1 
   0   4 -12 52.2348 8.36835   1 
   0   4 -12 44.0165 8.78436   3 
   0   4 -12 41.2259 8.39117  11 
   0   4 -12 50.5940 9.49084  14 
   0  -4  12 59.5445 8.52371   7 
   0  -4  12 49.4935 8.28223   1 
  -1   4 -12 22.6417 6.72955  11 
  -1   4 -12 20.1597 6.51122   3 
  -1   4 -12 25.8180 6.51281   1 
  -1   4 -12 22.5114 5.92646  14 
   1  -4  12 28.8658 6.87362   7 
   1  -4  12 43.9551 8.28279   1 
  -2   4 -12 11.8754 5.93899  11 
  -2   4 -12 28.6500 6.68451  14 
  -2   4 -12 14.6660 5.71531   1 
   2  -4  12 3.46959 4.49763   1 
  -3   4 -12 7.17879 4.94890   1 
  -3   4 -12 8.98106 4.86733  14 
  -3   4 -12 10.7752 6.73143  11 
   3  -4  12 3.97456 4.60004   1 
  -7  -3  12 4.42317 5.09019   7 
   6   3 -12 4.37311 4.58290   1 
  -6  -3  12 6.35564 4.54188   1 
  -6  -3  12 10.5196 5.71666   7 
   5   3 -12 32.5897 8.47907   8 
   5   3 -12 19.0000 6.13339   1 
   5   3 -12 41.5910 9.00758   3 
  -5  -3  12 24.2740 6.66618   1 
  -5  -3  12 27.9024 6.78416   7 
   4   3 -12 22.2319 6.39586   8 
   4   3 -12 41.2822 8.07373   1 
   4   3 -12 33.6661 7.74977   3 
  -4  -3  12 39.0813 7.98210   1 
  -4  -3  12 32.5742 6.90207   7 
   3   3 -12 71.0090 9.27764  14 
   3   3 -12 64.8294 9.79308   3 
   3   3 -12 79.3638 9.61292   1 
   3   3 -12 63.9513 9.35550  11 
  -3  -3  12 77.2091 9.03580   7 
  -3  -3  12 79.2879 9.45409   1 
   2   3 -12 22.7431 6.36422   3 
   2   3 -12 35.4879 7.70316  11 
   2   3 -12 38.1813 7.46108  14 
   2   3 -12 35.4734 7.55624   1 
  -2  -3  12 41.9467 7.61664   1 
  -2  -3  12 26.2690 6.19416   7 
   1   3 -12 28.4902 6.40328   1 
   1   3 -12 27.9372 6.41022  14 
   1   3 -12 19.4626 6.65748  11 
   1   3 -12 29.8752 7.33985   3 
  -1  -3  12 33.2052 6.96942   1 
  -1  -3  12 28.2684 6.37392   7 
   0   3 -12 15.5055 5.21336   1 
   0   3 -12 4.40587 4.02069   3 
   0   3 -12 22.8316 5.76916  14 
   0   3 -12 11.2127 5.21868  11 
   0  -3  12 10.2841 4.54520   1 
   0  -3  12 13.2947 5.22530   7 
  -1   3 -12 39.2574 7.63250  14 
  -1   3 -12 37.8312 8.71696  11 
  -1   3 -12 35.2072 8.01637   3 
  -1   3 -12 50.8260 7.82488   1 
   1  -3  12 36.4595 7.75493   1 
  -2   3 -12 12.2408 6.51235  11 
  -2   3 -12 20.3703 5.77761  14 
  -2   3 -12 21.3985 5.83779   1 
   2  -3  12 16.9316 6.19924   1 
  -3   3 -12 4.79986 4.12584  14 
  -3   3 -12 8.75591 6.41930  11 
  -3   3 -12 5.32733 4.55743   1 
   3  -3  12 8.71656 4.97210   1 
   7   2 -12 19.2122 6.67944   1 
  -7  -2  12 16.6523 6.41242   7 
  -7  -2  12 14.8254 5.80836   1 
   6   2 -12 22.8331 6.57000   1 
   6   2 -12 17.1991 6.65040   3 
  -6  -2  12 18.4343 6.01836   1 
  -6  -2  12 17.9451 6.07195   7 
   5   2 -12 17.5857 6.38396   3 
   5   2 -12 24.8431 7.84262  14 
   5   2 -12 19.7707 5.90872   1 
   5   2 -12 17.3944 5.55214   8 
  -5  -2  12 19.8448 5.85189   7 
  -5  -2  12 17.1267 5.56924   1 
   4   2 -12 30.6134 6.98984   8 
   4   2 -12 25.1508 6.24101   1 
   4   2 -12 17.4389 5.09579  14 
   4   2 -12 13.7464 5.58098   3 
  -4  -2  12 29.8790 6.51841   7 
  -4  -2  12 28.5609 7.00425   1 
   3   2 -12 35.3408 7.87702   3 
   3   2 -12 38.3766 7.27242  14 
   3   2 -12 34.1323 7.18193   1 
   3   2 -12 46.7690 8.33672  11 
   3   2 -12 33.6129 6.49010  10 
  -3  -2  12 40.1465 7.52425   1 
  -3  -2  12 29.1865 6.72342   7 
   2   2 -12 42.5870 7.30312   1 
   2   2 -12 44.1429 8.47947  11 
   2   2 -12 37.7389 8.09709   3 
   2   2 -12 39.7318 7.16254  14 
  -2  -2  12 28.3945 6.40874   1 
  -2  -2  12 30.8389 6.88485   7 
   1   2 -12 38.0731 8.47278  11 
   1   2 -12 23.6070 6.61148   3 
   1   2 -12 32.7088 6.71738   1 
   1   2 -12 21.3573 5.79772   5 
   1   2 -12 31.9676 6.52196  14 
  -1  -2  12 32.1627 7.01492   1 
  -1  -2  12 25.5253 6.24541   7 
   0   2 -12 17.0251 6.02542   3 
   0   2 -12 25.4259 7.51707  11 
   0   2 -12 19.9640 5.52411   1 
   0   2 -12 9.36903 4.47185  14 
   0   2 -12 23.6263 6.25163   5 
   0  -2  12 23.1938 6.13779   1 
   0  -2  12 23.5537 6.31466   7 
  -1   2 -12 39.5423 7.22349   1 
  -1   2 -12 55.5156 9.68494  11 
  -1   2 -12 44.9024 7.55299   5 
  -1   2 -12 41.4273 7.31785  14 
   1  -2  12 46.2763 8.29053   1 
  -2   2 -12 15.8147 4.96619   1 
  -2   2 -12 21.2918 5.86779  14 
  -2   2 -12 19.6029 6.01023   5 
  -2   2 -12 19.3452 7.11471  11 
   2  -2  12 21.4856 6.33521   1 
  -3   2 -12 30.8874 8.22018   5 
   7   1 -12 7.92218 4.99690   1 
  -7  -1  12 8.90721 4.98136   1 
  -7  -1  12 17.9745 6.43025   7 
   6   1 -12 6.85563 4.43435   1 
   6   1 -12 0.53288 3.64734  14 
  -6  -1  12 2.03134 4.39545   7 
  -6  -1  12 4.66773 4.22719   1 
   5   1 -12 5.66235 4.66764   3 
   5   1 -12 8.34432 4.14065   8 
   5   1 -12 9.06150 4.23114   1 
   5   1 -12 14.5635 5.31817  14 
  -5  -1  12 4.64077 4.36515   1 
  -5  -1  12 14.2712 5.50945   7 
   4   1 -12 17.0243 5.26276  14 
   4   1 -12 20.8964 5.53497   1 
   4   1 -12 15.8219 5.36396   3 
   4   1 -12 21.7477 5.67098  13 
  -4  -1  12 16.2963 5.55649   7 
  -4  -1  12 27.7547 6.65944   1 
   3   1 -12 6.59236 4.23954  10 
   3   1 -12 14.1056 5.23727   5 
   3   1 -12 14.1386 4.52907  14 
   3   1 -12 14.4563 5.46017   3 
   3   1 -12 20.3168 5.38582   1 
   3   1 -12 15.8798 5.97188  11 
  -3  -1  12 15.9878 5.14758   7 
  -3  -1  12 16.0377 5.19804   1 
  -3  -1  12 27.6704 11.3583   2 
   2   1 -12 6.63089 4.12102  10 
   2   1 -12 11.8178 5.19703   3 
   2   1 -12 8.81670 4.05865  14 
   2   1 -12 9.98845 4.40405   5 
   2   1 -12 5.07338 4.83360  11 
   2   1 -12 14.8036 4.67820   1 
  -2  -1  12 13.6524 4.55642   1 
  -2  -1  12 16.2357 5.44866   7 
  -2  -1  12 13.7894 5.22342   2 
   1   1 -12 2.19551 4.01926  11 
   1   1 -12 8.84078 4.97492   3 
   1   1 -12 8.16795 3.85895   5 
   1   1 -12 1.05870 2.90273  14 
   1   1 -12 3.74634 4.24414  10 
   1   1 -12 7.74141 3.54353   1 
  -1  -1  12 5.86159 3.93227   1 
  -1  -1  12 8.49764 4.60698   7 
  -1  -1  12 3.46439 3.66478   2 
   0   1 -12 8.42910 3.78795   1 
   0   1 -12 4.92732 3.47621   5 
   0   1 -12 4.85500 5.24856  11 
   0   1 -12 11.9447 4.76590  14 
   0  -1  12 9.19294 4.87124   1 
   0  -1  12 11.0420 5.45015   7 
   0  -1  12 12.1542 5.07704   2 
   0  -1  12 13.1901 5.44355   2 
  -1   1 -12 34.2642 6.19419   1 
  -1   1 -12 27.5376 5.81964  14 
  -1   1 -12 25.6966 6.26060   5 
  -1   1 -12 19.5082 7.05166  11 
   1  -1  12 27.1381 6.69085   7 
   1  -1  12 22.5628 6.70374   2 
   1  -1  12 31.7326 7.41850   1 
  -2   1 -12 26.6808 6.45818   5 
  -2   1 -12 29.2496 8.24198  11 
  -2   1 -12 23.1376 5.51081  14 
   2  -1  12 36.9214 7.82664   1 
   7   0 -12 28.5838 6.62714   1 
   7   0 -12 22.5224 6.83776  14 
  -7   0  12 28.3613 7.57842   7 
  -7   0  12 33.1182 8.08379   1 
   6   0 -12 17.4360 5.89386  14 
   6   0 -12 12.8677 4.90859   1 
  -6   0  12 7.69153 4.87872   7 
  -6   0  12 7.01040 5.17020   1 
   5   0 -12 4.94210 4.69005  13 
   5   0 -12 4.03515 3.69455  14 
   5   0 -12 8.01711 4.06019   1 
   5   0 -12 1.14877 4.83218   3 
  -5   0  12 12.3403 5.48492   1 
  -5   0  12 4.46221 4.32580   7 
   4   0 -12 27.4294 6.12323  10 
   4   0 -12 16.6107 5.36483  13 
   4   0 -12 18.3331 4.99441  14 
   4   0 -12 23.0289 5.21882   1 
   4   0 -12 16.3090 5.69141   3 
  -4   0  12 27.5870 7.37355   2 
  -4   0  12 18.0948 5.82361   1 
  -4   0  12 19.0808 6.12476   7 
   3   0 -12 90.8157 9.29187  14 
   3   0 -12 104.464 10.4669  10 
   3   0 -12 96.8465 11.2545  11 
   3   0 -12 105.576 8.99233   1 
   3   0 -12 90.4136 10.6564   3 
  -3   0  12 88.9643 10.5828   2 
  -3   0  12 90.3628 10.0953   7 
  -3   0  12 83.6801 9.61081   1 
   2   0 -12 24.3361 6.16771  10 
   2   0 -12 45.6625 9.00770  11 
   2   0 -12 39.5690 8.23148   3 
   2   0 -12 34.1306 6.30118  14 
   2   0 -12 29.4981 6.16924   5 
   2   0 -12 33.6655 5.72509   1 
  -2   0  12 18.8764 5.68139   7 
  -2   0  12 23.1422 6.03200   1 
  -2   0  12 21.5247 6.34009   2 
   1   0 -12 7.73774 4.84575  10 
   1   0 -12 8.48864 3.66763  14 
   1   0 -12 5.19178 3.88026   5 
   1   0 -12 7.41855 3.21380   1 
   1   0 -12 8.93792 5.15505  11 
  -1   0  12 13.2915 5.29710   7 
  -1   0  12 9.51556 4.50155   1 
  -1   0  12 12.2994 5.59644   2 
   0   0 -12 16.8367 4.41220  14 
   0   0 -12 21.5300 5.74025   5 
   0   0 -12 18.6823 6.83011  11 
   0   0  12 16.6393 5.99947   2 
   0   0  12 7.55762 4.95940   7 
   0   0  12 15.6670 6.46036   2 
   0   0  12 6.66979 4.65637   1 
  -1   0 -12 21.3021 7.48246  11 
  -1   0 -12 23.9271 5.74437   5 
  -1   0 -12 29.5511 5.68704  14 
   1   0  12 24.8549 6.98505   1 
   1   0  12 23.9560 6.67898   7 
   1   0  12 25.3318 7.60999   2 
  -2   0 -12 8.21170 4.25577   5 
  -2   0 -12 7.89601 4.12397  14 
  -2   0 -12 15.0861 6.76494  11 
   2   0  12 11.9229 5.37602   1 
   2   0  12 11.5763 6.09881   2 
   7  -1 -12 0.11070 3.84888   1 
   7  -1 -12 4.15953 4.18525  14 
  -7   1  12 -1.9045 3.82656   1 
  -7   1  12 -5.6688 3.85502   7 
   6  -1 -12 0.19545 3.71779  14 
   6  -1 -12 -0.7998 4.34733  13 
   6  -1 -12 8.55624 4.35138   1 
  -6   1  12 3.38619 4.58077   1 
  -6   1  12 6.35444 5.26275   7 
   5  -1 -12 45.2877 6.79967   1 
   5  -1 -12 42.9927 7.34588  14 
   5  -1 -12 36.6342 8.14506  13 
  -5   1  12 36.5037 7.66255   7 
  -5   1  12 35.6067 8.01365   2 
  -5   1  12 38.9070 8.08085   1 
   4  -1 -12 52.3708 8.02007  10 
   4  -1 -12 74.7307 8.05974  14 
   4  -1 -12 68.9151 7.07593   1 
   4  -1 -12 60.8720 8.51217  13 
  -4   1  12 67.5381 9.26088   1 
  -4   1  12 68.7382 10.1968   2 
  -4   1  12 59.0522 8.80307   7 
   3  -1 -12 30.2425 5.78108   1 
   3  -1 -12 23.0752 7.26287  11 
   3  -1 -12 31.8119 6.96222  10 
   3  -1 -12 30.0549 5.94589  14 
  -3   1  12 29.5859 6.22953   1 
  -3   1  12 25.7827 6.91175   2 
  -3   1  12 32.1308 6.97666   7 
   2  -1 -12 23.6715 7.24641  11 
   2  -1 -12 25.2670 5.02619  14 
   2  -1 -12 33.4029 7.55887  10 
  -2   1  12 40.7984 8.15113   2 
  -2   1  12 30.9608 6.96894   7 
  -2   1  12 29.9501 6.65628   1 
   1  -1 -12 5.70223 4.97342  11 
   1  -1 -12 10.9036 3.98134  14 
  -1   1  12 7.32700 4.86346   7 
  -1   1  12 7.42106 5.10064   2 
  -1   1  12 6.14162 4.52425   1 
   0  -1 -12 40.5806 9.04984  11 
   0  -1 -12 47.9731 6.63632   5 
   0  -1 -12 48.0590 6.22422  14 
   0   1  12 53.1451 9.32257   2 
   0   1  12 51.9951 8.86118   7 
   0   1  12 34.8897 8.30681   2 
   0   1  12 42.5517 8.06850   1 
  -1  -1 -12 44.7127 6.00856  14 
  -1  -1 -12 40.7413 9.23143  11 
  -1  -1 -12 40.0716 6.59606   5 
   1   1  12 52.9925 9.74527   2 
   1   1  12 54.8727 8.96192   7 
   7  -2 -12 5.73035 4.38161  14 
  -7   2  12 1.99786 4.46261   1 
  -7   2  12 4.86009 5.06732   7 
   6  -2 -12 9.19593 4.41935  14 
  -6   2  12 7.56727 5.07027   1 
  -6   2  12 7.51821 5.02681   2 
  -6   2  12 8.66101 5.27930   7 
   5  -2 -12 34.1715 6.51648  14 
   5  -2 -12 30.3742 7.64596  13 
  -5   2  12 32.4366 8.31234   2 
  -5   2  12 25.1808 6.83144   1 
  -5   2  12 46.4689 8.44026   7 
   4  -2 -12 42.6311 8.28079  13 
   4  -2 -12 32.4503 7.21047  10 
   4  -2 -12 28.6146 5.81280  14 
  -4   2  12 34.7261 7.26133   7 
  -4   2  12 47.8208 7.89624   1 
  -4   2  12 46.6416 9.15795   2 
   3  -2 -12 6.09874 6.12080  13 
   3  -2 -12 4.23855 2.83958   5 
   3  -2 -12 1.47970 3.51023  10 
   3  -2 -12 -0.4062 4.34488  11 
   3  -2 -12 6.24120 3.02666  14 
  -3   2  12 1.79823 4.08819   2 
  -3   2  12 4.60039 3.86846   1 
  -3   2  12 -0.3171 3.48604   7 
   2  -2 -12 1.33917 2.43233  14 
   2  -2 -12 2.05641 2.36445   5 
   2  -2 -12 2.26209 4.46303  11 
  -2   2  12 2.07360 3.67336   2 
  -2   2  12 2.03003 3.82804   7 
   1  -2 -12 10.2685 5.94702  11 
   1  -2 -12 13.7748 3.13376  14 
  -1   2  12 12.3148 5.07697   7 
  -1   2  12 17.8036 6.29380   2 
   0  -2 -12 19.6786 7.16100  11 
   0   2  12 33.2061 7.96671   2 
   0   2  12 26.3852 7.45675   7 
   0   2  12 20.2939 6.65780   2 
  -6   3  12 48.5231 9.34501   1 
  -6   3  12 60.6230 10.2480   2 
  -6   3  12 59.6785 9.72151   7 
   5  -3 -12 38.0172 8.47169  13 
   5  -3 -12 33.3841 5.81297   5 
  -5   3  12 55.8115 9.32354   7 
  -5   3  12 43.7455 9.06435   2 
   4  -3 -12 1.43842 4.26081  10 
   4  -3 -12 4.09472 4.68946  13 
   4  -3 -12 6.21125 2.85405   5 
  -4   3  12 8.27662 5.03288   7 
  -4   3  12 3.69654 4.21263   2 
   3  -3 -12 7.57741 2.82649   5 
   3  -3 -12 8.54983 5.32245  11 
  -3   3  12 3.66329 4.12337   2 
  -3   3  12 1.58476 3.93142   7 
   2  -3 -12 31.2534 8.29342  11 
  -2   3  12 14.9853 5.85433   2 
  -2   3  12 22.8822 6.10749   7 
   1  -3 -12 46.5457 10.0113  11 
  -1   3  12 32.5669 7.94223   2 
  -1   3  12 32.9304 7.61296   7 
  -5   4  12 17.7304 6.44984   2 
  -5   4  12 14.6621 5.69890   7 
   4  -4 -12 6.80328 6.42455  13 
  -4   4  12 0.22822 4.49448   7 
  -4   4  12 8.18367 5.01060   2 
  -3   4  12 18.5249 5.81533   7 
  -3   4  12 23.4254 7.07445   2 
   2  -4 -12 19.9377 7.62088  11 
  -2   4  12 17.9260 6.28534   2 
  -2   4  12 22.1142 6.63258   7 
   3   7 -13 25.7661 12.4279   1 
  -3  -7  13 23.1997 7.91514   1 
  -3  -7  13 20.0867 6.26450   7 
   2   7 -13 24.3454 7.20472  11 
   2   7 -13 19.8645 7.61031   1 
  -2  -7  13 9.13131 5.02165   7 
  -2  -7  13 24.7631 7.15344   1 
   1   7 -13 14.0371 6.25298   1 
   1   7 -13 18.5804 7.11490  11 
  -1  -7  13 26.1093 6.76445   9 
  -1  -7  13 14.1175 5.82210   1 
  -1  -7  13 14.3697 5.47958   7 
   0   7 -13 58.5447 10.7091   1 
   0   7 -13 55.0933 9.51621  11 
   0  -7  13 58.2651 8.84971   9 
   0  -7  13 53.6463 8.56601   7 
   0  -7  13 45.9786 9.44544   1 
  -1   7 -13 23.6551 7.83712  11 
   1  -7  13 32.5227 8.00070   7 
   1  -7  13 35.0996 7.87785   9 
   4   6 -13 6.25980 7.21527   1 
  -4  -6  13 15.7023 7.91103   1 
  -4  -6  13 10.3591 5.06496   7 
   3   6 -13 10.6152 5.69071   1 
   3   6 -13 -0.1169 4.43171  11 
  -3  -6  13 3.20556 4.68745   1 
  -3  -6  13 10.2393 5.23281   7 
   2   6 -13 8.99909 5.84654   1 
   2   6 -13 7.93260 5.06502  11 
  -2  -6  13 5.59246 4.21378   7 
  -2  -6  13 2.28502 4.07516   1 
   1   6 -13 26.1116 7.66408  11 
   1   6 -13 33.8244 8.02738   1 
  -1  -6  13 30.2374 7.09306   7 
  -1  -6  13 41.8812 8.51937   1 
   0   6 -13 29.0817 8.22851  11 
   0   6 -13 55.9534 9.87573   1 
   0  -6  13 56.1159 9.38714   1 
   0  -6  13 42.8916 8.13297   7 
  -1   6 -13 16.0469 6.42042   1 
  -1   6 -13 13.2831 6.73533  11 
   1  -6  13 9.90750 5.45960   1 
   1  -6  13 15.8626 6.09397   7 
  -5  -5  13 2.24275 4.42323   7 
   4   5 -13 8.26936 5.69472   1 
  -4  -5  13 8.36603 4.85499   7 
  -4  -5  13 4.64330 4.41367   1 
   3   5 -13 17.4692 6.54717   1 
   3   5 -13 21.5428 6.85326  11 
  -3  -5  13 22.6488 6.90555   1 
  -3  -5  13 13.3065 5.45995   7 
   2   5 -13 43.1439 9.18672  11 
   2   5 -13 41.3204 8.79261   1 
  -2  -5  13 41.0671 7.62543   7 
  -2  -5  13 34.7017 7.84034   1 
   1   5 -13 18.8958 7.19661   3 
   1   5 -13 28.4698 7.59128  11 
   1   5 -13 35.2342 7.97260   1 
  -1  -5  13 22.7705 6.53512   7 
  -1  -5  13 41.4794 8.50356   1 
   0   5 -13 12.9661 5.77570   1 
   0   5 -13 14.7912 6.69635   3 
   0   5 -13 11.2422 6.17816  11 
   0  -5  13 20.7466 6.17812   1 
   0  -5  13 20.3204 6.42197   7 
  -1   5 -13 5.86749 5.05436   1 
  -1   5 -13 4.05187 5.49873  11 
   1  -5  13 3.71987 4.22770   1 
   1  -5  13 12.6678 5.61176   7 
   5   4 -13 7.58343 5.34533   1 
  -5  -4  13 7.50516 5.32621   1 
  -5  -4  13 2.89918 4.75237   7 
   4   4 -13 9.43280 5.51648   1 
  -4  -4  13 7.52179 5.16155   1 
  -4  -4  13 20.0918 6.46523   7 
   3   4 -13 21.4475 7.29030   3 
   3   4 -13 22.3660 6.58390   1 
   3   4 -13 20.3413 6.84550  11 
  -3  -4  13 16.5005 5.80066   1 
  -3  -4  13 21.1395 5.80984   7 
   2   4 -13 23.5969 7.04402  11 
   2   4 -13 23.8180 7.30938   3 
   2   4 -13 33.5697 7.38921   1 
  -2  -4  13 17.7256 6.10039   1 
  -2  -4  13 14.2588 5.30447   7 
   1   4 -13 17.4299 6.60223   3 
   1   4 -13 24.1021 6.88472   1 
   1   4 -13 25.2242 7.64734  11 
  -1  -4  13 17.4646 5.86066   7 
  -1  -4  13 29.9305 7.20318   1 
   0   4 -13 27.4049 7.17739   1 
   0   4 -13 29.2906 8.34323  11 
   0  -4  13 20.4524 5.84729   1 
   0  -4  13 48.0539 9.13531   7 
  -1   4 -13 11.1365 6.21049  14 
  -1   4 -13 21.7987 6.31484   1 
  -1   4 -13 13.2102 6.56648  11 
   1  -4  13 14.3565 5.95903   7 
   1  -4  13 21.9997 6.43057   1 
  -6  -3  13 1.53348 4.68638   7 
   5   3 -13 5.25929 4.92597   1 
  -5  -3  13 9.07017 5.33397   7 
  -5  -3  13 6.36277 4.93215   1 
   4   3 -13 63.8385 9.89313   1 
   4   3 -13 63.8661 10.1225   3 
  -4  -3  13 72.8916 9.99941   1 
  -4  -3  13 46.5434 8.62204   7 
   3   3 -13 63.2150 10.2077   3 
   3   3 -13 68.6577 9.97918   1 
   3   3 -13 63.9370 10.0789  11 
  -3  -3  13 58.4516 9.37826   1 
  -3  -3  13 57.2987 8.95837   7 
   2   3 -13 8.16049 4.68805  14 
   2   3 -13 14.7233 5.56960   1 
   2   3 -13 10.2483 5.88524  11 
   2   3 -13 13.1651 6.03326   3 
  -2  -3  13 2.74486 3.91850   1 
  -2  -3  13 12.8939 5.46338   7 
   1   3 -13 23.7629 6.43673  14 
   1   3 -13 15.4111 6.73545  11 
   1   3 -13 23.6061 6.39818   1 
  -1  -3  13 28.4221 7.19490   7 
  -1  -3  13 30.6403 7.20854   1 
   0   3 -13 19.0675 5.88964  14 
   0   3 -13 23.2109 6.44310   1 
   0   3 -13 9.36377 6.08925  11 
   0  -3  13 19.5280 6.09946   1 
   0  -3  13 25.4801 7.15170   7 
  -1   3 -13 42.3074 9.73081  11 
  -1   3 -13 43.4133 8.29116  14 
  -1   3 -13 33.4345 7.14353   1 
   1  -3  13 26.9087 7.45314   7 
   1  -3  13 32.2652 7.69627   1 
   6   2 -13 6.90398 5.33272   1 
  -6  -2  13 -0.4168 4.32435   7 
  -6  -2  13 -1.6372 4.16137   1 
   5   2 -13 23.9671 6.63907   1 
  -5  -2  13 31.2632 7.82251   7 
  -5  -2  13 41.1391 8.67521   1 
   4   2 -13 50.8475 8.92334  14 
   4   2 -13 54.2480 8.97301   1 
  -4  -2  13 58.1755 9.59904   7 
  -4  -2  13 64.6596 9.69368   1 
   3   2 -13 37.8087 8.63614  11 
   3   2 -13 32.5470 7.10664  10 
   3   2 -13 42.5412 8.01454  14 
   3   2 -13 45.5313 8.01603   1 
  -3  -2  13 26.6314 6.84987   7 
  -3  -2  13 27.2893 6.92918   1 
   2   2 -13 3.77221 4.55529  11 
   2   2 -13 12.0744 5.33530  10 
   2   2 -13 3.67350 3.81700   1 
   2   2 -13 6.70456 4.29091  14 
  -2  -2  13 11.3995 5.25495   1 
  -2  -2  13 11.5975 5.91835   7 
   1   2 -13 27.6484 6.25314  14 
   1   2 -13 19.7875 5.51941   1 
   1   2 -13 32.0260 8.58531  11 
  -1  -2  13 28.1701 7.36824   7 
  -1  -2  13 38.0605 7.93001   1 
   0   2 -13 21.1096 6.36317  14 
   0   2 -13 37.7600 7.39975   1 
   0   2 -13 29.3038 8.52138  11 
   0  -2  13 36.6196 7.94081   7 
   0  -2  13 38.8023 8.18999   1 
  -1   2 -13 25.2906 6.42948  14 
  -1   2 -13 25.7180 7.92901  11 
  -1   2 -13 24.7264 6.16586   1 
   1  -2  13 17.8114 6.07283   1 
   1  -2  13 19.4859 7.06918   7 
   6   1 -13 -0.9112 3.92858  14 
   6   1 -13 -1.3913 3.88262   1 
  -6  -1  13 0.01044 4.24719   1 
  -6  -1  13 -1.6217 4.45541   7 
   5   1 -13 31.7835 7.10545  14 
   5   1 -13 38.4287 7.73857   1 
   5   1 -13 25.9968 6.92233  13 
  -5  -1  13 33.0205 7.86096   7 
  -5  -1  13 38.4354 8.68350   1 
   4   1 -13 60.1484 8.59107   1 
   4   1 -13 49.0952 8.37580  14 
  -4  -1  13 47.8418 8.83330   1 
  -4  -1  13 57.3074 9.36886   7 
   3   1 -13 8.60770 4.20133  14 
   3   1 -13 15.4737 5.38793   1 
   3   1 -13 16.7695 5.75783  10 
   3   1 -13 15.9395 7.03023  11 
  -3  -1  13 15.9772 5.78638   7 
  -3  -1  13 15.0716 5.45507   1 
   2   1 -13 11.0111 4.41747  14 
   2   1 -13 9.53753 4.36353   1 
   2   1 -13 14.8465 5.04974   5 
   2   1 -13 25.4442 10.7726  10 
   2   1 -13 14.2981 6.73387  11 
  -2  -1  13 20.8933 6.30316   7 
  -2  -1  13 17.6487 5.86147   1 
   1   1 -13 20.8566 6.05783   5 
   1   1 -13 19.4481 6.99522  11 
   1   1 -13 22.1597 5.65538  14 
   1   1 -13 24.3956 5.84482   1 
  -1  -1  13 32.7095 7.33566   1 
  -1  -1  13 34.5513 7.86958   7 
   0   1 -13 20.0825 7.53480  11 
   0   1 -13 26.5005 6.17517   5 
   0   1 -13 27.2179 6.29003  14 
   0   1 -13 27.9127 6.23070   1 
   0  -1  13 32.4936 7.81793   7 
   0  -1  13 24.1922 7.04341   1 
  -1   1 -13 10.3301 4.65275  14 
  -1   1 -13 14.6059 6.78471  11 
  -1   1 -13 15.4233 5.79948   5 
   1  -1  13 15.5055 5.98423   1 
   1  -1  13 11.5087 6.28113   7 
   6   0 -13 12.3263 5.59860  14 
   6   0 -13 10.2052 4.85384   1 
  -6   0  13 17.8926 6.79946   7 
  -6   0  13 14.0394 6.34356   1 
   5   0 -13 31.9503 6.54196   1 
   5   0 -13 27.7458 6.97476  13 
   5   0 -13 30.1322 6.84018  14 
  -5   0  13 26.1213 7.27297   7 
  -5   0  13 22.3315 7.06493   1 
   4   0 -13 37.4466 6.76747   1 
   4   0 -13 26.7503 6.29573  14 
  -4   0  13 16.5798 6.28060   7 
  -4   0  13 21.5274 6.60923   1 
   3   0 -13 -0.2957 4.77181  11 
   3   0 -13 0.11033 3.97295  10 
   3   0 -13 2.84011 3.06844   1 
   3   0 -13 0.92901 3.23381  14 
  -3   0  13 1.18673 3.76622   1 
  -3   0  13 -0.8142 3.06208   2 
  -3   0  13 7.45995 4.81230   7 
   2   0 -13 11.3333 4.61491  14 
   2   0 -13 7.71242 5.57326  11 
  -2   0  13 9.63307 4.80239   1 
  -2   0  13 7.33212 4.65415   2 
  -2   0  13 10.0383 5.41366   7 
   1   0 -13 13.6601 6.91026  11 
   1   0 -13 18.4457 5.08100  14 
   1   0 -13 18.8253 5.42127   5 
  -1   0  13 26.8096 7.11611   7 
  -1   0  13 25.4219 7.40403   2 
  -1   0  13 18.1402 6.17483   1 
   0   0 -13 37.8882 7.15076   5 
   0   0 -13 38.2050 9.39034  11 
   0   0 -13 34.5227 6.57760  14 
   0   0  13 27.3203 8.15532   2 
   0   0  13 28.0399 7.18705   7 
   0   0  13 32.2810 8.59615   2 
   0   0  13 42.5274 8.47206   1 
   6  -1 -13 7.00451 6.20991   1 
   6  -1 -13 7.39931 4.70320  14 
  -6   1  13 14.2584 6.12479   1 
  -6   1  13 4.57182 4.97198   7 
   5  -1 -13 27.9608 6.19791  14 
   5  -1 -13 33.3219 8.05352  13 
  -5   1  13 26.3742 7.40118   1 
  -5   1  13 28.3574 7.40044   7 
   4  -1 -13 8.71613 4.29201  14 
  -4   1  13 14.9693 6.13252   7 
  -4   1  13 16.5246 6.87675   2 
  -4   1  13 6.95214 4.95119   1 
   3  -1 -13 2.65362 5.38521  11 
   3  -1 -13 9.43740 3.71982  14 
  -3   1  13 7.88976 4.55452   1 
  -3   1  13 7.19437 5.32044   7 
  -3   1  13 2.34825 3.98754   2 
   2  -1 -13 20.9634 7.48994  11 
   2  -1 -13 35.5636 6.34337  14 
  -2   1  13 17.8503 5.64733   1 
  -2   1  13 20.4992 6.47980   7 
  -2   1  13 43.4385 9.81113   2 
   1  -1 -13 43.6916 6.54352  14 
   1  -1 -13 64.2899 10.6694  11 
  -1   1  13 52.5536 10.2286   2 
  -1   1  13 36.9713 8.20267   7 
   5  -2 -13 -1.2851 3.30274  14 
  -5   2  13 1.39895 4.30763   2 
  -5   2  13 0.45043 4.32928   7 
  -5   2  13 4.04615 4.87218   1 
   4  -2 -13 0.24876 3.02843  14 
  -4   2  13 -1.5489 3.76665   2 
  -4   2  13 2.38949 4.69908   7 
   3  -2 -13 16.3575 4.11932  14 
   3  -2 -13 19.0964 4.82835   5 
   3  -2 -13 14.0196 6.73197  11 
  -3   2  13 14.7747 6.00254   2 
  -3   2  13 18.1990 6.46628   7 
   2  -2 -13 25.1136 8.24714  11 
   2  -2 -13 28.0194 4.81631  14 
   2  -2 -13 27.2688 5.70594   5 
  -2   2  13 20.3304 7.10876   2 
  -2   2  13 23.3168 6.64427   7 
   2   5 -14 8.38846 5.43539  11 
  -2  -5  14 -2.1093 3.71203   7 
   3   4 -14 2.97221 5.31089  11 
  -3  -4  14 -2.3905 3.95033   7 
   2   4 -14 12.3365 6.58121  11 
   2   4 -14 12.3178 6.09360   1 
  -2  -4  14 0.51169 4.00602   7 
  -2  -4  14 7.76682 5.15170   1 
   1   4 -14 32.5504 8.18091   1 
   1   4 -14 35.0334 9.58078  11 
  -1  -4  14 41.3783 10.9531   1 
  -1  -4  14 45.2699 9.14513   7 
  -4  -3  14 25.0483 7.44356   7 
   3   3 -14 30.5553 7.59188   1 
   3   3 -14 35.4184 9.18841  11 
  -3  -3  14 22.4403 7.08986   7 
  -3  -3  14 18.7710 7.00709   1 
   2   3 -14 14.6790 6.03833   1 
   2   3 -14 6.87497 5.93493  11 
   2   3 -14 6.91346 4.97754  14 
  -2  -3  14 9.39958 5.52176   7 
  -2  -3  14 12.3357 5.58950   1 
   1   3 -14 25.8696 8.58157  11 
   1   3 -14 23.4462 6.41583  14 
   1   3 -14 31.6286 7.16939   1 
  -1  -3  14 32.7468 8.12286   1 
  -1  -3  14 36.7476 8.38877   7 
   4   2 -14 10.0677 5.23256   1 
   4   2 -14 8.26875 4.71237  14 
  -4  -2  14 8.83760 5.95819   7 
  -4  -2  14 18.1415 6.56878   1 
   3   2 -14 1.38960 3.99160  14 
   3   2 -14 6.81187 6.08264  11 
   3   2 -14 9.90711 5.24006   1 
  -3  -2  14 4.28941 5.04904   7 
  -3  -2  14 7.05698 4.92822   1 
   2   2 -14 12.6240 7.08952  11 
   2   2 -14 15.7477 5.74690  14 
   2   2 -14 8.79729 4.79821   1 
  -2  -2  14 9.15382 5.12346   1 
  -2  -2  14 16.6964 6.55293   7 
   3   1 -14 0.67789 5.15378  11 
   3   1 -14 -0.2812 3.80329  14 
   3   1 -14 0.18549 3.52732   1 
  -3  -1  14 1.15437 3.96566   1 
  -3  -1  14 6.42515 5.82179   7 
   2   1 -14 11.8950 5.23975  14 
   2   1 -14 12.7913 5.19220   5 
   2   1 -14 0.43083 5.02574  11 
   2   1 -14 12.0517 5.03116   1 
  -2  -1  14 6.93907 5.27813   7 
  -2  -1  14 12.7322 5.91563   1 
   0   0   0    0.00    0.00   0 
;
_shelx_hkl_checksum              6985
loop_
_space_group_symop_operation_xyz
'x, y, z'
loop_
_atom_site_label
_atom_site_type_symbol
_atom_site_fract_x
_atom_site_fract_y
_atom_site_fract_z
_atom_site_U_iso_or_equiv
_atom_site_adp_type
_atom_site_occupancy
_atom_site_site_symmetry_order
_atom_site_calc_flag
_atom_site_refinement_flags_posn
_atom_site_refinement_flags_adp
_atom_site_refinement_flags_occupancy
_atom_site_disorder_assembly
_atom_site_disorder_group
Fe1 Fe 0.51458(2) 0.27941(2) 0.51598(2) 0.02737(8) Uani 1 1 d . . . . .
B1 B 0.4871(3) 0.5342(2) 0.4933(2) 0.0235(4) Uani 1 1 d . . . . .
C1 C 0.6833(3) 0.4874(2) 0.5281(2) 0.0261(4) Uani 1 1 d . . . . .
C2 C 0.7497(3) 0.4542(2) 0.6638(2) 0.0266(4) Uani 1 1 d . . . . .
C3 C 0.8102(4) 0.3236(3) 0.6364(3) 0.0429(6) Uani 1 1 d . . . . .
H3 H 0.8539 0.2720 0.7097 0.051 Uiso 1 1 calc R U . . .
C4 C 0.7855(4) 0.2729(3) 0.4874(3) 0.0491(7) Uani 1 1 d . . . . .
H4 H 0.8106 0.1805 0.4367 0.059 Uiso 1 1 calc R U . . .
C5 C 0.7114(3) 0.3732(3) 0.4209(3) 0.0361(5) Uani 1 1 d . . . . .
H5 H 0.6803 0.3645 0.3152 0.043 Uiso 1 1 calc R U . . .
C6 C 0.3109(3) 0.3790(2) 0.4723(2) 0.0273(4) Uani 1 1 d . . . . .
C7 C 0.2634(3) 0.2415(2) 0.3544(2) 0.0274(4) Uani 1 1 d . . . . .
C8 C 0.2348(4) 0.1119(3) 0.4100(3) 0.0430(6) Uani 1 1 d . . . . .
H8 H 0.2084 0.0037 0.3537 0.052 Uiso 1 1 calc R U . . .
C9 C 0.2595(4) 0.1649(3) 0.5603(3) 0.0526(8) Uani 1 1 d . . . . .
H9 H 0.2527 0.1008 0.6284 0.063 Uiso 1 1 calc R U . . .
C10 C 0.3028(3) 0.3260(3) 0.5973(3) 0.0374(5) Uani 1 1 d . . . . .
H10 H 0.3288 0.3937 0.6968 0.045 Uiso 1 1 calc R U . . .
C11 C 0.7606(3) 0.5481(2) 0.8116(2) 0.0305(4) Uani 1 1 d . . . . .
H11 H 0.6573 0.5982 0.7950 0.037 Uiso 1 1 calc R U . . .
C12 C 0.9640(3) 0.6781(3) 0.8817(3) 0.0411(5) Uani 1 1 d . . . . .
H12A H 0.9818 0.7423 0.8157 0.049 Uiso 1 1 calc R U . . .
H12B H 0.9613 0.7438 0.9727 0.049 Uiso 1 1 calc R U . . .
C13 C 1.1438(4) 0.6268(4) 0.9164(3) 0.0539(7) Uani 1 1 d . . . . .
H13A H 1.1517 0.5648 0.8268 0.081 Uiso 1 1 calc R U . . .
H13B H 1.1303 0.5653 0.9839 0.081 Uiso 1 1 calc R U . . .
H13C H 1.2652 0.7171 0.9609 0.081 Uiso 1 1 calc R U . . .
C14 C 0.7116(5) 0.4511(4) 0.9121(3) 0.0429(7) Uani 1 1 d . . . . .
H14A H 0.5983 0.3557 0.8554 0.052 Uiso 1 1 calc R U . . .
H14B H 0.8278 0.4216 0.9514 0.052 Uiso 1 1 calc R U . . .
C15 C 0.6586(5) 0.5356(4) 1.0374(3) 0.0669(9) Uani 1 1 d . . . . .
H15A H 0.5330 0.5524 0.9998 0.100 Uiso 1 1 calc R U . . .
H15B H 0.7648 0.6348 1.0884 0.100 Uiso 1 1 calc R U . . .
H15C H 0.6438 0.4740 1.1046 0.100 Uiso 1 1 calc R U . . .
C16 C 0.2377(3) 0.2347(2) 0.1968(2) 0.0327(4) Uani 1 1 d . . . . .
H16 H 0.3309 0.3335 0.1957 0.039 Uiso 1 1 calc R U . . .
C17 C 0.0254(4) 0.2268(3) 0.1213(3) 0.0488(6) Uani 1 1 d . . . . .
H17A H -0.0020 0.3131 0.1786 0.059 Uiso 1 1 calc R U . . .
H17B H 0.0199 0.2417 0.0248 0.059 Uiso 1 1 calc R U . . .
C18 C -0.1386(4) 0.0781(4) 0.1015(3) 0.0542(7) Uani 1 1 d . . . . .
H18A H -0.2688 0.0888 0.0658 0.081 Uiso 1 1 calc R U . . .
H18B H -0.1257 0.0557 0.1946 0.081 Uiso 1 1 calc R U . . .
H18C H -0.1270 -0.0061 0.0312 0.081 Uiso 1 1 calc R U . . .
C19 C 0.2948(4) 0.1053(4) 0.1164(3) 0.0415(7) Uani 1 1 d . . . . .
H19A H 0.4309 0.1154 0.1718 0.050 Uiso 1 1 calc R U . . .
H19B H 0.2032 0.0060 0.1149 0.050 Uiso 1 1 calc R U . . .
C20 C 0.2898(5) 0.1011(4) -0.0376(3) 0.0651(9) Uani 1 1 d . . . . .
H20A H 0.3371 0.0195 -0.0780 0.098 Uiso 1 1 calc R U . . .
H20B H 0.3761 0.2001 -0.0384 0.098 Uiso 1 1 calc R U . . .
H20C H 0.1530 0.0809 -0.0963 0.098 Uiso 1 1 calc R U . . .
N1 N 0.4975(8) 0.6822(10) 0.4947(11) 0.0239(11) Uani 0.686(9) 1 d . U P A 1
C21 C 0.6913(9) 0.8042(5) 0.5172(6) 0.0371(11) Uani 0.686(9) 1 d . U P A 1
H21 H 0.7962 0.7553 0.5296 0.044 Uiso 0.686(9) 1 calc R U P A 1
C22 C 0.7491(13) 0.9343(7) 0.6545(10) 0.0495(17) Uani 0.686(9) 1 d . U P A 1
H22A H 0.8825 1.0057 0.6704 0.074 Uiso 0.686(9) 1 calc R U P A 1
H22B H 0.7492 0.8928 0.7370 0.074 Uiso 0.686(9) 1 calc R U P A 1
H22C H 0.6530 0.9886 0.6449 0.074 Uiso 0.686(9) 1 calc R U P A 1
C23 C 0.6885(8) 0.8595(7) 0.3839(6) 0.0554(13) Uani 0.686(9) 1 d . U P A 1
H23A H 0.6499 0.7713 0.2982 0.083 Uiso 0.686(9) 1 calc R U P A 1
H23B H 0.8214 0.9296 0.3965 0.083 Uiso 0.686(9) 1 calc R U P A 1
H23C H 0.5922 0.9135 0.3710 0.083 Uiso 0.686(9) 1 calc R U P A 1
C24 C 0.3253(8) 0.7362(6) 0.4816(4) 0.0293(10) Uani 0.686(9) 1 d . U P A 1
H24 H 0.3740 0.8471 0.4859 0.035 Uiso 0.686(9) 1 calc R U P A 1
C25 C 0.2419(7) 0.7257(7) 0.6065(5) 0.0464(11) Uani 0.686(9) 1 d . U P A 1
H25A H 0.1433 0.7778 0.6035 0.070 Uiso 0.686(9) 1 calc R U P A 1
H25B H 0.3502 0.7750 0.6983 0.070 Uiso 0.686(9) 1 calc R U P A 1
H25C H 0.1782 0.6176 0.5985 0.070 Uiso 0.686(9) 1 calc R U P A 1
C26 C 0.1612(16) 0.6516(11) 0.3381(10) 0.0536(18) Uani 0.686(9) 1 d . U P A 1
H26A H 0.2175 0.6559 0.2580 0.080 Uiso 0.686(9) 1 calc R U P A 1
H26B H 0.0588 0.7001 0.3295 0.080 Uiso 0.686(9) 1 calc R U P A 1
H26C H 0.1015 0.5442 0.3344 0.080 Uiso 0.686(9) 1 calc R U P A 1
N1A N 0.4391(19) 0.668(2) 0.487(2) 0.024(2) Uani 0.314(9) 1 d . U P A 2
C21A C 0.5902(17) 0.8075(8) 0.4901(9) 0.029(2) Uani 0.314(9) 1 d . U P A 2
H21A H 0.5207 0.8822 0.4728 0.034 Uiso 0.314(9) 1 calc R U P A 2
C22A C 0.747(2) 0.8817(15) 0.6341(18) 0.040(3) Uani 0.314(9) 1 d . U P A 2
H22D H 0.8107 0.8084 0.6594 0.060 Uiso 0.314(9) 1 calc R U P A 2
H22E H 0.6865 0.9137 0.7080 0.060 Uiso 0.314(9) 1 calc R U P A 2
H22F H 0.8476 0.9717 0.6293 0.060 Uiso 0.314(9) 1 calc R U P A 2
C23A C 0.6792(16) 0.7782(15) 0.3694(11) 0.045(2) Uani 0.314(9) 1 d . U P A 2
H23D H 0.5737 0.7390 0.2760 0.067 Uiso 0.314(9) 1 calc R U P A 2
H23E H 0.7448 0.7022 0.3804 0.067 Uiso 0.314(9) 1 calc R U P A 2
H23F H 0.7773 0.8741 0.3731 0.067 Uiso 0.314(9) 1 calc R U P A 2
C24A C 0.2328(16) 0.6698(12) 0.4645(10) 0.034(2) Uani 0.314(9) 1 d . U P A 2
H24A H 0.1501 0.5688 0.4694 0.040 Uiso 0.314(9) 1 calc R U P A 2
C25A C 0.2269(14) 0.7953(13) 0.5890(11) 0.046(2) Uani 0.314(9) 1 d . U P A 2
H25D H 0.2859 0.8964 0.5775 0.068 Uiso 0.314(9) 1 calc R U P A 2
H25E H 0.3025 0.7898 0.6820 0.068 Uiso 0.314(9) 1 calc R U P A 2
H25F H 0.0883 0.7794 0.5867 0.068 Uiso 0.314(9) 1 calc R U P A 2
C26A C 0.144(4) 0.683(2) 0.315(2) 0.057(4) Uani 0.314(9) 1 d . U P A 2
H26D H 0.1397 0.5950 0.2408 0.086 Uiso 0.314(9) 1 calc R U P A 2
H26E H 0.2256 0.7782 0.3044 0.086 Uiso 0.314(9) 1 calc R U P A 2
H26F H 0.0080 0.6844 0.3047 0.086 Uiso 0.314(9) 1 calc R U P A 2
loop_
_atom_site_aniso_label
_atom_site_aniso_U_11
_atom_site_aniso_U_22
_atom_site_aniso_U_33
_atom_site_aniso_U_23
_atom_site_aniso_U_13
_atom_site_aniso_U_12
Fe1 0.03733(15) 0.01762(12) 0.02975(13) 0.00896(9) 0.01009(10) 0.01199(9)
B1 0.0247(10) 0.0184(9) 0.0265(9) 0.0073(7) 0.0050(8) 0.0077(7)
C1 0.0203(8) 0.0264(10) 0.0339(9) 0.0126(8) 0.0103(7) 0.0071(7)
C2 0.0237(9) 0.0252(10) 0.0337(11) 0.0107(8) 0.0066(8) 0.0128(8)
C3 0.0474(15) 0.0407(14) 0.0444(14) 0.0100(11) 0.0039(11) 0.0315(12)
C4 0.0478(15) 0.0556(18) 0.0462(15) -0.0010(12) 0.0092(12) 0.0374(14)
C5 0.0289(11) 0.0488(14) 0.0358(12) 0.0115(11) 0.0149(10) 0.0175(10)
C6 0.0211(9) 0.0248(10) 0.0355(10) 0.0060(8) 0.0104(8) 0.0077(7)
C7 0.0256(10) 0.0206(9) 0.0337(11) 0.0085(8) 0.0092(8) 0.0040(7)
C8 0.0524(15) 0.0215(11) 0.0401(13) 0.0077(9) 0.0104(11) -0.0062(10)
C9 0.0565(17) 0.0431(15) 0.0378(14) 0.0172(12) 0.0123(12) -0.0163(13)
C10 0.0296(11) 0.0394(13) 0.0342(11) 0.0026(10) 0.0156(9) -0.0008(9)
C11 0.0315(10) 0.0276(10) 0.0328(10) 0.0075(8) 0.0093(8) 0.0121(8)
C12 0.0352(12) 0.0338(12) 0.0460(13) 0.0042(10) 0.0095(10) 0.0070(9)
C13 0.0365(13) 0.0616(18) 0.0534(15) 0.0147(13) 0.0024(11) 0.0123(12)
C14 0.0451(16) 0.0465(18) 0.0333(13) 0.0139(13) 0.0083(12) 0.0109(13)
C15 0.0603(19) 0.092(3) 0.0366(13) 0.0118(15) 0.0178(13) 0.0103(17)
C16 0.0336(10) 0.0267(10) 0.0328(10) 0.0100(8) 0.0067(8) 0.0045(8)
C17 0.0474(14) 0.0460(15) 0.0464(14) 0.0111(11) 0.0004(11) 0.0195(11)
C18 0.0331(12) 0.0666(18) 0.0499(15) 0.0046(13) 0.0059(11) 0.0122(12)
C19 0.0343(13) 0.0449(18) 0.0340(13) 0.0017(12) 0.0091(11) 0.0048(12)
C20 0.0593(18) 0.071(2) 0.0381(14) -0.0046(13) 0.0179(13) -0.0048(15)
N1 0.026(3) 0.022(2) 0.029(2) 0.0100(16) 0.010(3) 0.014(2)
C21 0.027(2) 0.0226(19) 0.065(3) 0.0169(18) 0.016(2) 0.0088(16)
C22 0.042(3) 0.029(3) 0.060(4) 0.007(3) -0.002(2) 0.003(3)
C23 0.074(3) 0.038(3) 0.075(3) 0.032(2) 0.047(3) 0.019(2)
C24 0.031(2) 0.023(2) 0.037(2) 0.0110(17) 0.0079(18) 0.0142(19)
C25 0.044(2) 0.052(3) 0.058(2) 0.017(2) 0.0273(19) 0.028(2)
C26 0.048(3) 0.050(4) 0.054(4) 0.009(3) -0.009(3) 0.027(3)
N1A 0.026(6) 0.023(4) 0.026(4) 0.011(3) 0.004(5) 0.011(5)
C21A 0.034(5) 0.019(3) 0.034(4) 0.012(3) 0.012(4) 0.006(3)
C22A 0.033(5) 0.029(7) 0.046(6) 0.006(6) 0.011(4) 0.000(6)
C23A 0.059(6) 0.042(6) 0.057(5) 0.029(5) 0.039(5) 0.026(5)
C24A 0.027(4) 0.020(4) 0.050(5) 0.008(3) 0.003(4) 0.012(4)
C25A 0.044(5) 0.037(5) 0.073(6) 0.020(4) 0.029(4) 0.026(4)
C26A 0.058(8) 0.041(8) 0.055(7) 0.010(5) -0.019(6) 0.024(6)
loop_
_atom_type_symbol
_atom_type_description
_atom_type_scat_dispersion_real
_atom_type_scat_dispersion_imag
_atom_type_scat_source
C C 0.0033 0.0016 'International Tables Vol C Tables 4.2.6.8 and 6.1.1.4'
H H 0.0000 0.0000 'International Tables Vol C Tables 4.2.6.8 and 6.1.1.4'
B B 0.0013 0.0007 'International Tables Vol C Tables 4.2.6.8 and 6.1.1.4'
N N 0.0061 0.0033 'International Tables Vol C Tables 4.2.6.8 and 6.1.1.4'
Fe Fe 0.3463 0.8444 'International Tables Vol C Tables 4.2.6.8 and 6.1.1.4'
loop_
_geom_angle_atom_site_label_1
_geom_angle_atom_site_label_2
_geom_angle_atom_site_label_3
_geom_angle
C1 Fe1 C6 78.76(7)
C1 Fe1 C5 42.39(9)
C6 Fe1 C5 102.02(9)
C1 Fe1 C10 101.56(9)
C6 Fe1 C10 42.11(9)
C5 Fe1 C10 139.43(10)
C1 Fe1 C2 42.49(8)
C6 Fe1 C2 102.57(8)
C5 Fe1 C2 69.27(9)
C10 Fe1 C2 96.78(9)
C1 Fe1 C7 102.59(8)
C6 Fe1 C7 42.31(8)
C5 Fe1 C7 97.24(9)
C10 Fe1 C7 69.07(9)
C2 Fe1 C7 140.63(8)
C1 Fe1 C9 141.97(11)
C6 Fe1 C9 70.26(11)
C5 Fe1 C9 165.08(9)
C10 Fe1 C9 40.41(12)
C2 Fe1 C9 124.22(10)
C7 Fe1 C9 68.34(10)
C1 Fe1 C8 143.27(9)
C6 Fe1 C8 70.27(10)
C5 Fe1 C8 126.06(10)
C10 Fe1 C8 67.83(10)
C2 Fe1 C8 163.58(8)
C7 Fe1 C8 40.73(9)
C9 Fe1 C8 39.85(10)
C1 Fe1 C4 70.27(10)
C6 Fe1 C4 142.49(10)
C5 Fe1 C4 40.49(11)
C10 Fe1 C4 164.13(8)
C2 Fe1 C4 67.88(9)
C7 Fe1 C4 125.30(10)
C9 Fe1 C4 145.92(13)
C8 Fe1 C4 126.89(11)
C1 Fe1 C3 69.90(10)
C6 Fe1 C3 142.79(9)
C5 Fe1 C3 67.46(11)
C10 Fe1 C3 125.67(10)
C2 Fe1 C3 40.28(9)
C7 Fe1 C3 163.91(8)
C9 Fe1 C3 126.46(12)
C8 Fe1 C3 145.51(11)
C4 Fe1 C3 39.26(11)
C1 Fe1 B1 39.39(7)
C6 Fe1 B1 39.38(7)
C5 Fe1 B1 70.36(9)
C10 Fe1 B1 69.07(9)
C2 Fe1 B1 69.94(7)
C7 Fe1 B1 70.69(8)
C9 Fe1 B1 106.66(11)
C8 Fe1 B1 107.69(9)
C4 Fe1 B1 107.40(10)
C3 Fe1 B1 106.79(9)
N1 B1 C1 121.7(3)
N1A B1 C1 137.9(6)
N1 B1 C6 134.8(3)
N1A B1 C6 118.6(6)
C1 B1 C6 103.38(15)
N1 B1 Fe1 172.2(3)
N1A B1 Fe1 169.6(6)
C1 B1 Fe1 51.51(9)
C6 B1 Fe1 51.88(9)
C5 C1 C2 104.81(18)
C5 C1 B1 120.67(18)
C2 C1 B1 119.57(16)
C5 C1 Fe1 69.95(13)
C2 C1 Fe1 70.42(11)
B1 C1 Fe1 89.10(11)
C3 C2 C1 108.9(2)
C3 C2 C11 125.7(2)
C1 C2 C11 125.34(17)
C3 C2 Fe1 72.57(15)
C1 C2 Fe1 67.09(11)
C11 C2 Fe1 128.23(15)
C4 C3 C2 108.7(2)
C4 C3 Fe1 70.02(15)
C2 C3 Fe1 67.16(13)
C4 C3 H3 125.6
C2 C3 H3 125.6
Fe1 C3 H3 125.6
C3 C4 C5 107.7(2)
C3 C4 Fe1 70.72(15)
C5 C4 Fe1 66.85(13)
C3 C4 H4 126.1
C5 C4 H4 126.1
Fe1 C4 H4 126.1
C4 C5 C1 109.8(2)
C4 C5 Fe1 72.66(16)
C1 C5 Fe1 67.67(11)
C4 C5 H5 125.1
C1 C5 H5 125.1
Fe1 C5 H5 125.1
C10 C6 C7 105.03(18)
C10 C6 B1 118.01(18)
C7 C6 B1 121.58(16)
C10 C6 Fe1 69.93(13)
C7 C6 Fe1 70.28(12)
B1 C6 Fe1 88.74(11)
C8 C7 C6 108.88(19)
C8 C7 C16 125.4(2)
C6 C7 C16 125.61(19)
C8 C7 Fe1 71.67(14)
C6 C7 Fe1 67.41(11)
C16 C7 Fe1 129.26(15)
C9 C8 C7 108.2(2)
C9 C8 Fe1 70.05(15)
C7 C8 Fe1 67.60(13)
C9 C8 H8 125.9
C7 C8 H8 125.9
Fe1 C8 H8 125.9
C10 C9 C8 107.6(2)
C10 C9 Fe1 67.29(13)
C8 C9 Fe1 70.11(15)
C10 C9 H9 126.2
C8 C9 H9 126.2
Fe1 C9 H9 126.2
C9 C10 C6 110.3(2)
C9 C10 Fe1 72.29(16)
C6 C10 Fe1 67.96(11)
C9 C10 H10 124.8
C6 C10 H10 124.8
Fe1 C10 H10 124.8
C2 C11 C14 113.43(19)
C2 C11 C12 110.28(18)
C14 C11 C12 112.1(2)
C2 C11 H11 106.9
C14 C11 H11 106.9
C12 C11 H11 106.9
C13 C12 C11 115.6(2)
C13 C12 H12A 108.4
C11 C12 H12A 108.4
C13 C12 H12B 108.4
C11 C12 H12B 108.4
H12A C12 H12B 107.4
C12 C13 H13A 109.5
C12 C13 H13B 109.5
H13A C13 H13B 109.5
C12 C13 H13C 109.5
H13A C13 H13C 109.5
H13B C13 H13C 109.5
C15 C14 C11 112.5(3)
C15 C14 H14A 109.1
C11 C14 H14A 109.1
C15 C14 H14B 109.1
C11 C14 H14B 109.1
H14A C14 H14B 107.8
C14 C15 H15A 109.5
C14 C15 H15B 109.5
H15A C15 H15B 109.5
C14 C15 H15C 109.5
H15A C15 H15C 109.5
H15B C15 H15C 109.5
C7 C16 C19 112.6(2)
C7 C16 C17 110.20(19)
C19 C16 C17 112.6(2)
C7 C16 H16 107.0
C19 C16 H16 107.0
C17 C16 H16 107.0
C18 C17 C16 115.1(2)
C18 C17 H17A 108.5
C16 C17 H17A 108.5
C18 C17 H17B 108.5
C16 C17 H17B 108.5
H17A C17 H17B 107.5
C17 C18 H18A 109.5
C17 C18 H18B 109.5
H18A C18 H18B 109.5
C17 C18 H18C 109.5
H18A C18 H18C 109.5
H18B C18 H18C 109.5
C20 C19 C16 115.2(3)
C20 C19 H19A 108.5
C16 C19 H19A 108.5
C20 C19 H19B 108.5
C16 C19 H19B 108.5
H19A C19 H19B 107.5
C19 C20 H20A 109.5
C19 C20 H20B 109.5
H20A C20 H20B 109.5
C19 C20 H20C 109.5
H20A C20 H20C 109.5
H20B C20 H20C 109.5
B1 N1 C24 124.0(5)
B1 N1 C21 121.5(5)
C24 N1 C21 114.4(7)
N1 C21 C22 112.2(6)
N1 C21 C23 111.0(6)
C22 C21 C23 112.7(5)
N1 C21 H21 106.9
C22 C21 H21 106.9
C23 C21 H21 106.9
C21 C22 H22A 109.5
C21 C22 H22B 109.5
H22A C22 H22B 109.5
C21 C22 H22C 109.5
H22A C22 H22C 109.5
H22B C22 H22C 109.5
C21 C23 H23A 109.5
C21 C23 H23B 109.5
H23A C23 H23B 109.5
C21 C23 H23C 109.5
H23A C23 H23C 109.5
H23B C23 H23C 109.5
N1 C24 C25 111.5(5)
N1 C24 C26 112.7(6)
C25 C24 C26 110.1(6)
N1 C24 H24 107.4
C25 C24 H24 107.4
C26 C24 H24 107.4
C24 C25 H25A 109.5
C24 C25 H25B 109.5
H25A C25 H25B 109.5
C24 C25 H25C 109.5
H25A C25 H25C 109.5
H25B C25 H25C 109.5
C24 C26 H26A 109.5
C24 C26 H26B 109.5
H26A C26 H26B 109.5
C24 C26 H26C 109.5
H26A C26 H26C 109.5
H26B C26 H26C 109.5
B1 N1A C21A 120.6(10)
B1 N1A C24A 122.1(11)
C21A N1A C24A 117.1(15)
N1A C21A C22A 112.7(11)
N1A C21A C23A 111.5(11)
C22A C21A C23A 111.6(11)
N1A C21A H21A 106.9
C22A C21A H21A 106.9
C23A C21A H21A 106.9
C21A C22A H22D 109.5
C21A C22A H22E 109.5
H22D C22A H22E 109.5
C21A C22A H22F 109.5
H22D C22A H22F 109.5
H22E C22A H22F 109.5
C21A C23A H23D 109.5
C21A C23A H23E 109.5
H23D C23A H23E 109.5
C21A C23A H23F 109.5
H23D C23A H23F 109.5
H23E C23A H23F 109.5
N1A C24A C26A 111.8(15)
N1A C24A C25A 110.2(11)
C26A C24A C25A 113.2(11)
N1A C24A H24A 107.1
C26A C24A H24A 107.1
C25A C24A H24A 107.1
C24A C25A H25D 109.5
C24A C25A H25E 109.5
H25D C25A H25E 109.5
C24A C25A H25F 109.5
H25D C25A H25F 109.5
H25E C25A H25F 109.5
C24A C26A H26D 109.5
C24A C26A H26E 109.5
H26D C26A H26E 109.5
C24A C26A H26F 109.5
H26D C26A H26F 109.5
H26E C26A H26F 109.5
loop_
_geom_bond_atom_site_label_1
_geom_bond_atom_site_label_2
_geom_bond_distance
Fe1 C1 1.9801(19)
Fe1 C6 1.9905(19)
Fe1 C5 2.011(2)
Fe1 C10 2.017(2)
Fe1 C2 2.025(2)
Fe1 C7 2.030(2)
Fe1 C9 2.083(3)
Fe1 C8 2.084(3)
Fe1 C4 2.088(3)
Fe1 C3 2.097(3)
Fe1 B1 2.529(2)
B1 N1 1.380(10)
B1 N1A 1.42(2)
B1 C1 1.605(3)
B1 C6 1.605(3)
C1 C5 1.443(3)
C1 C2 1.452(3)
C2 C3 1.421(3)
C2 C11 1.518(3)
C3 C4 1.406(4)
C3 H3 1.0000
C4 C5 1.420(4)
C4 H4 1.0000
C5 H5 1.0000
C6 C10 1.440(3)
C6 C7 1.451(3)
C7 C8 1.432(3)
C7 C16 1.516(3)
C8 C9 1.420(4)
C8 H8 1.0000
C9 C10 1.418(4)
C9 H9 1.0000
C10 H10 1.0000
C11 C14 1.530(4)
C11 C12 1.541(3)
C11 H11 1.0000
C12 C13 1.519(4)
C12 H12A 0.9900
C12 H12B 0.9900
C13 H13A 0.9800
C13 H13B 0.9800
C13 H13C 0.9800
C14 C15 1.520(4)
C14 H14A 0.9900
C14 H14B 0.9900
C15 H15A 0.9800
C15 H15B 0.9800
C15 H15C 0.9800
C16 C19 1.529(4)
C16 C17 1.538(3)
C16 H16 1.0000
C17 C18 1.521(4)
C17 H17A 0.9900
C17 H17B 0.9900
C18 H18A 0.9800
C18 H18B 0.9800
C18 H18C 0.9800
C19 C20 1.511(4)
C19 H19A 0.9900
C19 H19B 0.9900
C20 H20A 0.9800
C20 H20B 0.9800
C20 H20C 0.9800
N1 C24 1.478(8)
N1 C21 1.499(8)
C21 C22 1.513(8)
C21 C23 1.520(7)
C21 H21 1.0000
C22 H22A 0.9800
C22 H22B 0.9800
C22 H22C 0.9800
C23 H23A 0.9800
C23 H23B 0.9800
C23 H23C 0.9800
C24 C25 1.513(6)
C24 C26 1.520(10)
C24 H24 1.0000
C25 H25A 0.9800
C25 H25B 0.9800
C25 H25C 0.9800
C26 H26A 0.9800
C26 H26B 0.9800
C26 H26C 0.9800
N1A C21A 1.462(17)
N1A C24A 1.484(14)
C21A C22A 1.493(19)
C21A C23A 1.503(12)
C21A H21A 1.0000
C22A H22D 0.9800
C22A H22E 0.9800
C22A H22F 0.9800
C23A H23D 0.9800
C23A H23E 0.9800
C23A H23F 0.9800
C24A C26A 1.519(19)
C24A C25A 1.541(13)
C24A H24A 1.0000
C25A H25D 0.9800
C25A H25E 0.9800
C25A H25F 0.9800
C26A H26D 0.9800
C26A H26E 0.9800
C26A H26F 0.9800
loop_
_publcif_info_datablock.id
_publcif_info_datablock.publ_exptl
_publcif_info_datablock.publ_geom
_publcif_info_datablock.structure
{221fa193-42c7-4ace-9e15-e7fa789b6a60} y y y
loop_
_publcif_info_cif.paper_type
E
