#------------------------------------------------------------------------------
#$Date: 2016-08-05 03:43:14 +0300 (Fri, 05 Aug 2016) $
#$Revision: 184853 $
#$URL: file:///home/coder/svn-repositories/cod/cif/4/08/66/4086626.cif $
#------------------------------------------------------------------------------
#
# This file is available in the Crystallography Open Database (COD),
# http://www.crystallography.net/
#
# All data on this site have been placed in the public domain by the
# contributors.
#
data_4086626
loop_
_publ_author_name
'Shynkaruk, Olena'
'Qi, Yanyu'
'Cottrell-Callbeck, Aiden'
'Torres Delgado, William'
'McDonald, Robert'
'Ferguson, Michael J.'
'He, Gang'
'Rivard, Eric'
_publ_section_title
;
 Modular Synthesis of Diarylalkynes and Their Efficient Conversion into
 Luminescent Tetraarylbutadienes
;
_journal_issue                   13
_journal_name_full               Organometallics
_journal_page_first              2232
_journal_paper_doi               10.1021/acs.organomet.6b00298
_journal_volume                  35
_journal_year                    2016
_chemical_formula_sum            'C20 H14 S4'
_chemical_formula_weight         382.55
_chemical_name_common            7b
_space_group_crystal_system      monoclinic
_space_group_IT_number           14
_space_group_name_Hall           '-P 2ybc'
_space_group_name_H-M_alt        'P 1 21/c 1'
_symmetry_space_group_name_Hall  '-P 2ybc'
_symmetry_space_group_name_H-M   'P 1 21/c 1'
_atom_sites_solution_hydrogens   geom
_audit_creation_method           SHELXL-2014/7
_cell_angle_alpha                90
_cell_angle_beta                 110.6202(5)
_cell_angle_gamma                90
_cell_formula_units_Z            2
_cell_length_a                   11.6007(3)
_cell_length_b                   6.55480(10)
_cell_length_c                   12.6109(3)
_cell_measurement_reflns_used    9898
_cell_measurement_temperature    173(2)
_cell_measurement_theta_max      72.52
_cell_measurement_theta_min      4.07
_cell_volume                     897.50(3)
_computing_cell_refinement       'Bruker SAINT'
_computing_data_collection       'Bruker APEX2'
_computing_data_reduction        'Bruker SAINT'
_computing_molecular_graphics    'Bruker SHELXTL'
_computing_publication_material  'Bruker SHELXTL'
_computing_structure_refinement  'SHELXL-2014/7 (Sheldrick, 2014)'
_computing_structure_solution    'SHELXT-2014 (Sheldrick 2014)'
_diffrn_ambient_temperature      173(2)
_diffrn_measured_fraction_theta_full 0.999
_diffrn_measured_fraction_theta_max 0.995
_diffrn_measurement_device_type  'Bruker APEX-II CCD'
_diffrn_measurement_method       '\f and \w scans'
_diffrn_radiation_type           CuK\a
_diffrn_radiation_wavelength     1.54178
_diffrn_reflns_av_R_equivalents  0.0202
_diffrn_reflns_av_unetI/netI     0.0161
_diffrn_reflns_Laue_measured_fraction_full 0.999
_diffrn_reflns_Laue_measured_fraction_max 0.995
_diffrn_reflns_limit_h_max       14
_diffrn_reflns_limit_h_min       -14
_diffrn_reflns_limit_k_max       8
_diffrn_reflns_limit_k_min       -7
_diffrn_reflns_limit_l_max       15
_diffrn_reflns_limit_l_min       -15
_diffrn_reflns_number            5982
_diffrn_reflns_point_group_measured_fraction_full 0.999
_diffrn_reflns_point_group_measured_fraction_max 0.995
_diffrn_reflns_theta_full        67.679
_diffrn_reflns_theta_max         72.544
_diffrn_reflns_theta_min         4.071
_exptl_absorpt_coefficient_mu    4.833
_exptl_absorpt_correction_T_max  0.6420
_exptl_absorpt_correction_T_min  0.3549
_exptl_absorpt_correction_type   numerical
_exptl_absorpt_process_details   'SADABS 2014/5'
_exptl_crystal_colour            yellow
_exptl_crystal_density_diffrn    1.416
_exptl_crystal_description       block
_exptl_crystal_F_000             396
_exptl_crystal_size_max          0.316
_exptl_crystal_size_mid          0.224
_exptl_crystal_size_min          0.152
_refine_diff_density_max         0.367
_refine_diff_density_min         -0.400
_refine_diff_density_rms         0.060
_refine_ls_extinction_method     none
_refine_ls_goodness_of_fit_ref   1.075
_refine_ls_hydrogen_treatment    constr
_refine_ls_matrix_type           full
_refine_ls_number_parameters     143
_refine_ls_number_reflns         1776
_refine_ls_number_restraints     10
_refine_ls_restrained_S_all      1.072
_refine_ls_R_factor_all          0.0324
_refine_ls_R_factor_gt           0.0322
_refine_ls_shift/su_max          0.001
_refine_ls_shift/su_mean         0.000
_refine_ls_structure_factor_coef Fsqd
_refine_ls_weighting_details
'w=1/[\s^2^(Fo^2^)+(0.0593P)^2^+0.3836P] where P=(Fo^2^+2Fc^2^)/3'
_refine_ls_weighting_scheme      calc
_refine_ls_wR_factor_gt          0.0949
_refine_ls_wR_factor_ref         0.0951
_reflns_Friedel_coverage         0.000
_reflns_number_gt                1759
_reflns_number_total             1776
_reflns_threshold_expression     'I > 2\s(I)'
_cod_data_source_file            om6b00298_si_002.cif
_cod_data_source_block           riv1614
_cod_database_code               4086626
_shelx_shelxl_version_number     2014/7
_shelx_space_group_comment
; 
The symmetry employed for this shelxl refinement is uniquely defined 
by the following loop, which should always be used as a source of 
symmetry information in preference to the above space-group names. 
They are only intended as comments. 
;
_shelx_estimated_absorpt_t_min   0.310
_shelx_estimated_absorpt_t_max   0.527
_shelx_res_file
; 
  
    riv1614.res created by SHELXL-2014/7 
  
  
TITL riv1614 in P2(1)/c 
CELL 1.54178  11.60070   6.55480  12.61090  90.0000 110.6202  90.0000 
ZERR    2.00   0.00030   0.00010   0.00030   0.0000   0.0005   0.0000 
LATT  1 
SYMM -X, 0.5+Y, 0.5-Z 
SFAC C H S 
UNIT 40 28 8 
TEMP -100.00 
SIZE 0.152 0.224 0.316 
  
L.S. 4 
ACTA 
CONF 
  
EADP C7A C7B 
EADP C8A C8B 
  
WGHT    0.059300    0.383600 
FVAR       0.29371   0.80484 
S1    3    0.349139    0.372255    0.509280    11.00000    0.02592    0.05382 = 
         0.04027    0.01367    0.01950    0.00791 
C1    1    0.063916    0.485014    0.502260    11.00000    0.02138    0.02307 = 
         0.02030   -0.00417    0.01196   -0.00350 
C2    1    0.141398    0.356313    0.577888    11.00000    0.02346    0.02476 = 
         0.02400   -0.00109    0.01346   -0.00287 
AFIX  43 
H2    2    0.107230    0.289083    0.626721    11.00000   -1.20000 
AFIX   0 
C3    1    0.268423    0.304734    0.596204    11.00000    0.02233    0.02383 = 
         0.02560   -0.00011    0.01133   -0.00280 
C4    1    0.342390    0.183242    0.686669    11.00000    0.02304    0.02495 = 
         0.03713   -0.00051    0.01191   -0.00193 
AFIX  43 
H4    2    0.316377    0.129992    0.744628    11.00000   -1.20000 
AFIX   0 
C5    1    0.461325    0.150209    0.680301    11.00000    0.02638    0.03345 = 
         0.04744    0.00740    0.00788    0.00396 
AFIX  43 
H5    2    0.523634    0.071859    0.734229    11.00000   -1.20000 
AFIX   0 
C6    1    0.476621    0.240869    0.590452    11.00000    0.02364    0.04636 = 
         0.05379    0.00752    0.01761    0.00613 
AFIX  43 
H6    2    0.550354    0.232621    0.574008    11.00000   -1.20000 
AFIX   0 
PART   1 
S2A   3    0.174847    0.837223    0.463124    10.80000    0.03879    0.02813 = 
         0.03377   -0.00108    0.01342   -0.01252 
C7A   1    0.104688    0.604635    0.421853    10.80000    0.01611    0.02615 = 
         0.02131    0.00057    0.00827   -0.00087 
C8A   1    0.102433    0.559220    0.315451    10.80000    0.02689    0.02940 = 
         0.03172   -0.00204    0.01186    0.00143 
AFIX  43 
H8A   2    0.066080    0.438431    0.276222    10.80000   -1.20000 
AFIX   0 
C9A   1    0.158661    0.707046    0.269209    10.80000    0.03369    0.04945 = 
         0.02528    0.01398    0.01902    0.01545 
AFIX  43 
H9A   2    0.165998    0.695848    0.196746    10.80000   -1.20000 
AFIX   0 
C10A  1    0.201090    0.866980    0.339742    10.80000    0.02704    0.04109 = 
         0.04557    0.02139    0.02112    0.00277 
AFIX  43 
H10A  2    0.240842    0.982285    0.322428    10.80000   -1.20000 
AFIX   0 
PART   2 
SAME 0.002 0.004 S2A > C10A 
S2B   3    0.095710    0.533328    0.295404    10.20000    0.02687    0.03223 = 
         0.02274   -0.00550    0.01415   -0.00274 
C7B   1    0.114178    0.611190    0.430694    10.20000    0.01611    0.02615 = 
         0.02131    0.00057    0.00827   -0.00087 
C8B   1    0.169659    0.798168    0.450543    10.20000    0.02689    0.02940 = 
         0.03172   -0.00204    0.01186    0.00143 
AFIX  43 
H8B   2    0.184657    0.871649    0.519037    10.20000   -1.20000 
AFIX   0 
C9B   1    0.202537    0.871993    0.360541    10.20000    0.03424    0.02288 = 
         0.07267   -0.00366    0.01367   -0.00992 
AFIX  43 
H9B   2    0.245162    0.996610    0.362836    10.20000   -1.20000 
AFIX   0 
C10B  1    0.166503    0.745206    0.270356    10.20000    0.04678    0.04513 = 
         0.06953    0.03403    0.03289    0.01723 
AFIX  43 
H10B  2    0.179222    0.771377    0.201196    10.20000   -1.20000 
PART   0 
  
AFIX   0 
HKLF 4 
  
REM  riv1614 in P2(1)/c 
REM R1 =  0.0322 for    1759 Fo > 4sig(Fo)  and  0.0324 for all    1776 data 
REM    143 parameters refined using     10 restraints 
  
END 
  
WGHT      0.0593      0.3837 
  
REM Highest difference peak  0.367,  deepest hole -0.400,  1-sigma level  0.060 
Q1    1   0.0000  0.5000  0.5000  10.50000  0.05    0.36 
Q2    1   0.0803  0.5413  0.4645  11.00000  0.05    0.32 
Q3    1   0.3168  0.2411  0.6632  11.00000  0.05    0.29 
Q4    1   0.3005  0.3317  0.5606  11.00000  0.05    0.26 
Q5    1   0.2025  0.3286  0.5810  11.00000  0.05    0.21 
Q6    1   0.1171  0.4696  0.5578  11.00000  0.05    0.21 
Q7    1   0.0990  0.3969  0.5243  11.00000  0.05    0.18 
Q8    1   0.0846  0.5979  0.3807  11.00000  0.05    0.17 
Q9    1   0.4586  0.1564  0.6188  11.00000  0.05    0.17 
Q10   1   0.4325  0.2847  0.5585  11.00000  0.05    0.14 
Q11   1   0.2239  0.8142  0.5203  11.00000  0.05    0.13 
Q12   1   0.2573  0.0344  0.7079  11.00000  0.05    0.11 
Q13   1   0.3609  0.3289  0.8045  11.00000  0.05    0.11 
Q14   1   0.5948  0.3800  0.6623  11.00000  0.05    0.11 
Q15   1   0.3029  0.7482  0.3020  11.00000  0.05    0.10 
Q16   1   0.2787  0.6003  0.3018  11.00000  0.05    0.10 
Q17   1   0.3231  0.3901  0.7432  11.00000  0.05    0.10 
Q18   1   0.1180  0.8804  0.4783  11.00000  0.05    0.10 
Q19   1   0.1130  0.7927  0.1576  11.00000  0.05    0.10 
Q20   1   0.0870  0.9031  0.1230  11.00000  0.05    0.10 
;
_shelx_res_checksum              50809
_shelx_hkl_file
; 
   4  -2 -15   26.09    0.46 
   5  -2 -15    0.08    0.01 
   6  -2 -15    4.18    0.09 
   2  -1 -15    1.59    0.05 
   3  -1 -15    0.00    0.01 
   4  -1 -15    2.77    0.06 
   5  -1 -15    5.99    0.10 
   6  -1 -15    1.83    0.05 
   7  -1 -15    2.53    0.06 
   8  -1 -15    9.64    0.22 
   2   0 -15    0.07    0.01 
   3   0 -15    0.02    0.01 
   4   0 -15    0.02    0.01 
   5   0 -15    0.01    0.01 
   6   0 -15    0.00    0.01 
   7   0 -15   -0.01    0.01 
   8   0 -15    0.01    0.01 
   2   1 -15    1.56    0.05 
   3   1 -15    0.01    0.01 
   4   1 -15    2.79    0.07 
   5   1 -15    5.87    0.11 
   6   1 -15    1.82    0.05 
   7   1 -15    2.44    0.07 
   8   1 -15    9.33    0.22 
   4   2 -15   26.10    0.46 
   5   2 -15    0.10    0.02 
   6   2 -15    4.03    0.10 
   2  -3 -14    0.02    0.03 
   3  -3 -14    4.14    0.12 
   4  -3 -14    5.78    0.16 
   5  -3 -14    4.73    0.13 
   6  -3 -14    0.82    0.04 
   7  -3 -14    9.53    0.21 
   0  -2 -14    5.97    0.12 
   1  -2 -14    3.82    0.10 
   2  -2 -14    0.58    0.04 
   3  -2 -14    0.76    0.05 
   4  -2 -14    1.04    0.05 
   5  -2 -14    2.39    0.09 
   6  -2 -14    0.00    0.02 
   7  -2 -14    1.28    0.05 
   8  -2 -14   10.18    0.17 
   9  -2 -14    8.21    0.14 
  -1  -1 -14    2.89    0.07 
   0  -1 -14    8.76    0.15 
   1  -1 -14    7.79    0.14 
   2  -1 -14    6.26    0.15 
   3  -1 -14    0.19    0.02 
   4  -1 -14    1.34    0.06 
   5  -1 -14   16.85    0.28 
   6  -1 -14    0.30    0.02 
   7  -1 -14   12.38    0.19 
   8  -1 -14    0.46    0.02 
   9  -1 -14    1.30    0.04 
  10  -1 -14    1.45    0.04 
  -1   0 -14    1.33    0.04 
   0   0 -14    0.44    0.02 
   1   0 -14   10.20    0.18 
   2   0 -14    0.36    0.02 
   3   0 -14   25.68    0.36 
   4   0 -14    0.31    0.02 
   5   0 -14   16.12    0.24 
   6   0 -14    4.33    0.10 
   7   0 -14   17.19    0.25 
   8   0 -14    0.08    0.02 
   9   0 -14   37.36    0.58 
  10   0 -14   12.61    0.23 
  -1   1 -14    2.84    0.07 
   0   1 -14    8.75    0.15 
   1   1 -14    7.83    0.14 
   2   1 -14    6.32    0.11 
   3   1 -14    0.18    0.02 
   4   1 -14    1.33    0.04 
   5   1 -14   16.93    0.28 
   6   1 -14    0.28    0.02 
   7   1 -14   12.51    0.21 
   8   1 -14    0.51    0.03 
   9   1 -14    1.28    0.05 
  10   1 -14    1.39    0.05 
   0   2 -14    5.68    0.12 
   1   2 -14    3.88    0.09 
   2   2 -14    0.63    0.03 
   3   2 -14    0.77    0.03 
   4   2 -14    1.09    0.04 
   5   2 -14    2.37    0.06 
   6   2 -14    0.03    0.01 
   7   2 -14    1.28    0.04 
   8   2 -14   10.17    0.20 
   9   2 -14    8.13    0.16 
   2   3 -14    0.05    0.01 
   3   3 -14    4.13    0.08 
   4   3 -14    5.97    0.11 
   5   3 -14    4.63    0.10 
   6   3 -14    0.85    0.03 
   7   3 -14    9.07    0.18 
   2  -4 -13    8.60    0.33 
   4  -4 -13    1.83    0.09 
   5  -4 -13    0.55    0.05 
  -1  -3 -13    0.80    0.04 
   0  -3 -13   35.35    1.10 
   1  -3 -13    2.60    0.13 
   2  -3 -13   14.18    0.49 
   4  -3 -13   22.63    0.79 
   5  -3 -13    0.23    0.05 
   6  -3 -13   50.50    1.53 
   7  -3 -13    0.21    0.04 
   8  -3 -13    0.98    0.04 
   9  -3 -13    4.53    0.10 
  -2  -2 -13   20.50    0.36 
  -1  -2 -13    0.04    0.02 
   0  -2 -13    2.95    0.11 
   1  -2 -13    1.65    0.12 
   2  -2 -13    8.89    0.24 
   3  -2 -13    2.60    0.14 
   4  -2 -13   29.50    0.68 
   5  -2 -13    0.43    0.07 
   6  -2 -13    0.05    0.03 
   7  -2 -13    1.47    0.07 
   8  -2 -13   44.42    0.79 
   9  -2 -13   10.34    0.18 
  10  -2 -13   30.26    0.41 
  -3  -1 -13    0.20    0.02 
  -2  -1 -13    0.04    0.01 
  -1  -1 -13    0.71    0.04 
   0  -1 -13   24.13    0.45 
   1  -1 -13    9.29    0.21 
   2  -1 -13    2.28    0.08 
   3  -1 -13    0.34    0.04 
   4  -1 -13    1.74    0.09 
   5  -1 -13    2.32    0.08 
   6  -1 -13   26.55    0.50 
   7  -1 -13    1.57    0.06 
   8  -1 -13    8.00    0.14 
   9  -1 -13    0.16    0.02 
  10  -1 -13   30.03    0.42 
  11  -1 -13    1.85    0.04 
  -3   0 -13    0.01    0.01 
  -2   0 -13    0.01    0.01 
  -1   0 -13    0.01    0.02 
   0   0 -13    0.05    0.02 
   1   0 -13    0.06    0.02 
   2   0 -13    0.03    0.02 
   3   0 -13    0.00    0.02 
   4   0 -13    0.02    0.02 
   5   0 -13    0.00    0.01 
   6   0 -13    0.01    0.01 
   7   0 -13    0.00    0.01 
   8   0 -13    0.04    0.02 
   9   0 -13    0.04    0.01 
  10   0 -13    0.01    0.01 
  11   0 -13    0.02    0.01 
  -3   1 -13    0.25    0.02 
  -2   1 -13    0.02    0.01 
  -1   1 -13    0.70    0.04 
   0   1 -13   24.46    0.34 
   1   1 -13    9.45    0.18 
   2   1 -13    2.16    0.07 
   3   1 -13    0.29    0.03 
   4   1 -13    1.68    0.05 
   5   1 -13    2.45    0.07 
   6   1 -13   26.27    0.38 
   7   1 -13    1.69    0.06 
   8   1 -13    7.98    0.15 
   9   1 -13    0.22    0.02 
  10   1 -13   30.05    0.47 
  11   1 -13    1.88    0.05 
  -2   2 -13   20.31    0.35 
  -1   2 -13    0.05    0.01 
   0   2 -13    3.03    0.07 
   1   2 -13    1.86    0.05 
   2   2 -13    9.46    0.17 
   3   2 -13    2.57    0.06 
   4   2 -13   30.91    0.48 
   5   2 -13    0.41    0.03 
   6   2 -13    0.01    0.01 
   7   2 -13    1.51    0.05 
   8   2 -13   45.02    0.61 
   9   2 -13   10.05    0.18 
  10   2 -13   30.43    0.46 
  -1   3 -13    0.76    0.03 
   0   3 -13   37.38    0.63 
   1   3 -13    2.88    0.07 
   2   3 -13   14.95    0.24 
   3   3 -13   15.98    0.26 
   4   3 -13   24.48    0.39 
   5   3 -13    0.31    0.02 
   6   3 -13   51.46    0.77 
   7   3 -13    0.18    0.02 
   8   3 -13    0.98    0.03 
   9   3 -13    4.49    0.08 
   1   4 -13    2.58    0.06 
   2   4 -13    8.75    0.15 
   3   4 -13    0.10    0.01 
   4   4 -13    2.00    0.05 
   5   4 -13    0.61    0.02 
   6   4 -13    0.70    0.03 
   7   4 -13    8.93    0.15 
   7  -4 -12    3.83    0.15 
   8  -4 -12    2.03    0.11 
   9  -4 -12   32.66    0.97 
  -3  -3 -12    1.91    0.07 
  -2  -3 -12    0.50    0.05 
  -1  -3 -12    0.14    0.04 
   6  -3 -12    0.30    0.05 
   7  -3 -12    4.71    0.20 
   8  -3 -12    0.18    0.03 
   9  -3 -12    0.67    0.05 
  10  -3 -12    6.63    0.12 
  -4  -2 -12    0.01    0.01 
  -3  -2 -12    0.11    0.02 
  -2  -2 -12    0.10    0.03 
  -1  -2 -12   10.62    0.40 
   0  -2 -12    0.16    0.05 
   2  -2 -12    0.18    0.04 
   3  -2 -12    1.59    0.14 
   4  -2 -12    0.68    0.06 
   5  -2 -12    4.29    0.17 
   6  -2 -12    5.98    0.19 
   7  -2 -12    0.03    0.02 
   8  -2 -12    8.98    0.19 
   9  -2 -12   12.02    0.24 
  10  -2 -12    0.43    0.03 
  11  -2 -12    0.05    0.01 
  -4  -1 -12    0.80    0.03 
  -3  -1 -12    4.26    0.09 
  -2  -1 -12    0.44    0.04 
  -1  -1 -12    4.89    0.16 
   0  -1 -12   10.79    0.22 
   1  -1 -12   65.44    1.06 
   2  -1 -12    0.32    0.04 
   3  -1 -12    7.62    0.18 
   4  -1 -12    3.55    0.14 
   5  -1 -12   11.59    0.26 
   6  -1 -12    0.68    0.05 
   7  -1 -12   65.25    1.01 
   8  -1 -12    0.27    0.03 
   9  -1 -12    4.07    0.10 
  10  -1 -12    1.23    0.04 
  11  -1 -12   51.37    0.77 
  12  -1 -12    0.35    0.02 
  -4   0 -12    4.01    0.08 
  -3   0 -12    9.53    0.17 
  -2   0 -12   23.05    0.33 
  -1   0 -12   27.91    0.40 
   0   0 -12   19.24    0.30 
   1   0 -12    2.63    0.08 
   2   0 -12   10.37    0.21 
   3   0 -12   28.42    0.43 
   4   0 -12    0.30    0.03 
   5   0 -12   37.73    0.55 
   6   0 -12    1.00    0.04 
   7   0 -12    2.59    0.06 
   8   0 -12    0.07    0.02 
   9   0 -12   77.71    1.05 
  10   0 -12   41.69    0.64 
  11   0 -12   20.53    0.33 
  12   0 -12    0.26    0.02 
  -4   1 -12    0.79    0.03 
  -3   1 -12    4.16    0.09 
  -2   1 -12    0.39    0.03 
  -1   1 -12    4.94    0.10 
   0   1 -12   11.17    0.17 
   1   1 -12   68.78    0.86 
   2   1 -12    0.40    0.03 
   3   1 -12    8.00    0.14 
   4   1 -12    3.50    0.08 
   5   1 -12   11.98    0.19 
   6   1 -12    0.76    0.04 
   7   1 -12   66.23    1.00 
   8   1 -12    0.31    0.03 
   9   1 -12    4.18    0.10 
  10   1 -12    1.26    0.05 
  11   1 -12   51.30    0.89 
  12   1 -12    0.30    0.02 
  -4   2 -12    0.02    0.01 
  -3   2 -12    0.14    0.01 
  -2   2 -12    0.07    0.01 
  -1   2 -12   11.26    0.17 
   0   2 -12    0.08    0.02 
   1   2 -12    0.38    0.03 
   2   2 -12    0.19    0.02 
   3   2 -12    1.60    0.05 
   4   2 -12    0.73    0.04 
   5   2 -12    4.64    0.09 
   6   2 -12    6.20    0.12 
   7   2 -12    0.04    0.02 
   8   2 -12    9.00    0.15 
   9   2 -12   12.28    0.21 
  10   2 -12    0.41    0.03 
  11   2 -12    0.07    0.01 
  -3   3 -12    1.83    0.05 
  -2   3 -12    0.44    0.02 
  -1   3 -12    0.19    0.02 
   0   3 -12    2.21    0.05 
   1   3 -12    0.88    0.04 
   2   3 -12    1.00    0.04 
   3   3 -12    0.01    0.01 
   4   3 -12   16.63    0.28 
   5   3 -12    5.27    0.10 
   6   3 -12    0.29    0.03 
   7   3 -12    4.95    0.09 
   8   3 -12    0.17    0.02 
   9   3 -12    0.57    0.03 
  10   3 -12    6.45    0.10 
  -1   4 -12    2.95    0.06 
   0   4 -12    3.13    0.06 
   1   4 -12    0.00    0.01 
   2   4 -12   10.04    0.16 
   3   4 -12    8.51    0.14 
   4   4 -12    2.34    0.05 
   5   4 -12    4.79    0.09 
   6   4 -12    4.65    0.09 
   7   4 -12    3.90    0.07 
   8   4 -12    2.04    0.05 
   9   4 -12   31.82    0.48 
   2   5 -12    0.22    0.02 
   3   5 -12    0.44    0.02 
   4   5 -12    1.81    0.04 
   5   5 -12   34.65    0.61 
   6   5 -12    3.32    0.09 
  -3  -4 -11    0.50    0.07 
   9  -4 -11    0.85    0.05 
  10  -4 -11    0.81    0.04 
  -4  -3 -11    2.29    0.08 
  -3  -3 -11    1.82    0.11 
   1  -3 -11    6.93    0.34 
   2  -3 -11   17.90    0.65 
   3  -3 -11    0.20    0.07 
   4  -3 -11    4.43    0.24 
   5  -3 -11    0.22    0.07 
   6  -3 -11   21.00    0.53 
   8  -3 -11    0.00    0.03 
   9  -3 -11    1.29    0.06 
  10  -3 -11   14.70    0.28 
  11  -3 -11    2.80    0.06 
  -5  -2 -11    0.54    0.03 
  -4  -2 -11   13.95    0.33 
  -3  -2 -11    9.28    0.25 
  -2  -2 -11   13.60    0.51 
  -1  -2 -11    7.40    0.21 
   0  -2 -11    0.04    0.04 
   1  -2 -11   13.57    0.42 
   2  -2 -11   21.90    0.79 
   3  -2 -11   35.41    1.17 
   4  -2 -11   14.83    0.57 
   5  -2 -11    4.30    0.24 
   6  -2 -11    4.50    0.18 
   7  -2 -11   13.32    0.29 
   8  -2 -11    2.43    0.09 
   9  -2 -11    4.30    0.11 
  10  -2 -11    8.91    0.19 
  11  -2 -11   31.16    0.44 
  12  -2 -11    0.46    0.03 
  -5  -1 -11    0.45    0.02 
  -4  -1 -11    8.25    0.18 
  -3  -1 -11   -0.02    0.02 
  -2  -1 -11    0.32    0.04 
  -1  -1 -11    1.26    0.10 
   0  -1 -11   42.30    0.82 
   1  -1 -11   20.93    0.45 
   2  -1 -11   12.88    0.39 
   3  -1 -11    0.37    0.07 
   4  -1 -11   12.20    0.47 
   5  -1 -11   13.99    0.30 
   6  -1 -11    7.49    0.19 
   7  -1 -11    1.46    0.06 
   8  -1 -11    1.40    0.06 
   9  -1 -11    3.66    0.08 
  10  -1 -11    9.46    0.16 
  11  -1 -11    0.03    0.01 
  12  -1 -11   14.96    0.25 
  -5   0 -11    0.02    0.01 
  -4   0 -11    0.03    0.01 
  -3   0 -11    0.02    0.01 
  -2   0 -11    0.04    0.02 
  -1   0 -11   -0.02    0.02 
   0   0 -11    0.06    0.02 
   1   0 -11    0.00    0.02 
   2   0 -11    0.08    0.07 
   3   0 -11    0.02    0.03 
   4   0 -11    0.01    0.03 
   5   0 -11    0.00    0.03 
   6   0 -11    0.00    0.02 
   7   0 -11    0.09    0.02 
   8   0 -11    0.04    0.02 
   9   0 -11    0.06    0.02 
  10   0 -11    0.06    0.02 
  11   0 -11    0.00    0.01 
  12   0 -11    0.01    0.01 
  13   0 -11    0.01    0.01 
  -5   1 -11    0.42    0.03 
  -4   1 -11    8.50    0.15 
  -3   1 -11    0.01    0.01 
  -2   1 -11    0.45    0.03 
  -1   1 -11    1.41    0.05 
   0   1 -11   43.40    0.56 
   1   1 -11   20.90    0.30 
   2   1 -11   12.68    0.20 
   3   1 -11    0.32    0.03 
   4   1 -11   12.23    0.23 
   5   1 -11   13.78    0.20 
   6   1 -11    7.58    0.12 
   7   1 -11    1.42    0.05 
   8   1 -11    1.33    0.04 
   9   1 -11    3.53    0.08 
  10   1 -11    9.41    0.16 
  11   1 -11    0.03    0.02 
  12   1 -11   14.97    0.24 
  -5   2 -11    0.53    0.02 
  -4   2 -11   13.98    0.23 
  -3   2 -11    9.97    0.16 
  -2   2 -11   14.56    0.24 
  -1   2 -11    7.49    0.13 
   0   2 -11    0.00    0.01 
   1   2 -11   13.61    0.21 
   2   2 -11   22.12    0.31 
   3   2 -11   35.24    0.47 
   4   2 -11   14.78    0.22 
   5   2 -11    4.52    0.09 
   6   2 -11    4.67    0.09 
   7   2 -11   13.43    0.20 
   8   2 -11    2.52    0.06 
   9   2 -11    4.28    0.10 
  10   2 -11    8.63    0.14 
  11   2 -11   31.08    0.48 
  12   2 -11    0.46    0.02 
  -4   3 -11    2.15    0.05 
  -3   3 -11    1.85    0.05 
  -2   3 -11   23.43    0.33 
  -1   3 -11    5.86    0.12 
   0   3 -11   11.43    0.18 
   1   3 -11    7.05    0.12 
   2   3 -11   17.28    0.23 
   3   3 -11    0.05    0.01 
   4   3 -11    4.16    0.08 
   5   3 -11    0.27    0.02 
   6   3 -11   21.36    0.28 
   7   3 -11    1.44    0.04 
   8   3 -11    0.02    0.02 
   9   3 -11    1.26    0.04 
  10   3 -11   14.56    0.21 
  11   3 -11    2.77    0.05 
  -3   4 -11    0.43    0.02 
  -2   4 -11    0.29    0.02 
  -1   4 -11    0.56    0.03 
   0   4 -11    8.15    0.12 
   1   4 -11    1.54    0.04 
   2   4 -11    0.61    0.02 
   3   4 -11    2.69    0.06 
   4   4 -11    0.06    0.01 
   5   4 -11    1.48    0.04 
   6   4 -11    0.01    0.01 
   7   4 -11   21.56    0.25 
   8   4 -11    0.83    0.03 
   9   4 -11    0.77    0.03 
  10   4 -11    0.83    0.03 
  -1   5 -11    2.39    0.05 
   0   5 -11    0.16    0.01 
   1   5 -11    0.35    0.02 
   2   5 -11    2.18    0.04 
   3   5 -11    7.00    0.09 
   4   5 -11    0.13    0.01 
   5   5 -11    4.39    0.07 
   6   5 -11    4.51    0.06 
   7   5 -11    4.01    0.07 
   8   5 -11    0.85    0.03 
   9  -5 -10    2.19    0.11 
  -4  -4 -10   11.54    0.40 
   1  -4 -10    7.98    0.37 
   2  -4 -10   11.08    0.47 
   3  -4 -10   28.55    1.00 
   4  -4 -10    0.28    0.07 
   5  -4 -10    1.02    0.12 
   9  -4 -10   16.13    0.61 
  10  -4 -10    8.78    0.22 
  11  -4 -10    1.15    0.04 
  -5  -3 -10    0.78    0.05 
  -4  -3 -10    0.36    0.05 
  -1  -3 -10    6.65    0.44 
   0  -3 -10    0.07    0.05 
   1  -3 -10   19.84    0.72 
   2  -3 -10    2.17    0.17 
   3  -3 -10   19.09    0.70 
   4  -3 -10    0.33    0.08 
   5  -3 -10   13.45    0.53 
   6  -3 -10    1.63    0.10 
   7  -3 -10   27.84    0.96 
   8  -3 -10    1.04    0.12 
   9  -3 -10    1.44    0.07 
  10  -3 -10   15.91    0.38 
  11  -3 -10    9.24    0.16 
  12  -3 -10    0.12    0.01 
  -6  -2 -10    0.21    0.02 
  -5  -2 -10    3.18    0.09 
  -4  -2 -10    0.90    0.09 
  -3  -2 -10    5.72    0.21 
  -2  -2 -10    0.20    0.12 
  -1  -2 -10    1.01    0.20 
   0  -2 -10    3.01    0.17 
   1  -2 -10   88.56    1.98 
   2  -2 -10   10.14    0.33 
   3  -2 -10    1.35    0.13 
   4  -2 -10   23.84    0.82 
   5  -2 -10    5.53    0.27 
   6  -2 -10    6.04    0.21 
   7  -2 -10    1.75    0.10 
   8  -2 -10   10.68    0.24 
   9  -2 -10    0.02    0.02 
  10  -2 -10    0.26    0.04 
  11  -2 -10    0.23    0.02 
  12  -2 -10    2.32    0.06 
  -6  -1 -10    9.34    0.16 
  -5  -1 -10    0.06    0.02 
  -4  -1 -10    5.00    0.13 
  -3  -1 -10    0.41    0.06 
  -2  -1 -10   14.79    0.42 
  -1  -1 -10   73.19    1.63 
   0  -1 -10    0.49    0.07 
   1  -1 -10   52.97    1.24 
   2  -1 -10    2.46    0.17 
   3  -1 -10    0.20    0.05 
   4  -1 -10    0.61    0.10 
   5  -1 -10   96.71    2.85 
   6  -1 -10    7.31    0.32 
   7  -1 -10   45.82    1.46 
   8  -1 -10    0.57    0.04 
   9  -1 -10   57.66    0.88 
  10  -1 -10    3.29    0.08 
  11  -1 -10   40.75    0.56 
  12  -1 -10    0.07    0.02 
  13  -1 -10    2.24    0.05 
  -7   0 -10    0.11    0.02 
  -6   0 -10    9.16    0.14 
  -5   0 -10   31.67    0.44 
  -4   0 -10   49.78    0.75 
  -3   0 -10   29.64    0.44 
  -2   0 -10   31.38    0.61 
  -1   0 -10    0.17    0.10 
   0   0 -10   51.30    1.77 
   1   0 -10   34.49    1.26 
   2   0 -10    3.68    0.16 
   3   0 -10  126.32    2.72 
   4   0 -10   29.58    0.73 
   5   0 -10   54.38    1.69 
   6   0 -10    0.45    0.08 
   7   0 -10  208.79    6.19 
   8   0 -10    8.79    0.14 
   9   0 -10   15.79    0.23 
  10   0 -10    2.45    0.06 
  11   0 -10   21.67    0.35 
  12   0 -10   41.36    0.63 
  13   0 -10   32.01    0.49 
  -6   1 -10    9.30    0.16 
  -5   1 -10    0.07    0.02 
  -4   1 -10    4.98    0.10 
  -3   1 -10    0.37    0.03 
  -2   1 -10   14.73    0.22 
  -1   1 -10   72.21    0.89 
   0   1 -10    0.61    0.15 
   1   1 -10   55.33    1.83 
   2   1 -10    2.67    0.24 
   3   1 -10    0.21    0.09 
   4   1 -10    0.76    0.08 
   5   1 -10   92.77    2.04 
   6   1 -10    6.98    0.24 
   7   1 -10   45.42    1.45 
   8   1 -10    0.58    0.03 
   9   1 -10   57.97    0.79 
  10   1 -10    3.02    0.07 
  11   1 -10   40.25    0.62 
  12   1 -10    0.05    0.01 
  13   1 -10    2.29    0.06 
  -6   2 -10    0.22    0.02 
  -5   2 -10    3.29    0.07 
  -4   2 -10    0.96    0.04 
  -3   2 -10    6.13    0.11 
  -2   2 -10    0.18    0.02 
  -1   2 -10    0.91    0.04 
   0   2 -10    2.88    0.07 
   1   2 -10   89.13    2.85 
   2   2 -10   10.29    0.52 
   3   2 -10    1.41    0.18 
   4   2 -10   23.54    0.92 
   5   2 -10    5.20    0.34 
   6   2 -10    5.89    0.13 
   7   2 -10    1.81    0.05 
   8   2 -10   11.05    0.16 
   9   2 -10    0.05    0.01 
  10   2 -10    0.36    0.03 
  11   2 -10    0.24    0.02 
  12   2 -10    2.21    0.06 
  13   2 -10    8.94    0.29 
  -5   3 -10    0.77    0.03 
  -4   3 -10    0.35    0.02 
  -3   3 -10    9.53    0.17 
  -2   3 -10    3.49    0.08 
  -1   3 -10    6.79    0.11 
   0   3 -10    0.06    0.01 
   1   3 -10   19.35    0.24 
   2   3 -10    2.11    0.05 
   3   3 -10   18.97    0.22 
   4   3 -10    0.36    0.02 
   5   3 -10   14.34    0.18 
   6   3 -10    1.74    0.05 
   7   3 -10   28.38    0.31 
   8   3 -10    1.05    0.04 
   9   3 -10    1.41    0.04 
  10   3 -10   16.24    0.24 
  11   3 -10    9.28    0.14 
  12   3 -10    0.08    0.01 
  -4   4 -10   12.19    0.17 
  -3   4 -10    8.68    0.12 
  -2   4 -10    1.18    0.04 
  -1   4 -10   15.93    0.21 
   0   4 -10    1.65    0.04 
   1   4 -10    8.19    0.11 
   2   4 -10   11.83    0.14 
   3   4 -10   30.71    0.31 
   4   4 -10    0.21    0.02 
   5   4 -10    1.05    0.03 
   6   4 -10   18.12    0.19 
   7   4 -10    6.19    0.08 
   8   4 -10    1.50    0.04 
   9   4 -10   17.05    0.20 
  10   4 -10    8.69    0.13 
  11   4 -10    1.13    0.04 
  -2   5 -10    0.07    0.01 
  -1   5 -10   19.64    0.24 
   0   5 -10    0.10    0.01 
   1   5 -10   22.59    0.23 
   2   5 -10    1.91    0.04 
   3   5 -10    0.45    0.02 
   4   5 -10    0.04    0.01 
   5   5 -10   31.22    0.30 
   6   5 -10    0.18    0.01 
   7   5 -10    6.49    0.09 
   8   5 -10    1.44    0.03 
   9   5 -10    2.30    0.05 
   1   6 -10   11.96    0.19 
   2   6 -10    0.51    0.02 
   3   6 -10    4.45    0.06 
   4   6 -10    0.93    0.03 
   5   6 -10    0.87    0.03 
   9  -5  -9   14.71    0.51 
  10  -5  -9    0.03    0.02 
  -5  -4  -9    2.29    0.10 
   1  -4  -9    0.25    0.07 
   2  -4  -9   62.30    1.99 
   3  -4  -9    5.36    0.28 
   5  -4  -9   28.02    0.96 
   6  -4  -9    1.71    0.15 
   7  -4  -9    0.04    0.05 
  10  -4  -9    0.02    0.02 
  11  -4  -9    0.54    0.03 
  -6  -3  -9    4.30    0.12 
  -5  -3  -9   13.87    0.50 
  -3  -3  -9    0.10    0.10 
  -2  -3  -9    7.81    0.50 
  -1  -3  -9   34.02    1.37 
   0  -3  -9   39.45    1.56 
   2  -3  -9   47.07    1.50 
   3  -3  -9    0.04    0.05 
   4  -3  -9   33.85    1.11 
   5  -3  -9    1.33    0.13 
   6  -3  -9  122.95    2.63 
   7  -3  -9   24.19    0.83 
   8  -3  -9    8.43    0.38 
   9  -3  -9    0.81    0.07 
  10  -3  -9   27.52    0.61 
  11  -3  -9    8.57    0.16 
  12  -3  -9   23.21    0.36 
  -7  -2  -9   10.78    0.20 
  -6  -2  -9    0.89    0.05 
  -5  -2  -9    0.48    0.07 
  -4  -2  -9   33.82    0.82 
  -3  -2  -9   88.47    2.77 
  -2  -2  -9   20.08    0.89 
  -1  -2  -9   29.09    1.18 
   0  -2  -9   17.36    0.78 
   1  -2  -9   91.16    3.07 
   2  -2  -9  121.19    2.72 
   3  -2  -9   43.03    1.37 
   4  -2  -9   44.02    1.37 
   5  -2  -9    1.47    0.13 
   6  -2  -9    0.78    0.08 
   7  -2  -9   17.83    0.46 
   8  -2  -9   69.59    1.54 
   9  -2  -9    3.65    0.11 
  10  -2  -9   38.80    0.62 
  11  -2  -9    6.17    0.13 
  12  -2  -9   18.09    0.29 
  13  -2  -9    0.18    0.02 
  -7  -1  -9    9.10    0.14 
  -6  -1  -9    1.33    0.05 
  -5  -1  -9    6.54    0.15 
  -4  -1  -9    4.76    0.18 
  -3  -1  -9    2.39    0.13 
  -2  -1  -9    5.92    0.41 
  -1  -1  -9   32.29    1.21 
   0  -1  -9   66.85    2.24 
   1  -1  -9   32.64    0.80 
   2  -1  -9    0.26    0.05 
   3  -1  -9   52.38    1.20 
   4  -1  -9    1.23    0.11 
   5  -1  -9    6.23    0.27 
   6  -1  -9   21.16    0.52 
   7  -1  -9   27.12    0.63 
   8  -1  -9   87.76    1.94 
   9  -1  -9    3.52    0.08 
  10  -1  -9   42.51    0.66 
  11  -1  -9    8.72    0.17 
  12  -1  -9   51.70    0.79 
  13  -1  -9    0.66    0.03 
  -8   0  -9    0.01    0.01 
  -7   0  -9   -0.01    0.01 
  -6   0  -9    0.02    0.01 
  -5   0  -9    0.01    0.02 
  -4   0  -9    0.00    0.02 
  -3   0  -9    0.03    0.02 
  -2   0  -9    0.06    0.08 
  -1   0  -9    0.01    0.06 
   0   0  -9    0.00    0.06 
   1   0  -9    0.01    0.03 
   2   0  -9    0.02    0.03 
   5   0  -9   -0.01    0.03 
   6   0  -9   -0.03    0.03 
   7   0  -9    0.03    0.04 
   8   0  -9    0.06    0.05 
   9   0  -9    0.01    0.01 
  10   0  -9    0.01    0.01 
  11   0  -9    0.02    0.02 
  12   0  -9    0.01    0.01 
  13   0  -9    0.03    0.01 
  -7   1  -9    9.17    0.15 
  -6   1  -9    1.44    0.04 
  -5   1  -9    6.48    0.13 
  -4   1  -9    4.63    0.09 
  -3   1  -9    2.62    0.06 
  -2   1  -9    5.64    0.23 
  -1   1  -9   31.80    1.16 
   0   1  -9   67.46    2.21 
   1   1  -9   32.77    1.19 
   2   1  -9    0.26    0.09 
   3   1  -9   52.19    1.20 
   4   1  -9    1.18    0.10 
   5   1  -9    5.90    0.21 
   6   1  -9   20.96    0.54 
   7   1  -9   26.29    0.88 
   8   1  -9   88.72    2.73 
   9   1  -9    3.45    0.08 
  10   1  -9   42.62    0.54 
  11   1  -9    8.69    0.16 
  12   1  -9   52.01    0.70 
  13   1  -9    0.69    0.03 
  -7   2  -9   10.57    0.17 
  -6   2  -9    0.89    0.04 
  -5   2  -9    0.42    0.03 
  -4   2  -9   34.53    0.44 
  -3   2  -9   81.14    1.01 
  -2   2  -9   18.31    0.25 
  -1   2  -9   29.89    0.74 
   0   2  -9   17.34    0.48 
   1   2  -9   98.09    3.06 
   2   2  -9  124.72    3.91 
   3   2  -9   42.64    1.47 
   4   2  -9   43.17    1.48 
   5   2  -9    1.51    0.17 
   6   2  -9    0.79    0.07 
   7   2  -9   17.80    0.48 
   8   2  -9   71.11    0.72 
   9   2  -9    3.70    0.07 
  10   2  -9   39.10    0.50 
  11   2  -9    5.95    0.11 
  12   2  -9   18.22    0.29 
  13   2  -9    0.16    0.01 
  -6   3  -9    4.31    0.08 
  -5   3  -9   14.81    0.24 
  -4   3  -9    1.13    0.04 
  -3   3  -9    0.05    0.01 
  -2   3  -9    7.52    0.12 
  -1   3  -9   35.54    0.44 
   0   3  -9   43.54    0.48 
   1   3  -9    0.17    0.05 
   2   3  -9   45.13    1.59 
   3   3  -9    0.08    0.07 
   4   3  -9   33.39    1.23 
   5   3  -9    1.77    0.19 
   6   3  -9  125.74    1.18 
   7   3  -9   23.40    0.25 
   8   3  -9    8.82    0.12 
   9   3  -9    0.84    0.03 
  10   3  -9   26.97    0.31 
  11   3  -9    8.32    0.11 
  12   3  -9   23.01    0.32 
  -5   4  -9    2.19    0.05 
  -4   4  -9    1.38    0.04 
  -3   4  -9    0.23    0.02 
  -2   4  -9    0.48    0.02 
  -1   4  -9    1.61    0.04 
   0   4  -9    0.60    0.03 
   1   4  -9    0.13    0.01 
   2   4  -9   64.23    0.53 
   3   4  -9    5.92    0.08 
   4   4  -9   20.07    0.19 
   5   4  -9   27.88    0.27 
   6   4  -9    1.89    0.04 
   7   4  -9    0.05    0.01 
   8   4  -9   12.17    0.14 
   9   4  -9    8.83    0.11 
  10   4  -9    0.04    0.01 
  11   4  -9    0.51    0.02 
  -4   5  -9    2.30    0.04 
  -3   5  -9    1.07    0.03 
  -2   5  -9    0.32    0.02 
  -1   5  -9   14.18    0.15 
   0   5  -9    6.20    0.08 
   1   5  -9    1.73    0.03 
   2   5  -9    0.29    0.02 
   3   5  -9    4.15    0.06 
   4   5  -9    1.65    0.03 
   5   5  -9    0.70    0.02 
   6   5  -9    0.65    0.02 
   7   5  -9   13.07    0.13 
   8   5  -9    0.52    0.02 
   9   5  -9   15.65    0.19 
  10   5  -9    0.01    0.01 
  -1   6  -9    0.24    0.01 
   0   6  -9    0.02    0.01 
   1   6  -9    3.78    0.05 
   2   6  -9    3.58    0.05 
   3   6  -9    1.41    0.03 
   4   6  -9    0.13    0.01 
   5   6  -9    4.05    0.05 
   6   6  -9    3.40    0.05 
   7   6  -9    5.45    0.08 
   4  -5  -8    0.22    0.07 
   5  -5  -8   32.20    1.11 
  10  -5  -8    0.47    0.05 
  -6  -4  -8    4.52    0.17 
  -3  -4  -8    9.59    0.56 
  -2  -4  -8   11.54    0.64 
  -1  -4  -8    3.40    0.32 
   2  -4  -8   73.17    2.34 
   3  -4  -8   52.73    1.71 
   5  -4  -8    8.32    0.37 
   6  -4  -8    5.09    0.27 
   7  -4  -8   37.47    1.25 
   8  -4  -8    9.05    0.40 
   9  -4  -8   42.48    1.33 
  10  -4  -8    0.84    0.06 
  11  -4  -8    8.15    0.21 
  12  -4  -8    7.54    0.15 
  -7  -3  -8    2.70    0.12 
  -4  -3  -8   13.15    0.68 
  -3  -3  -8   11.63    0.63 
  -2  -3  -8    2.20    0.28 
  -1  -3  -8    0.99    0.20 
   0  -3  -8   17.90    0.84 
   3  -3  -8   13.14    0.51 
   4  -3  -8   12.51    0.48 
   5  -3  -8   24.85    0.85 
   6  -3  -8    8.16    0.37 
   7  -3  -8    0.72    0.11 
   8  -3  -8   25.04    0.88 
   9  -3  -8    8.16    0.25 
  10  -3  -8    9.47    0.25 
  11  -3  -8   10.79    0.23 
  12  -3  -8    8.53    0.13 
  -8  -2  -8    1.12    0.03 
  -7  -2  -8    2.23    0.07 
  -6  -2  -8    2.17    0.09 
  -5  -2  -8    0.68    0.16 
  -4  -2  -8    2.97    0.29 
  -3  -2  -8    0.21    0.12 
  -2  -2  -8    0.88    0.19 
  -1  -2  -8   24.43    1.01 
   0  -2  -8    3.13    0.27 
   1  -2  -8   10.03    0.52 
   2  -2  -8    6.61    0.37 
   3  -2  -8    1.08    0.11 
   4  -2  -8    1.56    0.12 
   5  -2  -8   11.33    0.43 
   6  -2  -8    1.22    0.08 
   7  -2  -8    1.22    0.08 
   8  -2  -8   20.40    0.51 
   9  -2  -8    5.60    0.15 
  10  -2  -8   40.51    0.73 
  11  -2  -8    0.07    0.02 
  12  -2  -8    1.71    0.05 
  13  -2  -8    5.37    0.10 
  -8  -1  -8   19.69    0.27 
  -7  -1  -8    8.51    0.18 
  -6  -1  -8   28.48    0.55 
  -5  -1  -8    5.59    0.14 
  -4  -1  -8    0.17    0.06 
  -3  -1  -8    0.07    0.05 
  -2  -1  -8    9.57    0.52 
  -1  -1  -8   15.26    0.68 
   0  -1  -8    2.66    0.14 
   1  -1  -8    9.18    0.28 
   2  -1  -8    8.19    0.20 
   3  -1  -8    1.27    0.06 
   4  -1  -8   47.69    0.89 
   5  -1  -8  130.99    2.80 
   6  -1  -8    4.10    0.15 
   7  -1  -8   14.12    0.37 
   8  -1  -8    4.83    0.17 
   9  -1  -8    1.82    0.15 
  10  -1  -8    0.52    0.03 
  11  -1  -8   17.74    0.25 
  12  -1  -8   18.90    0.28 
  13  -1  -8    6.58    0.12 
  -8   0  -8   10.99    0.18 
  -7   0  -8    0.12    0.02 
  -6   0  -8    1.90    0.05 
  -5   0  -8    5.89    0.16 
  -4   0  -8   42.78    1.04 
  -3   0  -8    8.42    0.30 
  -2   0  -8   13.16    0.40 
  -1   0  -8    1.87    0.19 
   0   0  -8    4.54    0.13 
   1   0  -8   69.96    1.23 
   2   0  -8   60.40    1.12 
   3   0  -8  359.88    6.31 
   4   0  -8  114.65    2.01 
   5   0  -8    1.88    0.11 
   6   0  -8   12.92    0.45 
   7   0  -8  156.04    4.56 
   8   0  -8   64.90    1.99 
   9   0  -8    0.40    0.08 
  10   0  -8    6.52    0.11 
  11   0  -8    6.64    0.11 
  12   0  -8   11.08    0.18 
  13   0  -8   13.27    0.22 
  14   0  -8   61.91    1.30 
  -8   1  -8   19.57    0.30 
  -7   1  -8    8.56    0.15 
  -6   1  -8   29.27    0.38 
  -5   1  -8    5.50    0.10 
  -4   1  -8    0.20    0.02 
  -3   1  -8    0.17    0.05 
  -2   1  -8    9.07    0.30 
  -1   1  -8   14.82    0.42 
   0   1  -8    2.74    0.22 
   1   1  -8    9.33    0.45 
   2   1  -8    8.57    0.32 
   3   1  -8    1.23    0.07 
   4   1  -8   47.69    0.90 
   5   1  -8  128.00    2.68 
   6   1  -8    3.98    0.16 
   7   1  -8   13.75    0.51 
   8   1  -8    4.76    0.24 
   9   1  -8    1.64    0.14 
  10   1  -8    0.54    0.03 
  11   1  -8   17.87    0.27 
  12   1  -8   19.21    0.31 
  13   1  -8    6.80    0.12 
  -8   2  -8    1.08    0.04 
  -7   2  -8    2.23    0.06 
  -6   2  -8    2.28    0.06 
  -5   2  -8    0.47    0.03 
  -4   2  -8    2.89    0.07 
  -3   2  -8    0.20    0.07 
  -2   2  -8    0.30    0.06 
  -1   2  -8   24.36    0.63 
   0   2  -8    3.12    0.15 
   1   2  -8   11.03    0.33 
   2   2  -8    7.05    0.37 
   3   2  -8    0.82    0.12 
   4   2  -8    1.54    0.16 
   5   2  -8   11.30    0.32 
   6   2  -8    1.25    0.09 
   7   2  -8    1.38    0.09 
   8   2  -8   19.90    0.71 
   9   2  -8    5.72    0.08 
  10   2  -8   39.32    0.44 
  11   2  -8    0.08    0.01 
  12   2  -8    1.61    0.05 
  13   2  -8    5.32    0.09 
  -7   3  -8    2.70    0.06 
  -6   3  -8    7.53    0.12 
  -5   3  -8    2.40    0.05 
  -4   3  -8   13.16    0.19 
  -3   3  -8   10.71    0.15 
  -2   3  -8    2.24    0.06 
  -1   3  -8    0.99    0.12 
   0   3  -8   20.33    0.53 
   1   3  -8   54.18    1.25 
   2   3  -8    0.68    0.07 
   3   3  -8   13.11    0.40 
   4   3  -8   13.60    0.59 
   5   3  -8   25.81    0.97 
   6   3  -8    8.21    0.44 
   7   3  -8    1.00    0.15 
   8   3  -8   25.33    0.23 
   9   3  -8    8.41    0.11 
  10   3  -8    9.67    0.12 
  11   3  -8   10.73    0.14 
  12   3  -8    8.24    0.13 
  13   3  -8    3.03    0.11 
  -6   4  -8    4.70    0.08 
  -5   4  -8    0.87    0.03 
  -4   4  -8   19.36    0.23 
  -3   4  -8   10.42    0.13 
  -2   4  -8   12.30    0.13 
  -1   4  -8    4.14    0.06 
   0   4  -8    0.22    0.02 
   1   4  -8   40.69    0.35 
   2   4  -8   77.34    1.70 
   3   4  -8   54.33    1.26 
   4   4  -8    8.07    0.10 
   5   4  -8    8.15    0.10 
   6   4  -8    4.91    0.06 
   7   4  -8   38.25    0.34 
   8   4  -8    9.44    0.10 
   9   4  -8   43.55    0.39 
  10   4  -8    0.76    0.03 
  11   4  -8    8.03    0.11 
  12   4  -8    6.84    0.14 
  -5   5  -8    0.58    0.02 
  -4   5  -8    0.12    0.01 
  -3   5  -8   23.62    0.24 
  -2   5  -8   14.75    0.16 
  -1   5  -8    1.55    0.03 
   0   5  -8   25.78    0.22 
   1   5  -8    0.87    0.02 
   2   5  -8    3.22    0.05 
   3   5  -8    2.62    0.04 
   4   5  -8    0.30    0.02 
   5   5  -8   34.16    0.27 
   6   5  -8    0.83    0.02 
   7   5  -8   16.22    0.15 
   8   5  -8    5.78    0.07 
   9   5  -8    4.98    0.06 
  10   5  -8    0.40    0.02 
  -3   6  -8    0.86    0.02 
  -2   6  -8   10.85    0.12 
  -1   6  -8   25.42    0.25 
   0   6  -8    0.18    0.01 
   1   6  -8    9.44    0.10 
   2   6  -8    3.17    0.04 
   3   6  -8    7.08    0.07 
   4   6  -8    5.28    0.06 
   5   6  -8    2.02    0.03 
   6   6  -8   10.96    0.11 
   7   6  -8    7.00    0.08 
   8   6  -8    3.13    0.04 
   4  -5  -7   16.47    0.63 
   5  -5  -7    0.50    0.09 
   6  -5  -7    2.81    0.19 
  10  -5  -7    1.68    0.09 
  -4  -4  -7    1.54    0.23 
  -3  -4  -7    3.81    0.35 
  -2  -4  -7    0.06    0.10 
  -1  -4  -7    7.19    0.48 
   5  -4  -7    0.44    0.09 
   6  -4  -7   27.32    0.94 
   7  -4  -7    6.47    0.32 
   8  -4  -7    6.41    0.32 
  10  -4  -7    0.03    0.03 
  11  -4  -7   11.45    0.23 
  12  -4  -7    1.59    0.04 
  -8  -3  -7    0.38    0.03 
  -7  -3  -7   24.24    0.77 
  -5  -3  -7   20.69    0.88 
  -4  -3  -7    3.85    0.35 
  -3  -3  -7   20.04    0.92 
  -2  -3  -7   53.43    1.94 
  -1  -3  -7   94.53    3.24 
   3  -3  -7   42.64    1.39 
   4  -3  -7   79.13    2.44 
   6  -3  -7   66.81    2.07 
   7  -3  -7    0.91    0.11 
   8  -3  -7    7.34    0.34 
   9  -3  -7    0.78    0.07 
  10  -3  -7   21.10    0.42 
  11  -3  -7    7.53    0.17 
  12  -3  -7   22.14    0.31 
  13  -3  -7    0.38    0.02 
  -9  -2  -7    7.89    0.12 
  -8  -2  -7   11.05    0.21 
  -7  -2  -7    3.97    0.13 
  -6  -2  -7    0.24    0.07 
  -5  -2  -7   41.55    1.01 
  -4  -2  -7   10.21    0.36 
  -3  -2  -7  133.71    4.06 
  -2  -2  -7    0.24    0.11 
  -1  -2  -7   19.05    0.81 
   0  -2  -7   66.10    1.48 
   1  -2  -7   88.19    1.95 
   2  -2  -7   83.74    2.52 
   3  -2  -7   31.36    0.63 
   4  -2  -7   50.52    1.22 
   5  -2  -7    3.06    0.15 
   6  -2  -7   94.55    2.01 
   7  -2  -7   29.92    0.70 
   8  -2  -7  233.86    6.84 
   9  -2  -7   11.99    0.47 
  10  -2  -7    0.02    0.02 
  11  -2  -7    0.07    0.02 
  12  -2  -7   55.68    0.75 
  13  -2  -7    2.22    0.06 
  -9  -1  -7    0.43    0.02 
  -8  -1  -7    6.54    0.12 
  -7  -1  -7   37.67    0.60 
  -6  -1  -7    0.07    0.03 
  -5  -1  -7   27.51    0.73 
  -4  -1  -7    5.66    0.24 
  -3  -1  -7   76.98    1.74 
  -2  -1  -7    0.12    0.04 
  -1  -1  -7   70.45    1.56 
   0  -1  -7    0.59    0.06 
   1  -1  -7    6.33    0.21 
   2  -1  -7    3.12    0.10 
   3  -1  -7   58.29    1.01 
   4  -1  -7   12.94    0.29 
   5  -1  -7   13.50    0.40 
   6  -1  -7  109.64    1.91 
   7  -1  -7    4.05    0.15 
   8  -1  -7    0.11    0.04 
   9  -1  -7    1.52    0.09 
  10  -1  -7   82.43    1.10 
  11  -1  -7    3.27    0.07 
  12  -1  -7    7.64    0.15 
  13  -1  -7    3.33    0.08 
  14  -1  -7    8.38    0.20 
  -9   0  -7    0.01    0.01 
  -8   0  -7    0.00    0.01 
  -7   0  -7   -0.01    0.01 
  -6   0  -7    0.02    0.02 
  -5   0  -7    0.08    0.06 
  -4   0  -7    0.03    0.04 
  -3   0  -7    0.02    0.04 
  -2   0  -7    0.03    0.02 
  -1   0  -7    0.04    0.02 
   0   0  -7    0.00    0.02 
   1   0  -7    0.12    0.06 
   2   0  -7    0.02    0.03 
   3   0  -7    0.01    0.02 
   4   0  -7    0.07    0.02 
   6   0  -7    0.17    0.05 
   7   0  -7    0.00    0.03 
   8   0  -7    0.03    0.04 
   9   0  -7   -0.02    0.03 
  10   0  -7    0.06    0.02 
  11   0  -7    0.00    0.01 
  12   0  -7    0.01    0.02 
  13   0  -7    0.03    0.01 
  14   0  -7    0.02    0.01 
  -9   1  -7    0.40    0.02 
  -8   1  -7    6.53    0.11 
  -7   1  -7   37.39    0.48 
  -6   1  -7    0.07    0.02 
  -5   1  -7   28.04    0.98 
  -4   1  -7    5.27    0.29 
  -3   1  -7   76.08    1.71 
  -2   1  -7    0.07    0.03 
  -1   1  -7   69.92    1.55 
   0   1  -7    0.65    0.06 
   1   1  -7    6.29    0.25 
   2   1  -7    2.99    0.11 
   3   1  -7   56.45    1.05 
   4   1  -7   12.72    0.30 
   5   1  -7   13.22    0.31 
   6   1  -7  105.96    1.90 
   7   1  -7    4.04    0.20 
   8   1  -7    0.15    0.05 
   9   1  -7    1.30    0.12 
  10   1  -7   81.02    0.87 
  11   1  -7    3.31    0.08 
  12   1  -7    7.80    0.15 
  13   1  -7    3.27    0.07 
  14   1  -7    8.38    0.16 
  -9   2  -7    7.84    0.15 
  -8   2  -7   11.33    0.18 
  -7   2  -7    4.15    0.08 
  -6   2  -7    0.23    0.02 
  -5   2  -7   39.09    0.50 
  -4   2  -7   10.06    0.44 
  -3   2  -7  126.33    3.84 
  -2   2  -7    0.14    0.04 
  -1   2  -7   19.00    0.50 
   0   2  -7   65.33    1.23 
   1   2  -7   91.40    1.63 
   2   2  -7   84.13    1.52 
   3   2  -7   31.74    0.83 
   4   2  -7   50.42    1.22 
   5   2  -7    3.21    0.12 
   6   2  -7   93.67    2.04 
   7   2  -7   30.69    0.73 
   8   2  -7  234.04    6.81 
   9   2  -7   11.29    0.19 
  10   2  -7    0.07    0.01 
  11   2  -7    0.09    0.01 
  12   2  -7   55.36    0.75 
  13   2  -7    2.19    0.05 
  -8   3  -7    0.39    0.02 
  -7   3  -7   24.28    0.37 
  -6   3  -7    0.19    0.02 
  -5   3  -7   18.71    0.23 
  -4   3  -7    3.34    0.06 
  -3   3  -7   19.76    0.73 
  -2   3  -7   53.35    1.72 
  -1   3  -7  103.49    3.07 
   0   3  -7    0.56    0.07 
   1   3  -7    1.19    0.07 
   2   3  -7   51.70    0.98 
   3   3  -7   45.00    1.03 
   4   3  -7   81.71    1.77 
   5   3  -7   50.83    1.71 
   6   3  -7   66.25    2.17 
   7   3  -7    0.82    0.07 
   8   3  -7    7.08    0.08 
   9   3  -7    0.97    0.03 
  10   3  -7   21.49    0.21 
  11   3  -7    7.40    0.10 
  12   3  -7   21.51    0.24 
  13   3  -7    0.40    0.02 
  -7   4  -7    4.87    0.09 
  -6   4  -7    3.42    0.06 
  -5   4  -7    2.52    0.05 
  -4   4  -7    1.56    0.04 
  -3   4  -7    4.19    0.06 
  -2   4  -7    0.11    0.01 
  -1   4  -7    7.94    0.36 
   0   4  -7  121.96    3.62 
   1   4  -7    0.26    0.05 
   2   4  -7   63.85    1.18 
   3   4  -7   28.11    0.70 
   4   4  -7   14.69    0.43 
   5   4  -7    0.49    0.07 
   6   4  -7   27.29    0.23 
   7   4  -7    6.58    0.07 
   8   4  -7    6.86    0.08 
   9   4  -7    0.30    0.02 
  10   4  -7    0.03    0.01 
  11   4  -7   11.46    0.14 
  12   4  -7    1.66    0.04 
  -6   5  -7    2.17    0.04 
  -5   5  -7    0.97    0.02 
  -4   5  -7   14.58    0.16 
  -3   5  -7    2.92    0.04 
  -2   5  -7    3.39    0.05 
  -1   5  -7   13.52    0.13 
   0   5  -7    0.72    0.02 
   1   5  -7    2.27    0.04 
   2   5  -7   40.93    0.30 
   3   5  -7    7.35    0.07 
   4   5  -7   17.61    0.13 
   5   5  -7    0.50    0.02 
   6   5  -7    2.86    0.04 
   7   5  -7    3.80    0.05 
   8   5  -7    0.20    0.01 
   9   5  -7    5.50    0.07 
  10   5  -7    1.75    0.03 
  -4   6  -7    1.10    0.03 
  -3   6  -7    1.89    0.03 
  -2   6  -7   23.87    0.22 
  -1   6  -7    0.02    0.01 
   0   6  -7    0.12    0.01 
   1   6  -7   12.32    0.11 
   2   6  -7    1.99    0.03 
   3   6  -7   21.44    0.17 
   4   6  -7    0.28    0.01 
   5   6  -7    6.61    0.06 
   6   6  -7    0.85    0.02 
   7   6  -7    1.20    0.02 
   8   6  -7    8.98    0.08 
   0   7  -7    2.63    0.03 
   1   7  -7    3.18    0.03 
   2   7  -7    1.46    0.02 
   3   7  -7    3.24    0.03 
   4   7  -7    0.65    0.01 
   5   7  -7    3.86    0.05 
   7  -5  -6    0.01    0.04 
  10  -5  -6    6.76    0.17 
  11  -5  -6    1.89    0.06 
  -8  -4  -6    5.97    0.22 
  -5  -4  -6    3.09    0.30 
   5  -4  -6   11.47    0.48 
   6  -4  -6   56.55    1.84 
   7  -4  -6   35.80    1.18 
   8  -4  -6   18.56    0.47 
   9  -4  -6   14.29    0.39 
  10  -4  -6    6.65    0.19 
  11  -4  -6   19.09    0.35 
  12  -4  -6    3.02    0.06 
  -9  -3  -6    8.27    0.16 
  -8  -3  -6    1.97    0.08 
  -7  -3  -6    0.62    0.07 
  -6  -3  -6    0.51    0.10 
  -5  -3  -6    6.47    0.38 
  -4  -3  -6    0.11    0.09 
   0  -3  -6   17.88    0.62 
   1  -3  -6    5.00    0.23 
   2  -3  -6   50.38    1.59 
   3  -3  -6    1.29    0.10 
   4  -3  -6   43.42    1.13 
   6  -3  -6    1.43    0.13 
   7  -3  -6    2.47    0.18 
   8  -3  -6   64.39    1.96 
   9  -3  -6    5.22    0.15 
  10  -3  -6    1.92    0.08 
  11  -3  -6    5.41    0.14 
  12  -3  -6    4.09    0.09 
  13  -3  -6    0.90    0.03 
  -9  -2  -6    7.23    0.15 
  -8  -2  -6    6.11    0.17 
  -7  -2  -6    6.89    0.19 
  -6  -2  -6   10.32    0.36 
  -5  -2  -6    0.56    0.10 
  -4  -2  -6   33.03    0.86 
  -3  -2  -6    0.83    0.14 
  -2  -2  -6    0.00    0.03 
  -1  -2  -6    0.17    0.05 
   0  -2  -6   40.35    0.93 
   1  -2  -6   45.87    1.03 
   2  -2  -6   21.72    0.58 
   3  -2  -6   54.51    1.31 
   4  -2  -6   16.20    0.47 
   5  -2  -6   31.54    0.82 
   6  -2  -6    2.26    0.09 
   7  -2  -6   27.99    0.92 
   8  -2  -6   27.09    0.92 
   9  -2  -6   16.07    0.61 
  10  -2  -6   19.42    0.34 
  11  -2  -6    0.58    0.03 
  12  -2  -6    0.04    0.02 
  13  -2  -6    2.53    0.06 
 -10  -1  -6    0.04    0.01 
  -9  -1  -6    0.61    0.03 
  -8  -1  -6   42.53    0.65 
  -7  -1  -6    0.81    0.06 
  -6  -1  -6   66.81    1.48 
  -5  -1  -6    7.71    0.29 
  -4  -1  -6    2.15    0.15 
  -3  -1  -6    0.30    0.04 
  -2  -1  -6  104.72    1.87 
  -1  -1  -6   17.71    0.45 
   0  -1  -6  163.84    3.46 
   1  -1  -6    0.05    0.02 
   2  -1  -6   24.87    0.61 
   3  -1  -6  178.60    5.16 
   4  -1  -6  244.72    5.10 
   5  -1  -6  158.21    3.31 
   6  -1  -6   38.92    0.74 
   7  -1  -6   11.23    0.27 
   8  -1  -6   12.45    0.33 
   9  -1  -6   19.22    0.48 
  10  -1  -6   27.37    0.36 
  11  -1  -6   89.13    1.19 
  12  -1  -6    0.37    0.03 
  13  -1  -6    0.72    0.04 
  14  -1  -6    2.82    0.07 
 -10   0  -6   36.14    0.53 
  -9   0  -6    0.02    0.01 
  -8   0  -6    0.09    0.02 
  -7   0  -6   70.98    0.96 
  -6   0  -6    2.37    0.20 
  -5   0  -6    4.20    0.26 
  -4   0  -6  100.06    2.12 
  -3   0  -6  111.55    1.92 
  -2   0  -6  181.62    3.09 
  -1   0  -6    5.00    0.14 
   0   0  -6   68.14    1.23 
   1   0  -6  146.09    3.05 
   2   0  -6  377.75    8.08 
   3   0  -6  189.76    3.97 
   4   0  -6    0.48    0.05 
   5   0  -6   37.83    0.71 
   6   0  -6   97.94    1.71 
   7   0  -6  286.81    4.96 
   8   0  -6  153.83    3.26 
   9   0  -6  144.61    3.11 
  10   0  -6    0.66    0.06 
  11   0  -6   11.46    0.19 
  12   0  -6    0.13    0.02 
  13   0  -6  103.80    1.55 
  14   0  -6    0.08    0.01 
 -10   1  -6    0.05    0.01 
  -9   1  -6    0.71    0.03 
  -8   1  -6   42.74    0.65 
  -7   1  -6    0.84    0.03 
  -6   1  -6   65.91    0.99 
  -5   1  -6    7.88    0.38 
  -4   1  -6    2.34    0.17 
  -3   1  -6    0.33    0.04 
  -2   1  -6  105.96    1.85 
  -1   1  -6   17.37    0.35 
   0   1  -6  164.68    2.47 
   1   1  -6    0.03    0.02 
   2   1  -6   24.76    0.64 
   3   1  -6  174.59    3.82 
   4   1  -6  237.17    4.23 
   5   1  -6  152.52    2.65 
   6   1  -6   36.88    0.73 
   7   1  -6   10.76    0.33 
   8   1  -6   12.85    0.47 
   9   1  -6   19.74    0.67 
  10   1  -6   27.40    0.31 
  11   1  -6   88.60    1.18 
  12   1  -6    0.33    0.02 
  13   1  -6    0.71    0.03 
  14   1  -6    2.73    0.06 
  -9   2  -6    7.03    0.12 
  -8   2  -6    6.02    0.10 
  -7   2  -6    6.94    0.12 
  -6   2  -6    9.49    0.14 
  -5   2  -6    0.45    0.09 
  -4   2  -6   33.54    1.12 
  -3   2  -6    0.90    0.11 
  -2   2  -6    0.03    0.03 
  -1   2  -6    0.15    0.03 
   0   2  -6   40.01    0.78 
   1   2  -6   46.19    0.75 
   2   2  -6   22.87    0.40 
   3   2  -6   56.85    1.04 
   4   2  -6   16.69    0.36 
   5   2  -6   32.33    0.64 
   6   2  -6    2.13    0.08 
   7   2  -6   27.68    0.66 
   8   2  -6   27.55    0.89 
   9   2  -6   15.88    0.57 
  10   2  -6   19.25    0.21 
  11   2  -6    0.60    0.03 
  12   2  -6    0.04    0.01 
  13   2  -6    2.51    0.05 
  -9   3  -6    8.13    0.12 
  -8   3  -6    2.05    0.05 
  -7   3  -6    0.59    0.03 
  -6   3  -6    0.54    0.03 
  -5   3  -6    6.66    0.10 
  -4   3  -6    0.28    0.08 
  -3   3  -6   10.74    0.45 
  -2   3  -6   14.17    0.54 
  -1   3  -6    4.24    0.23 
   0   3  -6   17.94    0.35 
   1   3  -6    5.20    0.15 
   2   3  -6   51.90    0.85 
   3   3  -6    1.19    0.06 
   4   3  -6   45.17    0.74 
   5   3  -6   24.61    0.50 
   6   3  -6    1.64    0.08 
   7   3  -6    2.70    0.11 
   8   3  -6   63.01    1.41 
   9   3  -6    5.47    0.06 
  10   3  -6    1.96    0.04 
  11   3  -6    5.62    0.08 
  12   3  -6    4.11    0.06 
  13   3  -6    0.87    0.02 
  -8   4  -6    6.17    0.09 
  -7   4  -6    5.56    0.09 
  -6   4  -6   23.08    0.25 
  -5   4  -6    3.10    0.05 
  -4   4  -6    2.92    0.05 
  -3   4  -6    0.95    0.03 
  -2   4  -6    0.37    0.08 
  -1   4  -6   76.89    1.41 
   0   4  -6   22.55    0.47 
   1   4  -6   54.09    0.87 
   2   4  -6   35.07    0.59 
   3   4  -6   16.70    0.33 
   4   4  -6    8.67    0.23 
   5   4  -6   12.06    0.30 
   6   4  -6   59.03    1.09 
   7   4  -6   36.07    0.28 
   8   4  -6   18.71    0.16 
   9   4  -6   15.08    0.14 
  10   4  -6    6.77    0.07 
  11   4  -6   18.99    0.19 
  12   4  -6    3.03    0.05 
  -7   5  -6    1.34    0.04 
  -6   5  -6   11.51    0.15 
  -5   5  -6    2.12    0.04 
  -4   5  -6    3.44    0.05 
  -3   5  -6    0.13    0.01 
  -2   5  -6   51.01    0.38 
  -1   5  -6    0.06    0.01 
   0   5  -6   14.66    0.12 
   1   5  -6    2.72    0.04 
   2   5  -6   16.58    0.13 
   3   5  -6   32.32    0.22 
   4   5  -6   18.77    0.14 
   5   5  -6   16.87    0.13 
   6   5  -6   43.38    0.30 
   7   5  -6    0.04    0.01 
   8   5  -6   19.37    0.15 
   9   5  -6   27.39    0.23 
  10   5  -6    6.91    0.08 
  11   5  -6    1.93    0.04 
  -5   6  -6    5.48    0.07 
  -4   6  -6    5.09    0.07 
  -3   6  -6    1.44    0.03 
  -2   6  -6   13.21    0.12 
  -1   6  -6    4.98    0.05 
   0   6  -6   12.54    0.11 
   1   6  -6   13.04    0.11 
   2   6  -6    1.19    0.02 
   3   6  -6    2.54    0.04 
   4   6  -6    9.52    0.09 
   5   6  -6    2.47    0.03 
   6   6  -6    0.58    0.02 
   7   6  -6   29.47    0.23 
   8   6  -6   18.99    0.15 
   9   6  -6    4.96    0.05 
  -2   7  -6    0.89    0.02 
  -1   7  -6    0.01    0.01 
   0   7  -6    7.87    0.07 
   1   7  -6    9.10    0.08 
   2   7  -6    0.07    0.01 
   3   7  -6    9.36    0.08 
   4   7  -6    0.01    0.01 
   5   7  -6    0.02    0.01 
   6   7  -6    0.87    0.02 
   9  -6  -5    1.08    0.06 
   7  -5  -5    5.82    0.27 
  10  -5  -5    3.39    0.15 
  11  -5  -5    0.94    0.03 
  -9  -4  -5    1.41    0.06 
  -8  -4  -5    0.65    0.06 
  -6  -4  -5    0.46    0.13 
  -5  -4  -5   11.88    0.57 
  -4  -4  -5    1.00    0.18 
   5  -4  -5    2.46    0.17 
   6  -4  -5   13.38    0.52 
   7  -4  -5    0.30    0.07 
   8  -4  -5   17.67    0.46 
   9  -4  -5   32.49    0.76 
  10  -4  -5    3.46    0.16 
  11  -4  -5   18.80    0.34 
  12  -4  -5    3.19    0.07 
 -10  -3  -5    1.13    0.04 
  -9  -3  -5    2.08    0.08 
  -7  -3  -5   34.73    0.87 
  -6  -3  -5    7.12    0.41 
  -5  -3  -5   31.03    1.18 
  -4  -3  -5    7.73    0.43 
  -3  -3  -5   35.55    1.32 
  -2  -3  -5    2.80    0.16 
  -1  -3  -5  149.32    4.71 
   0  -3  -5  102.45    3.07 
   1  -3  -5    1.66    0.11 
   2  -3  -5    0.27    0.05 
   3  -3  -5   59.76    1.47 
   4  -3  -5   28.72    1.38 
   5  -3  -5    3.81    0.18 
   6  -3  -5   27.96    0.91 
   7  -3  -5    7.73    0.35 
   8  -3  -5   20.13    0.50 
   9  -3  -5   22.14    0.54 
  10  -3  -5   30.72    0.58 
  11  -3  -5   21.64    0.42 
  12  -3  -5    3.41    0.07 
  13  -3  -5    0.05    0.01 
 -10  -2  -5    1.46    0.04 
  -9  -2  -5   16.72    0.31 
  -8  -2  -5    0.37    0.04 
  -7  -2  -5    0.29    0.08 
  -6  -2  -5   17.76    0.73 
  -5  -2  -5   82.01    2.58 
  -4  -2  -5    0.16    0.09 
  -3  -2  -5   19.93    0.51 
  -2  -2  -5    7.92    0.24 
  -1  -2  -5    2.30    0.13 
   0  -2  -5   22.79    0.73 
   1  -2  -5   47.06    1.11 
   2  -2  -5   24.44    1.11 
   3  -2  -5    4.41    0.18 
   4  -2  -5   31.18    0.79 
   5  -2  -5   29.33    0.59 
   6  -2  -5  109.94    2.45 
   7  -2  -5   47.40    1.44 
   8  -2  -5   93.47    2.76 
   9  -2  -5   26.93    0.92 
  10  -2  -5    1.54    0.06 
  11  -2  -5    4.75    0.10 
  12  -2  -5   56.62    0.77 
  13  -2  -5    1.74    0.05 
 -10  -1  -5    0.05    0.01 
  -9  -1  -5    0.17    0.02 
  -8  -1  -5    0.84    0.05 
  -7  -1  -5   75.87    1.32 
  -6  -1  -5    1.03    0.12 
  -5  -1  -5    1.33    0.12 
  -4  -1  -5    8.69    0.26 
  -3  -1  -5   39.24    0.89 
  -2  -1  -5   16.02    0.40 
  -1  -1  -5    4.17    0.17 
   0  -1  -5   24.41    0.57 
   1  -1  -5   39.39    0.90 
   2  -1  -5    6.93    0.40 
   3  -1  -5  181.96    5.85 
   4  -1  -5   73.13    2.47 
   5  -1  -5   72.93    1.29 
   6  -1  -5    3.71    0.12 
   7  -1  -5   33.03    0.65 
   8  -1  -5    0.17    0.04 
   9  -1  -5   28.65    0.96 
  10  -1  -5   24.38    0.84 
  11  -1  -5    1.25    0.05 
  12  -1  -5    8.51    0.15 
  13  -1  -5    1.55    0.05 
  14  -1  -5    8.36    0.16 
 -11   0  -5    0.00    0.01 
 -10   0  -5    0.03    0.01 
  -9   0  -5    0.05    0.02 
  -8   0  -5    0.00    0.02 
  -7   0  -5    0.00    0.03 
  -6   0  -5    0.04    0.06 
  -5   0  -5    0.09    0.06 
  -4   0  -5    0.01    0.02 
  -3   0  -5    0.03    0.02 
  -2   0  -5    0.01    0.02 
  -1   0  -5    0.03    0.02 
   0   0  -5    0.01    0.01 
   1   0  -5    0.01    0.01 
   2   0  -5    0.01    0.01 
   3   0  -5    0.00    0.04 
   4   0  -5    0.01    0.05 
   5   0  -5    0.03    0.02 
   6   0  -5    0.02    0.02 
   7   0  -5    0.02    0.02 
   8   0  -5    0.03    0.02 
   9   0  -5    0.01    0.02 
  10   0  -5    0.13    0.03 
  11   0  -5    0.05    0.02 
  12   0  -5    0.01    0.01 
  13   0  -5    0.04    0.02 
  14   0  -5    0.01    0.01 
 -10   1  -5    0.08    0.01 
  -9   1  -5    0.16    0.02 
  -8   1  -5    0.81    0.03 
  -7   1  -5   73.75    0.92 
  -6   1  -5    1.04    0.13 
  -5   1  -5    1.31    0.13 
  -4   1  -5    8.80    0.26 
  -3   1  -5   38.52    0.72 
  -2   1  -5   15.73    0.32 
  -1   1  -5    3.89    0.13 
   0   1  -5   24.64    0.56 
   1   1  -5   39.79    0.89 
   2   1  -5    7.08    0.37 
   3   1  -5  181.28    5.80 
   4   1  -5   71.98    2.35 
   5   1  -5   72.22    1.59 
   6   1  -5    3.58    0.12 
   7   1  -5   34.66    1.04 
   8   1  -5    0.33    0.06 
   9   1  -5   26.94    0.93 
  10   1  -5   24.05    0.81 
  11   1  -5    1.32    0.04 
  12   1  -5    8.63    0.14 
  13   1  -5    1.51    0.05 
  14   1  -5    8.17    0.12 
 -10   2  -5    1.41    0.04 
  -9   2  -5   16.81    0.27 
  -8   2  -5    0.40    0.02 
  -7   2  -5    0.22    0.02 
  -6   2  -5   18.48    0.68 
  -5   2  -5   80.68    2.50 
  -3   2  -5   20.41    0.71 
  -2   2  -5    7.81    0.27 
  -1   2  -5    2.38    0.09 
   0   2  -5   22.60    0.46 
   1   2  -5   49.34    1.13 
   2   2  -5   27.26    0.70 
   3   2  -5    4.53    0.14 
   4   2  -5   31.24    0.48 
   5   2  -5   29.63    0.47 
   6   2  -5  108.55    1.66 
   7   2  -5   46.43    1.03 
   8   2  -5   94.11    2.72 
   9   2  -5   26.66    0.88 
  10   2  -5    1.36    0.03 
  11   2  -5    4.52    0.06 
  12   2  -5   57.38    0.61 
  13   2  -5    1.72    0.04 
 -10   3  -5    1.08    0.03 
  -9   3  -5    2.00    0.04 
  -8   3  -5    0.10    0.02 
  -7   3  -5   33.23    0.40 
  -6   3  -5    7.21    0.10 
  -5   3  -5   32.59    1.10 
  -4   3  -5    7.96    0.26 
  -3   3  -5   37.77    0.88 
  -2   3  -5    3.21    0.12 
  -1   3  -5  160.72    2.40 
   0   3  -5  103.40    1.41 
   1   3  -5    1.67    0.06 
   2   3  -5    0.39    0.03 
   3   3  -5   64.34    0.83 
   4   3  -5   29.30    0.43 
   5   3  -5    3.89    0.09 
   6   3  -5   26.42    0.46 
   7   3  -5    7.97    0.21 
   8   3  -5   20.46    0.53 
   9   3  -5   21.99    0.19 
  10   3  -5   30.56    0.28 
  11   3  -5   22.17    0.23 
  12   3  -5    3.46    0.05 
  13   3  -5    0.07    0.01 
  -9   4  -5    1.38    0.03 
  -8   4  -5    0.65    0.02 
  -7   4  -5    1.65    0.04 
  -6   4  -5    0.41    0.02 
  -5   4  -5   12.29    0.12 
  -4   4  -5    0.93    0.03 
  -3   4  -5    9.32    0.29 
  -2   4  -5   23.48    0.48 
  -1   4  -5    7.74    0.21 
   0   4  -5    5.58    0.16 
   1   4  -5    0.30    0.04 
   2   4  -5    1.82    0.08 
   3   4  -5    4.44    0.13 
   4   4  -5    7.86    0.19 
   5   4  -5    2.72    0.11 
   6   4  -5   13.60    0.33 
   7   4  -5    0.18    0.04 
   8   4  -5   17.82    0.14 
   9   4  -5   33.20    0.26 
  10   4  -5    3.23    0.04 
  11   4  -5   18.22    0.19 
  12   4  -5    3.13    0.05 
  -8   5  -5    0.62    0.03 
  -7   5  -5    0.43    0.02 
  -6   5  -5   11.73    0.12 
  -5   5  -5    4.06    0.06 
  -4   5  -5    1.75    0.03 
  -3   5  -5    4.47    0.05 
  -2   5  -5    3.67    0.04 
  -1   5  -5    7.97    0.07 
   0   5  -5    6.68    0.20 
   1   5  -5   38.99    0.76 
   2   5  -5   55.15    1.05 
   3   5  -5   28.17    0.51 
   4   5  -5    1.98    0.03 
   5   5  -5    1.73    0.03 
   6   5  -5    6.37    0.06 
   7   5  -5    5.61    0.06 
   8   5  -5    3.40    0.04 
   9   5  -5   15.04    0.12 
  10   5  -5    3.48    0.04 
  11   5  -5    0.91    0.02 
  -6   6  -5    0.02    0.01 
  -5   6  -5    8.50    0.09 
  -4   6  -5    7.32    0.08 
  -3   6  -5    0.16    0.01 
  -2   6  -5    2.67    0.04 
  -1   6  -5   17.76    0.15 
   0   6  -5    5.44    0.06 
   1   6  -5   27.40    0.21 
   2   6  -5    3.97    0.05 
   3   6  -5    2.13    0.03 
   4   6  -5   16.97    0.14 
   5   6  -5   15.77    0.14 
   6   6  -5    0.49    0.02 
   7   6  -5    0.27    0.01 
   8   6  -5   10.73    0.09 
   9   6  -5    1.09    0.02 
  -3   7  -5   10.11    0.08 
  -2   7  -5    4.59    0.05 
  -1   7  -5    6.77    0.06 
   0   7  -5    0.14    0.01 
   1   7  -5    0.49    0.02 
   2   7  -5    0.92    0.02 
   3   7  -5   37.67    0.31 
   4   7  -5    2.81    0.03 
   5   7  -5    7.65    0.07 
   6   7  -5    3.73    0.04 
   9  -6  -4    1.06    0.07 
  -5  -5  -4    1.03    0.17 
   6  -5  -4    0.03    0.05 
   7  -5  -4    7.88    0.33 
   8  -5  -4   26.15    1.01 
   9  -5  -4   14.25    0.50 
  10  -5  -4    1.78    0.07 
  11  -5  -4    1.14    0.03 
  -9  -4  -4    0.40    0.03 
  -7  -4  -4    0.95    0.20 
  -6  -4  -4    6.58    0.40 
  -5  -4  -4    2.85    0.26 
  -4  -4  -4   20.10    0.83 
   1  -4  -4   78.73    2.61 
   2  -4  -4   33.74    1.63 
   4  -4  -4    3.13    0.17 
   5  -4  -4    4.49    0.24 
   6  -4  -4  119.44    3.73 
   7  -4  -4   16.57    0.42 
   8  -4  -4   12.72    0.35 
   9  -4  -4    6.59    0.17 
  10  -4  -4    0.73    0.05 
  11  -4  -4    2.73    0.08 
  12  -4  -4    2.11    0.04 
 -10  -3  -4    9.41    0.18 
  -9  -3  -4    4.50    0.17 
  -8  -3  -4    4.60    0.30 
  -7  -3  -4    4.11    0.31 
  -6  -3  -4   19.31    0.80 
  -5  -3  -4    4.57    0.32 
  -4  -3  -4    9.78    0.48 
  -3  -3  -4   12.76    0.34 
  -2  -3  -4   19.08    0.67 
  -1  -3  -4   98.04    3.01 
   0  -3  -4    0.17    0.04 
   1  -3  -4   38.09    0.97 
   2  -3  -4    0.05    0.09 
   3  -3  -4    2.77    0.34 
   4  -3  -4   75.10    2.78 
   5  -3  -4   22.57    0.64 
   6  -3  -4    0.04    0.04 
   7  -3  -4    2.25    0.16 
   8  -3  -4   31.79    0.74 
   9  -3  -4    5.50    0.15 
  10  -3  -4    1.16    0.08 
  11  -3  -4    0.05    0.02 
  12  -3  -4    3.86    0.08 
  13  -3  -4    0.03    0.01 
 -11  -2  -4    0.21    0.01 
 -10  -2  -4    0.08    0.02 
  -9  -2  -4    1.60    0.07 
  -8  -2  -4   10.47    0.29 
  -7  -2  -4    7.77    0.42 
  -6  -2  -4   35.44    1.26 
  -5  -2  -4    3.35    0.25 
  -4  -2  -4    5.61    0.19 
  -3  -2  -4    0.06    0.03 
  -2  -2  -4   13.32    0.35 
  -1  -2  -4   24.52    0.75 
   0  -2  -4   11.51    0.39 
   1  -2  -4   15.43    0.41 
   2  -2  -4   70.44    2.60 
   3  -2  -4   66.95    2.45 
   4  -2  -4   35.37    1.42 
   5  -2  -4  104.96    2.35 
   6  -2  -4   15.03    0.45 
   7  -2  -4    4.12    0.19 
   8  -2  -4    5.06    0.17 
   9  -2  -4   14.95    0.56 
  10  -2  -4    0.10    0.02 
  11  -2  -4    1.62    0.05 
  12  -2  -4    2.48    0.06 
  13  -2  -4    2.94    0.07 
 -11  -1  -4    0.01    0.01 
 -10  -1  -4   11.06    0.17 
  -9  -1  -4    8.16    0.14 
  -8  -1  -4   30.62    0.49 
  -7  -1  -4    0.95    0.16 
  -6  -1  -4   55.29    1.74 
  -5  -1  -4    7.16    0.22 
  -4  -1  -4   58.48    1.28 
  -3  -1  -4   21.69    0.52 
  -2  -1  -4  224.81    6.55 
  -1  -1  -4    4.63    0.18 
   0  -1  -4   78.50    1.66 
   1  -1  -4   78.15    1.68 
   2  -1  -4  108.36    3.54 
   3  -1  -4  149.43    4.85 
   4  -1  -4  183.66    5.85 
   5  -1  -4   15.17    0.42 
   6  -1  -4   26.56    0.52 
   7  -1  -4   39.62    0.75 
   8  -1  -4  122.05    3.58 
   9  -1  -4   43.50    1.36 
  10  -1  -4   34.00    1.13 
  11  -1  -4   12.20    0.18 
  12  -1  -4    3.99    0.08 
  13  -1  -4    3.42    0.08 
  14  -1  -4    1.58    0.05 
 -11   0  -4    1.75    0.04 
 -10   0  -4   37.57    0.50 
  -9   0  -4    4.33    0.08 
  -8   0  -4    6.50    0.12 
  -7   0  -4    0.75    0.13 
  -6   0  -4   97.19    3.03 
  -5   0  -4    0.11    0.03 
  -4   0  -4  263.80    4.48 
  -3   0  -4   56.77    1.22 
  -2   0  -4   29.93    0.92 
  -1   0  -4    1.81    0.07 
   0   0  -4  252.68    5.31 
   1   0  -4   22.12    0.50 
   2   0  -4    1.28    0.14 
   3   0  -4   80.55    2.54 
   4   0  -4  125.93    3.85 
   5   0  -4   71.95    2.37 
   6   0  -4  118.86    2.03 
   7   0  -4  289.85    6.05 
   8   0  -4   37.86    0.85 
   9   0  -4    2.48    0.11 
  10   0  -4   55.90    1.81 
  11   0  -4   32.38    0.42 
  12   0  -4   19.58    0.30 
  13   0  -4   24.60    0.39 
  14   0  -4    1.88    0.05 
 -11   1  -4    0.00    0.01 
 -10   1  -4   11.06    0.19 
  -9   1  -4    8.15    0.14 
  -8   1  -4   30.24    0.39 
  -7   1  -4    0.70    0.12 
  -6   1  -4   54.47    1.69 
  -5   1  -4    7.17    0.22 
  -4   1  -4   59.17    1.27 
  -3   1  -4   21.51    0.51 
  -2   1  -4  217.60    4.74 
  -1   1  -4    4.45    0.14 
   0   1  -4   78.89    1.66 
   1   1  -4   77.08    1.67 
   2   1  -4  114.67    2.02 
   3   1  -4  160.36    3.67 
   4   1  -4  190.27    4.28 
   5   1  -4   15.16    0.34 
   6   1  -4   26.48    0.55 
   7   1  -4   39.28    1.21 
   8   1  -4  118.76    2.51 
   9   1  -4   40.78    0.94 
  10   1  -4   33.18    0.78 
  11   1  -4   11.79    0.14 
  12   1  -4    3.97    0.08 
  13   1  -4    3.37    0.07 
  14   1  -4    1.60    0.04 
 -11   2  -4    0.18    0.01 
 -10   2  -4    0.11    0.01 
  -9   2  -4    1.56    0.04 
  -8   2  -4   10.06    0.14 
  -7   2  -4    7.37    0.24 
  -6   2  -4   35.48    0.83 
  -5   2  -4    3.18    0.14 
  -4   2  -4    5.48    0.15 
  -3   2  -4    0.06    0.02 
  -2   2  -4   13.55    0.25 
  -1   2  -4   23.34    0.58 
   0   2  -4   11.65    0.52 
   1   2  -4   16.21    0.65 
   2   2  -4   80.73    1.81 
   3   2  -4   72.72    1.67 
   4   2  -4   35.15    0.72 
   5   2  -4  105.44    1.32 
   6   2  -4   15.12    0.29 
   7   2  -4    4.25    0.15 
   8   2  -4    5.35    0.24 
   9   2  -4   14.46    0.53 
  10   2  -4    0.08    0.01 
  11   2  -4    1.65    0.04 
  12   2  -4    2.47    0.05 
  13   2  -4    2.92    0.06 
 -10   3  -4    9.38    0.14 
  -9   3  -4    4.53    0.08 
  -8   3  -4    4.56    0.08 
  -7   3  -4    3.93    0.06 
  -6   3  -4   19.19    0.50 
  -5   3  -4    4.48    0.18 
  -4   3  -4   10.19    0.24 
  -3   3  -4   13.49    0.27 
  -2   3  -4   20.71    0.34 
  -1   3  -4  103.47    1.39 
   0   3  -4    0.19    0.03 
   1   3  -4   41.68    0.59 
   2   3  -4    0.16    0.02 
   3   3  -4    3.00    0.09 
   4   3  -4   77.60    1.00 
   5   3  -4   23.19    0.37 
   6   3  -4    0.08    0.02 
   7   3  -4    2.16    0.08 
   8   3  -4   31.73    0.77 
   9   3  -4    5.52    0.07 
  10   3  -4    1.17    0.03 
  11   3  -4    0.10    0.01 
  12   3  -4    3.96    0.05 
  13   3  -4    0.05    0.01 
  -9   4  -4    0.37    0.02 
  -8   4  -4    1.37    0.03 
  -7   4  -4    1.25    0.03 
  -6   4  -4    7.05    0.08 
  -5   4  -4    2.78    0.04 
  -4   4  -4   21.03    0.44 
  -3   4  -4   50.98    0.93 
  -2   4  -4    0.20    0.03 
  -1   4  -4   25.24    0.44 
   0   4  -4   16.01    0.30 
   1   4  -4   89.20    1.22 
   2   4  -4   38.59    0.57 
   3   4  -4    4.97    0.13 
   4   4  -4    2.62    0.10 
   5   4  -4    4.88    0.16 
   6   4  -4  124.72    2.19 
   7   4  -4   16.50    0.32 
   8   4  -4   12.70    0.10 
   9   4  -4    6.71    0.07 
  10   4  -4    0.82    0.02 
  11   4  -4    2.80    0.04 
  12   4  -4    2.10    0.03 
  -8   5  -4   14.21    0.18 
  -7   5  -4    3.18    0.05 
  -6   5  -4    4.00    0.05 
  -5   5  -4    1.05    0.02 
  -4   5  -4    3.18    0.04 
  -3   5  -4    9.26    0.08 
  -2   5  -4   74.74    1.35 
  -1   5  -4   55.46    1.02 
   0   5  -4   20.15    0.43 
   1   5  -4   37.53    0.72 
   2   5  -4    6.52    0.19 
   3   5  -4   20.33    0.39 
   4   5  -4   90.31    1.41 
   5   5  -4    3.62    0.04 
   6   5  -4    0.03    0.01 
   7   5  -4    7.36    0.07 
   8   5  -4   31.24    0.24 
   9   5  -4   15.11    0.12 
  10   5  -4    1.72    0.02 
  11   5  -4    1.15    0.02 
  -7   6  -4    6.31    0.10 
  -6   6  -4    6.51    0.07 
  -5   6  -4    2.10    0.03 
  -4   6  -4   12.18    0.11 
  -3   6  -4    1.60    0.03 
  -2   6  -4    0.07    0.01 
  -1   6  -4   19.79    0.16 
   0   6  -4   16.26    0.14 
   1   6  -4    1.50    0.03 
   2   6  -4    0.53    0.02 
   3   6  -4    4.43    0.05 
   4   6  -4    3.96    0.05 
   5   6  -4    5.05    0.06 
   6   6  -4    0.45    0.02 
   7   6  -4   43.89    0.34 
   8   6  -4    3.00    0.04 
   9   6  -4    1.09    0.02 
  -4   7  -4    7.26    0.07 
  -3   7  -4    1.76    0.03 
  -2   7  -4    7.83    0.07 
  -1   7  -4    6.20    0.07 
   0   7  -4    1.62    0.03 
   1   7  -4   20.47    0.18 
   2   7  -4    5.48    0.06 
   3   7  -4    9.33    0.09 
   4   7  -4    1.67    0.03 
   5   7  -4    1.98    0.03 
   6   7  -4    4.60    0.05 
   7   7  -4    3.90    0.04 
   5  -6  -3    2.56    0.18 
   9  -6  -3    5.78    0.21 
  -6  -5  -3    0.70    0.16 
  -5  -5  -3    4.40    0.32 
   5  -5  -3    7.50    0.34 
   6  -5  -3   21.85    0.75 
   7  -5  -3    0.08    0.05 
   8  -5  -3    0.19    0.06 
   9  -5  -3    2.70    0.14 
  10  -5  -3    2.82    0.08 
  11  -5  -3    9.27    0.15 
 -10  -4  -3    0.84    0.04 
  -7  -4  -3   38.94    1.37 
  -6  -4  -3    5.67    0.38 
  -5  -4  -3   53.83    1.80 
   1  -4  -3   33.29    1.55 
   2  -4  -3    5.07    0.48 
   3  -4  -3   53.14    2.16 
   6  -4  -3   37.25    1.18 
   7  -4  -3   46.92    1.44 
   8  -4  -3    5.24    0.25 
   9  -4  -3    0.57    0.06 
  10  -4  -3    0.15    0.03 
  11  -4  -3    2.40    0.06 
  12  -4  -3    1.24    0.04 
 -11  -3  -3   11.71    0.18 
 -10  -3  -3    0.14    0.02 
  -9  -3  -3   36.27    1.13 
  -8  -3  -3    0.39    0.12 
  -7  -3  -3   83.36    2.59 
  -6  -3  -3    5.02    0.34 
  -5  -3  -3    1.97    0.20 
  -4  -3  -3    1.36    0.66 
  -3  -3  -3  135.93    5.03 
  -2  -3  -3    7.92    0.28 
  -1  -3  -3  435.90   13.54 
   0  -3  -3   31.14    0.81 
   1  -3  -3    0.79    0.17 
   2  -3  -3   16.07    0.83 
   3  -3  -3   39.96    1.57 
   4  -3  -3  127.86    2.87 
   5  -3  -3  114.64    2.62 
   6  -3  -3    7.24    0.28 
   7  -3  -3    1.11    0.07 
   8  -3  -3   86.25    1.82 
   9  -3  -3  163.58    2.86 
  10  -3  -3   25.86    0.38 
  11  -3  -3    5.07    0.10 
  12  -3  -3    0.22    0.02 
  13  -3  -3   10.92    0.21 
 -11  -2  -3   29.60    0.40 
 -10  -2  -3   11.88    0.23 
  -9  -2  -3   54.19    1.14 
  -8  -2  -3    1.29    0.10 
  -7  -2  -3   38.88    1.32 
  -6  -2  -3    2.35    0.22 
  -5  -2  -3  277.90    4.81 
  -4  -2  -3    0.96    0.07 
  -3  -2  -3  191.66    5.79 
  -2  -2  -3   36.50    1.12 
  -1  -2  -3  187.83    5.57 
   0  -2  -3   35.06    1.06 
   1  -2  -3  328.93    7.78 
   2  -2  -3   85.08    3.02 
   3  -2  -3   12.95    0.66 
   4  -2  -3   42.70    1.63 
   5  -2  -3   29.20    0.75 
   6  -2  -3   29.68    0.76 
   7  -2  -3   58.14    1.08 
   8  -2  -3  172.37    3.53 
   9  -2  -3    3.79    0.22 
  10  -2  -3    1.29    0.05 
  11  -2  -3   35.74    0.51 
  12  -2  -3   48.63    0.73 
  13  -2  -3   12.37    0.21 
 -12  -1  -3    1.55    0.04 
 -11  -1  -3    3.30    0.07 
 -10  -1  -3   12.65    0.21 
  -9  -1  -3    2.38    0.08 
  -8  -1  -3    3.55    0.25 
  -7  -1  -3   89.37    2.72 
  -6  -1  -3    9.58    0.45 
  -5  -1  -3   21.94    0.49 
  -4  -1  -3    1.09    0.07 
  -3  -1  -3  118.63    3.40 
  -2  -1  -3   11.07    0.36 
  -1  -1  -3  384.99    8.24 
   0  -1  -3  152.28    3.38 
   1  -1  -3    1.49    0.07 
   2  -1  -3   17.23    0.74 
   3  -1  -3  164.51    4.05 
   4  -1  -3    8.12    0.31 
   5  -1  -3   14.82    0.50 
   6  -1  -3   25.82    0.65 
   7  -1  -3   48.80    1.46 
   8  -1  -3    0.95    0.10 
   9  -1  -3   21.58    0.76 
  10  -1  -3   89.59    2.67 
  11  -1  -3    7.05    0.13 
  12  -1  -3    0.37    0.03 
  13  -1  -3    5.35    0.11 
  14  -1  -3   17.12    0.38 
 -12   0  -3    0.03    0.01 
 -11   0  -3    0.03    0.01 
 -10   0  -3    0.02    0.01 
  -9   0  -3    0.03    0.02 
  -8   0  -3   -0.02    0.05 
  -7   0  -3    0.03    0.04 
  -6   0  -3    0.05    0.03 
  -5   0  -3    0.07    0.02 
  -4   0  -3    0.06    0.03 
  -3   0  -3    0.00    0.02 
  -2   0  -3    0.17    0.03 
   0   0  -3    0.05    0.01 
   1   0  -3    0.01    0.01 
   2   0  -3    0.01    0.01 
   3   0  -3    0.07    0.03 
   4   0  -3    0.03    0.03 
   5   0  -3    0.01    0.03 
   6   0  -3    0.02    0.01 
   7   0  -3    0.05    0.03 
   8   0  -3   -0.01    0.02 
   9   0  -3    0.00    0.02 
  10   0  -3    0.01    0.04 
  11   0  -3    0.00    0.01 
  12   0  -3   -0.01    0.01 
  13   0  -3    0.03    0.02 
  14   0  -3    0.02    0.01 
 -12   1  -3    1.46    0.05 
 -11   1  -3    3.32    0.07 
 -10   1  -3   12.30    0.19 
  -9   1  -3    2.41    0.06 
  -8   1  -3    2.62    0.14 
  -7   1  -3   86.86    1.87 
  -6   1  -3    9.64    0.28 
  -5   1  -3   21.32    0.42 
  -4   1  -3    1.03    0.05 
  -3   1  -3  114.06    3.40 
  -2   1  -3   10.50    0.27 
  -1   1  -3  395.07    8.35 
   0   1  -3  156.55    3.46 
   1   1  -3    1.45    0.05 
   2   1  -3   19.46    0.37 
   3   1  -3  179.87    4.20 
   4   1  -3    8.39    0.30 
   5   1  -3   15.18    0.47 
   6   1  -3   26.18    0.51 
   7   1  -3   47.26    0.89 
   8   1  -3    0.90    0.06 
   9   1  -3   20.83    0.52 
  10   1  -3   83.29    1.86 
  11   1  -3    6.79    0.10 
  12   1  -3    0.37    0.02 
  13   1  -3    5.19    0.10 
  14   1  -3   16.62    0.27 
 -11   2  -3   29.46    0.44 
 -10   2  -3   11.68    0.20 
  -9   2  -3   52.95    0.67 
  -8   2  -3    1.11    0.03 
  -7   2  -3   36.82    0.86 
  -6   2  -3    2.49    0.12 
  -5   2  -3  265.17    4.62 
  -4   2  -3    1.00    0.05 
  -3   2  -3  191.84    2.60 
  -2   2  -3   37.17    0.84 
  -1   2  -3  188.64    4.10 
   0   2  -3   36.37    1.21 
   1   2  -3  363.20    8.04 
   2   2  -3   96.48    2.18 
   3   2  -3   13.76    0.42 
   4   2  -3   44.22    1.09 
   5   2  -3   29.30    0.44 
   6   2  -3   29.61    0.45 
   7   2  -3   56.48    0.93 
   8   2  -3  170.72    4.98 
   9   2  -3    3.83    0.20 
  10   2  -3    1.27    0.03 
  11   2  -3   35.69    0.32 
  12   2  -3   47.58    0.49 
  13   2  -3   12.26    0.15 
 -11   3  -3   11.78    0.18 
 -10   3  -3    0.16    0.01 
  -9   3  -3   36.80    0.43 
  -8   3  -3    0.52    0.03 
  -7   3  -3   79.68    0.76 
  -6   3  -3    5.16    0.19 
  -5   3  -3    1.77    0.08 
  -4   3  -3    1.30    0.07 
  -3   3  -3  131.80    1.79 
  -2   3  -3    8.36    0.16 
  -1   3  -3  460.17    6.27 
   0   3  -3   34.73    0.50 
   1   3  -3    0.86    0.04 
   2   3  -3   16.65    0.26 
   3   3  -3   38.63    0.53 
   4   3  -3  130.36    1.49 
   5   3  -3  118.35    1.60 
   6   3  -3    7.67    0.16 
   7   3  -3    1.10    0.06 
   8   3  -3   83.66    1.51 
   9   3  -3  166.52    1.23 
  10   3  -3   26.09    0.23 
  11   3  -3    5.16    0.06 
  12   3  -3    0.22    0.01 
  13   3  -3   10.89    0.18 
 -10   4  -3    0.92    0.03 
  -9   4  -3    3.04    0.05 
  -8   4  -3    6.29    0.09 
  -7   4  -3   38.09    0.35 
  -6   4  -3    6.14    0.07 
  -5   4  -3   51.04    0.97 
  -4   4  -3    5.84    0.15 
  -3   4  -3    7.08    0.17 
  -2   4  -3    5.03    0.13 
  -1   4  -3    5.50    0.13 
   0   4  -3    2.11    0.09 
   1   4  -3   37.74    0.51 
   2   4  -3    5.21    0.12 
   3   4  -3   54.86    0.74 
   4   4  -3   49.14    0.80 
   5   4  -3    0.90    0.06 
   6   4  -3   36.65    0.61 
   7   4  -3   44.78    0.74 
   8   4  -3    4.94    0.05 
   9   4  -3    0.61    0.02 
  10   4  -3    0.17    0.01 
  11   4  -3    2.46    0.03 
  12   4  -3    1.17    0.02 
  -9   5  -3    0.08    0.01 
  -8   5  -3    2.17    0.04 
  -7   5  -3    2.58    0.04 
  -6   5  -3    0.96    0.02 
  -5   5  -3    4.72    0.05 
  -4   5  -3    3.13    0.04 
  -3   5  -3    3.09    0.11 
  -2   5  -3    0.04    0.03 
  -1   5  -3    9.16    0.21 
   0   5  -3   13.45    0.27 
   1   5  -3   32.36    0.63 
   2   5  -3   51.84    0.96 
   3   5  -3    1.57    0.08 
   4   5  -3    2.54    0.10 
   5   5  -3    8.05    0.23 
   6   5  -3   21.54    0.17 
   7   5  -3    0.15    0.01 
   8   5  -3    0.15    0.01 
   9   5  -3    2.95    0.04 
  10   5  -3    2.77    0.03 
  11   5  -3    9.34    0.10 
  -7   6  -3    0.69    0.02 
  -6   6  -3    0.16    0.01 
  -5   6  -3   12.87    0.11 
  -4   6  -3    7.57    0.08 
  -3   6  -3    3.55    0.05 
  -2   6  -3   11.87    0.10 
  -1   6  -3    5.19    0.06 
   0   6  -3    6.64    0.07 
   1   6  -3    0.72    0.02 
   2   6  -3   46.08    0.35 
   3   6  -3    4.22    0.05 
   4   6  -3   14.96    0.13 
   5   6  -3    2.93    0.04 
   6   6  -3    0.74    0.02 
   7   6  -3    3.94    0.05 
   8   6  -3    0.50    0.01 
   9   6  -3    5.91    0.05 
  -5   7  -3    0.13    0.01 
  -4   7  -3    1.85    0.03 
  -3   7  -3    0.69    0.02 
  -2   7  -3    0.42    0.02 
  -1   7  -3    3.61    0.05 
   0   7  -3   12.70    0.12 
   1   7  -3    0.02    0.01 
   2   7  -3    5.61    0.06 
   3   7  -3   10.67    0.10 
   4   7  -3    4.75    0.06 
   5   7  -3    9.51    0.09 
   6   7  -3    1.22    0.02 
   7   7  -3    1.87    0.03 
   8  -6  -2   17.10    0.57 
   9  -6  -2    4.73    0.13 
  -6  -5  -2   19.46    0.80 
   3  -5  -2    0.53    0.09 
   4  -5  -2   36.92    1.23 
   5  -5  -2   29.16    1.01 
   6  -5  -2    2.46    0.17 
   7  -5  -2   11.63    0.45 
   9  -5  -2   13.95    0.46 
  10  -5  -2   40.45    0.85 
  11  -5  -2    1.52    0.05 
 -10  -4  -2   12.47    0.28 
  -8  -4  -2    2.96    0.26 
  -7  -4  -2    0.26    0.12 
  -6  -4  -2   61.35    2.02 
  -1  -4  -2    4.79    0.42 
   1  -4  -2    1.04    0.22 
   2  -4  -2  100.82    3.40 
   3  -4  -2    8.75    0.64 
   5  -4  -2    0.04    0.04 
   6  -4  -2   49.32    1.50 
   7  -4  -2    4.26    0.23 
   8  -4  -2    9.09    0.38 
   9  -4  -2   17.11    0.42 
  10  -4  -2    3.85    0.13 
  11  -4  -2    0.97    0.04 
  12  -4  -2    5.86    0.11 
 -11  -3  -2    1.25    0.04 
 -10  -3  -2    2.86    0.10 
  -9  -3  -2   14.94    0.63 
  -8  -3  -2   21.30    0.85 
  -7  -3  -2    0.89    0.17 
  -6  -3  -2    7.13    0.40 
  -4  -3  -2    0.33    0.22 
  -3  -3  -2    1.72    0.38 
  -2  -3  -2   36.01    1.86 
  -1  -3  -2  102.53    2.56 
   0  -3  -2   13.00    0.30 
   1  -3  -2    6.61    0.30 
   2  -3  -2   29.23    0.81 
   3  -3  -2   25.73    0.78 
   4  -3  -2  165.13    3.55 
   5  -3  -2   16.39    0.49 
   6  -3  -2   46.68    0.92 
   7  -3  -2    0.12    0.03 
   8  -3  -2   40.68    0.90 
   9  -3  -2    4.54    0.11 
  10  -3  -2    0.34    0.03 
  11  -3  -2    7.25    0.13 
  12  -3  -2   14.94    0.25 
 -12  -2  -2    0.11    0.01 
 -11  -2  -2    0.39    0.03 
 -10  -2  -2   11.39    0.23 
  -9  -2  -2    1.79    0.09 
  -8  -2  -2   14.32    0.63 
  -7  -2  -2   10.02    0.34 
  -6  -2  -2   25.16    0.62 
  -5  -2  -2   13.25    0.29 
  -4  -2  -2    5.93    0.18 
  -3  -2  -2   68.65    1.62 
  -2  -2  -2    1.52    0.08 
  -1  -2  -2   56.39    1.30 
   0  -2  -2    2.64    0.20 
   1  -2  -2   24.69    0.64 
   2  -2  -2   12.90    0.40 
   3  -2  -2    4.23    0.23 
   4  -2  -2   42.17    1.15 
   5  -2  -2    8.98    0.26 
   6  -2  -2   35.24    0.64 
   7  -2  -2    2.08    0.09 
   8  -2  -2    8.63    0.25 
   9  -2  -2   12.24    0.49 
  10  -2  -2    7.47    0.15 
  11  -2  -2   15.00    0.23 
  12  -2  -2    1.18    0.05 
  13  -2  -2    0.04    0.01 
 -12  -1  -2    0.21    0.01 
 -11  -1  -2    1.03    0.04 
 -10  -1  -2    0.42    0.03 
  -9  -1  -2   19.55    0.30 
  -8  -1  -2    9.85    0.32 
  -7  -1  -2    7.48    0.26 
  -6  -1  -2   26.08    0.52 
  -5  -1  -2   44.07    0.76 
  -4  -1  -2   31.71    0.81 
  -3  -1  -2   87.27    2.54 
  -2  -1  -2   91.29    2.64 
  -1  -1  -2   10.70    0.33 
   1  -1  -2   52.34    1.28 
   2  -1  -2    3.02    0.14 
   3  -1  -2  208.61    5.30 
   4  -1  -2   76.04    1.81 
   5  -1  -2    0.16    0.06 
   6  -1  -2   22.18    0.41 
   7  -1  -2    6.45    0.24 
   8  -1  -2   17.56    0.62 
   9  -1  -2   36.48    1.19 
  10  -1  -2    9.65    0.17 
  11  -1  -2   34.99    0.45 
  12  -1  -2    0.03    0.01 
  13  -1  -2    0.70    0.03 
 -12   0  -2   22.22    0.34 
 -11   0  -2   19.82    0.28 
 -10   0  -2   24.79    0.33 
  -9   0  -2  106.10    1.20 
  -8   0  -2    0.88    0.13 
  -7   0  -2   56.34    1.28 
  -6   0  -2  189.53    3.27 
  -5   0  -2    0.32    0.04 
  -4   0  -2  140.45    3.04 
  -3   0  -2   34.91    1.04 
  -2   0  -2  206.78    4.31 
  -1   0  -2    8.49    0.19 
   1   0  -2    0.31    0.03 
   3   0  -2   30.70    0.74 
   4   0  -2   21.74    0.58 
   5   0  -2   49.98    1.20 
   6   0  -2    8.44    0.27 
   7   0  -2   13.20    0.30 
   8   0  -2    1.34    0.07 
   9   0  -2   49.65    1.61 
  10   0  -2   61.58    1.99 
  11   0  -2    1.68    0.04 
  12   0  -2    0.23    0.02 
  13   0  -2   41.59    0.57 
 -12   1  -2    0.20    0.02 
 -11   1  -2    1.02    0.04 
 -10   1  -2    0.30    0.02 
  -9   1  -2   19.17    0.32 
  -8   1  -2    9.89    0.30 
  -7   1  -2    7.70    0.24 
  -6   1  -2   26.10    0.50 
  -5   1  -2   44.22    0.80 
  -4   1  -2   31.96    0.96 
  -3   1  -2   87.25    1.83 
  -2   1  -2   92.71    1.91 
  -1   1  -2   10.94    0.41 
   1   1  -2   56.36    1.01 
   2   1  -2    3.43    0.14 
   3   1  -2  233.87    5.20 
   4   1  -2   82.84    1.77 
   5   1  -2    0.12    0.07 
   6   1  -2   22.12    0.45 
   7   1  -2    6.12    0.18 
   8   1  -2   17.36    0.43 
   9   1  -2   35.39    0.82 
  10   1  -2    9.38    0.13 
  11   1  -2   34.73    0.37 
  12   1  -2    0.06    0.01 
  13   1  -2    0.74    0.03 
 -12   2  -2    0.09    0.01 
 -11   2  -2    0.40    0.02 
 -10   2  -2   11.22    0.18 
  -9   2  -2    1.80    0.04 
  -8   2  -2   14.61    0.56 
  -7   2  -2    9.81    0.29 
  -6   2  -2   26.28    0.63 
  -5   2  -2   13.55    0.29 
  -4   2  -2    6.16    0.12 
  -3   2  -2   66.69    1.48 
  -2   2  -2    1.66    0.09 
  -1   2  -2   61.92    1.32 
   0   2  -2    2.93    0.09 
   1   2  -2   25.11    0.65 
   2   2  -2   12.47    0.38 
   3   2  -2    4.55    0.20 
   4   2  -2   45.26    1.09 
   5   2  -2    9.11    0.17 
   6   2  -2   35.35    0.53 
   7   2  -2    1.96    0.08 
   8   2  -2    8.19    0.25 
   9   2  -2   12.03    0.46 
  10   2  -2    7.34    0.08 
  11   2  -2   14.81    0.15 
  12   2  -2    1.15    0.03 
  13   2  -2    0.04    0.01 
 -11   3  -2    1.24    0.03 
 -10   3  -2    3.17    0.06 
  -9   3  -2   14.35    0.16 
  -8   3  -2   20.45    0.21 
  -7   3  -2    1.02    0.12 
  -6   3  -2    6.36    0.31 
  -5   3  -2   19.33    0.35 
  -4   3  -2    0.35    0.03 
  -3   3  -2    1.52    0.06 
  -2   3  -2   38.48    0.56 
  -1   3  -2  114.00    1.52 
   0   3  -2   13.99    0.26 
   1   3  -2    6.61    0.14 
   2   3  -2   27.15    0.39 
   3   3  -2   24.16    0.35 
   4   3  -2  162.60    2.00 
   5   3  -2   17.08    0.29 
   6   3  -2   47.98    0.76 
   7   3  -2    0.08    0.03 
   8   3  -2   39.34    0.76 
   9   3  -2    4.57    0.05 
  10   3  -2    0.40    0.02 
  11   3  -2    7.25    0.08 
  12   3  -2   15.08    0.15 
  13   3  -2    1.97    0.09 
 -10   4  -2   12.67    0.17 
  -9   4  -2    0.02    0.01 
  -8   4  -2    3.06    0.05 
  -7   4  -2    0.34    0.02 
  -6   4  -2   57.61    1.35 
  -5   4  -2    3.01    0.12 
  -4   4  -2  128.10    1.94 
  -3   4  -2    0.35    0.04 
  -2   4  -2   14.30    0.26 
  -1   4  -2    5.29    0.12 
   0   4  -2   87.58    1.22 
   1   4  -2    0.96    0.05 
   2   4  -2   98.47    1.35 
   3   4  -2    8.42    0.18 
   4   4  -2   83.27    1.28 
   5   4  -2    0.04    0.02 
   6   4  -2   47.32    0.77 
   7   4  -2    4.08    0.12 
   8   4  -2    9.16    0.08 
   9   4  -2   17.01    0.13 
  10   4  -2    3.99    0.04 
  11   4  -2    0.94    0.02 
  12   4  -2    6.07    0.07 
  -9   5  -2    4.15    0.06 
  -8   5  -2    8.21    0.09 
  -7   5  -2    0.48    0.02 
  -6   5  -2   19.49    0.15 
  -5   5  -2    1.01    0.02 
  -4   5  -2   10.74    0.10 
  -3   5  -2   17.81    0.40 
  -2   5  -2  116.45    1.75 
  -1   5  -2    2.95    0.10 
   0   5  -2   19.76    0.36 
   1   5  -2    9.25    0.23 
   2   5  -2   16.73    0.37 
   3   5  -2    0.60    0.06 
   4   5  -2   38.66    0.65 
   5   5  -2   31.28    0.63 
   6   5  -2    2.52    0.04 
   7   5  -2   11.50    0.10 
   8   5  -2    0.21    0.01 
   9   5  -2   13.97    0.12 
  10   5  -2   39.83    0.30 
  11   5  -2    1.56    0.03 
  -8   6  -2    4.93    0.07 
  -7   6  -2    5.20    0.06 
  -6   6  -2   15.35    0.13 
  -5   6  -2    3.18    0.04 
  -4   6  -2   10.87    0.10 
  -3   6  -2   16.19    0.14 
  -2   6  -2    4.23    0.05 
  -1   6  -2   12.62    0.11 
   0   6  -2   17.43    0.15 
   1   6  -2   21.22    0.18 
   2   6  -2   11.52    0.11 
   3   6  -2    2.83    0.04 
   4   6  -2    1.57    0.03 
   5   6  -2    8.08    0.08 
   6   6  -2    0.12    0.01 
   7   6  -2    3.04    0.04 
   8   6  -2   17.64    0.15 
   9   6  -2    4.69    0.05 
  -5   7  -2   11.65    0.10 
  -4   7  -2    7.78    0.08 
  -3   7  -2    3.08    0.04 
  -2   7  -2    0.28    0.01 
  -1   7  -2    4.32    0.05 
   0   7  -2    2.26    0.04 
   1   7  -2    9.39    0.10 
   2   7  -2   15.89    0.16 
   3   7  -2    1.83    0.03 
   4   7  -2    9.43    0.10 
   5   7  -2    9.69    0.10 
   6   7  -2    9.22    0.09 
   7   7  -2   18.50    0.18 
   0   8  -2    5.89    0.09 
   1   8  -2    0.65    0.03 
   5  -6  -1   41.67    1.50 
   8  -6  -1    6.56    0.24 
   9  -6  -1    5.97    0.13 
  -7  -5  -1   18.73    0.78 
  -4  -5  -1   23.92    0.89 
   3  -5  -1    0.35    0.07 
   4  -5  -1   35.07    1.19 
   5  -5  -1    1.47    0.13 
   6  -5  -1   39.97    1.26 
   7  -5  -1    0.54    0.09 
   8  -5  -1    0.04    0.04 
   9  -5  -1   14.06    0.34 
  10  -5  -1    0.11    0.02 
 -11  -4  -1    4.21    0.11 
 -10  -4  -1    7.79    0.22 
  -8  -4  -1   12.46    0.58 
  -7  -4  -1   20.90    0.61 
  -6  -4  -1    1.48    0.21 
  -5  -4  -1    3.10    0.24 
  -3  -4  -1    5.91    0.78 
  -1  -4  -1   86.34    2.99 
   0  -4  -1   27.16    1.21 
   1  -4  -1   72.36    2.54 
   2  -4  -1   95.50    2.25 
   3  -4  -1    4.54    0.32 
   4  -4  -1   51.19    1.57 
   5  -4  -1   29.36    0.96 
   6  -4  -1    0.11    0.06 
   7  -4  -1    6.56    0.29 
   8  -4  -1    1.75    0.09 
   9  -4  -1    2.43    0.08 
  10  -4  -1    0.16    0.03 
  11  -4  -1    2.72    0.06 
 -12  -3  -1    3.03    0.06 
 -11  -3  -1    6.29    0.14 
 -10  -3  -1    5.19    0.17 
  -9  -3  -1   63.65    1.17 
  -8  -3  -1   38.05    0.94 
  -7  -3  -1    9.55    0.34 
  -6  -3  -1    4.62    0.31 
  -5  -3  -1   36.25    1.08 
  -4  -3  -1    6.79    0.29 
  -3  -3  -1  207.10    7.16 
  -2  -3  -1  103.78    4.05 
  -1  -3  -1   84.64    3.55 
   0  -3  -1   16.75    0.77 
   1  -3  -1   26.63    1.04 
   2  -3  -1   35.87    1.35 
   3  -3  -1  116.37    2.53 
   4  -3  -1   18.33    0.66 
   5  -3  -1   36.19    0.67 
   6  -3  -1    0.15    0.03 
   7  -3  -1    7.60    0.23 
   8  -3  -1  113.12    3.30 
   9  -3  -1    7.07    0.13 
  10  -3  -1   18.14    0.27 
  11  -3  -1    0.35    0.03 
  12  -3  -1    0.93    0.03 
 -12  -2  -1   14.52    0.20 
 -11  -2  -1   45.51    0.69 
 -10  -2  -1    4.90    0.13 
  -9  -2  -1    9.00    0.25 
  -8  -2  -1   23.75    0.64 
  -7  -2  -1  119.50    2.64 
  -6  -2  -1    8.61    0.28 
  -5  -2  -1  354.95    7.89 
  -4  -2  -1   84.01    2.00 
  -3  -2  -1   15.42    0.44 
  -2  -2  -1    0.51    0.04 
  -1  -2  -1  962.15   32.08 
   1  -2  -1  158.01    5.30 
   3  -2  -1   22.11    0.63 
   4  -2  -1    6.00    0.30 
   5  -2  -1   84.29    1.36 
   6  -2  -1  179.21    2.76 
   7  -2  -1   25.72    0.55 
   8  -2  -1   19.09    0.46 
   9  -2  -1   18.69    0.45 
  10  -2  -1   17.69    0.25 
  11  -2  -1   37.00    0.52 
  12  -2  -1    7.46    0.13 
  13  -2  -1    0.82    0.03 
 -12  -1  -1    1.74    0.05 
 -11  -1  -1    1.60    0.05 
 -10  -1  -1   10.46    0.18 
  -9  -1  -1   11.86    0.37 
  -8  -1  -1    0.09    0.06 
  -7  -1  -1   68.30    1.24 
  -6  -1  -1   56.94    0.97 
  -5  -1  -1   78.63    1.27 
  -4  -1  -1   21.93    0.59 
  -3  -1  -1  587.60   12.89 
  -2  -1  -1   49.03    1.46 
  -1  -1  -1   40.62    1.26 
   1  -1  -1   12.33    0.43 
   2  -1  -1    6.51    0.23 
   3  -1  -1    7.15    0.27 
   4  -1  -1  329.68    7.77 
   5  -1  -1  127.60    2.90 
   6  -1  -1    3.06    0.10 
   7  -1  -1   13.27    0.30 
   8  -1  -1   86.64    2.55 
   9  -1  -1   24.10    0.83 
  10  -1  -1   17.20    0.25 
  11  -1  -1    0.16    0.02 
  12  -1  -1    0.85    0.04 
  13  -1  -1   21.55    0.39 
 -13   0  -1    0.01    0.01 
 -12   0  -1    0.01    0.01 
 -11   0  -1    0.02    0.01 
 -10   0  -1    0.03    0.02 
  -9   0  -1    0.06    0.05 
  -8   0  -1    0.01    0.04 
  -7   0  -1    0.01    0.02 
  -6   0  -1    0.04    0.02 
  -5   0  -1    0.00    0.02 
  -4   0  -1    0.23    0.10 
  -3   0  -1    0.02    0.02 
  -2   0  -1    0.00    0.01 
  -1   0  -1    0.02    0.01 
   0   0  -1    0.01    0.00 
   2   0  -1    0.00    0.01 
   3   0  -1    0.06    0.03 
   4   0  -1    0.03    0.03 
   5   0  -1    0.02    0.05 
   6   0  -1    0.02    0.02 
   7   0  -1    0.03    0.02 
   8   0  -1    0.02    0.03 
   9   0  -1    0.11    0.06 
  10   0  -1   -0.01    0.01 
  11   0  -1    0.01    0.01 
  12   0  -1    0.02    0.01 
  13   0  -1    0.03    0.01 
 -12   1  -1    1.72    0.05 
 -11   1  -1    1.55    0.04 
 -10   1  -1   10.26    0.16 
  -9   1  -1   12.23    0.50 
  -8   1  -1    0.03    0.05 
  -7   1  -1   68.93    1.50 
  -6   1  -1   57.33    1.03 
  -5   1  -1   79.43    1.38 
  -4   1  -1   21.83    0.53 
  -3   1  -1  565.57   12.05 
  -2   1  -1   51.45    1.07 
  -1   1  -1   42.73    0.92 
   0   1  -1  271.36    6.06 
   1   1  -1   11.70    0.31 
   2   1  -1    6.66    0.20 
   3   1  -1    7.29    0.23 
   4   1  -1  336.63    7.58 
   5   1  -1  133.46    4.13 
   6   1  -1    3.10    0.09 
   7   1  -1   12.85    0.25 
   8   1  -1   82.56    1.46 
   9   1  -1   23.33    0.57 
  10   1  -1   17.22    0.19 
  11   1  -1    0.08    0.01 
  12   1  -1    0.94    0.03 
  13   1  -1   21.41    0.31 
 -12   2  -1   14.45    0.23 
 -11   2  -1   46.22    0.69 
 -10   2  -1    4.93    0.09 
  -9   2  -1    9.10    0.13 
  -8   2  -1   24.39    0.84 
  -7   2  -1  125.44    3.66 
  -6   2  -1    8.76    0.25 
  -5   2  -1  349.37    4.70 
  -4   2  -1   84.89    1.28 
  -3   2  -1   15.81    0.40 
  -2   2  -1    0.55    0.04 
   0   2  -1   10.04    0.22 
   1   2  -1  160.23    2.94 
   2   2  -1    1.93    0.11 
   3   2  -1   20.81    0.57 
   4   2  -1    5.92    0.41 
   5   2  -1   85.80    1.18 
   6   2  -1  181.49    2.42 
   7   2  -1   25.46    0.43 
   8   2  -1   18.42    0.38 
   9   2  -1   17.26    0.37 
  10   2  -1   17.18    0.16 
  11   2  -1   36.84    0.36 
  12   2  -1    7.57    0.10 
  13   2  -1    0.81    0.02 
 -12   3  -1    2.90    0.06 
 -11   3  -1    6.40    0.11 
 -10   3  -1    5.34    0.08 
  -9   3  -1   63.00    0.58 
  -8   3  -1   37.19    0.34 
  -7   3  -1    9.21    0.41 
  -6   3  -1    5.51    0.16 
  -5   3  -1   36.69    0.56 
  -4   3  -1    6.75    0.11 
  -3   3  -1  213.75    2.37 
  -2   3  -1  111.46    1.50 
  -1   3  -1  102.64    3.19 
   0   3  -1   17.05    0.53 
   1   3  -1   25.84    0.71 
   2   3  -1   33.70    0.57 
   3   3  -1  105.41    1.64 
   4   3  -1   17.60    0.29 
   5   3  -1   36.83    0.56 
   6   3  -1    0.22    0.03 
   7   3  -1    7.43    0.20 
   8   3  -1  109.52    2.34 
   9   3  -1    6.99    0.06 
  10   3  -1   18.11    0.16 
  11   3  -1    0.29    0.01 
  12   3  -1    0.97    0.02 
 -11   4  -1    4.34    0.08 
 -10   4  -1    7.99    0.10 
  -9   4  -1   24.44    0.25 
  -8   4  -1   11.71    0.12 
  -7   4  -1   21.29    0.18 
  -6   4  -1    1.42    0.08 
  -5   4  -1    3.00    0.12 
  -4   4  -1    0.66    0.06 
  -3   4  -1    6.84    0.15 
  -2   4  -1   29.55    0.45 
  -1   4  -1   85.64    1.18 
   0   4  -1   26.97    0.41 
   1   4  -1   69.02    1.01 
   2   4  -1   88.40    1.26 
   3   4  -1    4.36    0.11 
   4   4  -1   51.37    0.94 
   5   4  -1   29.04    0.50 
   6   4  -1    0.17    0.03 
   7   4  -1    6.27    0.18 
   8   4  -1    1.81    0.03 
   9   4  -1    2.37    0.03 
  10   4  -1    0.10    0.01 
  11   4  -1    2.70    0.04 
 -10   5  -1    0.35    0.02 
  -9   5  -1    3.74    0.05 
  -8   5  -1    3.94    0.05 
  -7   5  -1   19.05    0.14 
  -6   5  -1   14.90    0.12 
  -5   5  -1   13.98    0.11 
  -4   5  -1   23.98    0.50 
  -3   5  -1    1.90    0.13 
  -2   5  -1    0.38    0.05 
  -1   5  -1    9.34    0.20 
   0   5  -1   22.34    0.39 
   1   5  -1    0.99    0.06 
   2   5  -1    6.47    0.18 
   3   5  -1    0.38    0.05 
   4   5  -1   37.05    0.72 
   5   5  -1    1.67    0.09 
   6   5  -1   39.15    0.30 
   7   5  -1    0.58    0.02 
   8   5  -1    0.05    0.01 
   9   5  -1   14.24    0.12 
  10   5  -1    0.14    0.01 
  -8   6  -1    1.80    0.03 
  -7   6  -1    2.21    0.03 
  -6   6  -1    7.55    0.07 
  -5   6  -1   31.58    0.25 
  -4   6  -1    0.18    0.01 
  -3   6  -1   13.41    0.12 
  -2   6  -1    3.84    0.05 
  -1   6  -1    3.05    0.04 
   0   6  -1    7.90    0.09 
   1   6  -1   22.28    0.20 
   2   6  -1    8.25    0.09 
   3   6  -1    0.60    0.02 
   4   6  -1    0.28    0.02 
   5   6  -1   43.81    0.34 
   6   6  -1    0.04    0.01 
   7   6  -1    6.16    0.06 
   8   6  -1    6.56    0.07 
   9   6  -1    5.95    0.06 
  -6   7  -1    0.06    0.01 
  -5   7  -1    0.63    0.02 
  -4   7  -1    0.72    0.02 
  -3   7  -1   10.65    0.11 
  -2   7  -1    1.07    0.03 
  -1   7  -1    6.99    0.08 
   0   7  -1    0.17    0.01 
   1   7  -1    0.71    0.02 
   2   7  -1   15.42    0.16 
   3   7  -1   16.85    0.18 
   4   7  -1    5.31    0.07 
   5   7  -1   13.28    0.14 
   6   7  -1    0.70    0.02 
   7   7  -1    4.04    0.06 
  -1   8  -1   11.98    0.18 
   0   8  -1    1.45    0.04 
  -4  -6   0    1.81    0.18 
   3  -6   0    3.78    0.30 
   4  -6   0    1.67    0.19 
   5  -6   0    6.83    0.38 
   8  -6   0   14.07    0.46 
   9  -6   0    4.81    0.11 
 -10  -5   0   10.29    0.25 
  -7  -5   0    7.64    0.45 
  -6  -5   0    6.59    0.41 
  -5  -5   0    5.44    0.34 
   4  -5   0   49.40    1.62 
   5  -5   0    5.47    0.27 
   6  -5   0    8.14    0.35 
   7  -5   0    9.16    0.28 
   8  -5   0   26.53    0.59 
   9  -5   0   15.49    0.30 
  10  -5   0   10.88    0.16 
 -11  -4   0    6.46    0.13 
 -10  -4   0   14.05    0.52 
  -8  -4   0    0.90    0.12 
  -7  -4   0    2.47    0.25 
  -6  -4   0   69.21    2.40 
  -5  -4   0   11.69    0.52 
  -3  -4   0    0.01    0.12 
  -2  -4   0   54.45    2.13 
  -1  -4   0    5.47    0.47 
   0  -4   0  161.75    5.02 
   1  -4   0    5.94    0.49 
   2  -4   0   55.35    1.34 
   3  -4   0    0.07    0.04 
   4  -4   0   87.14    2.67 
   5  -4   0   11.49    0.44 
   6  -4   0   76.40    2.30 
   7  -4   0    2.76    0.18 
   8  -4   0    1.14    0.07 
   9  -4   0   17.11    0.30 
  10  -4   0   14.88    0.22 
  11  -4   0    6.35    0.10 
 -12  -3   0    0.04    0.01 
 -11  -3   0   25.88    0.58 
 -10  -3   0    0.06    0.04 
  -9  -3   0   10.76    0.29 
  -8  -3   0    1.17    0.13 
  -7  -3   0   18.17    0.80 
  -6  -3   0   35.81    1.31 
  -5  -3   0   49.11    1.32 
  -4  -3   0    0.06    0.13 
  -3  -3   0    0.54    0.25 
  -2  -3   0   67.77    2.87 
  -1  -3   0    0.04    0.07 
   0  -3   0    0.03    0.04 
   1  -3   0    0.10    0.07 
   2  -3   0   74.73    2.53 
   3  -3   0    0.65    0.06 
   4  -3   0    0.06    0.03 
   5  -3   0   47.98    1.01 
   6  -3   0   39.55    1.22 
   7  -3   0   21.40    0.71 
   8  -3   0    1.20    0.11 
   9  -3   0   11.30    0.21 
  10  -3   0    0.04    0.02 
  11  -3   0   25.65    0.36 
  12  -3   0    0.06    0.01 
 -13  -2   0    0.91    0.03 
 -12  -2   0    1.79    0.05 
 -11  -2   0    1.89    0.06 
 -10  -2   0    7.94    0.16 
  -9  -2   0    8.96    0.32 
  -8  -2   0    0.93    0.11 
  -7  -2   0   14.60    0.44 
  -6  -2   0  151.27    3.55 
  -5  -2   0   21.75    0.67 
  -4  -2   0   15.35    1.01 
  -3  -2   0   91.77    2.16 
  -2  -2   0   98.15    2.34 
  -1  -2   0  146.00    3.50 
   0  -2   0  214.10    5.25 
   1  -2   0  147.68    3.77 
   2  -2   0  105.54    3.56 
   3  -2   0   91.53    3.13 
   4  -2   0   15.22    0.53 
   5  -2   0   21.66    0.41 
   6  -2   0  150.47    2.71 
   7  -2   0   14.58    0.37 
   8  -2   0    1.10    0.08 
   9  -2   0    8.99    0.23 
  10  -2   0    8.03    0.14 
  11  -2   0    1.85    0.06 
  12  -2   0    1.77    0.05 
  13  -2   0    0.94    0.04 
 -13  -1   0    6.83    0.13 
 -12  -1   0    0.08    0.01 
 -11  -1   0    8.38    0.13 
 -10  -1   0    3.83    0.09 
  -9  -1   0  136.34    2.90 
  -8  -1   0   84.08    1.88 
  -7  -1   0    0.04    0.05 
  -6  -1   0   20.12    0.39 
  -5  -1   0    6.88    0.24 
  -4  -1   0  330.28    7.70 
  -3  -1   0   22.43    0.58 
  -1  -1   0    4.48    0.13 
   0  -1   0    0.01    0.03 
   1  -1   0    4.27    0.14 
   3  -1   0   23.26    0.62 
   4  -1   0  322.90    7.79 
   5  -1   0    6.73    0.53 
   6  -1   0   20.51    0.44 
   7  -1   0    0.13    0.03 
   8  -1   0   85.74    2.60 
   9  -1   0  136.61    4.05 
  10  -1   0    3.75    0.10 
  11  -1   0    8.22    0.15 
  12  -1   0    0.05    0.02 
  13  -1   0    6.73    0.12 
 -13   0   0   23.30    0.35 
 -12   0   0   14.67    0.24 
 -11   0   0   82.47    1.00 
 -10   0   0   43.41    0.56 
  -9   0   0    3.89    0.25 
  -8   0   0    4.19    0.25 
  -7   0   0   89.38    1.60 
  -6   0   0  233.64    4.01 
  -5   0   0   74.84    1.74 
  -4   0   0  408.99    9.24 
  -3   0   0  297.46    6.76 
  -2   0   0  128.12    2.81 
  -1   0   0   50.90    1.20 
   1   0   0   51.06    0.99 
   2   0   0  118.34    2.44 
   3   0   0  293.29    6.82 
   4   0   0  402.65    9.30 
   5   0   0   77.26    2.61 
   6   0   0  238.56    4.21 
   7   0   0   94.56    2.11 
   8   0   0    4.46    0.23 
   9   0   0    3.85    0.23 
  10   0   0   43.53    0.48 
  11   0   0   81.23    1.01 
  12   0   0   14.19    0.25 
  13   0   0   22.78    0.32 
 -13   1   0    6.80    0.11 
 -12   1   0    0.06    0.01 
 -11   1   0    8.31    0.14 
 -10   1   0    3.78    0.07 
  -9   1   0  138.85    4.07 
  -8   1   0   88.08    2.62 
  -7   1   0    0.09    0.03 
  -6   1   0   20.31    0.49 
  -5   1   0    6.60    0.20 
  -4   1   0  321.67    7.14 
  -3   1   0   22.65    0.53 
  -1   1   0    4.65    0.12 
   0   1   0    0.01    0.01 
   1   1   0    4.83    0.14 
   3   1   0   22.47    0.50 
   4   1   0  335.20   11.23 
   5   1   0    7.06    0.47 
   6   1   0   20.49    0.33 
   7   1   0    0.12    0.02 
   8   1   0   84.02    1.82 
   9   1   0  130.03    2.85 
  10   1   0    3.76    0.06 
  11   1   0    8.33    0.10 
  12   1   0    0.08    0.01 
  13   1   0    6.56    0.11 
 -13   2   0    0.95    0.04 
 -12   2   0    1.71    0.05 
 -11   2   0    1.89    0.05 
 -10   2   0    7.97    0.11 
  -9   2   0    8.41    0.24 
  -8   2   0    1.03    0.12 
  -7   2   0   14.37    0.55 
  -6   2   0  151.08    2.61 
  -5   2   0   21.96    0.31 
  -4   2   0   14.40    0.39 
  -3   2   0   97.59    2.04 
  -2   2   0  104.02    2.30 
  -1   2   0  160.03    3.48 
   0   2   0  228.26    4.11 
   1   2   0  162.80    2.62 
   2   2   0  106.24    2.03 
   3   2   0   94.03    3.04 
   4   2   0   14.04    0.71 
   5   2   0   21.76    0.31 
   6   2   0  153.21    2.06 
   7   2   0   15.04    0.28 
   8   2   0    0.97    0.08 
   9   2   0    9.28    0.27 
  10   2   0    7.92    0.08 
  11   2   0    1.87    0.03 
  12   2   0    1.72    0.03 
  13   2   0    0.82    0.04 
 -12   3   0    0.05    0.01 
 -11   3   0   25.40    0.30 
 -10   3   0    0.03    0.01 
  -9   3   0   11.07    0.12 
  -8   3   0    1.48    0.14 
  -7   3   0   20.52    0.53 
  -6   3   0   38.09    0.73 
  -5   3   0   47.40    0.63 
  -4   3   0    0.03    0.01 
  -3   3   0    0.64    0.03 
  -2   3   0   73.31    1.00 
  -1   3   0    0.06    0.02 
   0   3   0    0.02    0.03 
   1   3   0    0.05    0.04 
   2   3   0   71.78    1.34 
   3   3   0    0.57    0.03 
   4   3   0    0.04    0.02 
   5   3   0   47.43    0.70 
   6   3   0   38.87    0.63 
   7   3   0   20.79    0.43 
   8   3   0    1.22    0.08 
   9   3   0   11.09    0.09 
  10   3   0    0.02    0.01 
  11   3   0   25.52    0.23 
  12   3   0    0.05    0.01 
 -11   4   0    6.35    0.09 
 -10   4   0   14.64    0.16 
  -9   4   0   16.83    0.17 
  -8   4   0    1.10    0.03 
  -7   4   0    2.70    0.05 
  -6   4   0   75.03    1.36 
  -5   4   0   11.47    0.23 
  -4   4   0   89.11    1.35 
  -3   4   0    0.03    0.02 
  -2   4   0   56.23    0.79 
  -1   4   0    5.25    0.12 
   0   4   0  153.10    2.07 
   1   4   0    5.21    0.13 
   2   4   0   54.17    0.80 
   3   4   0    0.04    0.02 
   4   4   0   88.25    1.36 
   5   4   0   11.27    0.23 
   6   4   0   76.03    1.17 
   7   4   0    2.83    0.04 
   8   4   0    1.09    0.02 
   9   4   0   16.85    0.14 
  10   4   0   14.62    0.12 
  11   4   0    6.37    0.06 
 -10   5   0   10.40    0.13 
  -9   5   0   15.24    0.16 
  -8   5   0   25.44    0.22 
  -7   5   0    8.89    0.08 
  -6   5   0    7.86    0.08 
  -5   5   0    5.63    0.06 
  -4   5   0   51.97    0.97 
  -3   5   0   20.34    0.44 
  -2   5   0   47.47    0.89 
  -1   5   0    3.04    0.12 
   0   5   0    0.02    0.02 
   1   5   0    3.15    0.11 
   2   5   0   46.17    1.06 
   3   5   0   20.54    0.44 
   4   5   0   51.79    0.97 
   5   5   0    5.57    0.06 
   6   5   0    7.82    0.08 
   7   5   0    8.91    0.08 
   8   5   0   26.00    0.21 
   9   5   0   15.47    0.13 
  10   5   0   10.78    0.09 
  -9   6   0    4.64    0.07 
  -8   6   0   13.45    0.11 
  -7   6   0    0.06    0.01 
  -6   6   0   16.76    0.14 
  -5   6   0    6.97    0.07 
  -4   6   0    1.78    0.03 
  -3   6   0    5.03    0.06 
  -2   6   0   15.32    0.14 
  -1   6   0    3.75    0.06 
   0   6   0   61.84    0.57 
   1   6   0    3.67    0.06 
   2   6   0   14.98    0.17 
   3   6   0    4.93    0.07 
   4   6   0    1.73    0.03 
   5   6   0    6.69    0.08 
   6   6   0   16.54    0.16 
   7   6   0    0.07    0.01 
   8   6   0   13.98    0.13 
   9   6   0    4.72    0.05 
  -6   7   0    1.95    0.03 
  -5   7   0    7.19    0.08 
  -4   7   0    8.40    0.09 
  -3   7   0    0.19    0.01 
  -2   7   0    1.20    0.03 
  -1   7   0    2.11    0.04 
   0   7   0   -0.01    0.01 
   1   7   0    2.03    0.05 
   2   7   0    1.26    0.04 
   3   7   0    0.19    0.02 
   4   7   0    8.23    0.10 
   5   7   0    7.03    0.09 
   6   7   0    2.03    0.03 
   6  -7   1    0.00    0.02 
  -5  -6   1   39.77    1.48 
  -2  -6   1    8.26    0.45 
   1  -6   1    2.54    0.23 
   2  -6   1    3.20    0.27 
   3  -6   1   11.37    0.59 
   4  -6   1    0.25    0.10 
   6  -6   1    6.98    0.30 
   7  -6   1    2.25    0.13 
   8  -6   1    1.82    0.07 
 -10  -5   1    0.07    0.05 
  -7  -5   1    0.62    0.15 
  -6  -5   1   38.38    1.38 
  -5  -5   1    1.49    0.18 
  -3  -5   1    0.32    0.10 
   0  -5   1   20.83    0.82 
   4  -5   1   23.57    0.61 
   5  -5   1   14.36    0.41 
   6  -5   1   15.81    0.42 
   7  -5   1   19.60    0.47 
   8  -5   1    3.95    0.14 
   9  -5   1    3.82    0.10 
  10  -5   1    0.40    0.03 
 -11  -4   1    2.68    0.08 
 -10  -4   1    0.08    0.06 
  -9  -4   1    2.48    0.17 
  -8  -4   1    1.78    0.22 
  -7  -4   1    6.12    0.39 
  -6  -4   1    0.08    0.08 
  -4  -4   1   43.19    3.63 
  -3  -4   1    4.34    0.24 
  -2  -4   1   90.75    3.19 
  -1  -4   1   71.43    2.57 
   0  -4   1   27.87    1.26 
   1  -4   1   88.61    3.07 
   2  -4   1   27.85    0.78 
   3  -4   1    6.47    0.26 
   4  -4   1    0.64    0.09 
   5  -4   1    2.82    0.17 
   6  -4   1    1.68    0.11 
   7  -4   1   21.67    0.51 
   8  -4   1   11.56    0.25 
   9  -4   1   24.61    0.46 
  10  -4   1    8.10    0.15 
  11  -4   1    4.08    0.08 
 -12  -3   1    0.96    0.03 
 -11  -3   1    0.27    0.04 
 -10  -3   1   17.60    0.40 
  -9  -3   1    7.09    0.29 
  -8  -3   1  106.90    3.45 
  -7  -3   1    6.26    0.40 
  -6  -3   1    0.11    0.08 
  -5  -3   1   40.86    1.08 
  -4  -3   1   17.65    0.58 
  -3  -3   1  105.05    4.09 
  -2  -3   1   31.50    1.63 
  -1  -3   1   24.80    0.81 
   0  -3   1   17.72    0.81 
   1  -3   1  106.90    3.33 
   2  -3   1  117.25    3.74 
   3  -3   1  213.35    4.58 
   4  -3   1    6.68    0.25 
   5  -3   1   37.09    0.83 
   6  -3   1    5.83    0.26 
   7  -3   1    9.53    0.39 
   8  -3   1   38.11    0.60 
   9  -3   1   63.57    0.86 
  10  -3   1    5.44    0.12 
  11  -3   1    6.38    0.12 
  12  -3   1    2.95    0.07 
 -13  -2   1    0.77    0.03 
 -12  -2   1    7.88    0.13 
 -11  -2   1   36.95    0.68 
 -10  -2   1   17.53    0.38 
  -9  -2   1   17.60    0.52 
  -8  -2   1   18.42    0.53 
  -7  -2   1   25.38    0.83 
  -6  -2   1  181.46    4.15 
  -5  -2   1   88.69    2.09 
  -4  -2   1    6.49    0.63 
  -3  -2   1   21.19    1.18 
  -2  -2   1    1.51    0.26 
  -1  -2   1  140.92    5.33 
   0  -2   1    9.42    0.34 
   2  -2   1    0.59    0.14 
   3  -2   1   14.87    0.81 
   4  -2   1   83.03    1.93 
   5  -2   1  346.11    6.15 
   6  -2   1    8.83    0.23 
   7  -2   1  121.45    2.57 
   8  -2   1   24.16    0.58 
   9  -2   1    9.02    0.14 
  10  -2   1    4.96    0.10 
  11  -2   1   45.26    0.70 
  12  -2   1   14.25    0.23 
 -13  -1   1   21.79    0.34 
 -12  -1   1    0.87    0.04 
 -11  -1   1    0.09    0.02 
 -10  -1   1   17.31    0.28 
  -9  -1   1   23.65    0.89 
  -8  -1   1   82.18    1.87 
  -7  -1   1   12.31    0.37 
  -6  -1   1    2.95    0.11 
  -5  -1   1  127.52    2.90 
  -4  -1   1  331.13    7.83 
  -3  -1   1    6.91    0.22 
  -2  -1   1    6.16    0.18 
  -1  -1   1   10.96    0.55 
   0  -1   1  259.05    8.67 
   1  -1   1   42.55    0.98 
   2  -1   1   46.75    1.15 
   3  -1   1  511.50   18.67 
   4  -1   1   22.17    0.64 
   5  -1   1   77.27    1.45 
   6  -1   1   58.67    1.10 
   7  -1   1   69.62    1.48 
   8  -1   1    0.02    0.04 
   9  -1   1   12.15    0.49 
  10  -1   1   10.58    0.16 
  11  -1   1    1.75    0.06 
  12  -1   1    1.79    0.05 
 -13   0   1    0.01    0.01 
 -12   0   1    0.00    0.01 
 -11   0   1    0.00    0.01 
 -10   0   1    0.00    0.02 
  -9   0   1    0.00    0.06 
  -8   0   1    0.00    0.04 
  -7   0   1    0.00    0.02 
  -6   0   1    0.04    0.03 
  -5   0   1    0.03    0.02 
  -4   0   1    0.02    0.02 
  -3   0   1    0.04    0.02 
  -2   0   1    0.00    0.01 
   0   0   1    0.01    0.01 
   1   0   1    0.01    0.02 
   2   0   1    0.03    0.04 
   3   0   1    0.02    0.02 
   4   0   1    0.04    0.05 
   5   0   1    0.02    0.02 
   6   0   1    0.19    0.04 
   7   0   1    0.05    0.04 
   8   0   1    0.05    0.04 
   9   0   1   -0.03    0.04 
  10   0   1    0.08    0.01 
  11   0   1    0.04    0.01 
  12   0   1    0.02    0.01 
  13   0   1    0.01    0.01 
 -13   1   1   21.92    0.39 
 -12   1   1    0.94    0.03 
 -11   1   1    0.09    0.02 
 -10   1   1   16.85    0.22 
  -9   1   1   24.52    0.85 
  -8   1   1   86.54    2.58 
  -7   1   1   13.25    0.35 
  -6   1   1    3.07    0.08 
  -5   1   1  128.39    3.81 
  -4   1   1  326.87    9.94 
  -3   1   1    7.57    0.18 
  -2   1   1    6.66    0.16 
  -1   1   1   12.37    0.25 
   0   1   1  278.87    4.95 
   1   1   1   43.98    0.84 
   2   1   1   50.81    1.25 
   3   1   1  576.06   13.56 
   4   1   1   22.01    0.76 
   5   1   1   81.32    1.23 
   6   1   1   57.68    0.83 
   7   1   1   68.77    1.22 
   8   1   1    0.07    0.03 
   9   1   1   11.95    0.49 
  10   1   1   10.38    0.12 
  11   1   1    1.62    0.04 
  12   1   1    1.73    0.04 
 -13   2   1    0.82    0.03 
 -12   2   1    7.84    0.14 
 -11   2   1   36.83    0.52 
 -10   2   1   17.61    0.20 
  -9   2   1   17.82    0.67 
  -8   2   1   19.01    0.68 
  -7   2   1   25.40    0.62 
  -6   2   1  178.17    2.38 
  -5   2   1   85.56    1.15 
  -4   2   1    6.12    0.20 
  -3   2   1   21.13    0.53 
  -2   2   1    1.87    0.08 
  -1   2   1  161.24    2.66 
   0   2   1    9.69    0.21 
   1   2   1 1000.00   32.45 
   2   2   1    0.49    0.06 
   3   2   1   15.62    0.60 
   4   2   1   85.29    1.22 
   5   2   1  361.99    4.86 
   6   2   1    8.90    0.18 
   7   2   1  121.62    1.83 
   8   2   1   23.40    0.47 
   9   2   1    9.17    0.09 
  10   2   1    4.85    0.06 
  11   2   1   45.45    0.44 
  12   2   1   14.05    0.16 
 -12   3   1    0.97    0.03 
 -11   3   1    0.33    0.02 
 -10   3   1   18.11    0.19 
  -9   3   1    7.05    0.08 
  -8   3   1  110.11    2.38 
  -7   3   1    7.79    0.21 
  -6   3   1    0.18    0.03 
  -5   3   1   37.10    0.53 
  -4   3   1   17.54    0.26 
  -3   3   1  106.09    1.32 
  -2   3   1   34.20    0.56 
  -1   3   1   25.21    0.62 
   0   3   1   17.05    0.36 
   1   3   1  102.37    1.95 
   2   3   1  111.95    1.80 
   3   3   1  210.73    2.82 
   4   3   1    6.48    0.14 
   5   3   1   38.28    0.57 
   6   3   1    5.81    0.17 
   7   3   1    9.67    0.24 
   8   3   1   37.57    0.26 
   9   3   1   62.04    0.42 
  10   3   1    5.38    0.06 
  11   3   1    6.25    0.07 
  12   3   1    2.91    0.05 
 -11   4   1    2.68    0.04 
 -10   4   1    0.12    0.01 
  -9   4   1    2.47    0.04 
  -8   4   1    1.78    0.03 
  -7   4   1    6.07    0.19 
  -6   4   1    0.29    0.04 
  -5   4   1   29.19    0.50 
  -4   4   1   51.21    0.80 
  -3   4   1    4.46    0.11 
  -2   4   1   89.83    1.25 
  -1   4   1   70.79    1.11 
   0   4   1   26.46    0.43 
   1   4   1   83.82    1.55 
   2   4   1   29.12    0.52 
   3   4   1    6.67    0.15 
   4   4   1    0.63    0.05 
   5   4   1    2.94    0.10 
   6   4   1    1.43    0.08 
   7   4   1   21.34    0.17 
   8   4   1   11.89    0.10 
   9   4   1   24.76    0.19 
  10   4   1    7.99    0.07 
  11   4   1    4.12    0.04 
 -10   5   1    0.16    0.01 
  -9   5   1   13.99    0.13 
  -8   5   1    0.07    0.01 
  -7   5   1    0.60    0.02 
  -6   5   1   38.82    0.29 
  -5   5   1    1.66    0.08 
  -4   5   1   36.83    0.61 
  -3   5   1    0.50    0.06 
  -2   5   1    6.65    0.19 
  -1   5   1    0.92    0.06 
   0   5   1   22.07    0.55 
   1   5   1    9.05    0.27 
   2   5   1    0.44    0.06 
   3   5   1    1.79    0.09 
   4   5   1   23.56    0.63 
   5   5   1   13.92    0.13 
   6   5   1   14.93    0.13 
   7   5   1   19.48    0.16 
   8   5   1    4.01    0.05 
   9   5   1    3.80    0.04 
  10   5   1    0.34    0.01 
  -9   6   1    5.77    0.06 
  -8   6   1    6.39    0.06 
  -7   6   1    6.17    0.07 
  -6   6   1    0.03    0.01 
  -5   6   1   44.47    0.34 
  -4   6   1    0.31    0.02 
  -3   6   1    0.59    0.02 
  -2   6   1    8.24    0.10 
  -1   6   1   21.94    0.27 
   0   6   1    8.08    0.37 
   3   6   1   12.93    0.20 
   4   6   1    0.23    0.02 
   5   6   1   31.02    0.30 
   6   6   1    7.65    0.08 
   7   6   1    2.31    0.03 
   8   6   1    1.84    0.03 
  -7   7   1    4.09    0.05 
  -6   7   1    0.68    0.02 
  -5   7   1   13.31    0.13 
  -4   7   1    5.39    0.07 
  -3   7   1   16.85    0.18 
  -2   7   1   15.34    0.19 
  -1   7   1    0.72    0.04 
   4   7   1    0.71    0.04 
   5   7   1    0.57    0.02 
   6   7   1    0.04    0.01 
   5  -7   2    9.83    0.39 
  -9  -6   2    3.83    0.18 
  -5  -6   2    8.16    0.43 
  -3  -6   2    2.76    0.25 
  -2  -6   2   11.34    0.58 
   1  -6   2   11.06    0.56 
   2  -6   2    3.77    0.30 
   3  -6   2   14.87    0.69 
   4  -6   2   10.48    0.52 
   6  -6   2   15.55    0.54 
   7  -6   2    5.25    0.15 
   8  -6   2    5.14    0.10 
 -11  -5   2    1.63    0.06 
 -10  -5   2   36.67    1.22 
  -9  -5   2   11.47    0.48 
  -7  -5   2   10.99    0.56 
  -6  -5   2    2.89    0.25 
  -4  -5   2   36.43    1.35 
  -3  -5   2    0.68    0.15 
   0  -5   2   18.78    0.76 
   1  -5   2    2.75    0.23 
   2  -5   2  112.36    3.58 
   3  -5   2   18.30    0.75 
   4  -5   2   10.12    0.33 
   5  -5   2    1.12    0.10 
   6  -5   2   20.49    0.52 
   7  -5   2    0.49    0.05 
   8  -5   2    8.38    0.19 
   9  -5   2    4.24    0.08 
 -12  -4   2    5.84    0.11 
 -11  -4   2    0.84    0.07 
 -10  -4   2    3.73    0.15 
  -9  -4   2   17.22    0.51 
  -8  -4   2    8.38    0.49 
  -7  -4   2    3.77    0.31 
  -6  -4   2   50.21    1.63 
  -4  -4   2   81.22    2.13 
  -3  -4   2    8.83    0.33 
  -2  -4   2   97.69    3.42 
  -1  -4   2    0.96    0.10 
   0  -4   2   89.33    2.05 
   1  -4   2    5.67    0.52 
   2  -4   2   14.52    0.47 
   3  -4   2    0.33    0.06 
   4  -4   2  131.74    2.76 
   5  -4   2    3.23    0.15 
   6  -4   2   62.96    1.36 
   7  -4   2    0.31    0.04 
   8  -4   2    3.02    0.09 
   9  -4   2    0.00    0.02 
  10  -4   2   12.59    0.21 
 -12  -3   2   15.22    0.25 
 -11  -3   2    7.12    0.18 
 -10  -3   2    0.32    0.05 
  -9  -3   2    4.69    0.17 
  -8  -3   2   38.37    1.42 
  -7  -3   2    0.41    0.13 
  -6  -3   2   48.90    1.58 
  -5  -3   2   16.79    0.60 
  -4  -3   2  168.51    3.80 
  -3  -3   2   25.83    0.74 
  -2  -3   2   27.48    0.90 
  -1  -3   2    6.49    0.35 
   0  -3   2   14.08    0.72 
   1  -3   2  121.18    3.76 
   2  -3   2   37.17    0.95 
   3  -3   2    1.55    0.10 
   4  -3   2    0.36    0.06 
   5  -3   2   20.52    0.50 
   6  -3   2    6.49    0.29 
   7  -3   2    1.03    0.11 
   8  -3   2   20.76    0.35 
   9  -3   2   14.35    0.23 
  10  -3   2    3.17    0.07 
  11  -3   2    1.20    0.04 
 -13  -2   2    0.04    0.01 
 -12  -2   2    1.22    0.04 
 -11  -2   2   15.17    0.27 
 -10  -2   2    7.18    0.18 
  -9  -2   2   12.24    0.58 
  -8  -2   2    8.76    0.31 
  -7  -2   2    2.07    0.18 
  -6  -2   2   35.81    1.03 
  -5  -2   2   10.38    0.37 
  -4  -2   2   46.33    2.11 
  -3  -2   2    4.30    0.48 
  -2  -2   2   11.40    0.75 
  -1  -2   2   24.03    0.72 
   0  -2   2    2.70    0.27 
   1  -2   2   63.93    2.08 
   2  -2   2    1.58    0.23 
   3  -2   2   62.76    2.44 
   4  -2   2    6.07    0.23 
   5  -2   2   13.65    0.43 
   6  -2   2   26.53    0.61 
   7  -2   2   10.44    0.29 
   8  -2   2   14.21    0.38 
   9  -2   2    1.83    0.06 
  10  -2   2   11.51    0.18 
  11  -2   2    0.45    0.03 
  12  -2   2    0.10    0.01 
 -13  -1   2    0.76    0.03 
 -12  -1   2    0.07    0.02 
 -11  -1   2   34.69    0.46 
 -10  -1   2    9.13    0.18 
  -9  -1   2   36.69    1.26 
  -8  -1   2   17.15    0.69 
  -7  -1   2    5.94    0.29 
  -6  -1   2   21.06    0.68 
  -5  -1   2    0.10    0.03 
  -4  -1   2   77.75    1.84 
  -3  -1   2  215.73    5.22 
  -2  -1   2    3.45    0.10 
  -1  -1   2   50.79    1.89 
   1  -1   2   10.12    0.36 
   2  -1   2   84.38    2.06 
   3  -1   2   78.32    2.91 
   4  -1   2   28.38    1.36 
   5  -1   2   44.48    0.87 
   6  -1   2   26.76    0.56 
   7  -1   2    7.78    0.23 
   8  -1   2   10.16    0.29 
   9  -1   2   19.28    0.25 
  10  -1   2    0.34    0.03 
  11  -1   2    1.01    0.04 
  12  -1   2    0.25    0.02 
 -13   0   2   42.76    0.64 
 -12   0   2    0.25    0.03 
 -11   0   2    1.65    0.06 
 -10   0   2   65.99    2.04 
  -9   0   2   52.03    1.66 
  -8   0   2    1.54    0.10 
  -7   0   2   12.64    0.28 
  -6   0   2    7.99    0.23 
  -5   0   2   48.48    1.20 
  -4   0   2   21.00    0.56 
  -3   0   2   31.65    0.75 
  -2   0   2  682.60   21.87 
  -1   0   2    0.31    0.02 
   0   0   2  368.66   12.55 
   1   0   2    7.16    0.29 
   2   0   2  196.77    4.77 
   3   0   2   33.97    1.00 
   4   0   2  137.07    3.25 
   5   0   2    0.32    0.04 
   6   0   2  193.47    3.36 
   7   0   2   58.48    1.79 
   8   0   2    0.70    0.11 
   9   0   2  106.32    1.06 
  10   0   2   24.77    0.29 
  11   0   2   19.31    0.26 
  12   0   2   21.70    0.31 
 -13   1   2    0.69    0.03 
 -12   1   2    0.10    0.02 
 -11   1   2   34.63    0.42 
 -10   1   2    9.04    0.15 
  -9   1   2   36.31    1.21 
  -8   1   2   17.19    0.46 
  -7   1   2    6.07    0.14 
  -6   1   2   21.80    0.37 
  -5   1   2    0.11    0.03 
  -4   1   2   78.74    2.35 
  -3   1   2  236.07    5.05 
  -2   1   2    3.76    0.13 
  -1   1   2   57.72    1.04 
   1   1   2   10.48    0.36 
   2   1   2   91.86    2.22 
   3   1   2   88.59    2.14 
   4   1   2   30.41    0.99 
   5   1   2   45.53    0.63 
   6   1   2   26.09    0.42 
   7   1   2    7.25    0.23 
   8   1   2   10.25    0.44 
   9   1   2   19.29    0.19 
  10   1   2    0.41    0.02 
  11   1   2    1.05    0.03 
  12   1   2    0.21    0.02 
 -13   2   2    0.06    0.01 
 -12   2   2    1.20    0.04 
 -11   2   2   14.98    0.20 
 -10   2   2    7.47    0.10 
  -9   2   2   12.54    0.50 
  -8   2   2    8.77    0.27 
  -7   2   2    1.97    0.07 
  -6   2   2   34.80    0.50 
  -5   2   2    9.17    0.16 
  -4   2   2   44.42    1.03 
  -3   2   2    4.44    0.16 
  -2   2   2   12.57    0.30 
  -1   2   2   25.42    0.45 
   0   2   2    2.71    0.09 
   1   2   2   61.39    1.00 
   2   2   2    1.71    0.16 
   3   2   2   67.29    1.79 
   4   2   2    6.69    0.13 
   5   2   2   13.91    0.24 
   6   2   2   26.81    0.45 
   7   2   2    9.95    0.21 
   8   2   2   13.68    0.38 
   9   2   2    1.78    0.03 
  10   2   2   11.31    0.12 
  11   2   2    0.42    0.02 
  12   2   2    0.10    0.01 
 -12   3   2   15.01    0.20 
 -11   3   2    7.15    0.09 
 -10   3   2    0.42    0.02 
  -9   3   2    4.46    0.06 
  -8   3   2   40.26    0.94 
  -7   3   2    0.08    0.02 
  -6   3   2   47.53    0.68 
  -5   3   2   16.85    0.27 
  -4   3   2  162.21    1.84 
  -3   3   2   24.26    0.34 
  -2   3   2   27.06    0.47 
  -1   3   2    6.34    0.21 
   0   3   2   14.20    0.42 
   1   3   2  116.70    2.76 
   2   3   2   37.99    0.60 
   3   3   2    1.50    0.06 
   4   3   2    0.34    0.03 
   5   3   2   19.62    0.36 
   6   3   2    6.39    0.16 
   7   3   2    0.99    0.07 
   8   3   2   20.32    0.15 
   9   3   2   14.28    0.11 
  10   3   2    3.11    0.04 
  11   3   2    1.16    0.02 
 -12   4   2    6.07    0.10 
 -11   4   2    0.94    0.02 
 -10   4   2    4.01    0.05 
  -9   4   2   17.06    0.14 
  -8   4   2    8.95    0.08 
  -7   4   2    4.02    0.12 
  -6   4   2   46.96    0.77 
  -5   4   2    0.09    0.02 
  -4   4   2   82.52    1.12 
  -3   4   2    8.38    0.17 
  -2   4   2   96.65    1.34 
  -1   4   2    0.98    0.05 
   1   4   2    4.87    0.23 
   2   4   2   14.06    0.29 
   3   4   2    0.38    0.05 
   4   4   2  127.47    2.25 
   5   4   2    3.09    0.12 
   6   4   2   59.34    1.11 
   7   4   2    0.32    0.01 
   8   4   2    3.04    0.04 
   9   4   2    0.01    0.01 
  10   4   2   12.42    0.10 
 -11   5   2    1.55    0.03 
 -10   5   2   39.19    0.35 
  -9   5   2   13.46    0.12 
  -8   5   2    0.17    0.01 
  -7   5   2   11.24    0.10 
  -6   5   2    2.48    0.04 
  -5   5   2   30.54    0.52 
  -4   5   2   38.20    0.63 
  -3   5   2    0.71    0.05 
  -2   5   2   16.48    0.46 
  -1   5   2    8.42    0.40 
   2   5   2  109.43    3.45 
   3   5   2   17.14    0.49 
   4   5   2   10.21    0.12 
   5   5   2    0.99    0.03 
   6   5   2   19.61    0.17 
   7   5   2    0.50    0.02 
   8   5   2    8.35    0.08 
   9   5   2    4.28    0.04 
  -9   6   2    4.60    0.05 
  -8   6   2   17.36    0.15 
  -7   6   2    3.00    0.04 
  -6   6   2    0.13    0.01 
  -5   6   2    8.09    0.09 
  -4   6   2    1.64    0.04 
  -3   6   2    2.82    0.05 
  -2   6   2   11.31    0.17 
   4   6   2   10.71    0.16 
   5   6   2    3.03    0.05 
   6   6   2   15.24    0.15 
   7   6   2    5.29    0.06 
   8   6   2    5.01    0.05 
  -7   7   2   18.82    0.18 
  -6   7   2    9.17    0.09 
  -5   7   2    9.67    0.10 
  -4   7   2    9.58    0.11 
  -3   7   2    1.91    0.04 
  -2   7   2   15.67    0.31 
   5   7   2   10.54    0.27 
   5  -7   3    0.09    0.04 
  -9  -6   3    5.08    0.22 
  -5  -6   3    3.28    0.25 
  -4  -6   3   13.51    0.67 
  -3  -6   3    4.14    0.32 
  -2  -6   3   45.80    1.64 
  -1  -6   3    0.83    0.17 
   0  -6   3    5.75    0.37 
   1  -6   3    4.42    0.32 
   2  -6   3   10.02    0.55 
   3  -6   3    3.34    0.27 
   5  -6   3   11.90    0.46 
   6  -6   3    0.16    0.04 
   7  -6   3    0.78    0.04 
 -11  -5   3    9.15    0.23 
 -10  -5   3    2.62    0.11 
  -8  -5   3    0.12    0.11 
  -7  -5   3    0.10    0.10 
  -6  -5   3   23.11    0.88 
  -5  -5   3    7.39    0.45 
  -4  -5   3    2.81    0.25 
  -3  -5   3    1.63    0.20 
  -1  -5   3   30.06    1.12 
   0  -5   3   13.22    0.59 
   1  -5   3    8.31    0.46 
   2  -5   3    0.05    0.07 
   3  -5   3    2.92    0.25 
   4  -5   3    3.44    0.26 
   5  -5   3    4.61    0.15 
   6  -5   3    0.81    0.08 
   7  -5   3    2.55    0.09 
   8  -5   3    2.20    0.06 
   9  -5   3    0.10    0.01 
 -12  -4   3    1.31    0.04 
 -11  -4   3    2.37    0.09 
 -10  -4   3    0.22    0.07 
  -9  -4   3    0.51    0.08 
  -8  -4   3    4.48    0.35 
  -7  -4   3   45.75    1.58 
  -6  -4   3   36.30    0.92 
  -5  -4   3    1.19    0.16 
  -4  -4   3   50.23    1.66 
  -3  -4   3   55.89    1.29 
  -2  -4   3    5.15    0.49 
  -1  -4   3   37.54    0.99 
   0  -4   3    2.06    0.15 
   1  -4   3    5.52    0.27 
   2  -4   3    4.97    0.31 
   3  -4   3    6.69    0.24 
   4  -4   3    5.75    0.21 
   5  -4   3   54.17    1.21 
   6  -4   3    6.23    0.15 
   7  -4   3   38.14    0.61 
   8  -4   3    6.25    0.12 
   9  -4   3    3.09    0.07 
  10  -4   3    0.92    0.03 
 -13  -3   3   11.26    0.21 
 -12  -3   3    0.20    0.02 
 -11  -3   3    5.15    0.15 
 -10  -3   3   26.11    0.66 
  -9  -3   3  159.85    3.56 
  -8  -3   3   81.46    2.72 
  -7  -3   3    1.09    0.18 
  -6  -3   3    7.72    0.28 
  -5  -3   3  117.63    2.89 
  -4  -3   3  133.70    3.10 
  -3  -3   3   41.18    1.07 
  -2  -3   3   16.75    0.66 
  -1  -3   3    0.80    0.08 
   0  -3   3   35.39    0.88 
   1  -3   3  474.60   10.27 
   2  -3   3    8.02    0.23 
   3  -3   3  131.00    2.39 
   4  -3   3    1.34    0.09 
   5  -3   3    1.79    0.10 
   6  -3   3    5.38    0.26 
   7  -3   3   81.31    1.21 
   8  -3   3    0.51    0.04 
   9  -3   3   36.85    0.51 
  10  -3   3    0.14    0.02 
  11  -3   3   11.54    0.22 
 -13  -2   3   12.69    0.21 
 -12  -2   3   48.86    0.66 
 -11  -2   3   36.00    0.52 
 -10  -2   3    1.24    0.07 
  -9  -2   3    3.50    0.29 
  -8  -2   3  164.25    5.12 
  -7  -2   3   56.31    1.58 
  -6  -2   3   28.45    0.68 
  -5  -2   3   30.44    0.66 
  -4  -2   3   43.93    2.09 
  -3  -2   3   12.87    0.90 
  -2  -2   3   95.05    2.25 
  -1  -2   3  339.26    8.51 
   0  -2   3   34.46    0.97 
   1  -2   3  190.93    6.71 
   2  -2   3   35.69    1.51 
   3  -2   3  190.34    3.40 
   4  -2   3    1.04    0.06 
   5  -2   3  269.04    5.89 
   6  -2   3    2.66    0.16 
   7  -2   3   37.95    1.20 
   8  -2   3    1.19    0.04 
   9  -2   3   54.05    0.74 
  10  -2   3   12.00    0.19 
  11  -2   3   29.74    0.52 
 -14  -1   3   17.81    0.38 
 -13  -1   3    5.30    0.11 
 -12  -1   3    0.44    0.04 
 -11  -1   3    6.76    0.12 
 -10  -1   3   90.40    2.74 
  -9  -1   3   22.19    0.84 
  -8  -1   3    0.87    0.11 
  -7  -1   3   44.79    0.99 
  -6  -1   3   23.65    0.58 
  -5  -1   3   16.68    1.10 
  -4  -1   3    8.83    0.70 
  -3  -1   3  177.26    4.15 
  -2  -1   3   18.64    0.96 
  -1  -1   3    1.53    0.12 
   0  -1   3  153.63    3.96 
   1  -1   3  374.05    9.35 
   2  -1   3   10.13    0.44 
   3  -1   3  104.89    3.83 
   4  -1   3    1.01    0.06 
   5  -1   3   21.02    0.47 
   6  -1   3    9.79    0.27 
   7  -1   3   85.41    1.85 
   8  -1   3    2.55    0.12 
   9  -1   3    2.48    0.07 
  10  -1   3   12.56    0.22 
  11  -1   3    3.25    0.08 
  12  -1   3    1.59    0.04 
 -14   0   3    0.03    0.01 
 -13   0   3    0.02    0.01 
 -12   0   3    0.03    0.02 
 -11   0   3    0.01    0.02 
 -10   0   3   -0.02    0.07 
  -9   0   3    0.07    0.07 
  -8   0   3    0.06    0.04 
  -7   0   3    0.01    0.03 
  -6   0   3    0.01    0.02 
  -5   0   3    0.01    0.02 
  -4   0   3    0.02    0.02 
  -3   0   3    0.03    0.02 
  -2   0   3    0.03    0.01 
  -1   0   3    0.02    0.01 
   0   0   3    0.03    0.04 
   1   0   3    0.02    0.07 
   2   0   3    0.02    0.04 
   3   0   3    0.02    0.05 
   4   0   3    0.01    0.02 
   5   0   3    0.02    0.02 
   6   0   3    0.00    0.02 
   7   0   3    0.01    0.04 
   8   0   3    0.26    0.08 
   9   0   3    0.05    0.01 
  10   0   3    0.01    0.01 
  11   0   3    0.03    0.01 
  12   0   3    0.03    0.01 
 -14   1   3   18.03    0.38 
 -13   1   3    5.47    0.09 
 -12   1   3    0.40    0.03 
 -11   1   3    6.70    0.10 
 -10   1   3   86.92    2.68 
  -9   1   3   21.41    0.55 
  -8   1   3    0.96    0.09 
  -7   1   3   46.02    0.86 
  -6   1   3   25.52    0.49 
  -5   1   3   15.49    0.52 
  -4   1   3    8.69    0.27 
  -3   1   3  186.56    3.89 
  -2   1   3   20.11    0.50 
  -1   1   3    1.58    0.05 
   0   1   3  163.74    2.95 
   1   1   3  406.28    9.45 
   2   1   3   10.95    0.44 
   3   1   3  120.31    2.81 
   4   1   3    1.04    0.05 
   5   1   3   21.69    0.35 
   6   1   3    9.49    0.23 
   7   1   3   84.32    1.86 
   8   1   3    2.41    0.19 
   9   1   3    2.34    0.04 
  10   1   3   12.37    0.13 
  11   1   3    3.26    0.06 
  12   1   3    1.50    0.04 
 -13   2   3   12.69    0.19 
 -12   2   3   47.52    0.60 
 -11   2   3   36.06    0.40 
 -10   2   3    1.29    0.03 
  -9   2   3    3.45    0.16 
  -8   2   3  166.32    2.89 
  -7   2   3   56.67    0.80 
  -6   2   3   29.46    0.43 
  -5   2   3   29.61    0.39 
  -4   2   3   42.70    1.34 
  -2   2   3   97.43    2.12 
  -1   2   3  360.18    6.55 
   0   2   3   35.16    0.71 
   1   2   3  191.25    4.55 
   2   2   3   36.58    1.09 
   3   2   3  199.31    2.44 
   4   2   3    1.09    0.05 
   5   2   3  272.92    3.38 
   6   2   3    2.45    0.09 
   7   2   3   36.13    0.72 
   8   2   3    1.19    0.02 
   9   2   3   53.25    0.41 
  10   2   3   11.73    0.12 
  11   2   3   28.80    0.34 
 -13   3   3   11.11    0.18 
 -12   3   3    0.25    0.02 
 -11   3   3    5.03    0.07 
 -10   3   3   26.10    0.24 
  -9   3   3  168.48    1.27 
  -8   3   3   84.96    1.33 
  -7   3   3    1.12    0.06 
  -6   3   3    7.81    0.17 
  -5   3   3  116.26    1.43 
  -4   3   3  130.07    1.73 
  -3   3   3   37.62    0.50 
  -2   3   3   16.37    0.24 
  -1   3   3    0.85    0.05 
   0   3   3   34.30    0.91 
   1   3   3  465.17    7.12 
   2   3   3    8.04    0.17 
   3   3   3  133.43    1.70 
   4   3   3    1.23    0.06 
   5   3   3    1.69    0.07 
   6   3   3    5.16    0.14 
   7   3   3   79.29    0.52 
   8   3   3    0.50    0.02 
   9   3   3   36.36    0.27 
  10   3   3    0.12    0.01 
  11   3   3   11.46    0.14 
 -12   4   3    1.18    0.03 
 -11   4   3    2.39    0.04 
 -10   4   3    0.13    0.01 
  -9   4   3    0.55    0.02 
  -8   4   3    4.87    0.05 
  -7   4   3   44.69    0.73 
  -6   4   3   36.74    0.61 
  -5   4   3    0.87    0.06 
  -4   4   3   48.68    0.90 
  -3   4   3   53.45    0.84 
  -2   4   3    5.17    0.13 
  -1   4   3   38.13    1.20 
   1   4   3    6.38    0.36 
   2   4   3    4.85    0.15 
   3   4   3    7.05    0.25 
   4   4   3    5.71    0.18 
   5   4   3   53.09    0.99 
   6   4   3    6.16    0.07 
   7   4   3   38.14    0.28 
   8   4   3    6.35    0.06 
   9   4   3    3.02    0.04 
  10   4   3    0.89    0.01 
 -11   5   3    9.30    0.12 
 -10   5   3    2.81    0.04 
  -9   5   3    2.88    0.04 
  -8   5   3    0.17    0.01 
  -7   5   3    0.12    0.01 
  -6   5   3   21.31    0.18 
  -5   5   3    7.66    0.21 
  -4   5   3    2.52    0.11 
  -3   5   3    1.63    0.08 
  -2   5   3   50.90    1.17 
   3   5   3    3.09    0.27 
   4   5   3    3.05    0.05 
   5   5   3    4.71    0.06 
   6   5   3    0.91    0.02 
   7   5   3    2.62    0.04 
   8   5   3    2.20    0.03 
   9   5   3    0.10    0.01 
  -9   6   3    5.91    0.06 
  -8   6   3    0.51    0.02 
  -7   6   3    3.93    0.05 
  -6   6   3    0.70    0.02 
  -5   6   3    2.95    0.05 
  -4   6   3   15.06    0.15 
  -3   6   3    4.21    0.07 
   4   6   3    7.28    0.13 
   5   6   3   12.79    0.15 
   6   6   3    0.17    0.01 
   7   6   3    0.71    0.02 
  -7   7   3    1.86    0.03 
  -6   7   3    1.20    0.02 
  -5   7   3    9.24    0.11 
  -4   7   3    4.68    0.07 
  -3   7   3   10.62    0.20 
   3  -7   4    1.30    0.12 
   4  -7   4    6.84    0.21 
  -9  -6   4    1.03    0.09 
  -4  -6   4    3.75    0.32 
  -3  -6   4    4.60    0.35 
  -2  -6   4    0.54    0.15 
  -1  -6   4    1.48    0.21 
   0  -6   4   15.20    0.51 
   1  -6   4   17.44    0.80 
   2  -6   4    0.08    0.08 
   4  -6   4   11.16    0.47 
   5  -6   4    2.07    0.10 
   6  -6   4    6.84    0.16 
   7  -6   4    6.70    0.14 
 -11  -5   4    1.20    0.05 
 -10  -5   4    1.55    0.12 
  -9  -5   4   13.28    0.53 
  -7  -5   4    6.84    0.42 
  -6  -5   4    0.12    0.06 
  -5  -5   4    3.72    0.32 
  -4  -5   4   90.24    2.92 
  -3  -5   4   23.01    0.90 
  -2  -5   4    6.95    0.42 
  -1  -5   4   34.36    1.28 
   0  -5   4   19.98    0.82 
   1  -5   4   52.79    1.85 
   2  -5   4   73.97    2.45 
   3  -5   4    9.72    0.50 
   4  -5   4    3.16    0.16 
   5  -5   4    1.08    0.06 
   6  -5   4    4.03    0.12 
   7  -5   4    3.35    0.09 
   8  -5   4   15.15    0.25 
 -12  -4   4    2.06    0.05 
 -11  -4   4    2.65    0.11 
 -10  -4   4    0.87    0.12 
  -9  -4   4    6.02    0.25 
  -8  -4   4   12.48    0.62 
  -7  -4   4   15.60    0.51 
  -6  -4   4  127.65    2.75 
  -5  -4   4    4.69    0.34 
  -4  -4   4    2.58    0.23 
  -3  -4   4    5.67    0.34 
  -2  -4   4   37.75    1.01 
  -1  -4   4   87.60    2.07 
   0  -4   4   15.23    0.64 
   1  -4   4   25.47    0.94 
   2  -4   4    0.15    0.08 
   3  -4   4   48.53    1.15 
   4  -4   4   20.54    0.54 
   5  -4   4    2.86    0.11 
   6  -4   4    6.96    0.16 
   7  -4   4    1.31    0.05 
   8  -4   4    1.43    0.06 
   9  -4   4    0.41    0.03 
 -13  -3   4    0.04    0.01 
 -12  -3   4    3.86    0.09 
 -11  -3   4    0.06    0.03 
 -10  -3   4    1.04    0.08 
  -9  -3   4    5.29    0.23 
  -8  -3   4   30.36    1.17 
  -7  -3   4    1.96    0.15 
  -6  -3   4    0.05    0.05 
  -5  -3   4   23.46    0.79 
  -4  -3   4   77.96    1.60 
  -3  -3   4    3.04    0.17 
  -2  -3   4    0.10    0.04 
  -1  -3   4   41.68    1.03 
   0  -3   4    0.20    0.06 
   1  -3   4   96.95    1.85 
   2  -3   4   20.18    0.47 
   3  -3   4   13.18    0.34 
   4  -3   4    9.91    0.30 
   5  -3   4    4.57    0.24 
   6  -3   4   19.95    0.70 
   7  -3   4    3.91    0.10 
   8  -3   4    4.45    0.09 
   9  -3   4    4.63    0.10 
  10  -3   4    9.59    0.16 
 -13  -2   4    3.14    0.07 
 -12  -2   4    2.55    0.07 
 -11  -2   4    1.63    0.07 
 -10  -2   4    0.11    0.04 
  -9  -2   4   14.70    0.66 
  -8  -2   4    4.95    0.24 
  -7  -2   4    3.90    0.19 
  -6  -2   4   14.78    0.41 
  -5  -2   4  109.36    2.02 
  -4  -2   4   36.23    1.00 
  -3  -2   4   71.67    2.91 
  -2  -2   4   79.11    1.96 
  -1  -2   4   15.88    0.57 
   0  -2   4   11.32    0.48 
   1  -2   4   23.31    0.67 
   2  -2   4   13.88    0.33 
   3  -2   4    0.08    0.03 
   4  -2   4    5.61    0.23 
   5  -2   4    3.24    0.19 
   6  -2   4   38.09    1.17 
   7  -2   4    7.54    0.33 
   8  -2   4   10.51    0.16 
   9  -2   4    1.52    0.06 
  10  -2   4    0.09    0.02 
  11  -2   4    0.20    0.02 
 -14  -1   4    1.66    0.05 
 -13  -1   4    3.41    0.07 
 -12  -1   4    3.99    0.09 
 -11  -1   4   11.81    0.19 
 -10  -1   4   34.93    1.20 
  -9  -1   4   42.22    1.02 
  -8  -1   4  115.86    2.59 
  -7  -1   4   37.17    0.85 
  -6  -1   4   24.08    0.60 
  -5  -1   4   13.73    0.51 
  -4  -1   4  188.66    6.37 
  -3  -1   4  152.52    5.27 
  -2  -1   4  114.35    2.81 
  -1  -1   4   78.05    1.92 
   0  -1   4   76.83    1.88 
   1  -1   4    4.27    0.28 
   2  -1   4  202.81    4.85 
   3  -1   4   20.91    0.60 
   4  -1   4   56.09    1.11 
   5  -1   4    6.84    0.20 
   6  -1   4   52.99    1.17 
   7  -1   4    0.73    0.07 
   8  -1   4   29.99    0.33 
   9  -1   4    8.23    0.12 
  10  -1   4   11.36    0.20 
  11  -1   4    0.01    0.01 
 -14   0   4    1.92    0.05 
 -13   0   4   24.86    0.39 
 -12   0   4   19.78    0.33 
 -11   0   4   32.09    0.43 
 -10   0   4   59.23    1.86 
  -9   0   4    2.60    0.15 
  -8   0   4   38.23    0.91 
  -7   0   4  289.72    6.05 
  -6   0   4  112.75    1.82 
  -5   0   4   70.88    1.71 
  -4   0   4  122.51    2.79 
  -3   0   4   79.45    1.83 
  -2   0   4    1.32    0.06 
  -1   0   4   21.68    0.45 
   0   0   4  233.90    6.01 
   1   0   4    1.75    0.17 
   2   0   4   29.60    0.94 
   3   0   4   55.76    0.98 
   4   0   4  261.00    3.96 
   5   0   4    0.23    0.04 
   6   0   4   99.21    2.11 
   7   0   4    0.33    0.08 
   8   0   4    6.62    0.09 
   9   0   4    4.36    0.07 
  10   0   4   36.55    0.41 
  11   0   4    1.73    0.04 
 -14   1   4    1.63    0.05 
 -13   1   4    3.38    0.08 
 -12   1   4    4.08    0.09 
 -11   1   4   11.81    0.16 
 -10   1   4   33.89    0.82 
  -9   1   4   42.05    0.98 
  -8   1   4  121.37    2.56 
  -7   1   4   38.29    0.72 
  -6   1   4   26.27    0.38 
  -5   1   4   14.91    0.30 
  -4   1   4  195.43    4.19 
  -3   1   4  161.54    3.46 
  -2   1   4  116.74    2.57 
  -1   1   4   80.05    1.80 
   0   1   4   79.53    2.95 
   1   1   4    4.36    0.24 
   2   1   4  230.43    5.29 
   3   1   4   22.45    0.31 
   4   1   4   59.08    0.80 
   5   1   4    7.04    0.18 
   6   1   4   51.26    0.98 
   7   1   4    0.79    0.12 
   8   1   4   30.39    0.27 
   9   1   4    8.02    0.09 
  10   1   4   11.08    0.13 
  11   1   4    0.01    0.01 
 -13   2   4    3.11    0.06 
 -12   2   4    2.49    0.05 
 -11   2   4    1.73    0.04 
 -10   2   4    0.14    0.01 
  -9   2   4   14.15    0.41 
  -8   2   4    5.05    0.15 
  -7   2   4    4.03    0.10 
  -6   2   4   15.06    0.24 
  -5   2   4  104.98    1.41 
  -4   2   4   35.05    0.49 
  -3   2   4   73.82    1.68 
  -2   2   4   82.08    1.85 
  -1   2   4   16.31    0.46 
   0   2   4   11.14    0.35 
   1   2   4   23.21    0.51 
   2   2   4   13.95    0.22 
   3   2   4    0.06    0.02 
   4   2   4    5.72    0.14 
   5   2   4    3.32    0.11 
   6   2   4   34.78    0.70 
   7   2   4    7.07    0.21 
   8   2   4   10.34    0.09 
   9   2   4    1.46    0.03 
  10   2   4    0.12    0.01 
  11   2   4    0.20    0.01 
 -13   3   4    0.02    0.01 
 -12   3   4    3.94    0.06 
 -11   3   4    0.06    0.01 
 -10   3   4    1.15    0.03 
  -9   3   4    5.46    0.06 
  -8   3   4   31.38    0.62 
  -7   3   4    2.15    0.09 
  -6   3   4    0.06    0.02 
  -5   3   4   22.80    0.35 
  -4   3   4   76.50    1.04 
  -3   3   4    3.02    0.07 
  -2   3   4    0.17    0.02 
  -1   3   4   40.80    0.54 
   0   3   4    0.17    0.02 
   1   3   4  102.77    1.63 
   2   3   4   21.06    0.35 
   3   3   4   13.86    0.26 
   4   3   4    9.93    0.22 
   5   3   4    4.54    0.13 
   6   3   4   19.15    0.37 
   7   3   4    3.95    0.05 
   8   3   4    4.38    0.05 
   9   3   4    4.39    0.05 
  10   3   4    9.27    0.10 
 -12   4   4    2.08    0.04 
 -11   4   4    2.77    0.04 
 -10   4   4    0.76    0.02 
  -9   4   4    6.68    0.06 
  -8   4   4   12.64    0.10 
  -7   4   4   16.33    0.36 
  -6   4   4  124.76    2.18 
  -5   4   4    5.00    0.13 
  -4   4   4    3.02    0.09 
  -3   4   4    4.87    0.11 
  -2   4   4   37.85    0.60 
  -1   4   4   85.81    2.60 
   1   4   4   24.31    0.51 
   2   4   4    0.14    0.03 
   3   4   4   49.61    0.81 
   4   4   4   20.29    0.39 
   5   4   4    2.77    0.04 
   6   4   4    7.10    0.07 
   7   4   4    1.25    0.03 
   8   4   4    1.38    0.03 
   9   4   4    0.37    0.01 
 -11   5   4    1.13    0.02 
 -10   5   4    1.64    0.03 
  -9   5   4   14.99    0.13 
  -8   5   4   30.48    0.24 
  -7   5   4    7.30    0.08 
  -6   5   4    0.03    0.01 
  -5   5   4    3.60    0.05 
  -4   5   4   89.09    1.60 
  -3   5   4   20.15    0.43 
  -2   5   4    6.46    0.32 
   3   5   4    9.25    0.15 
   4   5   4    3.18    0.06 
   5   5   4    0.99    0.03 
   6   5   4    3.97    0.05 
   7   5   4    3.25    0.04 
   8   5   4   14.41    0.12 
  -9   6   4    1.18    0.02 
  -8   6   4    2.95    0.04 
  -7   6   4   43.36    0.36 
  -6   6   4    0.45    0.02 
  -5   6   4    5.00    0.07 
  -4   6   4    3.80    0.06 
  -3   6   4    4.54    0.14 
   4   6   4   11.83    0.19 
   5   6   4    2.10    0.04 
   6   6   4    6.66    0.08 
   7   6   4    6.04    0.08 
  -7   7   4    3.92    0.05 
  -6   7   4    4.60    0.06 
  -5   7   4    2.00    0.04 
  -4   7   4    1.65    0.05 
   3  -7   5    8.84    0.27 
  -9  -6   5    1.12    0.06 
  -8  -6   5    8.72    0.38 
  -4  -6   5   15.67    0.77 
  -3  -6   5    1.95    0.24 
  -2  -6   5    3.80    0.33 
  -1  -6   5   26.59    1.10 
   0  -6   5    5.03    0.25 
   1  -6   5   17.41    0.59 
   3  -6   5    0.11    0.06 
   4  -6   5    6.97    0.23 
   5  -6   5    8.64    0.19 
   6  -6   5    0.03    0.01 
 -11  -5   5    0.96    0.05 
 -10  -5   5    3.46    0.13 
  -9  -5   5   13.75    0.38 
  -7  -5   5    4.99    0.26 
  -6  -5   5    6.63    0.29 
  -5  -5   5    1.74    0.23 
  -4  -5   5    2.09    0.25 
  -3  -5   5   28.75    1.13 
  -2  -5   5   58.98    1.45 
  -1  -5   5   40.05    1.01 
   0  -5   5    6.50    0.40 
   1  -5   5    7.51    0.45 
   2  -5   5    3.70    0.30 
   3  -5   5    4.62    0.33 
   4  -5   5    1.69    0.09 
   5  -5   5    4.58    0.17 
   6  -5   5   11.89    0.22 
   7  -5   5    0.47    0.03 
   8  -5   5    0.69    0.04 
 -12  -4   5    3.28    0.07 
 -11  -4   5   18.36    0.36 
 -10  -4   5    3.06    0.14 
  -9  -4   5   29.63    0.81 
  -8  -4   5   16.21    0.55 
  -7  -4   5    0.17    0.08 
  -6  -4   5   14.14    0.46 
  -5  -4   5    2.83    0.27 
  -4  -4   5    8.02    0.45 
  -3  -4   5    4.75    0.32 
  -2  -4   5    1.73    0.13 
  -1  -4   5    0.40    0.11 
   0  -4   5    5.82    0.34 
   1  -4   5    7.82    0.43 
   2  -4   5   24.31    0.94 
   3  -4   5    9.10    0.31 
   4  -4   5    0.96    0.07 
   5  -4   5   12.39    0.23 
   6  -4   5    0.44    0.04 
   7  -4   5    1.68    0.06 
   8  -4   5    0.66    0.04 
   9  -4   5    1.38    0.05 
 -13  -3   5    0.09    0.01 
 -12  -3   5    3.56    0.08 
 -11  -3   5   22.44    0.44 
 -10  -3   5   29.51    0.52 
  -9  -3   5   20.56    0.47 
  -8  -3   5   18.36    0.59 
  -7  -3   5    7.45    0.31 
  -6  -3   5   27.30    0.72 
  -5  -3   5    3.62    0.22 
  -4  -3   5   29.66    0.76 
  -3  -3   5   63.68    1.11 
  -2  -3   5    0.37    0.06 
  -1  -3   5    1.52    0.13 
   0  -3   5  101.93    2.37 
   1  -3   5  159.25    2.87 
   2  -3   5    3.09    0.14 
   3  -3   5   38.83    0.91 
   4  -3   5    8.41    0.27 
   5  -3   5   32.67    1.08 
   6  -3   5    7.30    0.15 
   7  -3   5   33.31    0.44 
   8  -3   5    0.10    0.02 
   9  -3   5    2.05    0.06 
  10  -3   5    1.07    0.04 
 -13  -2   5    1.92    0.05 
 -12  -2   5   57.62    0.87 
 -11  -2   5    4.49    0.10 
 -10  -2   5    1.30    0.07 
  -9  -2   5   25.72    0.72 
  -8  -2   5   85.41    2.03 
  -7  -2   5   41.71    1.09 
  -6  -2   5  106.78    2.12 
  -5  -2   5   30.84    0.68 
  -4  -2   5   31.67    0.75 
  -3  -2   5    4.53    0.19 
  -2  -2   5   29.14    0.55 
  -1  -2   5   49.50    1.02 
   0  -2   5   22.32    0.56 
   1  -2   5    2.28    0.10 
   2  -2   5    8.40    0.23 
   3  -2   5   20.40    0.47 
   4  -2   5    0.20    0.06 
   5  -2   5   80.77    2.48 
   6  -2   5   18.73    0.66 
   7  -2   5    0.26    0.03 
   8  -2   5    0.39    0.03 
   9  -2   5   16.58    0.28 
  10  -2   5    1.44    0.04 
 -14  -1   5    8.12    0.14 
 -13  -1   5    1.51    0.05 
 -12  -1   5    8.51    0.15 
 -11  -1   5    1.28    0.05 
 -10  -1   5   23.89    0.64 
  -9  -1   5   27.38    0.74 
  -8  -1   5    0.19    0.06 
  -7  -1   5   31.05    0.80 
  -6  -1   5    3.21    0.15 
  -5  -1   5   66.67    1.82 
  -4  -1   5   69.15    2.96 
  -3  -1   5  170.15    6.08 
  -2  -1   5    6.86    0.64 
  -1  -1   5   38.87    1.11 
   0  -1   5   22.66    0.78 
   1  -1   5    3.58    0.28 
   2  -1   5   15.59    0.36 
   3  -1   5   38.42    1.00 
   4  -1   5    8.85    0.32 
   5  -1   5    1.39    0.12 
   6  -1   5    1.04    0.11 
   7  -1   5   74.83    0.81 
   8  -1   5    0.83    0.04 
   9  -1   5    0.13    0.02 
  10  -1   5    0.04    0.02 
 -14   0   5    0.00    0.01 
 -13   0   5    0.08    0.02 
 -12   0   5    0.04    0.02 
 -11   0   5    0.02    0.02 
 -10   0   5   -0.01    0.04 
  -9   0   5    0.02    0.05 
  -8   0   5    0.00    0.04 
  -7   0   5    0.01    0.05 
  -6   0   5    0.00    0.04 
  -5   0   5    0.04    0.02 
  -4   0   5    0.01    0.02 
  -3   0   5    0.05    0.02 
  -2   0   5    0.01    0.01 
  -1   0   5    0.01    0.07 
   0   0   5   -0.01    0.06 
   1   0   5    0.02    0.06 
   2   0   5    0.01    0.02 
   3   0   5    0.01    0.02 
   4   0   5    0.03    0.02 
   5   0   5    0.07    0.03 
   6   0   5    0.09    0.03 
   7   0   5    0.01    0.01 
   8   0   5    0.01    0.01 
   9   0   5    0.02    0.01 
  10   0   5    0.03    0.01 
  11   0   5    0.00    0.01 
 -14   1   5    8.28    0.14 
 -13   1   5    1.53    0.04 
 -12   1   5    8.42    0.19 
 -11   1   5    1.32    0.04 
 -10   1   5   23.88    0.62 
  -9   1   5   30.17    0.75 
  -8   1   5    0.22    0.08 
  -7   1   5   31.50    0.77 
  -6   1   5    3.79    0.08 
  -5   1   5   71.39    1.02 
  -4   1   5   72.48    1.73 
  -3   1   5  185.14    4.05 
  -2   1   5    7.22    0.24 
  -1   1   5   40.72    1.01 
   0   1   5   24.43    1.37 
   1   1   5    4.03    0.14 
   2   1   5   16.66    0.28 
   3   1   5   39.96    0.61 
   4   1   5    8.70    0.19 
   5   1   5    1.27    0.06 
   6   1   5    0.95    0.10 
   7   1   5   75.16    0.61 
   8   1   5    0.90    0.03 
   9   1   5    0.14    0.01 
  10   1   5    0.06    0.01 
 -13   2   5    1.76    0.04 
 -12   2   5   56.85    0.61 
 -11   2   5    4.60    0.07 
 -10   2   5    1.37    0.03 
  -9   2   5   26.93    0.97 
  -8   2   5   91.17    1.95 
  -7   2   5   46.18    0.84 
  -6   2   5  110.15    1.46 
  -5   2   5   29.88    0.43 
  -4   2   5   31.72    0.41 
  -3   2   5    4.49    0.09 
  -2   2   5   28.12    0.38 
  -1   2   5   49.14    0.70 
   0   2   5   23.06    0.37 
   1   2   5    2.27    0.07 
   2   2   5    8.42    0.15 
   3   2   5   21.09    0.32 
   4   2   5    0.13    0.04 
   5   2   5   80.58    1.47 
   6   2   5   17.33    0.40 
   7   2   5    0.30    0.02 
   8   2   5    0.36    0.01 
   9   2   5   16.39    0.16 
  10   2   5    1.43    0.03 
 -13   3   5    0.06    0.01 
 -12   3   5    3.40    0.05 
 -11   3   5   21.83    0.22 
 -10   3   5   30.39    0.26 
  -9   3   5   21.99    0.19 
  -8   3   5   20.12    0.42 
  -7   3   5    7.95    0.21 
  -6   3   5   26.96    0.46 
  -5   3   5    3.68    0.11 
  -4   3   5   29.24    0.43 
  -3   3   5   62.09    0.87 
  -2   3   5    0.35    0.03 
  -1   3   5    1.63    0.06 
   0   3   5  102.91    1.45 
   1   3   5  161.96    2.21 
   2   3   5    3.38    0.12 
   3   3   5   39.90    0.65 
   4   3   5    8.21    0.19 
   5   3   5   32.61    0.66 
   6   3   5    7.28    0.07 
   7   3   5   33.26    0.25 
   8   3   5    0.09    0.01 
   9   3   5    1.97    0.03 
  10   3   5    1.10    0.02 
 -12   4   5    3.13    0.05 
 -11   4   5   18.40    0.17 
 -10   4   5    3.14    0.04 
  -9   4   5   32.86    0.23 
  -8   4   5   17.80    0.14 
  -7   4   5    0.28    0.04 
  -6   4   5   13.85    0.27 
  -5   4   5    2.55    0.09 
  -4   4   5    7.52    0.17 
  -3   4   5    4.53    0.13 
  -2   4   5    1.65    0.07 
  -1   4   5    0.36    0.05 
   0   4   5    5.50    0.18 
   1   4   5    7.72    0.21 
   2   4   5   23.14    0.49 
   3   4   5    9.58    0.25 
   4   4   5    0.96    0.03 
   5   4   5   12.35    0.11 
   6   4   5    0.42    0.02 
   7   4   5    1.64    0.03 
   8   4   5    0.64    0.02 
   9   4   5    1.39    0.02 
 -11   5   5    0.91    0.02 
 -10   5   5    3.47    0.04 
  -9   5   5   15.13    0.13 
  -8   5   5    3.40    0.05 
  -7   5   5    5.58    0.06 
  -6   5   5    6.29    0.07 
  -5   5   5    1.69    0.04 
  -4   5   5    1.94    0.05 
  -3   5   5   27.84    0.67 
   2   5   5    3.39    0.21 
   3   5   5    4.33    0.08 
   4   5   5    1.79    0.04 
   5   5   5    4.23    0.06 
   6   5   5   11.59    0.11 
   7   5   5    0.45    0.01 
   8   5   5    0.63    0.01 
  -9   6   5    1.09    0.02 
  -8   6   5   10.73    0.10 
  -7   6   5    0.23    0.01 
  -6   6   5    0.54    0.02 
  -5   6   5   15.61    0.17 
  -4   6   5   16.89    0.23 
   4   6   5    7.25    0.12 
   5   6   5    8.53    0.11 
   6   6   5    0.02    0.01 
  -6   7   5    3.79    0.05 
  -5   7   5    7.64    0.11 
  -2  -7   6    0.04    0.05 
   1  -7   6    0.01    0.03 
   2  -7   6    0.85    0.09 
  -9  -6   6    5.10    0.15 
  -8  -6   6   16.19    0.63 
  -6  -6   6    0.35    0.08 
  -2  -6   6    1.15    0.27 
   0  -6   6   10.89    0.53 
   1  -6   6    4.23    0.27 
   2  -6   6   11.07    0.52 
   3  -6   6    1.32    0.08 
   4  -6   6    4.99    0.14 
   5  -6   6    6.24    0.12 
 -11  -5   6    2.07    0.06 
 -10  -5   6    6.73    0.16 
  -9  -5   6   26.00    0.65 
  -8  -5   6   16.45    0.70 
  -7  -5   6   -0.04    0.06 
  -6  -5   6   44.61    1.10 
  -5  -5   6   16.06    0.79 
  -4  -5   6   19.08    0.86 
  -3  -5   6   35.33    1.29 
  -2  -5   6   16.86    0.53 
  -1  -5   6    2.70    0.19 
   0  -5   6   14.93    0.49 
   1  -5   6    0.03    0.05 
   2  -5   6   47.96    1.20 
   3  -5   6    0.12    0.04 
   4  -5   6    3.30    0.12 
   5  -5   6    2.27    0.08 
   6  -5   6   11.96    0.19 
   7  -5   6    1.42    0.04 
 -12  -4   6    3.10    0.07 
 -11  -4   6   19.01    0.32 
 -10  -4   6    6.34    0.18 
  -9  -4   6   14.06    0.32 
  -8  -4   6   17.03    0.44 
  -7  -4   6   34.36    0.94 
  -6  -4   6   60.02    1.41 
  -5  -4   6   12.31    0.64 
  -4  -4   6    9.19    0.51 
  -3  -4   6   16.93    0.51 
  -2  -4   6   35.20    0.89 
  -1  -4   6   55.62    1.30 
   0  -4   6   23.75    0.65 
   1  -4   6   79.19    2.57 
   2  -4   6    0.76    0.16 
   3  -4   6    0.83    0.07 
   4  -4   6    2.83    0.09 
   5  -4   6    2.87    0.09 
   6  -4   6   24.18    0.40 
   7  -4   6    5.82    0.11 
   8  -4   6    6.20    0.12 
 -13  -3   6    0.95    0.03 
 -12  -3   6    4.07    0.10 
 -11  -3   6    5.48    0.13 
 -10  -3   6    1.95    0.09 
  -9  -3   6    5.06    0.14 
  -8  -3   6   58.67    1.49 
  -7  -3   6    2.37    0.18 
  -6  -3   6    1.51    0.13 
  -5  -3   6   25.03    1.00 
  -4  -3   6   44.36    0.98 
  -3  -3   6    1.12    0.10 
  -2  -3   6   51.50    1.04 
  -1  -3   6    5.25    0.20 
   0  -3   6   18.67    0.46 
   1  -3   6    4.29    0.29 
   2  -3   6   13.38    0.40 
   3  -3   6   10.33    0.33 
   4  -3   6    0.28    0.06 
   5  -3   6    6.69    0.15 
   6  -3   6    0.52    0.04 
   7  -3   6    0.61    0.04 
   8  -3   6    2.03    0.06 
   9  -3   6    8.17    0.14 
 -13  -2   6    2.68    0.07 
 -12  -2   6    0.04    0.02 
 -11  -2   6    0.59    0.04 
 -10  -2   6   18.96    0.27 
  -9  -2   6   15.14    0.50 
  -8  -2   6   25.44    0.73 
  -7  -2   6   25.10    0.72 
  -6  -2   6    1.84    0.20 
  -5  -2   6   30.79    1.00 
  -4  -2   6   16.01    0.43 
  -3  -2   6   56.08    1.15 
  -2  -2   6   22.81    0.53 
  -1  -2   6   46.02    0.95 
   0  -2   6   39.28    0.85 
   1  -2   6    0.20    0.04 
   2  -2   6    0.01    0.03 
   3  -2   6    0.75    0.08 
   4  -2   6   33.72    1.10 
   5  -2   6    0.39    0.09 
   6  -2   6    9.62    0.16 
   7  -2   6    6.87    0.14 
   8  -2   6    6.10    0.11 
   9  -2   6    6.86    0.13 
  10  -2   6    1.56    0.08 
 -14  -1   6    2.90    0.07 
 -13  -1   6    0.79    0.03 
 -12  -1   6    0.28    0.03 
 -11  -1   6   88.34    1.10 
 -10  -1   6   26.62    0.36 
  -9  -1   6   18.48    0.56 
  -8  -1   6   11.48    0.58 
  -7  -1   6   10.57    0.48 
  -6  -1   6   34.43    1.13 
  -5  -1   6  142.71    2.80 
  -4  -1   6  229.80    4.25 
  -3  -1   6  171.05    3.97 
  -2  -1   6   24.56    0.73 
  -1  -1   6    0.02    0.03 
   0  -1   6  161.33    2.96 
   1  -1   6   17.57    0.41 
   2  -1   6  105.95    2.27 
   3  -1   6    0.35    0.07 
   4  -1   6    2.16    0.16 
   5  -1   6    8.19    0.35 
   6  -1   6   62.73    0.89 
   7  -1   6    0.85    0.03 
   8  -1   6   42.49    0.59 
   9  -1   6    0.70    0.04 
  10  -1   6    0.04    0.01 
 -14   0   6    0.05    0.01 
 -13   0   6  105.61    1.55 
 -12   0   6    0.13    0.02 
 -11   0   6   11.11    0.16 
 -10   0   6    0.60    0.13 
  -9   0   6  153.56    4.54 
  -8   0   6  158.30    4.75 
  -7   0   6  293.09    8.58 
  -6   0   6   93.79    1.84 
  -5   0   6   36.65    0.65 
  -4   0   6    0.53    0.04 
  -3   0   6  176.77    3.26 
  -2   0   6  341.57   13.00 
  -1   0   6  138.29    5.09 
   0   0   6   69.84    1.67 
   1   0   6    5.09    0.11 
   2   0   6  179.50    2.79 
   3   0   6  108.36    1.78 
   4   0   6   93.77    1.72 
   5   0   6    4.10    0.17 
   6   0   6    2.31    0.12 
   7   0   6   70.27    0.65 
   8   0   6    0.05    0.01 
   9   0   6    0.05    0.01 
  10   0   6   35.40    0.48 
 -14   1   6    2.83    0.06 
 -13   1   6    0.79    0.04 
 -12   1   6    0.28    0.02 
 -11   1   6   87.89    0.89 
 -10   1   6   27.16    0.29 
  -9   1   6   19.92    0.77 
  -8   1   6   12.62    0.55 
  -7   1   6   10.26    0.25 
  -6   1   6   38.21    0.54 
  -5   1   6  154.88    1.90 
  -4   1   6  241.98    2.72 
  -3   1   6  178.02    2.16 
  -2   1   6   25.05    0.38 
  -1   1   6    0.03    0.01 
   0   1   6  169.22    2.26 
   1   1   6   18.01    0.30 
   2   1   6  108.27    1.51 
   3   1   6    0.27    0.03 
   4   1   6    2.10    0.08 
   5   1   6    7.56    0.22 
   6   1   6   62.88    0.61 
   7   1   6    0.91    0.03 
   8   1   6   42.54    0.38 
   9   1   6    0.67    0.02 
  10   1   6    0.04    0.01 
 -13   2   6    2.55    0.06 
 -12   2   6    0.09    0.01 
 -11   2   6    0.65    0.02 
 -10   2   6   19.16    0.19 
  -9   2   6   17.16    0.67 
  -8   2   6   27.02    0.53 
  -7   2   6   27.94    0.46 
  -6   2   6    2.01    0.06 
  -5   2   6   32.27    0.47 
  -4   2   6   16.52    0.23 
  -3   2   6   56.59    0.73 
  -2   2   6   22.34    0.32 
  -1   2   6   46.79    0.57 
   0   2   6   41.64    0.62 
   1   2   6    0.14    0.02 
   2   2   6    0.04    0.02 
   3   2   6    0.87    0.06 
   4   2   6   32.46    0.67 
   5   2   6    0.48    0.06 
   6   2   6    9.82    0.08 
   7   2   6    6.82    0.07 
   8   2   6    5.86    0.07 
   9   2   6    6.72    0.08 
  10   2   6    1.54    0.09 
 -13   3   6    0.94    0.03 
 -12   3   6    4.09    0.06 
 -11   3   6    5.45    0.07 
 -10   3   6    1.95    0.03 
  -9   3   6    5.34    0.06 
  -8   3   6   63.71    1.14 
  -7   3   6    2.54    0.10 
  -6   3   6    1.48    0.07 
  -5   3   6   25.22    0.43 
  -4   3   6   45.64    0.64 
  -3   3   6    1.24    0.05 
  -2   3   6   51.40    0.71 
  -1   3   6    5.06    0.12 
   0   3   6   18.27    0.32 
   1   3   6    4.31    0.12 
   2   3   6   14.29    0.34 
   3   3   6   11.13    0.28 
   4   3   6    0.27    0.05 
   5   3   6    6.78    0.07 
   6   3   6    0.47    0.02 
   7   3   6    0.57    0.02 
   8   3   6    2.00    0.03 
   9   3   6    7.87    0.08 
 -12   4   6    3.04    0.05 
 -11   4   6   19.15    0.19 
 -10   4   6    6.76    0.07 
  -9   4   6   15.13    0.12 
  -8   4   6   18.58    0.15 
  -7   4   6   35.65    0.27 
  -6   4   6   58.97    0.93 
  -5   4   6   12.48    0.25 
  -4   4   6    8.72    0.21 
  -3   4   6   16.89    0.35 
  -2   4   6   33.76    0.65 
  -1   4   6   53.35    0.97 
   0   4   6   22.15    0.45 
   1   4   6   80.34    1.43 
   2   4   6    0.46    0.06 
   3   4   6    0.90    0.03 
   4   4   6    2.95    0.05 
   5   4   6    3.02    0.04 
   6   4   6   23.60    0.20 
   7   4   6    5.61    0.06 
   8   4   6    5.91    0.06 
 -11   5   6    1.92    0.03 
 -10   5   6    6.86    0.06 
  -9   5   6   28.09    0.22 
  -8   5   6   19.52    0.16 
  -7   5   6    0.04    0.01 
  -6   5   6   43.26    0.35 
  -5   5   6   16.61    0.16 
  -4   5   6   18.38    0.18 
  -3   5   6   31.40    0.35 
  -2   5   6   17.03    0.59 
   2   5   6   50.64    0.56 
   3   5   6    0.17    0.02 
   4   5   6    3.47    0.05 
   5   5   6    2.13    0.04 
   6   5   6   11.49    0.11 
   7   5   6    1.28    0.02 
  -9   6   6    5.01    0.05 
  -8   6   6   19.21    0.17 
  -7   6   6   29.91    0.26 
  -6   6   6    0.57    0.02 
  -5   6   6    2.51    0.05 
  -4   6   6    9.44    0.14 
   4   6   6    5.05    0.09 
   5   6   6    5.56    0.08 
  -6   7   6    0.90    0.05 
  -5   7   6    0.03    0.01 
  -5  -7   7    3.34    0.19 
  -4  -7   7    0.53    0.06 
  -3  -7   7    2.65    0.16 
  -2  -7   7    1.23    0.08 
  -1  -7   7    2.53    0.11 
   0  -7   7    2.08    0.10 
  -8  -6   7    8.51    0.20 
  -7  -6   7    1.20    0.14 
  -6  -6   7    0.63    0.10 
  -5  -6   7    5.58    0.30 
  -3  -6   7   18.72    0.74 
  -2  -6   7    1.67    0.16 
  -1  -6   7   11.00    0.49 
   0  -6   7    0.10    0.07 
   1  -6   7    0.01    0.04 
   2  -6   7   23.08    0.48 
   3  -6   7    1.90    0.07 
   4  -6   7    1.24    0.05 
 -10  -5   7    1.83    0.07 
  -9  -5   7    5.10    0.15 
  -8  -5   7    0.14    0.06 
  -7  -5   7    3.20    0.23 
  -6  -5   7    2.92    0.19 
  -5  -5   7    0.46    0.09 
  -4  -5   7   16.71    0.51 
  -3  -5   7    7.62    0.49 
  -2  -5   7   39.92    1.05 
  -1  -5   7    2.32    0.14 
   0  -5   7    0.74    0.07 
   1  -5   7   12.80    0.64 
   2  -5   7    3.03    0.14 
   3  -5   7    3.01    0.13 
   4  -5   7   14.83    0.28 
   5  -5   7    1.07    0.05 
   6  -5   7    2.27    0.07 
 -12  -4   7    1.76    0.05 
 -11  -4   7   11.50    0.19 
 -10  -4   7   -0.01    0.03 
  -9  -4   7    0.27    0.05 
  -8  -4   7    6.03    0.19 
  -7  -4   7    5.92    0.22 
  -6  -4   7   25.82    1.13 
  -5  -4   7    0.51    0.16 
  -4  -4   7   14.86    0.73 
  -3  -4   7   26.81    0.75 
  -2  -4   7   62.73    1.50 
  -1  -4   7    0.29    0.08 
   0  -4   7  117.49    3.76 
   1  -4   7    8.15    0.48 
   2  -4   7    0.14    0.05 
   3  -4   7    4.19    0.13 
   4  -4   7    1.58    0.06 
   5  -4   7    2.61    0.08 
   6  -4   7    3.62    0.10 
   7  -4   7    4.94    0.11 
 -13  -3   7    0.34    0.02 
 -12  -3   7   22.24    0.35 
 -11  -3   7    7.48    0.16 
 -10  -3   7   21.04    0.35 
  -9  -3   7    0.91    0.07 
  -8  -3   7    6.18    0.19 
  -7  -3   7    0.82    0.21 
  -6  -3   7   60.05    2.25 
  -5  -3   7   48.73    1.79 
  -4  -3   7   79.40    1.84 
  -3  -3   7   44.61    1.09 
  -2  -3   7   52.77    1.25 
  -1  -3   7    1.19    0.11 
   0  -3   7    0.64    0.14 
   1  -3   7   99.44    3.19 
   2  -3   7   51.96    1.24 
   3  -3   7   19.63    0.54 
   4  -3   7    3.40    0.09 
   5  -3   7   18.64    0.28 
   6  -3   7    0.29    0.03 
   7  -3   7   24.78    0.40 
   8  -3   7    0.36    0.03 
 -13  -2   7    2.22    0.06 
 -12  -2   7   56.48    0.85 
 -11  -2   7    0.15    0.03 
 -10  -2   7    0.17    0.03 
  -9  -2   7   10.51    0.24 
  -8  -2   7  218.23    7.04 
  -7  -2   7   26.80    1.16 
  -6  -2   7   84.21    3.02 
  -5  -2   7    2.91    0.16 
  -4  -2   7   49.15    1.07 
  -3  -2   7   31.57    0.73 
  -2  -2   7   83.44    1.65 
  -1  -2   7   86.99    2.22 
   0  -2   7   65.10    1.47 
   1  -2   7   18.27    0.50 
   2  -2   7    0.15    0.05 
   3  -2   7  123.10    3.83 
   4  -2   7   10.15    0.43 
   5  -2   7   39.92    0.53 
   6  -2   7    0.27    0.03 
   7  -2   7    4.25    0.10 
   8  -2   7   11.12    0.19 
   9  -2   7    7.93    0.16 
 -14  -1   7    8.20    0.16 
 -13  -1   7    3.30    0.08 
 -12  -1   7    7.74    0.14 
 -11  -1   7    3.21    0.08 
 -10  -1   7   81.15    1.13 
  -9  -1   7    1.58    0.22 
  -8  -1   7    0.14    0.10 
  -7  -1   7    3.78    0.31 
  -6  -1   7  100.40    2.31 
  -5  -1   7   12.24    0.36 
  -4  -1   7   11.96    0.35 
  -3  -1   7   54.46    1.16 
  -2  -1   7    3.03    0.19 
  -1  -1   7    6.38    0.20 
   0  -1   7    0.65    0.06 
   1  -1   7   69.19    1.54 
   3  -1   7   76.79    2.36 
   4  -1   7    5.34    0.28 
   5  -1   7   29.34    0.72 
   6  -1   7    0.08    0.02 
   7  -1   7   38.11    0.53 
   8  -1   7    6.65    0.13 
   9  -1   7    0.47    0.02 
 -14   0   7    0.02    0.01 
 -13   0   7    0.11    0.02 
 -12   0   7    0.03    0.02 
 -11   0   7    0.01    0.02 
 -10   0   7    0.06    0.02 
  -9   0   7    0.01    0.07 
  -8   0   7    0.08    0.08 
  -7   0   7    0.03    0.04 
  -6   0   7    0.02    0.02 
  -5   0   7    0.22    0.08 
  -4   0   7   -0.01    0.02 
  -3   0   7    0.01    0.01 
  -2   0   7    0.11    0.02 
  -1   0   7    0.03    0.02 
   0   0   7    0.03    0.02 
   1   0   7    0.02    0.02 
   2   0   7    0.02    0.03 
   4   0   7    0.03    0.03 
   5   0   7   -0.01    0.03 
   6   0   7    0.02    0.01 
   7   0   7    0.00    0.01 
   8   0   7    0.03    0.01 
   9   0   7    0.01    0.01 
 -14   1   7    8.35    0.14 
 -13   1   7    3.21    0.06 
 -12   1   7    7.66    0.14 
 -11   1   7    3.33    0.07 
 -10   1   7   81.35    0.78 
  -9   1   7    1.42    0.17 
  -8   1   7    0.10    0.07 
  -7   1   7    4.01    0.13 
  -6   1   7  106.64    1.61 
  -5   1   7   13.33    0.21 
  -4   1   7   12.92    0.20 
  -3   1   7   58.29    0.75 
  -2   1   7    3.17    0.08 
  -1   1   7    6.63    0.14 
   0   1   7    0.70    0.04 
   1   1   7   71.20    1.04 
   2   1   7    0.04    0.02 
   3   1   7   76.32    1.20 
   4   1   7    5.14    0.17 
   5   1   7   26.76    0.58 
   6   1   7    0.07    0.01 
   7   1   7   37.95    0.35 
   8   1   7    6.39    0.08 
   9   1   7    0.48    0.02 
 -13   2   7    2.18    0.05 
 -12   2   7   55.38    0.60 
 -11   2   7    0.08    0.01 
 -10   2   7    0.09    0.01 
  -9   2   7   10.98    0.18 
  -8   2   7  234.87    4.87 
  -7   2   7   30.75    0.51 
  -6   2   7   96.93    1.44 
  -5   2   7    3.23    0.08 
  -4   2   7   50.95    0.70 
  -3   2   7   32.65    0.45 
  -2   2   7   85.07    1.08 
  -1   2   7   92.69    1.17 
   0   2   7   68.75    0.99 
   1   2   7   19.56    0.35 
   2   2   7    0.11    0.03 
   3   2   7  126.67    1.94 
   4   2   7    9.73    0.27 
   5   2   7   39.46    0.27 
   6   2   7    0.29    0.01 
   7   2   7    4.21    0.05 
   8   2   7   10.73    0.11 
   9   2   7    7.52    0.10 
 -13   3   7    0.37    0.02 
 -12   3   7   21.93    0.23 
 -11   3   7    7.37    0.08 
 -10   3   7   21.56    0.19 
  -9   3   7    0.92    0.02 
  -8   3   7    7.09    0.07 
  -7   3   7    0.92    0.06 
  -6   3   7   67.66    1.04 
  -5   3   7   51.58    0.83 
  -4   3   7   81.44    1.23 
  -3   3   7   44.50    0.70 
  -2   3   7   52.65    0.82 
  -1   3   7    1.26    0.06 
   0   3   7    0.62    0.05 
   1   3   7  101.89    1.55 
   2   3   7   54.97    0.88 
   3   3   7   19.79    0.45 
   4   3   7    3.57    0.05 
   5   3   7   18.97    0.15 
   6   3   7    0.20    0.01 
   7   3   7   23.93    0.19 
   8   3   7    0.38    0.01 
 -12   4   7    1.68    0.03 
 -11   4   7   11.39    0.11 
 -10   4   7    0.02    0.01 
  -9   4   7    0.31    0.01 
  -8   4   7    6.85    0.07 
  -7   4   7    6.51    0.07 
  -6   4   7   27.23    0.21 
  -5   4   7    0.40    0.05 
  -4   4   7   14.96    0.33 
  -3   4   7   27.48    0.54 
  -2   4   7   62.55    1.13 
  -1   4   7    0.30    0.04 
   0   4   7  119.57    2.08 
   1   4   7    8.08    0.23 
   2   4   7    0.10    0.01 
   3   4   7    4.25    0.06 
   4   4   7    1.66    0.03 
   5   4   7    2.53    0.04 
   6   4   7    3.45    0.04 
   7   4   7    4.83    0.05 
 -10   5   7    1.74    0.02 
  -9   5   7    5.56    0.06 
  -8   5   7    0.21    0.01 
  -7   5   7    3.94    0.05 
  -6   5   7    2.92    0.04 
  -5   5   7    0.52    0.02 
  -4   5   7   17.50    0.17 
  -3   5   7    7.25    0.10 
  -2   5   7   39.90    0.48 
  -1   5   7    2.10    0.12 
   0   5   7    0.69    0.05 
   1   5   7   13.17    0.18 
   2   5   7    3.33    0.06 
   3   5   7    3.02    0.05 
   4   5   7   14.54    0.15 
   5   5   7    1.00    0.02 
   6   5   7    2.12    0.03 
  -9   6   7    1.77    0.04 
  -8   6   7    8.80    0.09 
  -7   6   7    1.26    0.03 
  -6   6   7    0.81    0.02 
  -5   6   7    6.73    0.09 
  -4   6   7    0.31    0.02 
   3   6   7    1.88    0.07 
   4   6   7    1.07    0.04 
  -8  -6   8    3.20    0.09 
  -7  -6   8    6.56    0.17 
  -6  -6   8   10.16    0.31 
  -5  -6   8    1.88    0.11 
  -4  -6   8    4.65    0.18 
  -3  -6   8    6.47    0.32 
  -2  -6   8    3.00    0.14 
  -1  -6   8    8.49    0.28 
   0  -6   8    0.22    0.04 
   1  -6   8   25.03    0.43 
   2  -6   8   11.73    0.21 
   3  -6   8    0.95    0.05 
 -10  -5   8    0.45    0.03 
  -9  -5   8    5.06    0.14 
  -8  -5   8    5.49    0.17 
  -7  -5   8   14.63    0.44 
  -6  -5   8    0.86    0.10 
  -5  -5   8   31.58    0.69 
  -4  -5   8    0.35    0.08 
  -3  -5   8    2.38    0.12 
  -2  -5   8    2.96    0.13 
  -1  -5   8    0.85    0.09 
   0  -5   8   23.99    0.47 
   1  -5   8    1.56    0.10 
   2  -5   8   14.51    0.30 
   3  -5   8   25.31    0.38 
   4  -5   8    0.18    0.02 
   5  -5   8    0.64    0.03 
 -12  -4   8    7.51    0.18 
 -11  -4   8    8.32    0.16 
 -10  -4   8    0.76    0.05 
  -9  -4   8   42.78    0.70 
  -8  -4   8    8.36    0.22 
  -7  -4   8   34.50    0.66 
  -6  -4   8    4.52    0.18 
  -5  -4   8    7.72    0.24 
  -4  -4   8    7.91    0.33 
  -3  -4   8   54.85    1.34 
  -2  -4   8   75.75    1.78 
  -1  -4   8   39.26    1.02 
   0  -4   8    0.22    0.06 
   1  -4   8    3.81    0.14 
   2  -4   8   11.89    0.24 
   3  -4   8   10.54    0.21 
   4  -4   8   20.24    0.36 
   5  -4   8    0.80    0.04 
   6  -4   8    4.93    0.10 
 -12  -3   8    8.63    0.16 
 -11  -3   8   11.18    0.19 
 -10  -3   8    9.52    0.18 
  -9  -3   8    8.21    0.18 
  -8  -3   8   22.56    0.47 
  -7  -3   8    1.25    0.23 
  -6  -3   8    7.42    0.51 
  -5  -3   8   23.16    0.76 
  -4  -3   8   12.22    0.43 
  -3  -3   8   13.63    0.45 
  -2  -3   8    0.69    0.15 
  -1  -3   8   53.43    1.85 
   0  -3   8   19.91    0.84 
   1  -3   8    1.07    0.19 
   2  -3   8    2.19    0.08 
   3  -3   8   10.54    0.18 
   4  -3   8   13.19    0.22 
   5  -3   8    2.23    0.07 
   6  -3   8    7.89    0.16 
   7  -3   8    2.85    0.07 
 -13  -2   8    5.43    0.10 
 -12  -2   8    1.69    0.05 
 -11  -2   8    0.05    0.03 
 -10  -2   8   39.83    0.59 
  -9  -2   8    5.65    0.13 
  -8  -2   8   20.80    0.92 
  -7  -2   8    1.24    0.23 
  -6  -2   8    1.17    0.23 
  -5  -2   8   10.43    0.37 
  -4  -2   8    1.41    0.12 
  -3  -2   8    0.82    0.11 
  -2  -2   8    6.83    0.35 
  -1  -2   8   10.99    0.53 
   0  -2   8    2.86    0.14 
   1  -2   8   23.79    0.63 
   2  -2   8    0.31    0.07 
   3  -2   8    0.35    0.08 
   4  -2   8    2.87    0.09 
   5  -2   8    0.49    0.04 
   6  -2   8    2.18    0.07 
   7  -2   8    2.24    0.07 
   8  -2   8    1.09    0.04 
 -13  -1   8    6.69    0.13 
 -12  -1   8   19.36    0.32 
 -11  -1   8   17.82    0.26 
 -10  -1   8    0.56    0.04 
  -9  -1   8    1.89    0.23 
  -8  -1   8    5.04    0.37 
  -7  -1   8   13.27    0.66 
  -6  -1   8    3.64    0.19 
  -5  -1   8  118.44    2.45 
  -4  -1   8   44.44    1.01 
  -3  -1   8    1.29    0.14 
  -2  -1   8    8.14    0.37 
  -1  -1   8    9.37    0.27 
   0  -1   8    2.76    0.13 
   1  -1   8   14.77    0.41 
   2  -1   8    9.04    0.39 
   3  -1   8   -0.01    0.05 
   4  -1   8    0.14    0.02 
   5  -1   8    5.44    0.09 
   6  -1   8   29.15    0.34 
   7  -1   8    8.50    0.15 
   8  -1   8   19.33    0.28 
 -14   0   8   62.21    1.06 
 -13   0   8   13.24    0.22 
 -12   0   8   11.14    0.20 
 -11   0   8    6.63    0.11 
 -10   0   8    6.21    0.11 
  -9   0   8    0.27    0.11 
  -8   0   8   64.04    2.14 
  -7   0   8  152.18    3.29 
  -6   0   8   11.68    0.37 
  -5   0   8    1.83    0.12 
  -4   0   8  110.32    2.75 
  -3   0   8  354.80    6.30 
  -2   0   8   60.85    1.01 
  -1   0   8   68.73    1.14 
   0   0   8    4.51    0.13 
   1   0   8    1.53    0.13 
   2   0   8   13.24    0.51 
   3   0   8    8.48    0.38 
   4   0   8   42.82    1.39 
   5   0   8    5.98    0.08 
   6   0   8    1.98    0.04 
   7   0   8    0.15    0.02 
   8   0   8   10.88    0.15 
 -13   1   8    6.71    0.11 
 -12   1   8   18.89    0.24 
 -11   1   8   18.11    0.20 
 -10   1   8    0.55    0.03 
  -9   1   8    2.09    0.21 
  -8   1   8    4.76    0.20 
  -7   1   8   13.74    0.32 
  -6   1   8    3.99    0.14 
  -5   1   8  128.13    1.60 
  -4   1   8   46.93    0.70 
  -3   1   8    1.26    0.05 
  -2   1   8    8.32    0.17 
  -1   1   8    9.82    0.19 
   0   1   8    2.94    0.13 
   1   1   8   14.87    0.32 
   2   1   8    9.07    0.23 
   3   1   8    0.02    0.03 
   4   1   8    0.17    0.02 
   5   1   8    5.53    0.07 
   6   1   8   29.03    0.26 
   7   1   8    8.59    0.10 
   8   1   8   19.05    0.22 
 -13   2   8    5.44    0.09 
 -12   2   8    1.68    0.04 
 -11   2   8    0.05    0.01 
 -10   2   8   39.45    0.35 
  -9   2   8    5.72    0.07 
  -8   2   8   20.76    0.56 
  -7   2   8    1.32    0.06 
  -6   2   8    1.20    0.06 
  -5   2   8   11.48    0.26 
  -4   2   8    1.56    0.06 
  -3   2   8    0.97    0.05 
  -2   2   8    7.38    0.16 
  -1   2   8   11.45    0.25 
   0   2   8    3.20    0.10 
   1   2   8   25.03    0.44 
   2   2   8    0.45    0.05 
   3   2   8    0.25    0.04 
   4   2   8    2.97    0.04 
   5   2   8    0.54    0.02 
   6   2   8    2.20    0.03 
   7   2   8    2.20    0.04 
   8   2   8    1.05    0.02 
 -13   3   8    2.61    0.13 
 -12   3   8    8.30    0.11 
 -11   3   8   10.81    0.11 
 -10   3   8    9.64    0.10 
  -9   3   8    8.44    0.08 
  -8   3   8   25.02    0.18 
  -7   3   8    0.96    0.06 
  -6   3   8    7.98    0.21 
  -5   3   8   26.66    0.51 
  -4   3   8   12.99    0.25 
  -3   3   8   13.84    0.26 
  -2   3   8    0.71    0.05 
  -1   3   8   55.23    0.99 
   0   3   8   20.17    0.37 
   1   3   8    1.03    0.06 
   2   3   8    2.37    0.04 
   3   3   8   11.08    0.10 
   4   3   8   13.48    0.12 
   5   3   8    2.29    0.04 
   6   3   8    7.64    0.07 
   7   3   8    2.72    0.03 
 -12   4   8    7.34    0.10 
 -11   4   8    8.10    0.08 
 -10   4   8    0.79    0.02 
  -9   4   8   43.34    0.33 
  -8   4   8    9.29    0.09 
  -7   4   8   38.34    0.30 
  -6   4   8    4.95    0.06 
  -5   4   8    8.13    0.08 
  -4   4   8    8.35    0.09 
  -3   4   8   55.10    1.00 
  -2   4   8   76.54    1.65 
  -1   4   8   40.47    0.33 
   0   4   8    0.20    0.01 
   1   4   8    4.08    0.06 
   2   4   8   12.37    0.12 
   3   4   8   10.48    0.10 
   4   4   8   20.04    0.17 
   5   4   8    0.86    0.02 
   6   4   8    4.68    0.05 
 -10   5   8    0.42    0.01 
  -9   5   8    5.05    0.05 
  -8   5   8    5.87    0.06 
  -7   5   8   16.51    0.15 
  -6   5   8    0.86    0.03 
  -5   5   8   34.22    0.28 
  -4   5   8    0.29    0.02 
  -3   5   8    2.59    0.05 
  -2   5   8    3.16    0.05 
  -1   5   8    0.75    0.03 
   0   5   8   25.27    0.28 
   1   5   8    1.49    0.04 
   2   5   8   15.01    0.16 
   3   5   8   24.02    0.23 
   4   5   8    0.16    0.01 
   5   5   8    0.57    0.01 
  -8   6   8    3.13    0.04 
  -7   6   8    7.18    0.08 
  -6   6   8   11.20    0.12 
  -5   6   8    2.09    0.04 
  -4   6   8    5.21    0.09 
  -7  -6   9    5.60    0.12 
  -6  -6   9    3.36    0.09 
  -5  -6   9    3.81    0.13 
  -4  -6   9    0.16    0.04 
  -3  -6   9    1.36    0.07 
  -2  -6   9    3.42    0.12 
  -1  -6   9    3.59    0.11 
   0  -6   9    0.00    0.02 
   1  -6   9    0.30    0.03 
 -10  -5   9    0.00    0.02 
  -9  -5   9   16.08    0.24 
  -8  -5   9    0.51    0.04 
  -7  -5   9   11.83    0.29 
  -6  -5   9    0.64    0.07 
  -5  -5   9    0.67    0.07 
  -4  -5   9    1.51    0.09 
  -3  -5   9    3.93    0.15 
  -2  -5   9    0.27    0.05 
  -1  -5   9    1.86    0.11 
   0  -5   9    5.95    0.17 
   1  -5   9   14.57    0.29 
   2  -5   9    0.38    0.04 
   3  -5   9    1.24    0.06 
   4  -5   9    2.43    0.08 
 -11  -4   9    0.54    0.03 
 -10  -4   9    0.03    0.02 
  -9  -4   9    8.45    0.17 
  -8  -4   9   11.91    0.25 
  -7  -4   9    0.03    0.04 
  -6  -4   9    1.55    0.09 
  -5  -4   9   25.69    0.51 
  -4  -4   9   18.64    0.35 
  -3  -4   9    5.60    0.16 
  -2  -4   9   61.10    1.04 
  -1  -4   9    0.17    0.04 
   0  -4   9    0.60    0.06 
   1  -4   9    1.55    0.07 
   2  -4   9    0.57    0.05 
   3  -4   9    0.20    0.03 
   4  -4   9    1.49    0.07 
   5  -4   9    2.32    0.06 
 -12  -3   9   23.96    0.37 
 -11  -3   9    8.67    0.17 
 -10  -3   9   27.26    0.41 
  -9  -3   9    0.79    0.05 
  -8  -3   9    8.37    0.17 
  -7  -3   9   20.64    0.39 
  -6  -3   9  112.80    1.70 
  -5  -3   9    1.75    0.15 
  -4  -3   9   31.32    0.89 
  -3  -3   9   -0.03    0.08 
  -2  -3   9   45.57    1.63 
  -1  -3   9    0.14    0.10 
   0  -3   9   43.51    0.68 
   1  -3   9   34.34    0.51 
   2  -3   9    7.59    0.16 
   3  -3   9    0.09    0.02 
   4  -3   9    1.08    0.06 
   5  -3   9   14.86    0.27 
   6  -3   9    4.50    0.09 
 -13  -2   9    0.22    0.02 
 -12  -2   9   18.27    0.30 
 -11  -2   9    6.23    0.12 
 -10  -2   9   39.57    0.53 
  -9  -2   9    3.62    0.10 
  -8  -2   9   69.38    0.92 
  -7  -2   9   17.12    0.83 
  -6  -2   9    0.84    0.11 
  -5  -2   9    1.40    0.14 
  -4  -2   9   40.77    1.07 
  -3  -2   9   40.93    1.48 
  -2  -2   9  127.19    3.94 
  -1  -2   9   96.47    3.08 
   0  -2   9   17.13    0.51 
   1  -2   9   28.94    0.74 
   2  -2   9   18.15    0.29 
   3  -2   9   80.60    1.14 
   4  -2   9   34.06    0.46 
   5  -2   9    0.43    0.04 
   6  -2   9    0.82    0.04 
   7  -2   9   10.79    0.21 
 -13  -1   9    0.65    0.03 
 -12  -1   9   52.99    0.71 
 -11  -1   9    8.48    0.16 
 -10  -1   9   42.55    0.61 
  -9  -1   9    3.43    0.08 
  -8  -1   9   91.14    2.94 
  -7  -1   9   25.87    0.70 
  -6  -1   9   20.82    0.59 
  -5  -1   9    5.64    0.25 
  -4  -1   9    1.32    0.16 
  -3  -1   9   52.49    1.76 
  -2  -1   9    0.23    0.09 
  -1  -1   9   31.72    0.79 
   0  -1   9   68.43    2.20 
   1  -1   9   31.02    0.76 
   2  -1   9    5.51    0.29 
   3  -1   9    2.41    0.06 
   4  -1   9    4.64    0.08 
   5  -1   9    6.48    0.11 
   6  -1   9    1.35    0.05 
   7  -1   9    9.28    0.15 
 -13   0   9    0.02    0.01 
 -12   0   9    0.02    0.02 
 -11   0   9    0.01    0.02 
 -10   0   9    0.03    0.02 
  -9   0   9    0.03    0.02 
  -8   0   9    0.04    0.09 
  -7   0   9    0.02    0.04 
  -6   0   9    0.03    0.04 
  -5   0   9    0.05    0.05 
  -2   0   9   -0.01    0.02 
  -1   0   9    0.01    0.02 
   0   0   9    0.01    0.03 
   1   0   9    0.00    0.04 
   2   0   9    0.01    0.05 
   3   0   9    0.01    0.01 
   4   0   9    0.03    0.01 
   5   0   9    0.02    0.01 
   6   0   9    0.02    0.01 
   7   0   9    0.01    0.01 
   8   0   9    0.02    0.01 
 -13   1   9    0.65    0.03 
 -12   1   9   52.01    0.65 
 -11   1   9    8.56    0.11 
 -10   1   9   42.15    0.39 
  -9   1   9    3.49    0.06 
  -8   1   9   94.35    2.86 
  -7   1   9   26.30    0.54 
  -6   1   9   21.55    0.45 
  -5   1   9    5.72    0.16 
  -4   1   9    1.26    0.07 
  -3   1   9   54.33    0.84 
  -2   1   9    0.22    0.03 
  -1   1   9   33.42    0.55 
   0   1   9   66.91    1.20 
   1   1   9   30.37    0.60 
   2   1   9    5.49    0.17 
   3   1   9    2.55    0.05 
   4   1   9    4.75    0.06 
   5   1   9    6.41    0.08 
   6   1   9    1.43    0.03 
   7   1   9    8.79    0.12 
 -13   2   9    0.20    0.01 
 -12   2   9   17.91    0.20 
 -11   2   9    6.05    0.08 
 -10   2   9   39.26    0.36 
  -9   2   9    3.70    0.05 
  -8   2   9   70.84    0.60 
  -7   2   9   17.73    0.33 
  -6   2   9    0.92    0.06 
  -5   2   9    1.66    0.08 
  -4   2   9   43.58    0.69 
  -3   2   9   42.75    0.69 
  -2   2   9  129.78    1.91 
  -1   2   9   97.52    1.69 
   0   2   9   17.62    0.37 
   1   2   9   29.38    0.58 
   2   2   9   19.00    0.15 
   3   2   9   82.75    0.55 
   4   2   9   33.71    0.24 
   5   2   9    0.42    0.02 
   6   2   9    0.83    0.02 
   7   2   9   10.24    0.12 
 -12   3   9   22.96    0.26 
 -11   3   9    8.45    0.10 
 -10   3   9   27.19    0.23 
  -9   3   9    0.85    0.02 
  -8   3   9    8.48    0.08 
  -7   3   9   23.08    0.17 
  -6   3   9  124.92    0.83 
  -5   3   9    1.45    0.08 
  -4   3   9   34.82    0.56 
  -3   3   9    0.06    0.03 
  -2   3   9   46.65    0.86 
  -1   3   9    0.17    0.05 
   0   3   9   43.96    0.33 
   1   3   9   36.62    0.27 
   2   3   9    7.78    0.08 
   3   3   9    0.08    0.01 
   4   3   9    1.04    0.02 
   5   3   9   14.62    0.12 
   6   3   9    4.15    0.04 
 -11   4   9    0.53    0.02 
 -10   4   9    0.03    0.01 
  -9   4   9    8.71    0.08 
  -8   4   9   12.63    0.11 
  -7   4   9    0.03    0.01 
  -6   4   9    1.92    0.03 
  -5   4   9   28.22    0.23 
  -4   4   9   20.42    0.17 
  -3   4   9    5.82    0.07 
  -2   4   9   64.13    0.51 
  -1   4   9    0.13    0.01 
   0   4   9    0.62    0.02 
   1   4   9    1.62    0.03 
   2   4   9    0.54    0.02 
   3   4   9    0.24    0.01 
   4   4   9    1.42    0.03 
   5   4   9    2.24    0.03 
 -10   5   9    0.02    0.01 
  -9   5   9   15.87    0.13 
  -8   5   9    0.63    0.02 
  -7   5   9   13.49    0.12 
  -6   5   9    0.76    0.02 
  -5   5   9    0.71    0.02 
  -4   5   9    1.69    0.04 
  -3   5   9    4.15    0.06 
  -2   5   9    0.30    0.02 
  -1   5   9    1.70    0.04 
   0   5   9    6.26    0.08 
   1   5   9   14.21    0.15 
   2   5   9    0.36    0.02 
   3   5   9    1.10    0.02 
   4   5   9    2.21    0.03 
  -7   6   9    5.67    0.07 
  -6   6   9    3.50    0.05 
  -5   6   9    4.17    0.06 
  -4   6   9    0.15    0.01 
  -3   6   9    1.48    0.04 
  -5  -6  10    0.86    0.05 
  -4  -6  10    0.96    0.05 
  -3  -6  10    4.47    0.09 
  -2  -6  10    0.48    0.04 
  -1  -6  10   11.98    0.24 
  -9  -5  10    2.54    0.07 
  -8  -5  10    1.53    0.06 
  -7  -5  10    6.54    0.13 
  -6  -5  10    0.18    0.03 
  -5  -5  10   30.04    0.53 
  -4  -5  10    0.07    0.03 
  -3  -5  10    0.44    0.05 
  -2  -5  10    1.93    0.08 
  -1  -5  10   22.35    0.40 
   0  -5  10    0.16    0.03 
   1  -5  10   20.71    0.35 
   2  -5  10    0.06    0.02 
 -11  -4  10    1.14    0.05 
 -10  -4  10    8.99    0.16 
  -9  -4  10   17.85    0.31 
  -8  -4  10    1.42    0.07 
  -7  -4  10    5.68    0.14 
  -6  -4  10   16.50    0.34 
  -5  -4  10    0.90    0.06 
  -4  -4  10    0.20    0.04 
  -3  -4  10   28.36    0.54 
  -2  -4  10   11.42    0.24 
  -1  -4  10    8.34    0.17 
   0  -4  10    1.60    0.08 
   1  -4  10   15.97    0.28 
   2  -4  10    1.24    0.06 
   3  -4  10    9.06    0.18 
   4  -4  10   12.75    0.22 
 -12  -3  10    0.11    0.02 
 -11  -3  10    9.67    0.17 
 -10  -3  10   16.55    0.29 
  -9  -3  10    1.54    0.07 
  -8  -3  10    0.99    0.06 
  -7  -3  10   26.12    0.41 
  -6  -3  10    1.74    0.08 
  -5  -3  10   12.83    0.23 
  -4  -3  10    0.42    0.05 
  -3  -3  10   18.05    0.31 
  -2  -3  10    1.93    0.09 
  -1  -3  10   17.98    0.31 
   0  -3  10    0.09    0.03 
   1  -3  10    7.10    0.15 
   2  -3  10    3.40    0.12 
   3  -3  10    9.34    0.18 
   4  -3  10    0.40    0.04 
   5  -3  10    0.83    0.04 
 -12  -2  10    2.32    0.06 
 -11  -2  10    0.15    0.03 
 -10  -2  10    0.25    0.03 
  -9  -2  10    0.01    0.02 
  -8  -2  10   10.66    0.20 
  -7  -2  10    1.80    0.08 
  -6  -2  10    5.79    0.19 
  -5  -2  10    5.11    0.34 
  -4  -2  10   22.68    0.92 
  -3  -2  10    1.36    0.21 
  -2  -2  10   10.11    0.53 
  -1  -2  10   87.59    2.87 
   0  -2  10    2.72    0.08 
   1  -2  10    0.94    0.06 
   2  -2  10    0.18    0.03 
   3  -2  10    6.09    0.14 
   4  -2  10    0.94    0.05 
   5  -2  10    3.24    0.08 
   6  -2  10    0.21    0.02 
 -13  -1  10    2.46    0.07 
 -12  -1  10    0.05    0.02 
 -11  -1  10   40.51    0.64 
 -10  -1  10    3.28    0.08 
  -9  -1  10   57.52    0.69 
  -8  -1  10    0.55    0.04 
  -7  -1  10   45.88    1.12 
  -6  -1  10    6.98    0.29 
  -5  -1  10   94.39    2.95 
  -4  -1  10    0.57    0.13 
  -3  -1  10    0.20    0.09 
  -2  -1  10    2.41    0.23 
  -1  -1  10   53.45    1.23 
   0  -1  10    0.57    0.08 
   1  -1  10   68.49    0.74 
   2  -1  10   14.54    0.19 
   3  -1  10    0.41    0.03 
   4  -1  10    4.86    0.10 
   5  -1  10    0.07    0.02 
   6  -1  10    9.19    0.15 
 -13   0  10   32.91    0.44 
 -12   0  10   41.34    0.64 
 -11   0  10   21.46    0.32 
 -10   0  10    2.51    0.06 
  -9   0  10   15.75    0.19 
  -8   0  10    8.66    0.11 
  -7   0  10  209.56    4.45 
  -6   0  10    0.42    0.11 
  -5   0  10   54.01    1.79 
  -4   0  10   29.24    1.06 
  -3   0  10  126.54    2.71 
  -2   0  10    3.87    0.16 
  -1   0  10   33.41    0.65 
   0   0  10   49.79    1.61 
   1   0  10    0.13    0.03 
   2   0  10   30.85    0.29 
   3   0  10   29.49    0.28 
   4   0  10   48.72    0.46 
   5   0  10   31.73    0.36 
   6   0  10    8.95    0.11 
   7   0  10    0.13    0.02 
 -13   1  10    2.36    0.05 
 -12   1  10    0.07    0.01 
 -11   1  10   40.67    0.48 
 -10   1  10    3.15    0.06 
  -9   1  10   57.40    0.50 
  -8   1  10    0.61    0.02 
  -7   1  10   45.57    1.52 
  -6   1  10    6.92    0.24 
  -5   1  10   92.72    1.65 
  -4   1  10    0.61    0.06 
  -3   1  10    0.24    0.04 
  -2   1  10    2.67    0.09 
  -1   1  10   52.20    0.97 
   0   1  10    0.42    0.05 
   1   1  10   71.59    0.53 
   2   1  10   14.97    0.13 
   3   1  10    0.48    0.02 
   4   1  10    4.89    0.06 
   5   1  10    0.09    0.01 
   6   1  10    9.02    0.11 
 -12   2  10    2.24    0.04 
 -11   2  10    0.20    0.02 
 -10   2  10    0.33    0.02 
  -9   2  10    0.02    0.01 
  -8   2  10   10.82    0.10 
  -7   2  10    1.86    0.03 
  -6   2  10    5.70    0.08 
  -5   2  10    5.41    0.20 
  -4   2  10   23.33    0.48 
  -3   2  10    1.36    0.07 
  -2   2  10   10.23    0.25 
  -1   2  10   89.10    1.57 
   0   2  10    2.96    0.04 
   1   2  10    0.97    0.02 
   2   2  10    0.18    0.01 
   3   2  10    6.12    0.06 
   4   2  10    0.88    0.02 
   5   2  10    3.17    0.04 
   6   2  10    0.22    0.01 
 -12   3  10    0.13    0.01 
 -11   3  10    9.06    0.10 
 -10   3  10   15.76    0.15 
  -9   3  10    1.43    0.03 
  -8   3  10    1.03    0.02 
  -7   3  10   27.91    0.21 
  -6   3  10    1.69    0.03 
  -5   3  10   14.14    0.12 
  -4   3  10    0.39    0.02 
  -3   3  10   19.27    0.15 
  -2   3  10    2.08    0.04 
  -1   3  10   19.54    0.16 
   0   3  10    0.09    0.01 
   1   3  10    7.00    0.07 
   2   3  10    3.62    0.05 
   3   3  10    9.43    0.09 
   4   3  10    0.36    0.01 
   5   3  10    0.74    0.02 
 -11   4  10    1.06    0.02 
 -10   4  10    8.43    0.08 
  -9   4  10   17.00    0.14 
  -8   4  10    1.48    0.03 
  -7   4  10    6.21    0.07 
  -6   4  10   18.33    0.16 
  -5   4  10    1.07    0.02 
  -4   4  10    0.24    0.01 
  -3   4  10   30.61    0.25 
  -2   4  10   11.88    0.11 
  -1   4  10    8.33    0.08 
   0   4  10    1.66    0.03 
   1   4  10   16.09    0.15 
   2   4  10    1.23    0.03 
   3   4  10    8.77    0.09 
   4   4  10   11.97    0.11 
  -9   5  10    2.28    0.03 
  -8   5  10    1.46    0.03 
  -7   5  10    6.70    0.07 
  -6   5  10    0.18    0.01 
  -5   5  10   32.40    0.29 
  -4   5  10    0.03    0.01 
  -3   5  10    0.44    0.02 
  -2   5  10    1.94    0.04 
  -1   5  10   22.51    0.23 
   0   5  10    0.12    0.01 
   1   5  10   19.96    0.20 
   2   5  10    0.08    0.01 
  -6   6  10    1.25    0.06 
  -5   6  10    0.87    0.02 
  -4   6  10    0.96    0.02 
  -3   6  10    4.54    0.08 
  -8  -5  11    0.86    0.05 
  -7  -5  11    4.40    0.10 
  -6  -5  11    4.70    0.10 
  -5  -5  11    4.50    0.12 
  -4  -5  11    0.15    0.03 
  -3  -5  11    6.98    0.16 
  -2  -5  11    2.11    0.08 
  -1  -5  11    0.34    0.04 
   0  -5  11    0.13    0.02 
   1  -5  11    2.48    0.08 
 -10  -4  11    0.83    0.04 
  -9  -4  11    0.82    0.04 
  -8  -4  11    0.82    0.05 
  -7  -4  11   21.74    0.34 
  -6  -4  11    0.01    0.03 
  -5  -4  11    1.33    0.07 
  -4  -4  11    0.12    0.03 
  -3  -4  11    2.64    0.09 
  -2  -4  11    0.59    0.05 
  -1  -4  11    1.55    0.08 
   0  -4  11    8.27    0.17 
   1  -4  11    0.59    0.05 
   2  -4  11    0.29    0.03 
   3  -4  11    0.44    0.04 
 -11  -3  11    2.91    0.07 
 -10  -3  11   14.82    0.23 
  -9  -3  11    1.42    0.07 
  -8  -3  11    0.07    0.03 
  -7  -3  11    1.35    0.08 
  -6  -3  11   20.99    0.35 
  -5  -3  11    0.31    0.04 
  -4  -3  11    4.08    0.11 
  -3  -3  11    0.06    0.03 
  -2  -3  11   16.84    0.29 
  -1  -3  11    6.75    0.15 
   0  -3  11   11.50    0.25 
   1  -3  11    5.75    0.13 
   2  -3  11   23.61    0.41 
   3  -3  11    2.00    0.07 
   4  -3  11    2.30    0.06 
 -12  -2  11    0.54    0.03 
 -11  -2  11   32.47    0.50 
 -10  -2  11    8.76    0.18 
  -9  -2  11    4.28    0.10 
  -8  -2  11    2.58    0.08 
  -7  -2  11   13.51    0.23 
  -6  -2  11    4.48    0.13 
  -5  -2  11    4.50    0.12 
  -4  -2  11   14.13    0.25 
  -3  -2  11   33.55    0.46 
  -2  -2  11   21.18    0.34 
  -1  -2  11   13.57    0.27 
   0  -2  11    0.05    0.03 
   1  -2  11    7.40    0.19 
   2  -2  11   14.26    0.25 
   3  -2  11    9.97    0.20 
   4  -2  11   14.46    0.25 
   5  -2  11    0.52    0.03 
 -12  -1  11   15.57    0.25 
 -11  -1  11    0.03    0.02 
 -10  -1  11    9.80    0.22 
  -9  -1  11    3.55    0.09 
  -8  -1  11    1.33    0.05 
  -7  -1  11    1.42    0.05 
  -6  -1  11    7.54    0.13 
  -5  -1  11   13.73    0.18 
  -4  -1  11   11.92    0.22 
  -3  -1  11    0.41    0.04 
  -2  -1  11   12.35    0.17 
  -1  -1  11   20.60    0.24 
   0  -1  11   42.37    0.45 
   1  -1  11    1.35    0.05 
   2  -1  11    0.34    0.03 
   3  -1  11    0.01    0.02 
   4  -1  11    8.33    0.15 
   5  -1  11    0.46    0.03 
 -13   0  11    0.02    0.01 
 -12   0  11    0.00    0.01 
 -11   0  11    0.02    0.02 
 -10   0  11    0.10    0.02 
  -9   0  11    0.05    0.02 
  -8   0  11    0.02    0.01 
  -7   0  11    0.05    0.02 
  -6   0  11    0.02    0.01 
  -5   0  11    0.01    0.04 
  -4   0  11    0.05    0.07 
  -3   0  11    0.03    0.03 
  -2   0  11    0.04    0.02 
  -1   0  11    0.02    0.01 
   0   0  11    0.02    0.01 
   1   0  11    0.01    0.01 
   2   0  11    0.03    0.01 
   3   0  11    0.02    0.01 
   4   0  11    0.03    0.01 
   5   0  11    0.00    0.01 
 -12   1  11   15.58    0.23 
 -11   1  11    0.01    0.01 
 -10   1  11    9.61    0.12 
  -9   1  11    3.55    0.05 
  -8   1  11    1.38    0.03 
  -7   1  11    1.50    0.04 
  -6   1  11    7.63    0.10 
  -5   1  11   14.37    0.14 
  -4   1  11   11.39    0.15 
  -3   1  11    0.41    0.03 
  -2   1  11   13.05    0.13 
  -1   1  11   21.47    0.18 
   0   1  11   43.63    0.33 
   1   1  11    1.40    0.03 
   2   1  11    0.36    0.02 
   3   1  11    0.02    0.01 
   4   1  11    8.23    0.10 
   5   1  11    0.43    0.02 
 -12   2  11    0.47    0.02 
 -11   2  11   31.65    0.33 
 -10   2  11    8.68    0.10 
  -9   2  11    4.24    0.06 
  -8   2  11    2.56    0.04 
  -7   2  11   13.59    0.12 
  -6   2  11    4.63    0.05 
  -5   2  11    4.58    0.05 
  -4   2  11   14.85    0.12 
  -3   2  11   35.92    0.24 
  -2   2  11   22.23    0.17 
  -1   2  11   14.05    0.12 
   0   2  11    0.03    0.01 
   1   2  11    7.66    0.07 
   2   2  11   14.14    0.12 
   3   2  11    9.70    0.09 
   4   2  11   13.70    0.13 
   5   2  11    0.45    0.02 
 -11   3  11    2.66    0.04 
 -10   3  11   14.36    0.14 
  -9   3  11    1.32    0.03 
  -8   3  11    0.03    0.01 
  -7   3  11    1.49    0.03 
  -6   3  11   21.76    0.17 
  -5   3  11    0.36    0.01 
  -4   3  11    4.39    0.05 
  -3   3  11    0.07    0.01 
  -2   3  11   17.43    0.14 
  -1   3  11    7.10    0.07 
   0   3  11   11.58    0.11 
   1   3  11    5.90    0.06 
   2   3  11   23.31    0.20 
   3   3  11    1.90    0.03 
   4   3  11    2.01    0.03 
 -10   4  11    0.78    0.02 
  -9   4  11    0.75    0.02 
  -8   4  11    0.88    0.02 
  -7   4  11   22.12    0.19 
  -6   4  11    0.01    0.01 
  -5   4  11    1.55    0.03 
  -4   4  11    0.07    0.01 
  -3   4  11    2.66    0.04 
  -2   4  11    0.64    0.02 
  -1   4  11    1.65    0.03 
   0   4  11    8.35    0.08 
   1   4  11    0.54    0.02 
   2   4  11    0.30    0.01 
   3   4  11    0.47    0.01 
  -8   5  11    0.86    0.02 
  -7   5  11    4.15    0.05 
  -6   5  11    4.61    0.06 
  -5   5  11    4.56    0.06 
  -4   5  11    0.13    0.01 
  -3   5  11    7.17    0.08 
  -2   5  11    2.19    0.03 
  -1   5  11    0.35    0.01 
   0   5  11    0.15    0.01 
   1   5  11    2.44    0.04 
  -6  -5  12    3.40    0.11 
  -5  -5  12   36.03    0.63 
  -4  -5  12    1.94    0.06 
  -3  -5  12    0.56    0.04 
  -2  -5  12    0.19    0.03 
  -9  -4  12   33.95    0.58 
  -8  -4  12    2.13    0.08 
  -7  -4  12    4.08    0.10 
  -6  -4  12    4.80    0.11 
  -5  -4  12    4.73    0.12 
  -4  -4  12    2.42    0.08 
  -3  -4  12    8.42    0.19 
  -2  -4  12    9.81    0.18 
  -1  -4  12    0.00    0.02 
   0  -4  12    3.33    0.11 
   1  -4  12    3.05    0.08 
 -10  -3  12    6.74    0.13 
  -9  -3  12    0.58    0.04 
  -8  -3  12    0.21    0.03 
  -7  -3  12    4.99    0.11 
  -6  -3  12    0.30    0.04 
  -5  -3  12    5.34    0.13 
  -4  -3  12   16.27    0.32 
  -3  -3  12    0.00    0.03 
  -2  -3  12    0.89    0.07 
  -1  -3  12    0.75    0.05 
   0  -3  12    2.11    0.08 
   1  -3  12    0.15    0.03 
   2  -3  12    0.43    0.03 
   3  -3  12    1.93    0.06 
 -11  -2  12    0.08    0.02 
 -10  -2  12    0.43    0.03 
  -9  -2  12   12.15    0.23 
  -8  -2  12    9.05    0.19 
  -7  -2  12    0.04    0.03 
  -6  -2  12    6.01    0.13 
  -5  -2  12    4.52    0.12 
  -4  -2  12    0.69    0.05 
  -3  -2  12    1.60    0.08 
  -2  -2  12    0.16    0.03 
  -1  -2  12    0.42    0.05 
   0  -2  12    0.05    0.02 
   1  -2  12   10.95    0.22 
   2  -2  12    0.06    0.02 
   3  -2  12    0.15    0.02 
   4  -2  12    0.02    0.01 
 -12  -1  12    0.39    0.03 
 -11  -1  12   52.24    0.78 
 -10  -1  12    1.21    0.05 
  -9  -1  12    4.20    0.11 
  -8  -1  12    0.30    0.03 
  -7  -1  12   65.36    0.72 
  -6  -1  12    0.66    0.04 
  -5  -1  12   11.71    0.16 
  -4  -1  12    3.56    0.09 
  -3  -1  12    8.05    0.12 
  -2  -1  12    0.41    0.03 
  -1  -1  12   67.90    0.75 
   0  -1  12   10.88    0.17 
   1  -1  12    4.60    0.09 
   2  -1  12    0.42    0.03 
   3  -1  12    4.24    0.09 
   4  -1  12    0.83    0.03 
 -12   0  12    0.27    0.02 
 -11   0  12   20.81    0.27 
 -10   0  12   41.65    0.58 
  -9   0  12   79.03    0.84 
  -8   0  12    0.06    0.01 
  -7   0  12    2.72    0.05 
  -6   0  12    0.93    0.03 
  -5   0  12   38.58    0.35 
  -4   0  12    0.38    0.02 
  -3   0  12   29.10    0.28 
  -2   0  12   10.71    0.13 
  -1   0  12    2.69    0.05 
   0   0  12   19.00    0.20 
   1   0  12   27.65    0.29 
   2   0  12   22.63    0.27 
   3   0  12    9.36    0.12 
   4   0  12    3.97    0.07 
 -12   1  12    0.34    0.02 
 -11   1  12   51.35    0.63 
 -10   1  12    1.25    0.04 
  -9   1  12    4.18    0.06 
  -8   1  12    0.27    0.02 
  -7   1  12   66.47    0.59 
  -6   1  12    0.68    0.02 
  -5   1  12   12.00    0.12 
  -4   1  12    3.60    0.05 
  -3   1  12    8.30    0.09 
  -2   1  12    0.38    0.02 
  -1   1  12   68.99    0.54 
   0   1  12   11.08    0.12 
   1   1  12    4.79    0.06 
   2   1  12    0.49    0.02 
   3   1  12    4.04    0.06 
   4   1  12    0.80    0.02 
 -11   2  12    0.06    0.01 
 -10   2  12    0.44    0.02 
  -9   2  12   12.02    0.13 
  -8   2  12    8.92    0.09 
  -7   2  12    0.04    0.01 
  -6   2  12    6.22    0.07 
  -5   2  12    4.64    0.05 
  -4   2  12    0.78    0.02 
  -3   2  12    1.60    0.03 
  -2   2  12    0.20    0.01 
  -1   2  12    0.37    0.02 
   0   2  12    0.08    0.01 
   1   2  12   10.73    0.10 
   2   2  12    0.05    0.01 
   3   2  12    0.18    0.01 
   4   2  12    0.02    0.01 
 -10   3  12    6.49    0.08 
  -9   3  12    0.64    0.02 
  -8   3  12    0.18    0.01 
  -7   3  12    4.84    0.05 
  -6   3  12    0.28    0.01 
  -5   3  12    5.29    0.06 
  -4   3  12   16.68    0.14 
  -3   3  12    0.01    0.01 
  -2   3  12    0.96    0.02 
  -1   3  12    0.87    0.02 
   0   3  12    2.17    0.03 
   1   3  12    0.19    0.01 
   2   3  12    0.42    0.01 
   3   3  12    1.87    0.03 
  -9   4  12   31.77    0.27 
  -8   4  12    2.05    0.03 
  -7   4  12    3.96    0.05 
  -6   4  12    4.81    0.06 
  -5   4  12    4.75    0.05 
  -4   4  12    2.41    0.04 
  -3   4  12    8.41    0.08 
  -2   4  12   10.22    0.10 
  -1   4  12    0.02    0.01 
   0   4  12    3.24    0.04 
   1   4  12    2.86    0.03 
  -6   5  12    3.36    0.05 
  -5   5  12   34.92    0.34 
  -4   5  12    1.88    0.03 
  -3   5  12    0.44    0.01 
  -2   5  12    0.19    0.01 
  -7  -4  13    9.72    0.19 
  -6  -4  13    0.71    0.04 
  -5  -4  13    0.57    0.04 
  -4  -4  13    2.06    0.07 
  -3  -4  13    0.14    0.02 
  -2  -4  13    9.14    0.19 
  -1  -4  13    2.81    0.10 
  -9  -3  13    4.66    0.10 
  -8  -3  13    0.96    0.05 
  -7  -3  13    0.18    0.03 
  -6  -3  13   51.38    0.79 
  -5  -3  13    0.28    0.04 
  -4  -3  13   24.82    0.42 
  -3  -3  13   16.01    0.30 
  -2  -3  13   15.00    0.28 
  -1  -3  13    2.93    0.09 
   0  -3  13   37.06    0.57 
   1  -3  13    0.79    0.04 
 -10  -2  13   31.16    0.55 
  -9  -2  13   10.69    0.19 
  -8  -2  13   45.94    0.63 
  -7  -2  13    1.47    0.06 
  -6  -2  13    0.04    0.02 
  -5  -2  13    0.36    0.04 
  -4  -2  13   30.97    0.46 
  -3  -2  13    2.71    0.10 
  -2  -2  13    9.11    0.20 
  -1  -2  13    1.74    0.08 
   0  -2  13    2.90    0.09 
   1  -2  13    0.08    0.02 
   2  -2  13   20.65    0.32 
 -11  -1  13    1.91    0.05 
 -10  -1  13   31.38    0.48 
  -9  -1  13    0.15    0.02 
  -8  -1  13    8.28    0.17 
  -7  -1  13    1.68    0.07 
  -6  -1  13   26.52    0.40 
  -5  -1  13    2.34    0.07 
  -4  -1  13    1.67    0.05 
  -3  -1  13    0.29    0.03 
  -2  -1  13    2.19    0.06 
  -1  -1  13    9.27    0.15 
   0  -1  13   23.39    0.33 
   1  -1  13    0.69    0.04 
   2  -1  13    0.02    0.01 
   3  -1  13    0.25    0.02 
 -11   0  13    0.00    0.01 
 -10   0  13    0.04    0.02 
  -9   0  13    0.03    0.02 
  -8   0  13    0.06    0.02 
  -7   0  13    0.02    0.02 
  -6   0  13    0.00    0.01 
  -5   0  13    0.03    0.01 
  -4   0  13    0.04    0.01 
  -3   0  13    0.00    0.01 
  -2   0  13    0.00    0.01 
  -1   0  13    0.04    0.01 
   0   0  13    0.02    0.01 
   1   0  13    0.00    0.01 
   2   0  13    0.01    0.01 
   3   0  13    0.00    0.01 
 -11   1  13    1.85    0.04 
 -10   1  13   30.44    0.36 
  -9   1  13    0.21    0.02 
  -8   1  13    7.92    0.09 
  -7   1  13    1.63    0.04 
  -6   1  13   26.79    0.25 
  -5   1  13    2.41    0.04 
  -4   1  13    1.69    0.04 
  -3   1  13    0.33    0.02 
  -2   1  13    2.17    0.04 
  -1   1  13    9.48    0.11 
   0   1  13   23.94    0.23 
   1   1  13    0.70    0.03 
   2   1  13    0.04    0.01 
   3   1  13    0.30    0.02 
 -10   2  13   30.01    0.35 
  -9   2  13   10.00    0.12 
  -8   2  13   45.18    0.44 
  -7   2  13    1.50    0.03 
  -6   2  13    0.03    0.01 
  -5   2  13    0.38    0.02 
  -4   2  13   29.90    0.24 
  -3   2  13    2.65    0.04 
  -2   2  13    9.16    0.08 
  -1   2  13    1.86    0.03 
   0   2  13    3.04    0.04 
   1   2  13    0.06    0.01 
   2   2  13   19.44    0.21 
  -9   3  13    4.42    0.06 
  -8   3  13    0.99    0.02 
  -7   3  13    0.19    0.01 
  -6   3  13   50.30    0.37 
  -5   3  13    0.27    0.01 
  -4   3  13   24.77    0.20 
  -3   3  13   16.25    0.14 
  -2   3  13   14.84    0.13 
  -1   3  13    2.92    0.04 
   0   3  13   35.41    0.28 
   1   3  13    0.75    0.02 
  -7   4  13    9.06    0.09 
  -6   4  13    0.73    0.02 
  -5   4  13    0.58    0.02 
  -4   4  13    2.02    0.03 
  -3   4  13    0.09    0.01 
  -2   4  13    8.93    0.08 
  -1   4  13    2.54    0.03 
  -7  -3  14    9.55    0.17 
  -6  -3  14    0.82    0.04 
  -5  -3  14    4.84    0.10 
  -4  -3  14    6.30    0.18 
  -3  -3  14    4.30    0.10 
  -2  -3  14    0.07    0.02 
  -9  -2  14    8.47    0.17 
  -8  -2  14   10.38    0.18 
  -7  -2  14    1.35    0.05 
  -6  -2  14    0.04    0.02 
  -5  -2  14    2.53    0.08 
  -4  -2  14    1.12    0.06 
  -3  -2  14    0.80    0.05 
  -2  -2  14    0.59    0.04 
  -1  -2  14    3.82    0.08 
   0  -2  14    5.88    0.12 
 -10  -1  14    1.47    0.04 
  -9  -1  14    1.27    0.04 
  -8  -1  14    0.53    0.03 
  -7  -1  14   12.70    0.20 
  -6  -1  14    0.34    0.03 
  -5  -1  14   16.97    0.27 
  -4  -1  14    1.39    0.05 
  -3  -1  14    0.22    0.03 
  -2  -1  14    6.22    0.11 
  -1  -1  14    7.60    0.14 
   0  -1  14    8.71    0.14 
   1  -1  14    2.89    0.07 
 -10   0  14   12.80    0.21 
  -9   0  14   38.73    0.52 
  -8   0  14    0.11    0.02 
  -7   0  14   17.46    0.22 
  -6   0  14    4.37    0.07 
  -5   0  14   16.50    0.20 
  -4   0  14    0.31    0.02 
  -3   0  14   25.31    0.30 
  -2   0  14    0.38    0.02 
  -1   0  14    9.72    0.13 
   0   0  14    0.47    0.02 
   1   0  14    1.35    0.05 
 -10   1  14    1.46    0.06 
  -9   1  14    1.29    0.03 
  -8   1  14    0.52    0.02 
  -7   1  14   12.62    0.15 
  -6   1  14    0.29    0.02 
  -5   1  14   16.95    0.17 
  -4   1  14    1.34    0.03 
  -3   1  14    0.21    0.01 
  -2   1  14    6.43    0.09 
  -1   1  14    7.60    0.10 
   0   1  14    8.43    0.11 
   1   1  14    2.71    0.06 
  -9   2  14    8.04    0.12 
  -8   2  14    9.95    0.12 
  -7   2  14    1.27    0.03 
  -6   2  14    0.01    0.01 
  -5   2  14    2.44    0.04 
  -4   2  14    1.07    0.03 
  -3   2  14    0.78    0.02 
  -2   2  14    0.62    0.02 
  -1   2  14    3.75    0.05 
   0   2  14    5.56    0.07 
  -7   3  14    9.16    0.10 
  -6   3  14    0.85    0.02 
  -5   3  14    4.52    0.05 
  -4   3  14    5.86    0.06 
  -3   3  14    4.11    0.04 
  -2   3  14    0.03    0.01 
  -6  -2  15    4.42    0.12 
  -5  -2  15    0.13    0.02 
  -4  -2  15   27.04    0.58 
  -8  -1  15    9.77    0.17 
  -7  -1  15    2.57    0.06 
  -6  -1  15    1.87    0.06 
  -5  -1  15    5.94    0.11 
  -4  -1  15    2.77    0.07 
  -3  -1  15    0.00    0.01 
  -2  -1  15    1.61    0.05 
  -8   0  15    0.00    0.01 
  -7   0  15    0.01    0.01 
  -6   0  15   -0.01    0.01 
  -5   0  15    0.01    0.01 
  -4   0  15    0.01    0.01 
  -3   0  15    0.03    0.01 
  -2   0  15    0.01    0.01 
  -8   1  15    9.25    0.19 
  -7   1  15    2.54    0.05 
  -6   1  15    1.84    0.04 
  -5   1  15    5.77    0.09 
  -4   1  15    2.69    0.05 
  -3   1  15   -0.02    0.01 
  -2   1  15    1.58    0.04 
  -6   2  15    3.96    0.08 
  -5   2  15    0.09    0.01 
  -4   2  15   25.73    0.33 
   0   0   0    0.00    0.00 
;
_shelx_hkl_checksum              43841
loop_
_space_group_symop_operation_xyz
'x, y, z'
'-x, y+1/2, -z+1/2'
'-x, -y, -z'
'x, -y-1/2, z-1/2'
loop_
_atom_site_label
_atom_site_type_symbol
_atom_site_fract_x
_atom_site_fract_y
_atom_site_fract_z
_atom_site_U_iso_or_equiv
_atom_site_adp_type
_atom_site_occupancy
_atom_site_site_symmetry_order
_atom_site_calc_flag
_atom_site_refinement_flags_posn
_atom_site_refinement_flags_adp
_atom_site_refinement_flags_occupancy
_atom_site_disorder_assembly
_atom_site_disorder_group
S1 S 0.34914(4) 0.37226(7) 0.50928(4) 0.03790(17) Uani 1 1 d . . . . .
C1 C 0.06392(12) 0.4850(2) 0.50226(11) 0.0203(3) Uani 1 1 d . . . . .
C2 C 0.14140(13) 0.3563(2) 0.57789(12) 0.0227(3) Uani 1 1 d . . . . .
H2 H 0.1072 0.2891 0.6267 0.027 Uiso 1 1 calc R U . . .
C3 C 0.26842(13) 0.3047(2) 0.59620(12) 0.0231(3) Uani 1 1 d . . . . .
C4 C 0.34239(14) 0.1832(2) 0.68667(13) 0.0280(3) Uani 1 1 d . . . . .
H4 H 0.3164 0.1300 0.7446 0.034 Uiso 1 1 calc R U . . .
C5 C 0.46132(16) 0.1502(3) 0.68030(16) 0.0371(4) Uani 1 1 d . . . . .
H5 H 0.5236 0.0719 0.7342 0.045 Uiso 1 1 calc R U . . .
C6 C 0.47662(15) 0.2409(3) 0.59045(16) 0.0402(4) Uani 1 1 d . . . . .
H6 H 0.5504 0.2326 0.5740 0.048 Uiso 1 1 calc R U . . .
S2A S 0.17485(11) 0.83722(13) 0.46312(9) 0.0334(2) Uani 0.8 1 d D . P A 1
C7A C 0.1047(12) 0.6046(12) 0.4219(4) 0.0207(7) Uani 0.8 1 d D . P A 1
C8A C 0.1024(9) 0.5592(16) 0.3155(6) 0.0289(14) Uani 0.8 1 d D . P A 1
H8A H 0.0661 0.4384 0.2762 0.035 Uiso 0.8 1 calc R U P A 1
C9A C 0.1587(7) 0.7070(11) 0.2692(3) 0.0338(9) Uani 0.8 1 d D . P A 1
H9A H 0.1660 0.6958 0.1967 0.041 Uiso 0.8 1 calc R U P A 1
C10A C 0.2011(9) 0.8670(10) 0.3397(6) 0.0357(12) Uani 0.8 1 d D . P A 1
H10A H 0.2408 0.9823 0.3224 0.043 Uiso 0.8 1 calc R U P A 1
S2B S 0.0957(9) 0.5333(15) 0.2954(7) 0.0258(11) Uani 0.2 1 d D . P A 2
C7B C 0.114(5) 0.611(5) 0.4307(18) 0.0207(7) Uani 0.2 1 d D . P A 2
C8B C 0.1697(17) 0.798(2) 0.4505(14) 0.0289(14) Uani 0.2 1 d D . P A 2
H8B H 0.1847 0.8716 0.5190 0.035 Uiso 0.2 1 calc R U P A 2
C9B C 0.203(4) 0.872(3) 0.361(2) 0.045(8) Uani 0.2 1 d D . P A 2
H9B H 0.2452 0.9966 0.3628 0.054 Uiso 0.2 1 calc R U P A 2
C10B C 0.167(3) 0.745(3) 0.2704(17) 0.050(8) Uani 0.2 1 d D . P A 2
H10B H 0.1792 0.7714 0.2012 0.061 Uiso 0.2 1 calc R U P A 2
loop_
_atom_site_aniso_label
_atom_site_aniso_U_11
_atom_site_aniso_U_22
_atom_site_aniso_U_33
_atom_site_aniso_U_23
_atom_site_aniso_U_13
_atom_site_aniso_U_12
S1 0.0259(2) 0.0538(3) 0.0403(3) 0.01367(17) 0.01950(19) 0.00791(16)
C1 0.0214(7) 0.0231(7) 0.0203(6) -0.0042(5) 0.0120(5) -0.0035(5)
C2 0.0235(7) 0.0248(7) 0.0240(7) -0.0011(5) 0.0135(5) -0.0029(5)
C3 0.0223(7) 0.0238(7) 0.0256(7) -0.0001(5) 0.0113(5) -0.0028(5)
C4 0.0230(7) 0.0250(7) 0.0371(8) -0.0005(6) 0.0119(6) -0.0019(5)
C5 0.0264(8) 0.0334(9) 0.0474(10) 0.0074(7) 0.0079(7) 0.0040(6)
C6 0.0236(8) 0.0464(10) 0.0538(10) 0.0075(8) 0.0176(7) 0.0061(7)
S2A 0.0388(3) 0.0281(4) 0.0338(4) -0.0011(3) 0.0134(3) -0.0125(3)
C7A 0.016(2) 0.0261(9) 0.0213(11) 0.0006(8) 0.0083(16) -0.0009(6)
C8A 0.0269(18) 0.029(2) 0.032(3) -0.002(2) 0.012(2) 0.0014(15)
C9A 0.034(2) 0.049(2) 0.0253(19) 0.0140(13) 0.0190(14) 0.0154(16)
C10A 0.027(2) 0.041(3) 0.0456(18) 0.0214(16) 0.0211(17) 0.0028(17)
S2B 0.0269(16) 0.032(2) 0.0227(18) -0.0055(15) 0.0142(14) -0.0027(13)
C7B 0.016(2) 0.0261(9) 0.0213(11) 0.0006(8) 0.0083(16) -0.0009(6)
C8B 0.0269(18) 0.029(2) 0.032(3) -0.002(2) 0.012(2) 0.0014(15)
C9B 0.034(10) 0.023(9) 0.073(17) -0.004(9) 0.014(10) -0.010(6)
C10B 0.047(12) 0.045(12) 0.070(16) 0.034(9) 0.033(10) 0.017(8)
loop_
_atom_type_symbol
_atom_type_description
_atom_type_scat_dispersion_real
_atom_type_scat_dispersion_imag
_atom_type_scat_source
C C 0.0181 0.0091 'International Tables Vol C Tables 4.2.6.8 and 6.1.1.4'
H H 0.0000 0.0000 'International Tables Vol C Tables 4.2.6.8 and 6.1.1.4'
S S 0.3331 0.5567 'International Tables Vol C Tables 4.2.6.8 and 6.1.1.4'
loop_
_geom_angle_atom_site_label_1
_geom_angle_atom_site_label_2
_geom_angle_atom_site_label_3
_geom_angle
_geom_angle_site_symmetry_1
_geom_angle_site_symmetry_3
C6 S1 C3 92.23(8) . .
C2 C1 C1 121.31(15) . 3_566
C2 C1 C7A 121.3(6) . .
C1 C1 C7A 117.4(6) 3_566 .
C2 C1 C7B 118(2) . .
C1 C1 C7B 120(2) 3_566 .
C1 C2 C3 130.14(13) . .
C4 C3 C2 123.82(13) . .
C4 C3 S1 110.27(10) . .
C2 C3 S1 125.87(11) . .
C3 C4 C5 111.45(14) . .
C6 C5 C4 113.42(15) . .
C5 C6 S1 112.63(13) . .
C10A S2A C7A 92.46(16) . .
C8A C7A C1 131.0(4) . .
C8A C7A S2A 109.5(4) . .
C1 C7A S2A 119.47(19) . .
C7A C8A C9A 114.0(6) . .
C10A C9A C8A 112.1(4) . .
C9A C10A S2A 111.9(3) . .
C10B S2B C7B 92.4(2) . .
C8B C7B C1 130.4(9) . .
C8B C7B S2B 109.5(4) . .
C1 C7B S2B 119.9(8) . .
C7B C8B C9B 113.9(6) . .
C10B C9B C8B 112.1(5) . .
C9B C10B S2B 111.9(4) . .
loop_
_geom_bond_atom_site_label_1
_geom_bond_atom_site_label_2
_geom_bond_distance
_geom_bond_site_symmetry_2
S1 C6 1.7060(17) .
S1 C3 1.7313(14) .
C1 C2 1.351(2) .
C1 C1 1.477(2) 3_566
C1 C7A 1.485(4) .
C1 C7B 1.486(13) .
C2 C3 1.4489(19) .
C3 C4 1.408(2) .
C4 C5 1.427(2) .
C5 C6 1.345(3) .
S2A C10A 1.699(7) .
S2A C7A 1.720(4) .
C7A C8A 1.366(6) .
C8A C9A 1.404(10) .
C9A C10A 1.351(5) .
S2B C10B 1.699(7) .
S2B C7B 1.720(4) .
C7B C8B 1.366(7) .
C8B C9B 1.405(10) .
C9B C10B 1.351(5) .
loop_
_geom_torsion_atom_site_label_1
_geom_torsion_atom_site_label_2
_geom_torsion_atom_site_label_3
_geom_torsion_atom_site_label_4
_geom_torsion
_geom_torsion_site_symmetry_1
C1 C1 C2 C3 179.79(15) 3_566
C7A C1 C2 C3 -1.3(3) .
C7B C1 C2 C3 -5.9(6) .
C1 C2 C3 C4 173.03(15) .
C1 C2 C3 S1 -9.8(2) .
C6 S1 C3 C4 0.46(13) .
C6 S1 C3 C2 -177.08(14) .
C2 C3 C4 C5 177.29(14) .
S1 C3 C4 C5 -0.31(17) .
C3 C4 C5 C6 -0.1(2) .
C4 C5 C6 S1 0.4(2) .
C3 S1 C6 C5 -0.52(16) .
C2 C1 C7A C8A 89.6(13) .
C1 C1 C7A C8A -91.5(14) 3_566
C2 C1 C7A S2A -86.8(9) .
C1 C1 C7A S2A 92.1(8) 3_566
C10A S2A C7A C8A -0.7(10) .
C10A S2A C7A C1 176.3(10) .
C1 C7A C8A C9A -175.3(11) .
S2A C7A C8A C9A 1.3(13) .
C7A C8A C9A C10A -1.4(13) .
C8A C9A C10A S2A 0.8(10) .
C7A S2A C10A C9A -0.1(8) .
C2 C1 C7B C8B -88(6) .
C1 C1 C7B C8B 87(5) 3_566
C2 C1 C7B S2B 97(4) .
C1 C1 C7B S2B -88(4) 3_566
C10B S2B C7B C8B 2(4) .
C10B S2B C7B C1 178(4) .
C1 C7B C8B C9B -178(5) .
S2B C7B C8B C9B -3(5) .
C7B C8B C9B C10B 3(5) .
C8B C9B C10B S2B -1(5) .
C7B S2B C10B C9B 0(4) .
