#------------------------------------------------------------------------------
#$Date: 2016-06-17 01:56:06 +0300 (Fri, 17 Jun 2016) $
#$Revision: 183605 $
#$URL: file:///home/coder/svn-repositories/cod/cif/4/08/64/4086476.cif $
#------------------------------------------------------------------------------
#
# This file is available in the Crystallography Open Database (COD),
# http://www.crystallography.net/
#
# All data on this site have been placed in the public domain by the
# contributors.
#
data_4086476
loop_
_publ_author_name
'Korb, Marcus'
'Swarts, Pieter J.'
'Miesel, Dominique'
'Hildebrandt, Alexander'
'Swarts, Jannie C.'
'Lang, Heinrich'
_publ_section_title
;
 Nucleophilic Aromatic Substitution Reactions for the Synthesis of
 Ferrocenyl Aryl Ethers
;
_journal_issue                   9
_journal_name_full               Organometallics
_journal_page_first              1287
_journal_paper_doi               10.1021/acs.organomet.6b00157
_journal_volume                  35
_journal_year                    2016
_chemical_formula_moiety         'C6 H2 F2 N2 O4'
_chemical_formula_sum            'C6 H2 F2 N2 O4'
_chemical_formula_weight         204.10
_chemical_name_systematic
;
 ?
;
_space_group_crystal_system      tetragonal
_space_group_IT_number           96
_space_group_name_Hall           'P 4nw 2abw'
_space_group_name_H-M_alt        'P 43 21 2'
_symmetry_space_group_name_Hall  'P 4nw 2abw'
_symmetry_space_group_name_H-M   'P 43 21 2'
_atom_sites_solution_hydrogens   geom
_audit_creation_method           SHELXL-2013
_cell_angle_alpha                90
_cell_angle_beta                 90
_cell_angle_gamma                90
_cell_formula_units_Z            4
_cell_length_a                   5.8849(2)
_cell_length_b                   5.8849(2)
_cell_length_c                   21.4266(9)
_cell_measurement_reflns_used    1434
_cell_measurement_temperature    110(5)
_cell_measurement_theta_max      25.9620
_cell_measurement_theta_min      3.5770
_cell_volume                     742.05(5)
_computing_cell_refinement
;
CrysAlisPro, Agilent Technologies,
Version 1.171.37.31 (release 14-01-2014 CrysAlis171 .NET)
(compiled Jan 14 2014,18:38:05)
;
_computing_data_collection
;
CrysAlisPro, Agilent Technologies,
Version 1.171.37.31 (release 14-01-2014 CrysAlis171 .NET)
(compiled Jan 14 2014,18:38:05)
;
_computing_data_reduction
;
CrysAlisPro, Agilent Technologies,
Version 1.171.37.31 (release 14-01-2014 CrysAlis171 .NET)
(compiled Jan 14 2014,18:38:05)
;
_computing_structure_refinement  'SHELXL-2013 (Sheldrick, 2013)'
_computing_structure_solution    'SHELXS-2013 (Sheldrick, 2013)'
_diffrn_ambient_temperature      110(5)
_diffrn_measured_fraction_theta_full 0.998
_diffrn_measured_fraction_theta_max 0.998
_diffrn_measurement_device_type  'oxford gemini s'
_diffrn_measurement_method       '\w scans'
_diffrn_radiation_type           MoK\a
_diffrn_radiation_wavelength     0.71073
_diffrn_reflns_av_R_equivalents  0.0694
_diffrn_reflns_av_unetI/netI     0.0473
_diffrn_reflns_Laue_measured_fraction_full 0.998
_diffrn_reflns_Laue_measured_fraction_max 0.998
_diffrn_reflns_limit_h_max       6
_diffrn_reflns_limit_h_min       -6
_diffrn_reflns_limit_k_max       6
_diffrn_reflns_limit_k_min       -6
_diffrn_reflns_limit_l_max       23
_diffrn_reflns_limit_l_min       -25
_diffrn_reflns_number            3024
_diffrn_reflns_point_group_measured_fraction_full 0.998
_diffrn_reflns_point_group_measured_fraction_max 0.998
_diffrn_reflns_theta_full        25.000
_diffrn_reflns_theta_max         24.998
_diffrn_reflns_theta_min         3.590
_diffrn_standards_decay_%        0
_diffrn_standards_interval_count 50
_diffrn_standards_interval_time  10
_diffrn_standards_number         2
_exptl_absorpt_coefficient_mu    0.185
_exptl_absorpt_correction_T_max  1.00000
_exptl_absorpt_correction_T_min  0.58486
_exptl_absorpt_correction_type   multi-scan
_exptl_absorpt_process_details
;
CrysAlisPro, Agilent Technologies,
Version 1.171.37.31 (release 14-01-2014 CrysAlis171 .NET)
(compiled Jan 14 2014,18:38:05)
Empirical absorption correction using spherical harmonics,
 implemented in SCALE3 ABSPACK scaling algorithm.
;
_exptl_crystal_colour            colorless
_exptl_crystal_density_diffrn    1.827
_exptl_crystal_description       block
_exptl_crystal_F_000             408
_exptl_crystal_size_max          0.4
_exptl_crystal_size_mid          0.4
_exptl_crystal_size_min          0.4
_refine_diff_density_max         0.196
_refine_diff_density_min         -0.222
_refine_diff_density_rms         0.055
_refine_ls_abs_structure_details
;
 Flack x determined using 174 quotients [(I+)-(I-)]/[(I+)+(I-)]
 (Parsons and Flack (2004), Acta Cryst. A60, s61).
;
_refine_ls_abs_structure_Flack   -1.3(10)
_refine_ls_extinction_method     none
_refine_ls_goodness_of_fit_ref   1.073
_refine_ls_hydrogen_treatment    constr
_refine_ls_matrix_type           full
_refine_ls_number_parameters     64
_refine_ls_number_reflns         647
_refine_ls_number_restraints     0
_refine_ls_restrained_S_all      1.073
_refine_ls_R_factor_all          0.0434
_refine_ls_R_factor_gt           0.0362
_refine_ls_shift/su_max          0.000
_refine_ls_shift/su_mean         0.000
_refine_ls_structure_factor_coef Fsqd
_refine_ls_weighting_details
'w=1/[\s^2^(Fo^2^)+(0.0421P)^2^] where P=(Fo^2^+2Fc^2^)/3'
_refine_ls_weighting_scheme      calc
_refine_ls_wR_factor_gt          0.0810
_refine_ls_wR_factor_ref         0.0869
_reflns_Friedel_coverage         0.477
_reflns_Friedel_fraction_full    1.000
_reflns_Friedel_fraction_max     1.000
_reflns_number_gt                587
_reflns_number_total             647
_reflns_threshold_expression     'I > 2\s(I)'
_cod_data_source_file            om6b00157_si_002.cif
_cod_data_source_block           MK-385
_cod_depositor_comments
'Adding full bibliography for 4086474--4086481.cif.'
_cod_original_cell_volume        742.05(6)
_cod_database_code               4086476
_shelx_space_group_comment
;
The symmetry employed for this shelxl refinement is uniquely defined
by the following loop, which should always be used as a source of
symmetry information in preference to the above space-group names.
They are only intended as comments.
;
_shelxl_version_number           2013-4
_shelx_res_file
;
TITL MK-385 in P4(1)2(1)2
CELL  0.71073   5.8849   5.8849  21.4266   90.000   90.000   90.000
ZERR     4.00   0.0002   0.0002   0.0009    0.000    0.000    0.000
LATT  -1
SYMM  - X, - Y, 1/2 + Z
SYMM  1/2 - Y, 1/2 + X, 3/4 + Z
SYMM  1/2 + Y, 1/2 - X, 1/4 + Z
SYMM  1/2 - X, 1/2 + Y, 3/4 - Z
SYMM  1/2 + X, 1/2 - Y, 1/4 - Z
SYMM    Y,   X, - Z
SYMM  - Y, - X, 1/2 - Z
SFAC  C    N    O    F    H
UNIT  24   8    16   8    8
MERG   2
OMIT     0.00  50.00
OMIT     0   1   3
FMAP   2
PLAN   20
ACTA    50.00
BOND
BOND   $H
CONF
L.S.  14
WGHT    0.042100
FVAR       6.47981
C1    1    0.342292    0.249031    0.972765    11.00000    0.02010    0.01597 =
         0.01568    0.00125   -0.00383    0.00029
C2    1    0.534805    0.341293    0.946586    11.00000    0.01952    0.02371 =
         0.01609    0.00135    0.00036    0.00326
AFIX  43
H2    5    0.600092    0.276981    0.911226    11.00000   -1.20000
AFIX   0
C3    1    0.628255    0.530499    0.973885    11.00000    0.01663    0.02589 =
         0.02122    0.00763   -0.00017   -0.00400
N1    2    0.226381    0.066729    0.938892    11.00000    0.02858    0.01874 =
         0.01599    0.00357   -0.00257   -0.00180
O1    3    0.344308   -0.078518    0.913768    11.00000    0.04045    0.02256 =
         0.02727   -0.00757   -0.00185    0.00966
O2    3    0.017972    0.075018    0.936240    11.00000    0.02239    0.03198 =
         0.02633   -0.00112   -0.00373   -0.00641
F1    4    0.816862    0.623194    0.949933    11.00000    0.02803    0.03910 =
         0.03302    0.00494    0.00457   -0.01339
HKLF    4

REM  MK-385 in P4(1)2(1)2
REM R1 =  0.0362 for     587 Fo > 4sig(Fo)  and  0.0434 for all     647 data
REM     64 parameters refined using      0 restraints

END

WGHT      0.0421      0.0000

REM Highest difference peak  0.196,  deepest hole -0.222,  1-sigma level  0.055
Q1    1   0.3341  0.6049  0.9518  11.00000  0.05    0.20
Q2    1  -0.0631 -0.0559  0.9081  11.00000  0.05    0.19
Q3    1   0.6256  0.8547  0.9451  11.00000  0.05    0.17
Q4    1   0.5194  0.5959  0.9888  11.00000  0.05    0.16
Q5    1   0.7947  0.8707  0.9229  11.00000  0.05    0.16
Q6    1   0.1258  0.3294  0.9570  11.00000  0.05    0.16
Q7    1   0.2188  0.4807  0.9415  11.00000  0.05    0.15
Q8    1   0.4490  0.2787  0.9644  11.00000  0.05    0.14
Q9    1  -0.0008  0.0689  0.8627  11.00000  0.05    0.14
Q10   1  -0.1507  0.1638  0.9405  11.00000  0.05    0.13
Q11   1   0.3188  0.2763  1.0016  11.00000  0.05    0.13
Q12   1   0.8450  0.5300  1.0225  11.00000  0.05    0.12
Q13   1   0.0375  0.0375  1.0000  10.50000  0.05    0.12
Q14   1   0.1533  0.0166  0.8519  11.00000  0.05    0.12
Q15   1   1.0237  0.4073  0.9640  11.00000  0.05    0.12
Q16   1   0.5628  0.3024  0.9329  11.00000  0.05    0.11
Q17   1   0.8995  0.3636  0.9187  11.00000  0.05    0.11
Q18   1   0.3886  0.1032  0.8408  11.00000  0.05    0.11
Q19   1   0.5662  0.2583  0.8866  11.00000  0.05    0.11
Q20   1   0.3871  0.3420  0.9520  11.00000  0.05    0.11
;
_shelx_res_checksum              80126
_shelx_hkl_file
;
   0   0   3-34.9574 44.5698   2
   0   0  -4 109429. 5166.97   3
   0   0   4 137729. 4986.23   5
   0   0   5 7.57879 72.3965   5
   0   0  -5 187.127 95.4856   5
   0   0  -5 42.2239 159.188   3
   0   0  -6-88.0878 87.2908   2
   0   0  -6-59.8678 131.634   3
   0   0  -6 39.2859 116.618   5
   0   0   6 71.5158 115.454   5
   0   0  -7 45.8691 163.407   3
   0   0  -7 137.418 79.0982   2
   0   0   7-42.1760 84.8423   5
   0   0  -7 96.7854 104.643   5
   0   0  -8 922729. 35157.8   2
   0   0  -8 999999. 35224.0   5
   0   0   8 996748. 35226.0   5
   0   0  -9 2166.39 335.699   5
   0   0  -9 1207.34 391.243   3
   0   0  -9 1747.69 317.880   2
   0   0   9 1749.62 306.856   5
   0   0 -10-19.0411 93.2934   5
   0   0 -10 19.9689 142.980   3
   0   0  10-75.3864 145.707   5
   0   0 -10-32.9977 95.8136   2
   0   0 -11 125.488 124.867   5
   0   0 -11 288.934 203.773   3
   0   0  11 347.469 165.375   5
   0   0 -11 89.1239 76.4946   2
   0   0 -12 27770.1 1562.40   5
   0   0  12 29041.8 1650.47   5
   0   0 -12 28192.7 1630.26   2
   0   0 -13 43.2800 71.8888   5
   0   0 -13-6.34624 130.684   2
   0   0 -14 38.3299 200.396   3
   0   0 -14-4.25092 75.6200   5
   0   0 -14-20.3421 131.268   2
   0   0 -15-122.016 272.587   3
   0   0 -15-81.3348 71.8465   5
   0   0 -15 96.7354 114.980   2
   0   0 -16 7323.63 1050.36   3
   0   0 -16 6168.10 647.286   5
   0   0 -17 160.974 122.082   5
   0   0 -17-149.300 227.301   3
   0   0 -18 0.60113 115.544   5
   0   0 -18 425.768 345.638   3
   0   0 -19 64.8743 247.153   3
   0   0 -19 56.6358 185.563   5
   0   0 -20 205.104 323.945   3
   0   0 -20 270.304 235.196   5
   0   0 -21-287.343 272.998   3
   0   0 -22-183.651 364.825   3
   0   0 -23 288.301 343.789   3
   0   0 -24 17173.1 1987.79   3
   0   0 -25 853.481 403.644   3
   0   0 -26-512.851 457.751   3
   1   0   0 50.5275 91.7605   1
   0  -1   0-8.99765 64.6959   4
  -1   0   1 35409.0 1639.91   2
   0  -1   1 38532.9 1663.38   4
   0  -1  -1 38890.5 1697.31   4
   1   0   1 37207.9 1690.62   1
   1   0  -1 39233.6 1695.22   1
   0  -1  -2 9467.94 613.181   4
  -1   0   2 8851.68 577.559   2
   0  -1   2 9706.88 564.192   4
  -1   0  -2 9617.96 476.790   2
   1   0   2 8980.40 600.117   1
  -1   0   3 586.238 150.846   2
   1   0  -3 589.162 93.6999   4
   1   0   3 546.785 92.2909   3
   0  -1   3 405.660 121.316   4
  -1   0   4 24950.9 1371.95   2
   1   0   4 29626.5 1279.06   3
   1   0  -4 26280.3 1154.55   4
  -1   0  -4 25111.8 1479.07   5
   0   1  -4 25621.5 1490.09   5
  -1   0   5 21023.6 1208.71   2
  -1   0  -5 18134.1 1243.38   5
  -1   0   5 22339.5 970.300   4
   0   1  -5 17638.2 1239.09   3
   1   0  -5 21543.3 958.316   4
   1   0   5 24958.1 1162.88   3
  -1   0  -5 26163.4 1169.50   3
   0   1  -5 19623.1 1291.42   5
   0   1  -6 113262. 5820.29   3
  -1   0  -6 120307. 5777.43   5
   0   1  -6 124592. 5823.15   5
   1   0   6 158817. 5705.89   3
   0  -1   6 151440. 5781.25   5
  -1   0   6 133655. 5703.82   2
  -1   0  -6 151598. 5649.05   3
  -1   0   6 144170. 5395.90   4
   0  -1   7 7519.65 676.338   5
  -1   0   7 7011.47 639.541   2
  -1   0  -7 8196.29 627.899   3
   0   1  -7 6914.81 698.801   5
  -1   0  -7 8122.30 726.295   5
   1   0  -7 6183.33 730.208   3
   0   1  -7 5999.18 707.092   3
  -1   0  -7 7317.81 400.530   2
   1   0   7 9009.23 680.528   3
  -1   0   7 6706.85 430.299   5
  -1   0   7 7438.52 444.798   4
  -1   0   8 54981.8 2681.30   2
   0  -1   8 61640.1 2748.20   5
  -1   0  -8 63062.6 2775.37   5
   1   0  -8 42868.7 2812.72   3
   0   1  -8 46993.5 2797.92   3
  -1   0  -8 60271.6 2648.89   3
  -1   0   8 54573.1 2302.27   4
  -1   0   8 53151.9 2307.46   5
   0   1  -8 70883.8 2913.86   5
  -1   0  -8 55744.5 2263.64   2
  -1   0  -9 26711.3 1204.95   2
   0   1  -9 21696.3 1662.88   3
   0   1  -9 32068.6 1712.86   5
  -1   0  -9 28389.5 1639.58   5
   0  -1  -9 30682.9 1442.63   5
  -1   0   9 25351.8 1561.28   2
   0  -1   9 26075.7 1524.19   5
   1   0  -9 19634.0 1675.62   3
   0  -1   9 26517.0 1426.73   2
  -1   0   9 23443.5 1214.12   5
  -1   0  -9 27707.6 1556.49   3
  -1   0   9 26624.6 1244.53   4
   1   0  -9 25448.0 1552.00   2
  -1   0 -10 1099.26 289.894   5
   1   0 -10 453.210 250.395   3
  -1   0 -10 1258.53 263.835   3
   0  -1  10 852.523 192.713   5
   0   1 -10 1040.94 263.134   5
  -1   0  10 862.119 177.857   4
   0  -1  10 995.629 227.964   2
   0  -1 -10 1330.76 236.175   5
   0   1 -10 881.822 317.189   3
  -1   0 -10 1165.36 175.060   2
   1   0 -10 1099.09 283.148   2
  -1   0  10 1071.50 172.874   5
   1   0 -11 6738.92 923.252   3
   0   1 -11 6635.97 859.789   3
  -1   0  11 9653.83 639.397   4
  -1   0  11 8390.67 588.133   5
   0  -1  11 8288.70 716.730   2
   0   1 -11 10182.1 893.264   5
  -1   0 -11 9431.54 872.638   5
   0  -1  11 7696.09 731.357   5
   0  -1 -11 9093.24 663.869   5
  -1   0 -11 9762.18 625.583   2
   1   0 -11 9779.95 874.172   2
  -1   0 -11 9927.08 888.403   3
   0  -1  12 1731.54 333.738   5
   1   0 -12 1883.42 499.927   3
  -1   0 -12 2555.02 316.164   2
  -1   0  12 1906.81 260.788   5
   0   1 -12 2585.56 443.285   5
  -1   0 -12 2244.47 398.147   3
   1   0 -12 2322.02 447.359   2
   0  -1 -12 1975.94 281.158   5
   0  -1  12 2187.62 360.306   2
   0   1 -12 1767.65 453.371   3
  -1   0 -12 2613.32 450.099   5
  -1   0  12 2393.02 304.664   4
  -1   0 -13 21729.5 1560.00   3
   0   1 -13 20465.6 1447.06   5
  -1   0 -13 19903.4 1428.28   5
   0  -1 -13 19094.8 1170.37   5
   0  -1  13 21249.8 1389.24   2
   0  -1 -13 23300.7 1548.81   2
  -1   0  13 20703.9 1195.42   4
  -1   0  13 18153.7 1107.88   5
   1   0 -13 21630.1 1515.03   2
   1   0 -13 24421.2 1885.38   3
   0   1 -14 60077.8 3086.62   5
  -1   0  14 62553.1 2794.35   4
   1   0 -14 68317.4 3706.63   3
   0  -1  14 65104.2 3105.28   2
   0  -1 -14 61254.9 3345.52   3
  -1   0 -14 59561.0 3264.36   3
   0   1 -14 68737.5 3738.82   3
   0  -1 -14 53254.0 2696.14   5
  -1   0 -14 59645.5 3097.98   5
   0  -1 -14 62745.4 3167.74   2
  -1   0  14 56579.3 2707.69   5
   1   0 -14 61535.5 3209.73   2
  -1   0 -15 1349.02 407.296   3
  -1   0 -15 650.830 247.367   5
   1   0 -15 1303.94 385.651   2
   0   1 -15 1133.97 365.994   5
  -1   0  15 1427.57 274.391   4
   0  -1 -15 1219.99 343.842   2
   0  -1 -15 1035.51 422.381   3
   1   0 -15 1137.90 434.210   3
   0  -1 -15 1019.27 236.300   5
   0  -1  15 653.862 245.504   2
   0   1 -15 845.764 374.846   3
  -1   0  15 993.059 231.065   5
   0  -1 -16 13103.4 1155.47   2
   0   1 -16 13054.8 1180.79   5
   0   1 -16 16538.0 1667.74   3
   1   0 -16 15305.5 1566.22   3
  -1   0  16 14745.3 1034.70   4
   0  -1 -16 13596.5 1387.22   3
  -1   0 -16 13766.0 1221.65   5
  -1   0 -16 14058.3 1376.88   3
   0  -1 -16 13506.0 991.191   5
  -1   0  17 753.495 220.949   4
   0   1 -17 208.946 221.568   3
   0  -1 -17 716.697 278.788   2
   0  -1 -17 687.746 215.352   5
   0  -1 -17 711.687 273.299   3
   0   1 -17 869.734 317.383   5
  -1   0 -17 1094.27 336.614   5
  -1   0 -17 372.390 278.352   3
   1   0 -17 524.628 275.620   3
  -1   0 -18 8822.84 1120.80   3
  -1   0 -18 7660.86 945.184   5
   0   1 -18 9384.37 1345.02   3
  -1   0  18 9471.24 832.347   4
   0  -1 -18 8227.34 1117.53   3
   0  -1 -18 7284.71 834.649   2
   1   0 -18 7270.74 1104.86   3
   0   1 -18 9080.04 997.167   5
   0  -1 -18 8328.04 775.632   5
   1   0 -19 729.214 418.974   3
   0  -1 -19 450.677 295.122   3
  -1   0 -19 223.123 174.291   5
  -1   0 -19 105.973 178.945   3
  -1   0  19 298.118 152.619   4
   0  -1 -19 511.521 208.182   2
   0  -1 -19 325.694 186.256   5
   0   1 -19 553.431 285.848   5
   0   1 -19 492.657 300.577   3
  -1   0 -20 1072.17 363.557   5
   0  -1 -20 655.899 237.538   2
   1   0 -20 1121.16 447.995   3
   0   1 -20 1099.58 518.734   3
   0   1 -20 826.665 417.728   5
   0  -1 -20 782.811 358.080   3
  -1   0 -20 765.208 411.580   3
  -1   0 -21 8391.02 1018.44   5
   0  -1 -21 9010.54 1254.29   3
  -1   0 -21 10636.3 1393.99   3
   1   0 -21 10473.5 1412.61   3
   0  -1 -21 9359.51 990.546   2
   0   1 -21 11674.0 1649.55   3
  -1   0 -22 1324.32 569.042   3
   0  -1 -22 1090.79 399.094   3
   1   0 -22 1972.40 709.420   3
   0   1 -22 960.738 595.497   3
  -1   0 -22 1216.95 420.094   5
  -1   0 -23 2327.21 725.621   3
   1   0 -23 2921.29 794.314   3
   0  -1 -23 1490.01 475.391   3
   0   1 -23 3375.51 979.118   3
   0   1  23 2650.84 611.815   4
  -1   0 -24-481.056 488.962   3
   0  -1 -24-196.917 313.459   3
   0   1 -24 927.668 615.894   3
   1   0 -24 952.108 439.506   3
  -1   0 -25 1149.36 499.791   3
   0   1 -25 1569.00 633.215   3
   0  -1 -25 788.195 442.317   3
   1   0 -25 1213.27 540.010   3
  -1   0 -26-261.607 430.213   3
   0  -1 -26-576.052 423.609   3
   0   1 -26 268.583 385.846   3
  -1   0 -27 960.265 352.973   3
  -1   1   0 123368. 4766.85   1
   1  -1   0 125257. 4776.26   1
  -1   1   0 123959. 5022.75   5
   1   1   0 118897. 4976.13   1
  -1   1   1 35614.3 1458.46   1
   1  -1  -1 34068.8 1647.52   4
  -1   1  -1 29543.4 1693.24   5
   1  -1   1 33219.6 1490.97   1
   1   1  -1 35468.3 1687.82   1
  -1  -1   1 35235.4 1587.23   3
   1   1   1 33374.5 1642.73   1
  -1   1  -2 142308. 6651.79   5
  -1  -1   2 166661. 6521.03   3
   1  -1  -2 160184. 6535.32   4
  -1   1   2 171562. 6406.18   5
   1   1   2 163153. 6549.43   1
   1   1  -2 167812. 6537.17   3
  -1   1   2 167233. 6342.19   1
   1  -1  -2 169806. 6408.16   5
  -1   1  -3 253136. 10719.4   5
   1  -1  -3 273950. 10484.3   4
   1  -1  -3 298169. 10308.5   5
   1   1  -3 298705. 10297.3   4
  -1   1   3 306968. 10325.0   5
   1   1  -3 266600. 10608.8   3
   1   1   3 271932. 10522.2   1
   1   1  -4 31457.4 1303.49   4
   1  -1  -4 32355.1 1536.69   4
   1  -1  -4 33473.4 1323.02   5
   1   1  -4 32256.3 1719.59   3
  -1   1  -4 30239.8 1769.08   5
  -1   1  -5 305579. 12145.4   5
   1  -1  -5 319987. 11740.3   4
   1   1  -6 8727.05 841.083   3
   1  -1  -6 10251.2 718.828   4
  -1   1  -6 10882.8 944.385   5
  -1   1   6 11959.5 788.530   4
   1  -1   6 10459.1 775.034   3
   1  -1   7-45.2701 93.1323   3
  -1   1  -7-126.606 208.439   5
   1   1  -7 9.90801 123.121   3
  -1   1   7 14.2552 116.429   4
   1  -1   8 32958.7 1829.15   5
  -1   1  -8 33952.2 1998.29   5
  -1  -1   8 32751.2 1695.49   5
   1  -1   8 29832.4 1706.55   3
  -1  -1   8 31535.7 1769.03   2
  -1   1   8 32510.7 1649.80   4
  -1   1   9 33669.4 1698.17   4
  -1  -1   9 31970.3 1689.80   5
   1  -1   9 32330.8 1437.19   2
   1   1  -9 26636.8 1949.28   3
  -1   1  -9 28296.1 1921.65   5
   1  -1   9 32046.4 1831.37   5
   1  -1   9 31329.3 1791.09   3
  -1  -1   9 31079.1 1781.10   2
  -1   1 -10 73659.5 3474.45   3
  -1  -1  10 64308.2 3070.67   5
  -1   1 -10 83482.2 3692.81   5
   1  -1 -10 88965.6 3773.99   2
   1   1 -10 56279.2 3488.97   3
   1  -1  10 65791.7 2840.39   2
  -1  -1  10 67556.4 3273.55   2
  -1   1  10 70040.3 3131.87   4
   1  -1  10 67638.0 3340.99   3
   1  -1 -11 333.327 225.926   2
   1  -1  11 58.1960 64.5100   2
   1   1 -11-186.598 280.604   3
  -1  -1 -11-137.491 172.640   3
  -1   1  11-70.3409 94.4992   4
  -1  -1  11 218.715 152.921   5
  -1  -1 -11-48.1655 159.609   5
  -1   1 -11 380.339 227.772   3
  -1   1 -11-152.430 190.034   5
  -1   1 -12 9231.21 940.841   5
  -1   1  12 7898.20 723.201   4
   1  -1  12 7742.27 582.116   2
  -1   1 -12 8098.40 902.835   3
  -1  -1  12 7447.28 701.213   5
   1   1 -12 7338.50 1008.27   3
  -1  -1 -12 9734.05 981.182   3
  -1  -1 -12 8487.91 855.860   5
   1  -1 -12 8598.40 971.724   2
  -1  -1 -13 28946.8 1898.36   3
  -1  -1 -13 23860.4 1624.69   5
  -1   1 -13 23980.7 1766.19   3
  -1   1  13 21642.2 1438.00   4
   1   1 -13 28511.0 2165.25   3
   1  -1 -13 27715.5 1870.25   2
  -1  -1  13 20314.0 1422.54   5
  -1   1 -13 25507.8 1745.70   5
   1   1 -14 9083.19 1198.42   3
  -1  -1 -14 6203.56 735.938   5
  -1   1 -14 6854.21 837.199   5
  -1  -1  14 6103.59 666.971   5
  -1   1 -14 7510.14 929.735   3
  -1  -1 -14 8668.71 978.420   3
  -1   1  14 7337.60 726.986   4
   1  -1 -14 7493.43 890.181   2
  -1  -1 -15 188.806 154.868   2
  -1   1 -15 528.282 327.052   3
   1  -1 -15 154.864 257.073   2
  -1   1 -15-134.141 216.330   5
  -1  -1  15 70.6593 112.534   5
  -1  -1 -15 398.677 248.638   3
   1   1 -15 560.940 417.026   3
  -1  -1 -15 165.751 204.498   5
  -1   1  15-8.55104 102.676   4
  -1   1  16 16294.1 1246.01   4
  -1  -1 -16 15120.7 1248.32   5
  -1  -1 -16 16389.1 1499.20   3
   1  -1 -16 14347.7 1348.82   2
  -1  -1 -16 17831.1 1210.84   2
   1  -1 -16 15877.4 1527.07   3
  -1   1 -16 14640.0 1308.71   5
  -1   1 -16 15307.4 1513.70   3
  -1  -1 -17 2482.76 415.547   2
   1  -1 -17 3700.17 651.325   2
  -1   1 -17 2759.95 521.658   5
  -1  -1 -17 3121.98 632.161   3
   1   1 -17 3244.97 785.303   3
   1  -1 -17 3493.08 708.903   3
  -1   1  17 3945.08 567.820   4
  -1  -1 -17 2829.86 498.450   5
  -1   1 -17 3519.87 715.257   3
   1  -1 -18 1389.80 495.664   3
  -1  -1 -18 1288.53 345.104   5
  -1   1 -18 1656.96 434.328   5
   1  -1 -18 1665.38 440.169   2
   1   1 -18 2744.94 776.237   3
  -1  -1 -18 1587.10 429.012   3
  -1  -1 -18 1430.44 312.815   2
  -1   1 -18 2419.97 629.052   3
  -1   1  18 1584.20 349.380   4
  -1   1  19 1624.13 386.427   4
  -1  -1 -19 1083.23 413.887   3
  -1   1 -19 1764.82 568.686   3
   1  -1 -19 938.468 327.172   2
  -1  -1 -19 798.966 248.399   2
  -1   1 -19 634.835 270.370   5
   1   1 -19 829.894 513.563   3
   1  -1 -19 1170.76 428.212   3
  -1  -1 -19 832.759 275.644   5
   1  -1 -20 939.400 451.591   3
  -1   1 -20 884.271 455.478   3
  -1   1  20 1415.36 376.698   4
   1   1 -20 1241.68 541.574   3
  -1  -1 -20 833.803 420.629   3
  -1   1 -20 1415.87 410.036   5
   1  -1 -20 1685.75 454.289   2
  -1  -1 -20 1217.32 371.987   5
  -1  -1 -21 1237.96 405.629   3
  -1  -1 -21 1783.84 477.296   5
  -1   1 -21 929.545 337.095   5
   1  -1 -21 813.925 421.311   3
   1   1 -21 1096.25 591.585   3
  -1   1 -21 1456.73 510.180   3
   1  -1 -21 1047.20 405.923   2
   1  -1 -22 2595.86 572.800   2
  -1   1 -22 2513.08 602.851   5
   1   1 -22 3502.54 878.060   3
  -1  -1 -22 1944.85 615.166   3
   1  -1 -22 1927.51 611.978   3
  -1   1 -22 2049.28 614.356   3
   1  -1 -23-263.415 243.883   3
   1  -1 -23 392.687 265.722   2
  -1   1 -23 52.3629 297.233   3
   1   1 -23 153.101 442.624   3
  -1   1 -23 451.106 342.973   5
  -1  -1 -23 847.007 428.675   3
   1  -1 -24 12245.3 1562.98   3
   1   1 -24 15916.1 2024.24   3
  -1  -1 -24 11257.5 1516.77   3
  -1   1 -24 13279.8 1752.56   3
   1   1 -25 3253.00 974.309   3
  -1  -1 -25 2452.66 847.256   3
   1  -1 -25 2015.87 605.558   3
  -1   1 -25 1491.80 524.150   3
  -1  -1 -26 1182.83 469.014   3
  -1   1 -26 1312.96 632.559   3
  -1  -1 -27 455.409 256.330   3
   0  -2   0 11192.9 806.996   4
   2   0   0 10984.2 813.675   1
   0  -2   0 10436.5 588.468   1
  -2   0   0 9902.80 731.871   2
   0   2   1 15636.7 785.436   1
   2   0   1 16321.5 1042.23   1
   0  -2   1 14762.9 988.065   4
   0  -2  -1 16037.6 791.303   1
  -2   0   1 16068.7 1005.59   2
  -2   0  -1 16036.5 945.746   2
   2   0  -1 14873.1 1006.67   1
   0  -2   1 15769.2 826.806   1
   0  -2  -1 15306.0 1021.14   4
  -2   0  -2 38081.1 1737.44   2
   2   0   2 37336.5 1909.98   1
  -2   0   2 36547.9 1870.36   2
   0   2   2 36459.3 1600.71   1
   0  -2  -2 35983.8 1896.29   4
   0  -2   2 35228.6 1827.72   4
   2   0  -2 36572.4 1883.22   1
   0   2   3 4982.02 384.293   1
  -2   0   3 5280.40 554.170   2
   0   2  -3 4952.57 478.254   4
  -2   0  -3 5579.96 438.560   2
   0  -2   3 5513.42 515.007   4
   2   0   3 5244.12 544.658   1
   0  -2  -3 5678.89 566.253   4
   2   0   4 6540.67 411.035   3
  -2   0  -4 6980.69 469.255   2
   0  -2   4 6542.01 584.238   4
  -2   0   4 6675.95 652.457   2
   2   0   4 7251.52 665.486   1
   2   0   5 89339.3 3663.78   3
   2   0   5 96814.7 4205.64   1
  -2   0   5 86683.1 4083.92   2
   0  -2   5 91873.2 3933.64   4
  -2   0  -5 93709.8 3657.29   2
  -2   0  -6 9010.52 486.413   2
   2   0   6 8390.27 566.136   3
  -2   0  -6 6878.06 816.130   5
   2   0  -6 8629.91 553.433   4
   0  -2   6 8640.10 680.048   4
  -2   0   6 9236.95 836.984   2
   2   0   7 21741.6 1114.23   3
   0  -2   7 19362.2 1171.11   4
   2   0  -7 19800.4 980.246   4
   0   2   8 10059.9 960.619   4
   2   0  -8 13379.3 703.784   4
   0  -2   8 12521.8 891.863   4
   2   0   8 14086.3 880.621   3
  -2   0  -8 16277.7 1276.30   5
  -2   0  -9 7090.12 844.389   5
   2   0  -9 10992.9 1090.40   3
  -2   0  -9 9896.87 751.798   3
   0   2   9 7308.21 795.322   4
  -2   0 -10 6917.39 654.651   3
  -2   0  10 6464.98 486.544   5
   2   0 -10 5819.29 826.396   3
  -2   0 -10 6777.08 816.136   5
   2   0 -11 7714.43 885.984   2
  -2   0 -11 7041.71 849.153   5
  -2   0 -11 7512.25 729.971   3
   0   2  11 6612.36 760.939   4
  -2   0  11 6370.06 475.406   5
   2   0 -11 8422.54 1034.44   3
  -2   0 -12 5498.24 627.597   3
   2   0 -12 5425.59 780.726   2
   2   0 -12 5959.02 889.175   3
   0   2  12 4976.02 665.284   4
  -2   0 -12 5415.83 726.738   5
  -2   0  12 4600.74 402.774   5
   2   0 -13 11739.1 1208.79   2
  -2   0  13 10734.5 671.761   4
  -2   0  13 10816.4 709.779   5
   2   0 -13 13860.2 1403.73   3
   0   2  13 12206.0 1100.63   4
  -2   0 -13 10857.9 973.214   3
  -2   0 -13 11746.9 1150.66   5
  -2   0  14 216.827 84.2717   4
  -2   0  14 295.012 95.9791   5
  -2   0 -14 212.656 163.697   5
   2   0 -14 108.538 203.208   2
  -2   0 -14-12.0203 147.660   3
   0  -2 -14 651.063 211.909   5
   2   0 -14 621.500 347.241   3
   0   2  14 325.105 187.828   4
   0   2  15 19020.9 1534.06   4
  -2   0 -15 19475.9 1647.11   5
   0   2 -15 22882.0 1970.41   3
   0  -2 -15 19801.2 1273.84   5
  -2   0  15 19214.0 1070.24   5
  -2   0  15 21577.1 1102.94   4
   2   0 -15 19778.4 1827.34   3
  -2   0 -15 19016.0 1471.80   3
  -2   0 -16 6945.30 930.733   5
   0  -2 -16 6325.45 605.203   5
  -2   0 -16 5790.31 787.962   3
   2   0 -16 6595.57 1023.28   3
   0   2  16 7860.01 940.986   4
  -2   0  16 7680.10 573.111   4
   0   2 -16 7083.60 1090.25   3
   0   2 -17 8552.09 1230.54   3
  -2   0 -17 5732.03 807.975   3
  -2   0  17 7875.20 601.218   4
  -2   0 -17 7022.87 937.365   5
   2   0 -17 7901.99 1131.16   3
   0  -2 -17 6387.14 630.006   5
   0   2  17 7326.51 938.332   4
   0  -2 -18-183.694 296.584   2
  -2   0 -18-204.938 262.158   5
   0   2  18-18.4784 254.843   4
   2   0 -18 225.896 200.569   3
  -2   0 -18 391.257 234.910   3
   0   2 -18 93.4808 260.481   3
   0  -2 -19 1286.05 476.714   3
  -2   0 -19 2448.46 599.444   5
   0  -2 -19 1637.69 470.674   2
   0   2 -19 1643.27 563.783   3
   2   0 -19 1200.29 459.334   3
  -2   0 -19 1788.17 502.696   3
   0   2  19 1034.46 437.483   4
   0   2 -20 635.022 519.468   3
  -2   0 -20-113.144 202.555   3
   2   0 -20-28.2892 259.287   3
   0  -2 -20 357.566 292.027   3
   0  -2 -20-115.965 216.186   2
  -2   0 -20 549.548 351.354   5
   0   2  20-50.2099 161.148   4
   0   2 -21 297.736 243.645   3
  -2   0 -21 285.483 246.755   5
   0  -2 -21 1517.81 482.480   2
   0  -2 -21 139.644 347.663   3
   0   2  21 1357.54 499.894   4
  -2   0 -21 601.266 339.562   3
   2   0 -21 1171.52 510.092   3
   0  -2 -22 188.140 263.039   2
   2   0 -22-5.50762 324.830   3
  -2   0 -22-4.64597 272.491   5
  -2   0 -22-164.605 195.691   3
   0  -2 -22 255.845 203.218   3
   0   2  22 155.551 279.988   4
   0   2 -22 458.251 503.253   3
  -2   0 -23 6785.20 1067.16   5
   0   2  23 7563.24 1098.06   4
   0   2 -23 8699.96 1510.62   3
   0  -2 -23 6311.63 1098.80   3
  -2   0 -23 7382.01 1150.85   3
   2   0 -23 8537.08 1311.76   3
  -2   0 -24 445.812 353.783   3
   2   0 -24 494.353 333.199   3
   0  -2 -24 308.614 215.018   3
  -2   0 -25 2962.42 722.952   3
   0  -2 -25 2642.27 765.460   3
   0  -2 -26 105.270 198.316   3
   1   2  25 1054.22 468.301   4
   1  -2 -25 502.577 380.175   3
   1  -2 -24 585.789 421.908   3
  -1   2 -24 57.2635 268.032   5
   2   1 -24 74.2250 276.270   3
  -2  -1 -24 407.846 283.201   3
   1  -2 -24 242.243 227.444   2
   1  -2 -23 865.045 410.423   2
   2   1 -23 22.6587 367.698   3
  -2  -1 -23 864.440 461.179   3
  -1   2 -23 762.597 492.267   5
   1  -2 -23 153.206 248.594   3
   1  -2 -22 1051.24 470.097   2
  -2  -1 -22 1009.37 463.478   3
   1  -2 -22 1066.24 500.188   3
  -1   2 -22 1000.04 445.609   5
   2   1 -22 251.060 332.830   3
  -2  -1 -22 554.766 358.127   5
   1  -2 -21 5067.31 881.212   2
  -1   2 -21 6249.89 989.422   5
   2   1 -21 5613.95 1084.21   3
  -2  -1 -21 5521.55 872.041   5
  -2  -1 -21 5911.57 929.116   3
   1  -2 -21 5808.60 1086.06   3
   1  -2 -20 2663.48 644.193   2
  -2  -1 -20 2701.33 603.207   3
   2   1 -20 3413.61 894.301   3
  -1   2 -20 3377.10 730.497   5
  -2  -1 -20 3065.54 593.204   5
   2   1 -19 10259.7 1455.52   3
   1  -2 -19 9817.78 1231.18   2
  -2  -1 -19 10233.2 1186.66   5
  -1   2 -19 8249.21 1117.30   5
  -2  -1 -19 9163.92 1118.18   3
  -2  -1 -18 7397.84 974.879   5
  -1   2 -18 7615.53 1029.47   5
   1  -2 -18 8158.55 1092.09   2
  -2   1  18 8121.98 789.766   4
  -2  -1 -18 7516.84 941.730   3
   2   1 -18 7704.82 1229.50   3
  -1   2 -17 18836.6 1690.91   5
   1  -2 -17 21187.6 1831.85   2
  -2  -1 -17 18498.9 1591.91   5
  -2   1  17 20975.7 1378.69   4
   2   1 -17 23230.6 2154.69   3
  -2  -1 -17 19213.8 1554.14   3
   1  -2 -16 10905.4 1229.61   2
  -2  -1 -16 11054.7 1158.37   5
  -2   1  16 10472.1 893.398   4
   2   1 -16 11962.7 1476.39   3
  -2  -1 -16 9817.25 1001.40   3
  -1   2 -16 9885.30 1157.69   5
  -2  -1 -16 10387.5 762.947   2
   1  -2 -15 18153.0 1647.48   2
  -2  -1 -15 17938.6 1359.47   3
  -1   2 -15 16051.5 1506.36   5
  -2  -1 -15 16357.5 1480.78   5
  -1  -2  15 17345.7 999.221   4
  -2   1  15 17810.1 1225.51   4
   2   1 -15 19073.2 1852.05   3
  -2  -1 -14 1861.65 392.868   3
  -2   1  14 2165.14 382.284   4
  -2  -1 -14 1665.07 437.553   5
  -1  -2  14 1896.43 261.150   4
   2   1 -14 2027.11 562.123   3
  -1   2 -14 1569.65 465.226   5
  -2  -1 -13 2253.70 513.973   5
  -1  -2  13 2410.68 292.926   4
  -1   2 -13 2457.55 551.787   5
  -2  -1 -13 3089.75 472.287   3
  -2   1  13 3067.28 433.086   4
   2   1 -13 3285.12 702.855   3
  -2  -1 -12 3954.29 636.435   5
  -1  -2  12 3722.05 352.358   4
  -2  -1 -12 3205.70 450.549   3
   1  -2 -12 2115.69 201.368   5
   2   1 -12 2973.99 629.575   3
  -1   2 -12 3810.77 657.212   5
  -2   1  12 3737.25 465.677   4
  -1  -2  11 25093.8 1286.32   4
  -2  -1 -11 24784.1 1489.14   3
   2   1 -11 28642.1 2050.49   3
  -2   1  11 27605.4 1543.01   4
  -1   2 -11 29775.7 2011.46   5
  -1  -2  10 24315.1 1228.73   4
  -2  -1 -10 23543.8 1377.49   3
   2   1 -10 29327.8 1974.63   3
   2  -1  10 23680.2 1525.04   3
  -2   1  10 25062.8 1460.54   4
  -1   2 -10 27240.8 1888.09   5
  -2  -1  -9 58392.8 2542.89   3
   2   1  -9 64665.5 3209.82   3
   2  -1   9 55671.1 2715.50   3
  -2   1   9 59582.6 2673.66   4
   1  -2  -9 54385.0 2318.61   5
  -1  -2   9 55453.8 2397.22   4
  -2  -1  -8 9132.88 635.477   3
   2  -1   8 8598.49 740.982   3
  -1  -2   8 8690.90 588.183   4
   1  -2  -8 8755.74 555.790   5
  -1   2  -8 8301.75 947.006   5
   2   1  -8 10236.9 989.605   3
  -2   1   8 10134.6 781.094   4
   1  -2  -7 33158.2 1500.05   5
   2  -1   7 33187.3 1733.69   3
  -2  -1  -7 35446.5 1527.70   3
  -2   1   7 33266.0 1410.44   5
  -1   2  -7 27186.9 1987.74   5
   1  -2  -7 34615.7 1860.03   4
   2   1  -7 36373.0 2037.74   3
   2  -1   7 29864.6 1348.08   2
  -1  -2   7 32527.4 1521.92   4
  -2  -1  -6 7533.77 471.964   3
  -2   1   6 7743.41 479.351   5
   1   2   6 8173.77 719.546   1
  -1   2  -6 6473.67 799.751   5
   2   1  -6 8164.67 798.423   3
   1  -2  -6 7425.45 521.518   5
  -1  -2   6 6857.63 530.038   4
   1  -2  -6 7264.88 692.965   4
   2  -1   6 8245.92 491.332   2
   1   2   5 111287. 4774.57   1
  -1   2  -5 99156.8 5064.57   5
  -2  -1  -5 111077. 4342.41   3
  -1  -2   5 112605. 4907.31   3
   1  -2  -5 108510. 4807.19   4
   2   1  -5 120891. 4921.34   3
   1  -2  -5 113521. 4546.46   5
  -1  -2   5 110452. 4567.14   4
  -2   1   5 117751. 4492.65   5
  -1  -2   4 12126.6 951.214   3
   1  -2  -4 12052.2 774.209   5
   2   1  -4 12955.5 929.850   3
   1  -2  -4 10970.8 894.447   4
  -2   1   4 13753.6 784.522   5
   2  -1   4 14828.8 1035.67   1
  -2   1   4 13344.2 885.497   1
  -1   2  -4 10178.7 1014.65   5
   1   2   4 11987.9 883.470   1
   1  -2  -3 87609.2 3647.51   5
   2  -1   3 84361.8 3724.40   1
  -1  -2   3 84393.5 3823.10   3
  -2   1   3 89676.1 3637.21   5
  -1  -2   3 87850.3 3799.56   1
  -2   1   3 87239.7 3695.96   1
  -1   2  -3 73902.1 3931.64   5
   1  -2  -3 80861.9 3794.80   4
   1   2   3 85796.4 3738.19   1
   2   1  -3 92048.5 3754.97   3
   2   1  -2 54308.9 2697.63   1
  -1   2  -2 44595.3 2680.95   5
   2   1  -2 59801.4 2537.01   3
  -2   1   2 57367.1 2535.05   5
  -2   1   2 56413.3 2509.98   1
   1  -2  -2 55491.2 2655.08   4
   1  -2  -2 55805.4 2529.46   5
   1   2   2 53965.0 2532.97   1
  -1  -2   2 56752.9 2604.71   1
   2  -1   2 53793.9 2518.66   1
   2   1  -1 13731.1 799.571   3
  -2  -1  -1 11702.3 620.710   3
   1  -2  -1 11657.7 898.579   4
  -2   1   1 13409.5 887.200   5
  -2   1   1 11689.1 809.940   1
  -1   2  -1 9962.20 901.721   5
   1  -2  -1 12625.2 870.406   5
   1   2   1 10838.9 814.366   1
  -1  -2   1 12303.0 861.529   1
   2  -1   1 12547.1 838.214   1
   2   1  -1 11368.4 908.161   1
  -2   1   0 1917.08 273.497   1
  -1  -2   0 2055.36 310.436   1
   1  -2   0 1714.16 327.376   4
   2   1   0 1925.91 354.955   1
  -2  -1   0 1456.89 193.449   3
   1   2   0 1700.84 284.261   1
  -1   2   0 1103.62 257.728   5
   2  -1   0 2046.24 310.838   1
  -2   1   0 1217.98 247.284   5
  -2   1  -1 9281.94 839.855   5
  -2   1  -1 12293.0 806.789   1
   2  -1  -1 11547.1 777.289   1
   2   1   1 10346.0 860.087   1
  -2  -1   1 11688.5 733.941   3
  -1  -2  -1 12468.1 843.937   1
   1   2  -1 12637.3 846.411   4
   1  -2   1 10864.2 878.219   4
  -2   1  -2 43866.6 2561.10   5
  -1  -2  -2 55278.3 2485.11   1
   2   1   2 53659.5 2589.20   1
   1  -2   2 56213.8 2590.03   4
   1   2  -2 55575.2 2431.39   4
  -2  -1   2 55805.8 2434.73   3
   2  -1  -2 43564.7 2597.33   2
  -2  -1   3 92317.3 3724.56   3
   1   2  -3 83851.1 3553.76   4
   2  -1  -3 88007.0 3683.27   4
   1  -2   3 82290.7 3755.20   4
   2   1   3 84516.9 3825.88   1
   2   1   4 11880.8 963.872   1
  -2  -1   4 13697.0 961.056   3
   1   2  -4 12204.6 778.511   4
  -2   1  -4 9681.61 964.856   5
   2  -1  -4 12669.6 863.989   4
   2   1   5 114622. 4817.64   1
   1   2  -5 114129. 4436.38   4
  -2   1  -5 95400.3 4862.84   5
  -1   2   5 88018.4 4660.59   4
   2  -1  -5 119954. 4613.56   4
  -2   1  -6 5870.64 743.325   5
   1   2  -6 7489.05 523.589   4
   2  -1  -6 6638.60 604.077   4
  -1   2   6 5500.89 646.483   4
  -2   1  -7 28187.9 1918.65   5
  -1   2   7 25274.4 1680.04   4
   2  -1  -8 8503.33 678.300   4
  -2   1  -8 8523.47 954.263   5
  -1   2   8 9129.85 862.250   4
   1   2  -9 59539.0 3319.26   3
   2  -1  -9 53400.7 2690.43   4
  -1   2   9 63749.7 3087.78   4
  -2   1 -10 26977.3 1945.77   5
  -1   2  10 27284.2 1712.32   4
   2  -1 -10 23957.8 1427.41   4
  -2   1 -11 31532.5 2158.55   5
   1   2 -11 28487.6 2158.75   3
   2  -1 -11 28972.9 2036.62   2
  -2  -1  11 25972.9 1608.82   5
  -1   2  11 26873.0 1764.38   4
  -1   2  12 3675.78 567.762   4
   2  -1 -12 3338.22 619.661   2
   1   2 -12 4324.30 817.454   3
  -2  -1  12 3608.80 501.309   5
  -2   1 -12 3992.52 727.248   5
  -2   1 -13 3524.61 689.216   5
   2  -1 -13 3506.56 658.243   2
   1   2 -13 3273.11 720.209   3
  -1   2  13 2860.62 505.379   4
  -2  -1  13 2124.03 375.606   5
   1  -2  14 1697.48 320.483   2
   2  -1 -14 1362.19 364.461   2
   1   2 -14 2518.48 700.144   3
  -2   1 -14 2085.03 531.457   5
  -2  -1  14 1550.29 317.289   5
  -1   2  14 1860.52 427.910   4
  -2  -1  15 15375.6 1195.51   5
  -1   2  15 17342.3 1436.83   4
  -1  -2 -15 20008.8 1526.28   5
   2  -1 -15 17360.3 1580.30   2
   1  -2  15 18737.3 1251.06   2
  -2   1 -15 18324.0 1738.46   5
  -1   2  16 10968.0 1111.02   4
  -1  -2 -16 11620.4 1126.50   5
   1   2 -16 13356.6 1665.17   3
  -2   1 -16 13991.2 1485.96   5
   2  -1 -16 10701.9 1232.34   2
  -1  -2 -17 22696.1 1642.78   5
   2  -1 -17 16320.0 1740.83   3
  -1  -2 -17 18886.6 1681.86   3
  -1   2  17 20471.4 1650.10   4
  -2   1 -17 23826.2 1987.03   5
   2  -1 -17 19539.0 1757.57   2
  -2   1 -18 8287.95 1139.47   5
   1   2 -18 10572.4 1582.16   3
  -1  -2 -18 7437.85 857.168   5
  -1   2  18 8875.49 1020.80   4
  -1  -2 -18 6200.78 951.839   3
   2  -1 -18 6404.69 1060.98   3
   2  -1 -18 8249.77 1055.80   2
  -2   1 -19 9288.43 1220.07   5
   1   2 -19 11667.2 1707.86   3
  -1  -2 -19 9923.07 1086.20   2
  -1  -2 -19 8789.33 924.766   5
  -1  -2 -19 8554.38 1146.99   3
   2  -1 -19 9068.07 1310.34   3
  -1   2  19 9504.88 1119.18   4
   2  -1 -19 7965.12 1116.91   2
   1   2 -20 4534.19 1102.02   3
  -2   1 -20 3806.59 763.369   5
   2  -1 -20 2865.95 740.365   3
   2  -1 -20 2949.68 671.487   2
  -1  -2 -20 2812.88 691.511   3
  -1   2  20 3876.16 698.107   4
  -1  -2 -21 7086.81 1116.14   3
   1   2 -21 7132.67 1399.71   3
  -2   1 -21 5201.51 920.993   5
   2  -1 -21 5200.80 897.532   2
  -1   2  21 7115.68 993.613   4
   2  -1 -21 5348.57 1043.56   3
   1   2 -22 1460.43 722.262   3
  -2   1 -22 1492.54 539.381   5
   2  -1 -22 341.675 244.624   3
  -1  -2 -22 287.540 215.430   3
   2  -1 -22 1101.76 394.021   2
  -1  -2 -23 48.8034 266.228   3
  -2   1 -23 755.210 414.332   5
   2  -1 -23 76.7451 278.900   3
   2  -1 -23 790.687 419.002   2
   1   2 -23 1208.91 630.731   3
  -2   1 -24 844.231 387.545   5
   2  -1 -24 565.533 390.050   3
   1   2 -24 14.9862 565.499   3
  -1  -2 -24 708.138 426.667   3
  -2   1 -25 1195.48 467.405   5
  -1  -2 -25 921.833 417.620   3
  -1  -2 -26 6620.24 1152.01   3
  -1  -2 -27 888.497 498.914   3
  -2  -2   0 502.490 175.010   1
   2   2   0 752.343 248.176   1
  -2  -2   0 744.871 182.295   3
  -2   2   0 450.067 238.141   5
   2  -2   0 770.081 164.326   1
   2  -2   0 825.795 249.127   5
  -2   2  -1 136.940 140.990   5
  -2  -2   1 276.270 163.403   3
   2  -2  -1-235.606 168.879   5
  -2  -2   1 58.5185 114.260   1
   2   2  -1 56.3558 118.420   1
   2  -2   1 168.144 96.2163   1
  -2   2   1 102.905 82.5271   1
  -2   2   1 467.301 208.192   5
   2  -2   1-129.769 193.046   5
   2   2   1 105.184 98.1952   1
  -2  -2  -1-1.93201 127.357   1
  -2  -2   2 372.778 201.072   1
   2  -2  -2 296.397 178.608   5
  -2   2  -2 544.539 259.235   5
   2  -2   2 440.206 226.192   5
  -2  -2  -2 348.489 145.947   1
  -2   2   2 728.587 170.297   1
   2  -2   2 748.006 175.618   1
  -2  -2   2 388.259 166.563   3
  -2   2   2 590.949 182.640   5
   2   2   2 270.030 162.638   1
  -2  -2  -3 10480.5 975.994   1
   2  -2   3 14711.9 927.180   1
  -2  -2   3 14741.9 1027.92   3
  -2   2   3 16116.5 846.309   1
  -2  -2   3 9569.34 961.567   1
  -2   2   3 15487.4 974.616   5
  -2   2  -3 12309.2 1140.20   5
   2  -2  -3 14778.0 927.393   5
  -2  -2   4 2746.45 417.086   3
  -2  -2   4 1639.15 355.738   1
  -2   2   4 2701.63 309.712   1
  -2   2   4 2765.50 343.792   5
   2   2  -4 2435.45 317.096   4
   2  -2  -4 2283.77 305.984   5
  -2   2  -4 2047.25 477.447   5
  -2  -2   5 7281.83 728.838   3
  -2   2   5 7210.05 565.681   5
  -2   2   5 7044.21 555.592   1
   2  -2  -5 6363.51 507.690   5
   2   2  -5 7175.77 526.880   4
  -2   2  -5 6234.41 834.932   5
  -2  -2   5 4392.25 618.843   1
   2  -2  -6 7625.80 542.772   5
   2   2  -6 9378.72 906.846   3
  -2   2  -6 7388.93 944.884   5
  -2   2   6 8782.34 844.417   4
   2   2  -6 7670.80 523.969   4
   2   2  -7 141842. 5931.78   3
   2  -2  -7 128249. 5112.91   5
   2   2  -7 126850. 5074.31   4
  -2   2   7 134269. 5699.94   4
  -2   2   8 2906.40 479.532   4
  -2   2  -8 2216.55 504.970   5
   2   2  -8 3505.83 617.217   3
   2   2  -9 14796.4 1389.98   3
  -2   2  -9 17121.6 1571.55   5
  -2   2   9 13648.8 1161.97   4
   2   2 -10 49907.6 2961.39   3
  -2   2 -10 52781.4 3118.60   5
   2   2 -11 14327.5 1441.32   3
  -2   2 -11 16108.8 1544.27   5
  -2   2  11 12862.7 1132.45   4
  -2   2  12-23.9098 196.048   4
   2   2 -12 295.355 294.173   3
  -2   2 -12 252.957 215.330   5
   2  -2 -12-193.356 227.987   2
   2  -2  13 3238.63 332.070   2
   2  -2 -13 3524.65 685.643   2
  -2   2  13 2425.10 449.600   4
  -2   2 -13 4274.60 794.621   5
   2   2 -13 3917.96 813.869   3
   2   2 -14 8260.48 1181.41   3
  -2   2  14 5062.41 682.915   4
  -2  -2 -14 5951.99 775.590   3
  -2   2 -14 5889.54 919.594   5
   2  -2 -14 7008.27 1009.06   2
  -2   2  15 11353.6 1092.19   4
   2   2 -15 13987.2 1649.97   3
  -2  -2 -15 13704.0 1270.82   3
  -2   2 -15 13423.0 1428.65   5
   2  -2 -15 12979.7 1408.21   2
  -2  -2 -16 804.444 305.299   3
   2  -2 -16 1028.55 400.070   2
  -2   2 -16 633.827 385.603   5
  -2  -2 -16 1039.14 441.223   5
  -2   2  16 855.377 305.179   4
   2   2 -16 1429.04 588.346   3
  -2   2  17 2323.83 484.198   4
   2  -2 -17 2453.95 591.090   2
  -2   2 -17 2552.38 647.983   5
   2   2 -17 3495.81 929.313   3
  -2  -2 -17 2606.21 552.195   5
  -2  -2 -17 2562.88 543.668   3
   2   2 -18 20356.0 2241.58   3
  -2  -2 -18 16761.2 1554.38   3
   2  -2 -18 14299.4 1592.66   2
  -2   2 -18 16575.3 1699.55   5
  -2  -2 -18 20622.8 1764.33   5
  -2   2  18 16327.4 1399.37   4
  -2   2  19 9058.62 1018.88   4
   2   2 -19 12845.5 1807.78   3
   2  -2 -19 8812.93 1215.88   2
  -2  -2 -19 10506.4 1227.80   3
  -2  -2 -19 10361.2 1224.08   5
  -2   2 -19 10191.6 1302.39   5
   2   2 -20 2632.45 881.932   3
   2  -2 -20 2040.07 582.562   2
  -2   2 -20 2184.14 607.433   5
  -2  -2 -20 2130.33 517.436   5
  -2  -2 -20 2596.17 608.826   3
   2  -2 -21 18880.9 2107.55   3
   2   2 -21 25344.6 2719.41   3
  -2   2 -21 19120.3 1914.23   5
  -2  -2 -21 19111.6 1706.95   5
  -2  -2 -21 20074.8 1838.22   3
   2  -2 -21 17118.5 1799.22   2
  -2   2 -22 2467.61 675.449   5
   2  -2 -22 1844.81 544.738   2
   2   2 -22 2714.68 931.289   3
  -2  -2 -22 1630.76 505.500   3
   2  -2 -22 778.351 377.870   3
   2  -2 -23 3946.04 848.802   2
  -2   2 -23 3015.92 780.398   5
   2  -2 -23 1771.49 711.532   3
   2   2 -23 4326.07 1176.18   3
   2  -2 -24 199.275 282.799   2
  -2   2 -24 127.826 349.143   5
  -2   2 -25 786.510 573.110   5
   2  -2 -25-230.899 250.696   2
  -3   0   0-39.8877 129.087   2
   0  -3   0 57.6743 104.944   1
   0  -3  -1 13164.8 754.488   1
  -3   0   1 15024.1 1148.19   2
   0  -3   1 12105.3 772.829   1
  -3   0  -1 14923.8 1092.91   2
   0   3   2 27322.5 1332.35   1
   0  -3   2 26942.7 1404.70   1
  -3   0  -2 30655.5 1708.81   2
   0   3  -2 28383.8 1705.71   4
  -3   0   3 9044.96 873.426   1
  -3   0  -3 9729.31 799.545   2
   0   3  -3 8198.83 778.270   4
   0   3   3 8500.69 597.582   1
   0   3   4 11315.9 740.911   1
  -3   0   4 10793.2 1010.23   1
  -3   0  -4 12939.9 921.259   2
   0  -3   4 11029.5 940.445   4
   0   3  -4 10038.0 886.635   4
   0  -3   5 3454.60 501.208   4
   0   3   5 3239.02 374.059   1
  -3   0   5 3128.71 510.185   1
   3   0   5 3546.57 294.171   3
  -3   0  -5 4162.72 465.156   2
   3   0   6 15774.9 830.477   3
  -3   0   6 16694.5 1287.08   1
  -3   0  -6 20482.2 1083.43   2
  -3   0  -6 11668.3 1250.58   5
   0   3   6 15308.6 990.115   1
   0  -3   6 16670.1 1202.04   4
   0  -3   7 214.466 101.453   4
  -3   0   7 84.3992 118.359   1
  -3   0  -7 28.4400 164.281   5
  -3   0  -7 290.192 101.638   2
   3   0   7 105.044 52.2182   3
   3   0  -7 171.333 100.773   4
  -3   0   8 5484.03 733.647   1
   3   0   8 4111.88 382.815   3
  -3   0  -8 5083.24 781.481   5
   0  -3   8 4572.17 573.833   4
   3   0  -8 4554.35 435.865   4
   0   3   8 3646.74 608.031   4
   3   0  -9 547.436 146.961   4
  -3   0  -9 163.874 211.835   5
   0  -3   9 292.296 174.517   4
   3   0  -9 95.4190 187.929   3
   0   3   9 390.561 240.197   4
   0  -3  10 449.553 223.417   4
  -3   0 -10 281.430 158.487   5
   0   3  10 704.730 338.638   4
   3   0 -10 491.498 120.992   4
   3   0 -11 15014.1 1473.97   3
  -3   0 -11 12839.5 1290.65   5
   3   0 -11 12195.0 734.593   4
   0   3  11 12598.3 1200.05   4
   3   0 -12 54011.1 3275.91   3
  -3   0 -12 48735.9 3007.70   5
   0   3  12 48352.5 2879.49   4
   3   0 -13 29751.9 2326.34   3
  -3   0  13 31268.5 1560.39   5
  -3   0 -13 26559.2 2057.98   5
   0   3  13 26501.4 1982.75   4
   3   0 -14 1041.14 405.991   3
  -3   0 -14 791.592 420.992   5
   0   3  14 1272.10 401.072   4
  -3   0 -15 459.161 269.524   5
   3   0 -15-159.160 275.935   3
   0   3  15 310.021 222.291   4
   3   0 -16 43660.3 3057.77   3
  -3   0 -16 40750.5 2825.65   5
   0   3  16 39430.7 2635.04   4
  -3   0 -17 3360.01 748.576   5
   3   0 -17 4462.46 912.698   3
   0   3  17 2868.79 588.599   4
   0   3  18 1715.09 468.694   4
   3   0 -18 2431.74 639.370   3
  -3   0 -18 2073.11 589.386   5
   0   3  19 13764.0 1522.65   4
   3   0 -19 14856.4 1713.27   3
  -3   0 -19 17585.8 1754.77   5
  -3   0 -20 3472.89 769.732   5
   3   0 -20 3749.41 846.676   3
   0   3  20 1809.33 519.503   4
   3   0 -21 6197.00 1125.23   3
  -3   0 -21 7206.59 1153.20   5
   0  -3 -21 7452.58 1121.71   2
   0   3  21 6206.65 1017.03   4
   0  -3 -22 230.390 296.864   2
   3   0 -22 448.704 571.532   3
  -3   0 -22-112.357 267.578   5
   0   3  22 211.980 263.775   4
   3   0 -23 101.537 267.492   3
  -3   0 -23 632.178 380.220   5
   0  -3 -23 189.730 338.361   3
   0   3  23 102.602 225.921   4
   0  -3 -24 16605.5 2033.31   3
  -3   0 -24 16953.0 1989.27   5
   0   3  24 17386.7 1898.89   4
  -3   0 -25-1340.24 571.127   5
   0  -3 -25-334.467 424.231   3
   1   3  25 414.134 408.825   4
   1  -3 -24 3373.72 777.604   2
   1   3  24 2258.26 660.402   4
   1  -3 -23 1807.18 609.019   2
  -3  -1 -23 948.981 360.764   5
   1   3  23 872.606 396.967   4
   1  -3 -22 2105.41 675.584   2
   3   1 -22 3263.75 889.308   3
  -3  -1 -22 2034.51 574.252   5
   1   3  22 2773.40 729.489   4
   1  -3 -21 1468.09 536.043   2
   3   1 -21 2777.63 798.400   3
   1   3  21 2539.43 670.795   4
  -3  -1 -21 2866.52 717.282   5
   1  -3 -20 6976.98 1112.74   2
   3   1 -20 6705.08 1246.36   3
   1   3  20 6769.25 1052.33   4
  -3  -1 -20 6720.02 1040.78   5
   1  -3 -19 8039.84 1188.00   2
   3   1 -19 7400.15 1272.14   3
  -3  -1 -19 7041.24 1051.74   5
   1   3  19 7071.37 1059.81   4
   3   1 -18 4303.08 922.325   3
  -3  -1 -18 3733.12 727.015   5
   1   3  18 3706.24 721.770   4
  -1   3 -17 3932.48 795.537   5
   3   1 -17 2830.83 724.341   3
  -3  -1 -17 2703.17 632.049   5
   1   3  17 2162.82 523.153   4
  -3  -1 -17 3718.07 579.777   3
  -1   3 -16 8290.67 1185.89   5
  -3  -1 -16 8485.49 859.468   3
   3   1 -16 9163.81 1286.63   3
  -3  -1 -16 6757.88 995.165   5
   1   3  16 7121.60 997.459   4
  -1   3 -15 1786.96 549.484   5
   1   3  15 1739.50 469.538   4
  -3  -1 -15 1300.21 327.875   3
   3   1 -15 1233.59 492.267   3
  -3  -1 -15 1417.55 444.679   5
  -3  -1 -14 6122.26 675.977   3
  -1   3 -14 7862.38 1120.31   5
   3   1 -14 7066.93 1061.36   3
  -3  -1 -14 6313.05 957.634   5
   1   3  14 6184.28 862.040   4
  -3  -1 -13 3059.91 433.346   3
  -1   3 -13 3444.74 756.468   5
   1   3  13 3098.87 588.068   4
   3   1 -13 3589.57 750.542   3
  -3  -1 -13 2689.54 603.745   5
  -1  -3  13 3262.84 413.424   4
  -1   3 -12 28457.8 2234.60   5
  -3  -1 -12 25384.2 1421.95   3
   3   1 -12 24116.1 1977.70   3
  -3  -1 -12 27363.8 2042.07   5
   1   3  12 21170.0 1709.85   4
  -1  -3  12 22983.2 1370.62   4
   3   1 -11 7867.23 1033.05   3
  -1   3 -11 9446.20 1219.03   5
   3  -1  11 8264.16 830.580   3
   1   3  11 7600.21 912.350   4
  -1  -3  11 7642.18 667.740   4
   3   1 -10 25474.3 1919.86   3
  -3   1  10 25014.4 1208.52   5
   3  -1  10 26454.0 1654.14   3
   1   3  10 25456.6 1837.98   4
  -1  -3  10 25192.2 1460.72   4
   1  -3 -10 29190.3 1552.65   5
   1  -3  -9 5139.76 520.923   5
   3  -1   9 4501.13 545.046   3
   1   3   9 3130.17 562.525   4
   3   1  -9 5040.11 708.487   3
  -1   3  -9 5702.85 907.969   5
  -1  -3   9 4101.01 464.350   4
  -3   1   9 4040.46 352.658   5
   3  -1   8 18165.3 1206.27   3
  -3   1   8 17450.5 977.767   5
  -3   1   8 19685.3 1412.24   1
   1  -3  -8 19012.4 1187.65   5
  -1  -3   8 17470.7 1157.92   4
   3   1  -8 19185.8 1458.66   3
   1   3   7 4875.02 592.995   1
  -1  -3   7 4518.75 515.237   4
  -1   3  -7 3789.23 714.436   5
   3   1  -7 5776.58 689.236   3
   3  -1   7 4310.00 468.393   3
  -3   1   7 4047.61 397.164   5
  -3   1   7 5240.85 653.897   1
   1  -3  -7 4853.32 516.442   5
   3  -1   6 5206.54 441.747   2
   3   1  -6 4220.17 553.989   3
  -3   1   6 4916.27 470.436   5
  -1  -3   6 4388.62 512.982   4
  -3   1   6 4213.42 564.816   1
   1  -3  -6 4837.82 529.291   5
   1   3   6 4917.75 589.084   1
   1  -3  -5 17261.6 1158.78   5
  -3   1   5 17029.0 1083.25   5
   3   1  -5 17421.9 1212.29   3
  -3   1   5 18579.2 1300.29   1
  -1  -3   5 18825.4 1216.76   4
   1   3   5 18414.1 1250.90   1
   3  -1   5 18474.9 1031.29   2
  -3   1   4 18703.1 1192.61   5
   1   3   4 21472.7 1310.46   1
  -1  -3   4 20237.8 1322.19   1
   3   1  -4 17238.8 1184.78   3
   1  -3  -4 18413.5 1210.86   5
  -3   1   4 19850.8 1335.80   1
  -1  -3   4 20087.9 1292.89   4
   3  -1   4 18898.9 1107.57   2
  -1  -3   3 2285.51 386.054   1
   3  -1   3 1777.45 302.236   2
   1  -3  -3 1669.44 313.062   5
  -3   1   3 2292.79 395.023   1
   3  -1   3 1178.99 313.647   1
  -3   1   3 1666.14 339.454   5
   1   3   3 2037.48 344.351   1
   3   1  -3 1456.45 267.028   3
   3   1  -2 28170.8 1528.41   3
  -3   1   2 31258.0 1758.78   5
   1  -3  -2 28240.6 1684.00   5
   1   3   2 31496.7 1712.51   1
  -1  -3   2 30696.0 1715.54   1
   3  -1   2 29078.3 1758.18   1
  -3   1   2 30644.3 1770.21   1
   3  -1   2 30427.2 1671.37   2
   1   3   1 39049.5 2028.58   1
   3   1  -1 40672.1 1869.09   3
  -3   1   1 42465.2 2191.98   5
  -1  -3   1 38632.1 2010.25   1
   3  -1   1 41938.0 2178.21   1
   3  -1   1 36345.8 2043.85   2
  -3   1   1 42854.2 2174.90   1
  -3   1   0 43048.3 2387.45   1
   3   1   0 48972.6 2135.19   3
  -3   1   0 46786.8 2516.00   5
   3  -1   0 48580.8 2481.85   1
   1   3   0 46483.0 2510.22   4
  -1  -3   0 45845.2 2330.53   1
   3  -1   0 47788.9 2472.95   2
  -1  -3  -1 40997.4 2102.22   1
  -3   1  -1 41849.5 2319.38   5
   3  -1  -1 39103.9 2172.93   1
  -3   1  -1 37237.1 2150.77   1
   1   3  -1 40953.8 2233.84   4
   3  -1  -1 45432.7 2357.81   2
  -1  -3  -2 29694.6 1658.46   1
   1   3  -2 28368.4 1737.41   4
  -3   1  -2 30752.0 1918.57   5
   3  -1  -2 28250.2 1719.84   1
   3  -1  -2 31288.0 1908.10   2
   1   3  -3 2320.28 391.798   4
   3  -1  -3 2098.98 453.223   2
  -3   1  -3 1479.10 314.506   5
  -3   1  -4 21018.9 1569.96   5
   3  -1  -4 22474.8 1618.18   2
   1   3  -4 19789.8 1319.18   4
   1   3  -5 18315.2 1209.10   4
   3  -1  -5 18890.2 1241.56   4
   3  -1  -5 22576.5 1608.88   2
   1   3  -6 4368.22 500.769   4
  -3   1  -6 3664.64 649.753   5
  -1   3   6 5777.60 749.230   4
   3  -1  -6 4699.91 542.381   4
   3  -1  -6 4326.56 711.044   2
  -3   1  -7 4027.43 701.247   5
  -1   3   7 5221.06 721.455   4
   3  -1  -7 5677.84 613.035   4
   3  -1  -8 19755.5 1265.31   4
  -1   3   8 21678.1 1615.69   4
  -3   1  -9 5644.96 854.116   5
   3  -1  -9 4865.73 554.253   4
  -1   3   9 5063.85 752.902   4
   3  -1  -9 5915.50 841.793   2
  -3   1 -10 30690.9 2212.89   5
   3  -1 -10 23914.8 1499.13   4
  -1   3  10 28422.6 1976.92   4
   3  -1 -10 27194.2 2065.68   2
  -3   1 -11 8588.48 1098.54   5
  -1   3  11 8764.69 1017.02   4
   3  -1 -11 7276.87 688.170   4
   3  -1 -11 7858.63 1029.00   2
  -3   1 -12 28055.6 2151.63   5
   3  -1 -12 22064.2 1419.18   4
  -1   3  12 26448.4 1918.87   4
   3  -1 -12 25198.6 2012.10   2
  -1   3  13 3445.60 644.484   4
  -3   1 -13 2750.89 660.865   5
   3  -1 -13 2940.72 647.263   2
  -1   3  14 5463.94 851.652   4
  -3   1 -14 7193.01 1057.04   5
   3  -1 -14 6855.52 1014.79   2
  -1   3  15 1453.76 416.535   4
  -3   1 -15 1502.09 494.178   5
   3  -1 -15 2254.33 593.380   2
   3  -1 -16 8689.50 1263.97   3
   3  -1 -16 9217.98 1197.97   2
  -1   3  16 7877.60 1053.26   4
  -3   1 -16 9540.39 1297.18   5
  -1   3  17 3321.60 685.485   4
   3  -1 -17 2317.82 617.983   2
  -3   1 -17 2984.45 715.970   5
   3  -1 -17 3085.37 816.464   3
  -1   3  18 4010.22 799.179   4
  -3   1 -18 4439.24 943.771   5
   3  -1 -18 5114.09 897.487   2
  -1  -3 -18 4231.23 717.969   5
   3  -1 -18 3590.99 861.423   3
   3  -1 -19 7790.04 1215.15   2
  -3   1 -19 8257.73 1307.18   5
   3  -1 -19 7537.28 1260.90   3
  -1   3  19 8359.67 1162.97   4
  -1   3  20 6282.03 1018.07   4
  -3   1 -20 8389.24 1286.66   5
   3  -1 -20 5436.02 1004.52   2
   3  -1 -20 5897.34 1140.49   3
  -1   3  21 1934.40 560.363   4
   3  -1 -21 2212.99 690.942   3
  -1  -3 -21 2379.20 673.986   3
   3  -1 -21 2572.05 791.880   2
  -3   1 -21 2244.67 722.606   5
  -1   3  22 3431.90 784.326   4
  -3   1 -22 3098.93 797.858   5
   3  -1 -22 4068.13 999.892   3
  -1  -3 -22 3020.04 768.696   3
  -1  -3 -23 1241.48 530.987   3
  -3   1 -23 1002.31 441.740   5
  -3   1 -24 2134.56 694.765   5
  -1  -3 -24 3295.14 785.511   3
  -3   1 -25 46.5086 275.203   5
  -1  -3 -25 1120.84 507.128   3
   2  -3 -24 176.790 198.321   2
   2  -3 -23 2579.46 753.960   2
  -2   3 -23 1026.59 568.747   5
   2  -3 -22 77.1453 270.834   2
   3   2 -22 93.1281 318.463   3
  -3  -2 -22 363.423 333.866   5
  -2   3 -22 911.689 532.873   5
   2  -3 -21 1502.66 538.529   2
  -3  -2 -21 1538.77 509.007   5
   3   2 -21 1343.65 625.401   3
  -2   3 -21 915.387 526.377   5
   2  -3 -20 977.509 465.027   2
  -3  -2 -20 1810.53 604.383   5
   3   2 -20 744.201 406.124   3
  -2   3 -20 375.634 360.492   5
   2  -3 -19 520.330 376.621   2
  -2   3 -19 1317.88 534.148   5
   3   2 -19 1650.37 560.497   3
  -3  -2 -19 2457.20 720.998   5
  -2   3 -18 1028.24 458.485   5
   2  -3 -18-76.5387 437.227   2
   3   2 -18 319.531 258.425   3
  -3  -2 -18 665.552 333.378   5
   2  -3 -17 730.660 291.815   2
  -2   3 -17 408.627 267.432   5
   3   2 -17 1612.45 651.740   3
  -3  -2 -17 752.275 376.890   5
  -2   3 -16-223.178 383.950   5
   3   2 -16 69.7901 289.177   3
  -3  -2 -16 339.462 266.208   5
   2  -3 -16 148.491 249.515   2
  -2   3 -15 3428.14 828.290   5
  -3  -2 -15 3393.05 477.981   3
   3   2 -15 3104.72 722.834   3
   3   2 -14 1421.58 496.765   3
  -2   3 -14 1359.39 472.104   5
  -3  -2 -14 1562.96 310.563   3
  -2   3 -13 591.245 448.137   5
   3   2 -13 318.298 351.718   3
  -3  -2 -13 775.683 228.359   3
   3   2 -12 691.759 355.034   3
  -3  -2 -12 1146.91 239.893   3
   3   2 -11 1134.98 376.755   3
  -3  -2 -11 1141.61 210.926   3
   3  -2  11 927.745 123.308   2
   3   2 -10 1235.88 370.135   3
  -2   3 -10 1452.06 488.176   5
  -3  -2 -10 1420.04 218.283   3
   2  -3 -10 1139.68 189.415   5
   3  -2  10 1588.69 207.074   2
   3   2  -9 4270.38 677.387   3
   2  -3  -9 3939.40 405.274   5
  -3  -2  -9 3932.66 353.362   3
   3  -2   9 4186.59 410.449   2
  -3   2   9 4516.20 610.830   1
  -2   3  -9 4124.60 805.715   5
   3   2  -8 15707.1 1356.85   3
  -3   2   8 17146.7 963.289   5
   2  -3  -8 13297.1 931.151   5
  -3  -2  -8 15241.6 808.683   3
  -2  -3   8 15003.3 1321.03   1
  -3   2   8 14805.2 1153.23   1
   3   2  -8 14621.5 798.219   4
   3   2  -7 3211.03 551.436   3
  -3   2   7 3454.37 397.006   5
  -2  -3   7 3014.66 538.887   1
   2  -3  -7 2787.14 381.882   5
  -2   3  -7 3316.71 664.817   5
  -3   2   7 3281.18 471.310   1
   3   2  -7 3400.19 337.791   4
   3   2  -6 8243.06 884.122   3
  -2   3  -6 9248.96 1132.03   5
   2  -3  -6 8281.92 733.910   5
  -3   2   6 7925.77 682.071   5
  -3   2   6 9661.62 814.283   1
  -2  -3   6 8653.99 926.903   1
  -3   2   5 18677.3 1185.52   5
   2  -3  -5 16655.3 1172.42   5
   3   2  -5 18184.3 1348.27   3
  -3  -2  -5 16663.7 834.539   3
  -2   3  -5 21364.3 1723.81   5
  -2  -3   5 18189.6 1400.58   1
  -3   2   5 17495.8 1178.49   1
  -2  -3   4 4150.12 607.835   1
  -3  -2  -4 3337.79 280.263   3
  -3   2   4 4097.45 527.201   5
   2  -3  -4 3960.57 512.000   5
  -2   3  -4 4124.91 698.531   5
  -3   2   4 3586.54 463.304   1
  -3  -2  -4 3839.03 609.170   1
   3  -2   4 3648.05 507.487   1
  -3  -2  -3 9195.89 970.805   1
  -2   3  -3 11862.6 1157.04   5
  -3  -2  -3 8627.51 560.231   3
  -3   2   3 11675.4 975.431   5
   2  -3  -3 10287.7 894.680   5
  -2  -3   3 10474.7 983.424   1
   3  -2   3 9801.27 831.843   1
  -3   2   3 10655.0 838.448   1
  -3   2   2 17193.0 1123.30   1
  -3  -2  -2 15562.8 1311.17   1
  -3  -2  -2 14820.1 861.003   3
  -2   3  -2 17890.9 1444.89   5
  -3   2   2 17571.1 1293.44   5
  -2  -3   2 17530.7 1323.25   1
   3  -2   2 15633.6 1105.19   1
  -3  -2  -1 4763.51 434.977   3
  -3   2   1 5737.01 595.684   1
  -2   3  -1 5910.08 759.424   5
  -2  -3   1 4233.71 597.858   1
  -3   2   1 6313.89 745.831   5
   3  -2   1 4991.05 558.480   1
   2   3   1 5501.81 695.254   4
  -3  -2  -1 4848.00 705.983   1
  -2   3   0 50421.8 2675.15   5
  -3  -2   0 42724.3 2138.05   3
  -3   2   0 52179.5 2717.52   5
   2   3   0 48922.2 2590.08   4
  -2  -3   0 48608.3 2580.69   1
  -3  -2   0 40997.0 2604.09   1
   3  -2   0 45648.9 2325.80   1
  -2   3   1 5535.60 671.646   5
  -3   2  -1 7053.06 826.130   5
  -3  -2   1 4738.65 503.369   3
   2  -3   1 4795.40 353.866   1
   2   3  -1 5441.77 658.438   4
  -3  -2   1 5094.76 723.675   1
   3  -2  -1 5372.55 559.398   1
  -2  -3  -1 5785.60 712.740   1
  -2  -3  -2 17195.1 1270.14   1
  -3   2  -2 19504.6 1496.73   5
  -3  -2   2 16163.7 1080.66   3
   2   3  -2 15722.6 1155.97   4
   2  -3   2 14693.6 823.915   1
   2  -3   3 8918.12 619.980   1
  -2  -3  -3 11047.5 990.945   1
  -3   2  -3 11246.1 1143.02   5
  -3  -2   3 9654.75 835.746   3
  -3  -2   3 7659.21 926.656   1
   2   3  -3 9976.08 849.277   4
  -2   3   4 3115.23 247.184   1
  -3  -2   4 3782.77 520.943   3
   2   3  -4 3652.94 469.269   4
  -3  -2   4 4358.05 676.537   1
  -3   2  -4 4646.88 742.643   5
  -3   2  -5 21438.6 1754.77   5
  -3  -2   5 16044.2 1432.61   1
  -2   3   5 17852.7 898.864   1
   2   3  -5 17036.9 1150.98   4
   3  -2  -5 18807.9 1565.93   2
  -2   3   5 18214.5 1480.27   4
   2   3  -6 8714.23 739.298   4
  -3   2  -6 11931.5 1299.17   5
  -2   3   6 8299.61 571.892   1
  -3  -2   6 8714.92 988.878   1
   3  -2  -6 8633.70 1016.28   2
  -2   3   6 9081.31 1007.99   4
   3  -2  -7 3473.21 653.303   2
  -2   3   7 3926.99 659.352   4
  -3   2  -7 4903.16 869.161   5
  -3  -2   7 2548.63 519.593   1
   2   3  -7 3634.28 441.250   4
  -3  -2   8 14277.8 1365.62   1
   3  -2  -8 17513.1 1557.83   2
  -2   3   8 15804.3 1400.43   4
   2   3  -8 16940.2 1043.43   4
   3  -2  -9 5019.09 807.172   2
  -2   3   9 4740.67 708.089   4
  -3  -2   9 3158.28 591.438   1
  -3   2  -9 6253.57 1044.02   5
   3  -2 -10 1883.46 497.348   2
  -2   3  10 1040.11 376.858   4
  -3  -2  10 1496.51 415.357   1
   3  -2 -11 1213.64 395.559   2
  -2   3  11 1275.48 430.665   4
  -3   2 -11 1656.79 564.909   5
  -2   3  12 565.619 262.587   4
   3  -2 -12 744.917 396.633   2
  -3   2 -12 1255.36 495.530   5
  -2   3  13 271.509 148.370   4
   3  -2 -13 607.532 374.594   2
  -3   2 -13 372.676 270.416   5
  -2   3  14 1613.76 435.697   4
   3  -2 -14 1463.36 491.156   2
  -2   3  15 2468.57 571.106   4
   3  -2 -15 2784.97 639.849   2
  -3   2 -15 4240.53 949.542   5
  -2   3  16 90.3596 148.835   4
   3  -2 -16 175.905 208.863   2
  -3   2 -16-388.707 468.942   5
  -2   3  17 1251.99 420.552   4
   3  -2 -17 649.000 368.659   2
  -3   2 -17 1202.00 486.725   5
  -2   3  18-14.4400 198.971   4
   3  -2 -18 47.4804 221.560   2
  -3   2 -18 56.2094 283.767   5
  -2  -3 -18 135.327 192.796   3
  -2   3  19 1469.83 451.716   4
   3  -2 -19 832.123 423.746   2
  -3   2 -19 868.402 488.246   5
  -2  -3 -19 1226.62 473.532   5
  -2  -3 -19 1688.69 530.830   3
  -2   3  20 792.146 401.619   4
   3  -2 -20 1107.67 490.128   2
  -3   2 -20 804.445 535.159   5
   3  -2 -21 1315.79 520.678   2
  -3   2 -21 1209.85 505.367   5
   3  -2 -21 603.937 354.021   3
   3  -2 -22 783.634 461.846   2
  -3   2 -22 654.989 477.086   5
   3  -2 -23 1283.07 585.620   2
  -3   2 -23 1405.64 630.844   5
  -3  -3   0 43713.4 2344.71   3
  -3   3   0 48732.8 2705.95   5
   3  -3   0 45261.2 2120.13   1
  -3  -3   0 43290.3 2706.21   1
  -3  -3  -1 473.935 362.199   1
  -3  -3  -1 828.563 240.625   3
  -3  -3   1 603.773 203.831   3
   3  -3   1 553.201 185.984   1
  -3  -3   1 635.499 338.440   1
  -3   3  -1 720.508 325.761   5
  -3   3   1 720.415 314.054   5
  -3  -3  -2 2616.69 386.135   3
  -3  -3   2 3143.91 600.202   1
  -3   3   2 3235.67 549.108   5
  -3   3  -2 3157.37 595.542   5
   3  -3   2 2807.01 376.195   1
  -3  -3  -2 3433.67 601.006   1
  -3  -3   3 871.578 300.560   1
  -3  -3  -3 502.419 178.852   3
   3  -3   3 680.419 191.069   1
  -3   3  -3 607.889 256.915   5
  -3  -3  -3 1096.89 336.814   1
   3   3  -3 794.915 244.387   4
  -3   3   3 653.283 271.801   5
  -3   3   4 11082.3 747.742   1
  -3  -3  -4 10879.5 1147.81   1
  -3   3   4 11694.7 1023.99   5
  -3   3  -4 9458.04 1147.26   5
  -3  -3   4 10632.4 1131.15   1
   3   3  -4 9855.46 870.394   4
   3  -3   4 8422.88 748.531   1
  -3   3  -5 76.0018 231.530   5
  -3   3   5 271.971 151.728   5
   3  -3   5 307.275 160.136   1
  -3   3   5 67.0408 115.283   1
  -3  -3   5-87.2806 261.829   1
   3   3  -5 196.450 111.011   4
   3  -3  -6 4288.33 524.132   5
   3  -3   6 4920.45 629.396   1
  -3   3  -6 5493.00 889.592   5
  -3  -3   6 4127.29 714.494   1
   3   3  -6 4220.78 496.926   4
  -3   3   6 4226.75 452.869   1
   3   3  -7 770.814 198.756   4
  -3   3  -7 1510.64 542.199   5
  -3  -3   7 515.627 193.603   1
   3  -3  -7 1076.05 260.290   5
  -3   3   7 1170.67 243.146   1
  -3   3  -8 12939.4 1482.91   5
  -3  -3   8 10349.9 1163.25   1
  -3   3   8 10752.1 868.948   1
   3   3  -8 10584.2 775.301   4
  -3   3  -9 11749.2 1407.57   5
  -3  -3   9 8572.94 1064.23   1
  -3   3   9 9392.32 830.495   1
   3   3  -9 8394.81 639.713   4
  -3  -3  10 3880.93 714.699   1
  -3   3 -10 3247.63 763.347   5
  -3   3  10 3758.02 540.532   1
  -3   3 -11 673.709 382.697   5
  -3  -3  11 791.330 359.556   1
  -3   3 -12 16570.1 1834.15   5
  -3  -3  12 12635.4 1439.68   1
   3  -3 -12 12383.8 1453.59   2
  -3   3 -13 28443.0 2531.02   5
   3  -3 -13 21890.0 2063.43   2
   3  -3 -14 448.293 279.397   2
  -3   3 -14 647.543 468.758   5
   3  -3 -15 19427.5 1956.27   2
  -3   3  15 17820.0 1612.30   4
   3  -3 -16 589.026 521.142   2
  -3   3  16 227.859 240.738   4
  -3   3 -16 1145.31 591.281   5
   3  -3 -17 1012.01 382.789   2
  -3   3  17 1571.84 485.103   4
  -3   3 -17 2399.58 688.856   5
   3  -3 -18 2374.31 643.041   2
  -3   3  18 2546.88 604.368   4
  -3   3 -18 1948.78 723.788   5
   3  -3 -19-88.7117 207.214   2
  -3   3 -19-392.169 581.034   5
  -3  -3 -19-121.740 359.334   5
   3  -3 -20 554.281 436.109   2
  -3   3 -20 1290.86 544.879   5
  -3  -3 -20 686.781 505.083   5
   3  -3 -21 5243.17 1031.53   2
  -3   3 -21 7897.78 1461.47   5
  -3  -3 -21 6388.19 1149.96   5
  -4   0   0 6073.90 807.966   1
   0  -4   0 6052.27 502.073   1
   0   4   0 5892.29 800.365   4
  -4   0  -1 44058.3 2621.71   1
   0   4   1 47499.0 2770.34   4
   0  -4   1 44039.7 2111.86   1
   0   4  -1 45233.8 2644.31   4
  -4   0   1 45365.3 2680.35   1
  -4   0  -2 9802.49 1073.24   1
   0  -4   2 11382.2 788.522   1
   0   4   2 13292.5 1287.22   4
   0   4  -2 10721.7 1066.37   4
  -4   0   2 11529.1 1157.19   1
  -4   0  -3 36296.1 2299.97   1
   0  -4   3 36468.6 1830.88   1
   0   4   3 32459.9 2298.29   4
  -4   0   3 37506.3 2308.91   1
   0   4  -3 32581.6 2123.79   4
   0   4   4 97.9757 50.5524   1
   0   4   4 138.087 210.010   4
  -4   0  -4 92.8388 170.758   2
   0   4  -4 241.379 174.781   4
  -4   0   4-5.26860 149.477   1
   0  -4   4 218.986 118.977   1
  -4   0   5 102.231 197.611   1
  -4   0  -5 704.557 270.492   2
   0   4   5 390.295 240.409   4
   4   0   5 154.804 59.0704   3
   0   4   5 271.420 131.915   1
  -4   0  -5 364.268 347.820   5
  -4   0   6 5957.71 829.428   1
   0   4   6 6636.74 594.118   1
   0   4   6 8194.64 1031.02   4
  -4   0  -7 25209.9 2006.29   5
   4   0  -7 23722.0 1842.88   3
  -4   0   7 19677.4 1668.16   1
   0   4   7 24348.5 1917.85   4
   0   4   7 21736.9 1338.10   1
   0   4   8 45.8732 92.1468   1
   0   4   8 154.042 242.724   4
   4   0  -8 146.762 126.779   4
  -4   0   8 130.921 226.286   1
  -4   0  -8 530.480 297.653   5
   4   0  -8-68.3893 222.166   3
   0   4   9 16424.8 1175.15   1
   4   0  -9 18527.3 1693.85   3
  -4   0   9 16249.8 1488.49   1
  -4   0  -9 17174.4 1653.14   5
   0   4   9 16356.3 1547.78   4
   4   0  -9 16322.4 1100.24   4
   4   0 -10 51748.4 3181.76   3
  -4   0 -10 43548.1 2971.38   5
  -4   0  10 43951.9 2830.71   1
   0   4  10 43868.9 2898.00   4
   0   4  11 5304.18 864.414   4
  -4   0 -11 5659.25 952.753   5
  -4   0  11 6702.85 967.111   1
   4   0 -11 5915.50 988.128   3
   0   4  12-244.416 282.322   4
  -4   0  12 386.541 315.574   1
  -4   0 -12-251.351 225.377   5
   4   0 -12-69.6244 290.230   3
   4   0 -13 9123.58 1247.30   3
  -4   0 -13 5972.20 917.618   5
  -4   0  13 8140.07 1119.01   1
   0   4  13 5542.42 908.973   4
   4   0 -14 54619.9 3589.43   3
  -4   0 -14 46910.4 3152.29   5
  -4   0  14 54407.4 3446.82   1
   0   4  14 47049.6 3131.41   4
  -4   0 -15 5601.92 957.147   5
   4   0 -15 5737.31 1064.06   3
   0   4  15 5762.10 910.644   4
  -4   0 -16 3970.48 827.168   5
   4   0 -16 4557.51 930.989   3
   0   4  16 2855.34 678.251   4
   4   0 -17 10354.7 1459.08   3
  -4   0 -17 8748.50 1268.75   5
   0   4  17 8696.00 1184.36   4
  -4   0 -18 991.429 510.796   5
   4   0 -18 793.677 369.410   3
   0   4  18 741.156 352.395   4
  -4   0 -19 1226.91 587.861   5
   4   0 -19 1036.61 491.855   3
   0   4  19 850.546 446.527   4
  -4   0 -20 677.330 457.779   5
   4   0 -20 549.351 365.115   3
   0   4  20 835.963 387.248   4
  -4   0 -21 2401.60 712.959   5
   4   0 -21 2510.37 745.936   3
   0   4  21 2214.54 705.568   4
  -4   0 -22 12648.6 1710.73   5
   0   4  22 13435.7 1684.28   4
   0   4  23 2006.05 648.592   4
   0   4  24 2672.49 804.613   4
   1  -4 -23 384.933 297.765   2
  -4  -1 -23-28.4055 230.692   5
   1  -4 -22 1634.62 582.290   2
  -4  -1 -22 2623.24 727.332   5
   1   4  22 909.709 367.023   4
   4   1 -21 2692.80 852.320   3
  -4  -1 -21 2580.30 737.541   5
   1   4  21 3007.72 785.345   4
   4   1 -20 1476.19 575.065   3
  -4  -1 -20 1620.76 566.538   5
   1   4  20 1551.40 489.208   4
  -4  -1 -19 3874.98 827.810   5
   4   1 -19 4267.48 973.982   3
   1   4  19 4400.78 854.034   4
   1   4  18 1997.55 616.615   4
   4   1 -18 1763.56 522.611   3
  -4  -1 -18 986.074 461.844   5
   4   1 -17 888.826 499.461   3
  -4  -1 -17 1002.46 445.232   5
   1   4  17 290.940 280.990   4
   4   1 -16 2888.01 741.418   3
  -4  -1 -16 2856.60 688.655   5
   1   4  16 2564.43 623.734   4
   4   1 -15 1715.31 524.351   3
  -4  -1 -15 1925.97 589.042   5
   1   4  15 1194.18 393.037   4
   4   1 -14 9469.48 1273.17   3
  -4  -1 -14 8973.01 1266.82   5
  -4   1  14 8176.43 1120.61   1
   1   4  14 9091.81 1147.19   4
   4   1 -13 15254.3 1597.21   3
  -4  -1 -13 16361.6 1674.31   5
  -4   1  13 14711.4 1506.95   1
   1   4  13 14030.6 1437.32   4
  -4   1  12 1274.85 492.582   1
  -4  -1 -12 1660.44 485.201   5
   1   4  12 1241.21 403.288   4
   4   1 -12 1282.79 424.300   3
   4   1 -11 12328.4 1305.32   3
  -4   1  11 10976.8 749.037   5
  -4  -1 -11 10558.6 1300.82   5
  -4   1  11 10770.7 1197.42   1
   1   4  11 10659.8 1205.41   4
  -4   1  10 3944.94 422.713   5
  -4   1  10 4335.51 692.766   1
   4   1 -10 5030.57 789.265   3
   1   4  10 4270.09 731.512   4
  -4   1   9 1460.06 423.914   1
   4   1  -9 1975.75 473.842   3
  -4   1   9 2212.02 315.584   5
   1   4   9 2060.53 498.583   4
  -4  -1  -8 12320.0 975.505   2
   4  -1   8 14064.2 1035.34   3
   4   1  -8 12809.6 1182.10   3
  -4   1   8 12777.8 928.965   5
  -4   1   8 12316.3 1200.31   1
   1   4   8 13473.5 1339.97   4
  -4  -1  -7 9813.32 869.366   2
   4   1  -7 10181.4 997.243   3
  -4   1   7 10280.7 851.042   5
  -1  -4   7 11449.6 1058.02   1
  -4   1   7 9635.07 1031.98   1
   1   4   7 10737.3 1182.67   4
  -4  -1  -6 976.787 283.099   2
  -1  -4   6 1313.05 342.941   1
   4   1  -6 631.991 266.671   3
  -4   1   6 991.649 228.671   5
  -4   1   6 883.125 314.988   1
   1   4   6 823.432 299.889   4
   4   1  -5 15241.9 1186.09   3
  -4   1   5 18011.6 1292.33   5
  -1  -4   5 17718.2 1314.70   1
   1   4   5 16018.6 1231.56   1
  -4   1   5 17182.7 1378.76   1
   1   4   5 19739.7 1640.13   4
   4   1  -4 15728.4 1161.93   3
  -4   1   4 19140.9 1389.66   5
   1   4   4 17086.2 1261.35   1
  -1  -4   4 18069.5 1312.34   1
   1   4   4 20438.5 1644.37   4
  -4   1   4 18342.2 1425.27   1
   4  -1   3 5772.97 651.727   2
  -4  -1  -3 5870.12 813.290   1
   4   1  -3 5276.97 559.244   3
  -4   1   3 5954.92 748.130   5
   1   4   3 5730.00 642.133   1
  -1  -4   3 6413.94 698.406   1
   1   4   3 6447.09 859.096   4
  -4   1   3 5618.45 756.688   1
   1   4   2 1393.39 426.727   4
  -1  -4   2 1659.21 322.429   1
  -4  -1  -2 1299.02 378.465   1
   4  -1   2 850.160 243.525   2
   1   4   2 796.250 238.098   1
   4   1  -2 1448.58 254.051   3
  -4   1   2 997.867 327.809   5
  -4   1   2 1113.68 342.762   1
   4  -1   1 5642.50 681.878   2
  -4   1   1 5524.37 735.363   1
  -4  -1  -1 5598.29 812.908   1
   4   1  -1 5482.91 516.354   3
  -4   1   1 6381.45 812.371   5
   1   4   1 5286.88 769.155   4
  -1  -4   1 5620.14 626.606   1
  -1   4  -1 5613.43 769.917   4
   1   4   0 951.753 337.743   4
  -4  -1   0 1061.00 365.657   1
  -4   1   0 1766.81 443.531   1
  -1   4   0 1233.11 363.377   4
   4  -1   0 991.255 283.773   2
   4   1   0 1492.10 256.509   3
  -4   1   0 1497.23 374.858   5
  -1  -4   0 1439.39 325.668   1
  -1  -4  -1 5676.85 612.875   1
  -4   1  -1 6322.99 781.616   1
  -4   1  -1 6468.56 827.815   5
   1   4  -1 5593.22 761.819   4
  -1   4   1 4709.47 732.710   4
  -4  -1   1 5148.89 788.524   1
   4  -1  -1 5461.74 703.143   2
   1   4  -2 1280.53 382.633   4
  -1   4   2 919.341 306.120   4
   4  -1  -2 1385.43 349.574   2
  -4  -1   2 1207.41 398.044   1
  -1  -4  -2 1035.20 271.790   1
  -4   1  -2 2155.14 533.921   5
   1  -4   2 885.894 134.712   1
  -4   1  -3 5950.72 848.642   5
   1  -4   3 5271.41 427.947   1
  -4  -1   3 6374.61 853.143   1
   1   4  -3 5061.84 698.336   4
  -1   4   3 6366.21 854.121   4
   4  -1  -3 5545.27 770.330   2
  -4   1  -4 20020.8 1642.33   5
  -4  -1   4 17768.2 1544.83   1
   1   4  -4 16929.5 1358.08   4
  -1   4   4 18351.4 1607.10   4
   4  -1  -4 18399.6 1525.41   2
  -4   1  -5 17813.7 1582.95   5
  -4  -1   5 17809.6 1535.48   1
  -1   4   5 20948.7 1736.28   4
   1   4  -5 16387.8 1321.84   4
   4  -1  -5 18617.6 1587.13   2
  -1   4   6 1317.56 406.726   4
   1   4  -6 1285.50 316.251   4
   4  -1  -6 1175.00 367.444   2
  -4   1  -6 1070.54 401.954   5
  -4  -1   6 799.474 318.903   1
  -4   1  -7 11559.9 1284.36   5
  -4  -1   7 10626.2 1182.00   1
  -1   4   7 12954.0 1346.13   4
  -1   4   7 10557.4 658.096   1
   4  -1  -7 12484.5 1311.33   2
  -1   4   8 12769.9 834.487   1
  -4   1  -8 16546.4 1580.02   5
  -4  -1   8 14451.6 1400.57   1
  -1   4   8 16117.5 1548.66   4
   4  -1  -8 16939.7 1567.59   2
  -1   4   9 2880.61 650.322   4
   4  -1  -9 2528.44 595.919   2
  -4  -1   9 2163.58 526.827   1
  -4   1  -9 2649.82 656.846   5
  -1   4  10 4831.47 829.213   4
   4  -1 -10 5838.11 916.913   2
  -4  -1  10 5820.39 901.206   1
  -4   1 -10 4765.43 885.253   5
  -4   1 -11 10506.7 1349.40   5
  -4  -1  11 12874.7 1413.90   1
  -1   4  11 12985.2 1399.60   4
   4  -1 -11 11163.7 1367.92   2
  -1   4  12 1254.67 480.046   4
  -4  -1  12 1491.84 508.803   1
   4  -1 -12 988.502 423.129   2
  -4   1 -12 1385.32 453.653   5
   4  -1 -13 15520.0 1654.92   2
  -4   1 -13 14329.3 1618.83   5
  -4  -1  13 17104.8 1720.88   1
  -1   4  13 15056.3 1590.41   4
   4  -1 -14 9986.12 1339.81   2
  -4   1 -14 8113.50 1224.33   5
  -4  -1  14 10618.5 1383.69   1
  -1   4  14 10489.8 1311.86   4
  -1   4  15 1883.77 533.485   4
   4  -1 -15 2116.61 657.803   2
  -4   1 -15 2135.37 677.916   5
  -1   4  16 2464.96 667.033   4
   4  -1 -16 3190.40 779.571   2
  -4   1 -16 3065.57 856.524   5
   4  -1 -16 3121.26 731.051   3
  -1   4  17 917.819 386.602   4
   4  -1 -17 1657.30 671.105   2
  -4   1 -17 749.788 456.396   5
   4  -1 -17 196.428 324.220   3
  -1   4  18 2049.97 619.637   4
   4  -1 -18 2226.81 736.290   2
  -4   1 -18 986.172 489.964   5
   4  -1 -18 478.042 397.878   3
  -1   4  19 3013.02 746.825   4
  -4   1 -19 3311.53 903.188   5
   4  -1 -19 4045.93 996.978   3
  -1   4  20 1232.28 442.849   4
  -4   1 -20 1769.26 707.236   5
   4  -1 -20 2119.47 706.333   3
  -1   4  21 1939.24 533.343   4
  -4   1 -21 4100.72 1046.50   5
  -1   4  22 2241.45 741.988   4
  -1   4  23-249.444 395.374   4
  -4  -2 -22-133.242 452.480   5
   2  -4 -21 1420.84 638.184   2
  -4  -2 -21 1557.01 610.464   5
   2  -4 -20 176.042 265.028   2
  -4  -2 -20 285.601 407.562   5
   2   4  20 161.294 369.681   4
   4   2 -19 1230.74 512.600   3
  -4  -2 -19 512.595 435.094   5
   2  -4 -19-101.234 372.394   2
   2   4  19 573.001 328.899   4
   4   2 -18 2019.69 725.342   3
  -4  -2 -18 1533.12 531.937   5
   2   4  18 3055.73 790.178   4
  -2   4 -17 2914.83 916.104   5
   4   2 -17 1304.23 603.876   3
  -4  -2 -17 1800.85 664.624   5
   2   4  17 1124.74 451.258   4
  -2   4 -16 5764.86 1201.72   5
   4   2 -16 4405.21 921.197   3
  -4  -2 -16 4312.50 944.847   5
   2   4  16 3824.05 844.901   4
  -2   4 -15 572.303 280.217   5
  -4   2  15 817.279 356.624   1
   4   2 -15 757.305 406.808   3
   2   4  15 895.904 412.950   4
  -4   2  14 888.663 377.879   1
  -2   4 -14 924.472 602.064   5
   4   2 -14 756.440 414.768   3
   2   4  14 804.306 370.244   4
  -4   2  13 1296.42 410.211   1
  -2   4 -13 1326.43 653.102   5
   4   2 -13 1187.01 472.801   3
   2   4  13 1449.86 464.044   4
  -4   2  12 758.902 350.844   1
  -2   4 -12 312.529 441.594   5
   4   2 -12 512.714 240.160   3
   2   4  12 540.541 362.210   4
  -2   4 -11 2921.96 820.894   5
   4   2 -11 1559.97 453.651   3
  -4   2  11 1553.50 391.265   1
   2   4  11 1752.08 582.557   4
   4   2 -10 631.940 283.740   3
  -2  -4  10 1574.84 411.566   1
  -2   4 -10 2080.97 645.798   5
  -4   2  10 1370.06 372.633   1
   2   4  10 838.169 377.431   4
   4  -2   9 5894.58 532.423   2
  -2   4  -9 8305.01 1271.77   5
  -4   2   9 7853.35 693.909   5
   4   2  -9 4823.16 762.114   3
  -2  -4   9 5936.82 852.982   1
  -4   2   9 6809.46 834.952   1
   2   4   9 6954.28 996.291   4
   4   2  -8 6059.93 816.174   3
  -2   4  -8 7399.69 1193.61   5
  -4   2   8 6661.71 686.444   5
  -2  -4   8 6161.88 852.339   1
  -4   2   8 5851.62 750.800   1
   2   4   8 5007.81 849.336   4
   4  -2   8 5419.36 514.241   2
   4   2  -7 9180.04 997.174   3
  -4   2   7 11014.8 946.922   5
  -2  -4   7 9169.08 1036.59   1
  -4   2   7 8827.68 926.711   1
   2   4   7 10659.8 1244.21   4
   4  -2   7 9021.06 748.747   2
   4  -2   6 1493.50 295.186   2
  -4   2   6 1100.75 321.474   1
   4   2  -6 1736.46 415.278   3
  -4   2   6 974.156 270.300   5
  -2  -4   6 1816.62 449.849   1
   2   4   6 1428.30 451.091   4
   4  -2   5 3342.21 483.088   2
   4   2  -5 3778.49 572.523   3
  -4   2   5 3884.23 592.568   1
  -4   2   5 3941.95 562.718   5
  -2  -4   5 4265.78 668.590   1
   2   4   5 3336.31 647.770   4
  -4  -2  -4 6418.81 905.210   1
  -4   2   4 7288.77 790.406   5
  -2  -4   4 7097.20 878.626   1
   2   4   4 7647.61 993.398   4
   4  -2   4 7094.07 766.143   2
  -4   2   4 5780.01 731.521   1
  -4  -2  -3 3142.72 615.682   1
  -2  -4   3 3322.53 566.322   1
   4  -2   3 3410.42 550.583   2
  -4   2   3 3747.31 554.976   1
  -4   2   3 3288.31 542.414   5
   2   4   3 3864.50 686.046   4
  -4   2   2 10380.4 977.603   1
  -4  -2  -2 10859.3 1186.57   1
  -4   2   2 9146.52 941.930   5
   2   4   2 10507.8 1146.28   4
  -2  -4   2 9851.47 998.702   1
   4  -2   2 10783.5 1067.15   2
  -4  -2  -1 6798.19 933.542   1
  -4   2   1 7458.62 812.448   1
  -4   2   1 6710.34 811.811   5
   2   4   1 6528.30 847.255   4
   4  -2   1 7769.42 920.809   2
  -2  -4   1 6919.95 831.082   1
  -4  -2   0 222.117 304.301   1
   4  -2   0-88.1799 165.651   2
  -4   2   0 442.944 268.750   5
   2   4   0 112.473 177.258   4
  -2  -4   0 84.9182 138.302   1
  -2  -4  -1 7660.73 868.907   1
  -4   2  -1 6864.24 879.436   5
   2   4  -1 7012.64 856.424   4
   4  -2  -1 8554.29 995.087   2
  -4  -2   1 7677.22 1017.09   1
  -2  -4  -2 9446.10 971.219   1
  -4   2  -2 9556.17 1081.48   5
   2   4  -2 8581.32 946.046   4
  -4  -2   2 9916.22 1153.39   1
   4  -2  -2 10149.5 1122.48   2
   2   4  -3 3201.58 558.080   4
   4  -2  -3 3830.73 673.117   2
  -2  -4  -3 2673.16 482.031   1
  -4  -2   3 3991.29 683.371   1
  -4   2  -3 3320.23 618.062   5
   2  -4   3 2819.11 256.426   1
  -4   2  -4 8142.23 1062.49   5
   2  -4   4 6308.63 501.576   1
  -4  -2   4 6674.05 920.706   1
   2   4  -4 7434.63 820.037   4
   4  -2  -4 7062.25 958.617   2
  -2   4   4 6803.71 934.165   4
  -4  -2   5 2852.63 584.354   1
   2   4  -5 3279.52 539.919   4
   4  -2  -5 3735.73 713.504   2
  -2   4   5 3477.96 680.932   4
  -4   2  -5 4392.19 768.420   5
   2   4  -6 1268.95 327.520   4
   4  -2  -6 2198.00 584.466   2
  -2   4   6 1886.94 519.509   4
  -4   2  -6 1656.82 488.122   5
  -4  -2   6 1743.99 476.297   1
  -4   2  -7 11424.5 1379.68   5
  -4  -2   7 9757.30 1172.01   1
   2   4  -7 8835.61 874.581   4
  -2   4   7 9029.74 1119.86   4
   4  -2  -7 10551.2 1218.99   2
  -4   2  -8 6850.08 1086.33   5
  -4  -2   8 5519.02 865.522   1
  -2   4   8 6461.35 947.305   4
   2   4  -8 5462.56 648.101   4
   4  -2  -8 6457.64 958.195   2
  -4   2  -9 7110.11 1095.54   5
  -4  -2   9 5856.60 916.029   1
  -2   4   9 6461.11 946.753   4
   4  -2  -9 6360.47 960.763   2
  -2   4  10 942.168 381.154   4
   4  -2 -10 1821.22 529.729   2
  -4  -2  10 1311.20 491.457   1
  -4   2 -10 1530.23 456.108   5
  -2   4  11 2282.90 570.344   4
   4  -2 -11 1511.69 510.739   2
  -4  -2  11 1395.80 499.159   1
  -4   2 -11 1545.79 524.150   5
  -2   4  12-4.65443 215.184   4
   4  -2 -12 500.839 252.047   2
  -4  -2  12 702.667 378.535   1
  -4   2 -12 172.215 369.954   5
  -2   4  13 1520.70 496.046   4
   4  -2 -13 1372.29 411.841   2
  -4  -2  13 925.345 362.522   1
  -4   2 -13 265.766 420.043   5
  -2   4  14 896.044 285.090   4
   4  -2 -14 548.376 295.848   2
  -4  -2  14 232.334 243.857   1
  -4   2 -14 877.132 525.503   5
  -2   4  15 697.330 346.461   4
   4  -2 -15 212.269 264.032   2
  -4  -2  15 1003.23 473.396   1
  -4   2 -15 277.316 319.038   5
  -2   4  16 4430.83 854.731   4
   4  -2 -16 3640.65 815.951   2
  -4  -2  16 3351.60 823.027   1
  -4   2 -16 4763.13 1102.30   5
  -2   4  17 1742.08 564.439   4
   4  -2 -17 1794.98 605.605   2
  -4   2 -17 1412.24 689.321   5
  -4  -2  17 2224.74 694.613   1
  -2   4  18 1359.53 502.190   4
   4  -2 -18 2232.45 662.332   2
  -4   2 -18 1395.03 646.664   5
   4  -2 -19 280.333 225.716   2
  -4   2 -19-101.062 339.767   5
  -2   4  20 626.328 415.149   4
   4  -2 -20 536.018 341.920   2
  -4   2 -20 825.751 577.234   5
  -4  -3 -21-111.416 412.626   5
  -4  -3 -20-294.899 509.715   5
  -4  -3 -19 1841.32 768.813   5
   3  -4 -18 722.333 474.516   2
  -3   4 -18-278.368 512.627   5
   3  -4 -17 1022.81 606.248   2
  -3   4 -17 606.550 473.650   5
  -3   4 -16 1103.81 560.847   5
  -3  -4  16 527.464 313.417   1
   3  -4 -16 516.181 358.353   2
  -3  -4  15 2226.83 593.546   1
  -3   4 -15 2099.13 733.992   5
  -3  -4  14 2544.40 678.885   1
  -3   4 -14 4621.38 1133.97   5
  -3  -4  13 1868.14 560.134   1
  -3   4 -13 3595.18 985.719   5
  -3  -4  12 1711.99 560.880   1
  -3   4 -12 1886.17 693.610   5
  -3   4 -11 1825.39 702.188   5
  -3  -4  11 1803.93 539.221   1
  -3   4 -10 10373.9 1537.00   5
  -3  -4  10 9097.52 1192.01   1
  -3  -4   9 2462.29 564.038   1
  -4   3   9 3985.70 570.141   1
  -3   4  -8 8163.74 1297.57   5
  -3  -4   8 7290.77 1031.14   1
  -4   3   8 8544.56 853.679   1
   4  -3   8 9519.93 948.737   2
  -4   3   7 810.705 335.820   5
  -3   4  -7 286.611 270.172   5
  -4   3   7 350.829 222.039   1
  -3  -4   7 259.535 176.725   1
  -4   3   6 1899.54 459.103   5
  -3   4  -6 683.100 271.108   5
  -4   3   6 1253.87 302.681   1
  -3  -4   6 1464.83 457.347   1
   4   3  -6 968.612 228.957   4
  -4   3   5 19216.5 1334.78   1
  -3   4  -5 24005.6 2101.95   5
  -4   3   5 22686.3 1633.72   5
   4   3  -5 18110.7 1308.61   4
  -3  -4   5 19273.7 1697.46   1
  -3  -4   4 1328.40 445.154   1
  -3   4  -4 1135.67 332.969   5
  -4   3   4 1351.85 377.245   5
  -4  -3  -4 1027.65 436.742   1
   3   4   4 1425.40 429.457   4
  -4   3   4 1651.65 334.888   1
  -4  -3  -3 21637.1 1865.88   1
  -3   4  -3 22672.7 1980.77   5
  -4   3   3 22471.5 1676.80   5
   3   4   3 23848.3 1939.56   4
  -3  -4   3 21356.5 1790.49   1
  -4  -3  -2 23594.1 1906.56   1
  -3   4  -2 22154.9 1931.29   5
  -4   3   2 22421.5 1697.64   5
   3   4   2 23203.6 1866.83   4
  -3  -4   2 22908.4 1848.88   1
  -4  -3  -1 7728.13 1057.92   1
  -3   4  -1 8227.56 1044.20   5
  -4   3   1 7518.42 922.076   5
   3   4   1 7721.34 964.887   4
  -3  -4   1 7257.39 980.093   1
  -3  -4   0 27659.5 2077.14   1
  -4  -3   0 32066.4 2306.34   1
  -3   4   0 31189.5 2219.66   5
  -4   3   0 28977.6 2060.06   5
   3   4   0 27604.0 2002.64   4
  -3  -4  -1 7558.95 950.089   1
  -4   3  -1 6206.69 886.574   5
   3   4  -1 7413.14 882.639   4
  -4  -3   1 6421.93 952.966   1
  -3  -4  -2 22109.7 1758.38   1
  -4   3  -2 22437.3 1825.80   5
   3   4  -2 20644.7 1573.28   4
  -4  -3   2 22625.0 1935.08   1
  -3  -4  -3 24005.2 1842.94   1
  -4   3  -3 22366.9 1883.73   5
   3   4  -3 21029.0 1572.16   4
   4  -3  -3 23695.4 1911.93   2
  -4  -3   3 23071.5 1948.84   1
  -4  -3   4 1596.39 560.477   1
  -4   3  -4 1680.35 527.049   5
   4  -3  -4 1391.74 442.077   2
   3   4  -4 1511.52 356.219   4
  -4   3  -5 21150.4 1922.07   5
  -4  -3   5 19047.7 1753.02   1
   3   4  -5 19652.3 1441.48   4
   4  -3  -5 18575.6 1725.22   2
  -4  -3   6 351.547 256.237   1
   3   4  -6 1590.19 359.176   4
   4  -3  -6 745.808 319.265   2
  -4   3  -6 1532.31 507.425   5
   3   4  -7 217.560 152.805   4
   4  -3  -7 1108.97 442.829   2
  -4   3  -7 709.405 418.091   5
  -4  -3   7 613.116 365.913   1
   4  -3  -8 6595.31 1017.53   2
  -4  -3   8 7929.08 1102.71   1
   4  -3  -9 3647.62 782.827   2
  -4   3  -9 5071.23 977.681   5
  -4  -3   9 3909.06 784.466   1
  -4   3 -10 11382.7 1539.80   5
  -4  -3  10 9683.81 1238.27   1
   4  -3 -10 7953.28 1165.37   2
   4  -3 -11 1422.18 524.066   2
  -4   3 -11 2233.38 740.251   5
  -4  -3  11 1243.95 417.572   1
   4  -3 -12 1125.30 472.881   2
  -4   3 -12 2024.64 728.823   5
  -4  -3  12 1733.04 543.749   1
   4  -3 -13 1949.80 622.650   2
  -4  -3  13 2506.46 674.001   1
  -4   3 -13 3803.39 959.260   5
  -4  -3  14 4033.76 895.578   1
   4  -3 -14 3215.14 796.668   2
  -3   4  14 3615.65 739.855   4
  -4   3 -14 4257.96 987.809   5
   4  -3 -15 2959.38 777.349   2
  -3   4  15 1480.50 459.640   4
  -4  -3  15 2023.90 663.619   1
  -4   3 -15 2180.78 777.122   5
   4  -3 -16 579.197 437.579   2
  -3   4  16 439.325 329.972   4
  -4  -3  16 730.627 332.458   1
  -4   3 -16 553.017 455.500   5
  -3   4  17-107.019 331.900   4
   4  -3 -17-174.331 200.261   2
  -4  -3  17 513.066 331.233   1
  -4   3 -17 2.06670 396.970   5
  -3   4  18-94.4847 294.677   4
   4  -3 -18-133.236 405.266   2
  -4   3 -18 62.3424 414.049   5
  -4  -4   0 13621.5 1497.87   1
  -4   4   0 14033.8 1507.79   5
   4   4   0 16319.0 1484.77   4
  -4  -4   1 3737.67 758.712   1
  -4   4   1 5749.08 924.752   5
  -4   4  -1 5542.46 905.940   5
  -4  -4  -1 4054.48 785.720   1
   4   4  -1 3684.59 661.237   4
  -4   4   2-82.3799 292.008   5
  -4   4  -2-116.927 233.776   5
  -4  -4  -2 139.040 224.597   1
  -4  -4   2 156.043 239.379   1
   4   4  -2 115.104 222.858   4
  -4  -4  -3 17333.5 1683.15   1
  -4   4   3 21001.9 1802.77   5
  -4   4  -3 19841.6 1860.53   5
   4   4  -3 15805.5 1367.79   4
  -4  -4   3 16411.7 1701.47   1
  -4  -4   4 4537.85 835.902   1
  -4   4  -4 6141.69 994.570   5
   4   4  -4 4560.84 667.735   4
  -4  -4   5 4359.99 815.569   1
  -4   4  -5 4536.12 887.094   5
  -4  -4   6 701.082 391.073   1
  -4   4  -6 84.8656 266.765   5
  -4  -4   7 1506.68 520.972   1
  -4   4  -7 2144.02 631.599   5
  -4   4  -8-222.544 320.784   5
  -4  -4   8 80.1238 186.624   1
  -4   4  -9 6963.64 1262.31   5
  -4  -4   9 4778.37 911.955   1
  -4   4 -10 1551.51 591.955   5
  -4  -4  10 1443.25 501.655   1
   4  -4 -10 1438.42 609.500   2
  -4   4 -11 21338.9 2382.78   5
  -4  -4  11 17111.5 1835.44   1
   4  -4 -11 18927.5 2052.42   2
   4  -4 -12 2228.28 721.530   2
  -4   4 -12 2813.38 821.420   5
  -4  -4  12 1991.21 603.703   1
   4  -4 -13 2277.14 713.569   2
  -4   4 -13 3170.64 923.158   5
  -4  -4  13 2204.03 706.279   1
   4  -4 -14 364.187 329.842   2
  -4   4 -14 772.906 587.165   5
  -4  -4  14 421.566 302.799   1
   4  -4 -15 8637.45 1416.52   2
  -4   4 -15 9422.94 1702.12   5
  -4  -4  15 6211.74 1230.97   1
   0   5   0 54.2752 211.846   4
   5   0   0 17.1376 134.104   3
  -5   0   0-257.332 198.624   1
   0   5   1 1341.71 428.397   4
   0   5  -1 1495.92 400.123   4
  -5   0   1 949.565 400.504   1
  -5   0  -1 1439.40 407.837   1
   5   0   1 1244.80 253.847   3
   5   0  -1 1280.54 333.595   3
   0  -5   1 1109.11 227.021   1
  -5   0   2 1522.58 459.003   1
   0   5   2 1271.73 481.087   4
   0   5  -2 455.111 291.328   4
  -5   0  -2 2634.02 753.465   5
   0  -5   2 1388.66 283.798   1
   5   0  -2 1217.08 342.953   3
  -5   0  -2 2060.35 554.858   1
   0   5   3 5418.83 880.998   4
   0   5  -3 3642.62 666.922   4
  -5   0  -3 4667.37 923.580   5
  -5   0   3 4834.07 814.653   1
   5   0  -3 4657.10 685.234   3
   0  -5   3 4681.45 520.420   1
   5   0  -4 38731.1 2398.03   3
  -5   0  -4 41504.1 2987.81   5
   0  -5   4 34701.3 1924.46   1
   0   5   4 36707.7 2702.29   4
  -5   0   4 34695.1 2475.17   1
   0   5  -4 31755.7 2309.03   4
   0   5   5-376.571 196.349   4
  -5   0   5-35.9736 207.329   1
   0  -5   5-147.128 104.688   1
  -5   0  -5 200.029 235.886   5
   5   0  -5-402.843 287.666   3
   0   5   6 97.7264 265.019   4
  -5   0   6 655.774 311.130   1
   0  -5   6 306.616 154.738   1
  -5   0  -6 515.578 370.139   5
   5   0  -6 354.220 268.607   3
   0   5   7 341.099 394.560   4
  -5   0   7 409.897 320.535   1
   0  -5   7 251.070 148.150   1
  -5   0  -7 318.822 341.881   5
   5   0  -7 781.793 386.948   3
   0   5   8-247.429 241.697   4
  -5   0  -8-173.829 270.575   5
   5   0  -8 88.9676 241.809   3
  -5   0   8 105.536 169.046   1
   0   5   9 4861.01 898.693   4
  -5   0  -9 6149.29 1040.72   5
   5   0  -9 6846.80 1082.88   3
  -5   0   9 6142.83 962.031   1
   0   5  10 6285.71 1019.70   4
  -5   0 -10 5265.80 983.919   5
   5   0 -10 7152.86 1094.47   3
  -5   0  10 6253.66 988.830   1
   0   5  11 4201.84 869.583   4
  -5   0 -11 4682.75 901.310   5
   5   0 -11 4743.51 952.173   3
  -5   0  11 4867.76 852.502   1
   0   5  12 4274.69 877.935   4
  -5   0 -12 3766.22 775.480   5
  -5   0  12 5967.41 994.121   1
   5   0 -12 5543.99 1054.61   3
   0   5  13 210.034 189.755   4
  -5   0  13 106.127 221.397   1
  -5   0 -13 142.967 372.971   5
   5   0 -13 164.451 281.677   3
   0   5  14 202.076 249.712   4
  -5   0  14 480.072 308.256   1
  -5   0 -14 115.595 330.126   5
   5   0 -14 876.051 453.730   3
   0   5  15 3235.45 783.853   4
  -5   0  15 1690.00 522.457   1
  -5   0 -15 3136.37 744.640   5
   5   0 -15 2778.84 793.603   3
   0   5  16 351.803 264.580   4
  -5   0  16 78.7431 291.515   1
  -5   0 -16 354.047 412.847   5
   5   0 -16 941.003 475.605   3
   0   5  17 2664.34 687.091   4
  -5   0  17 3807.66 858.632   1
  -5   0 -17 2878.00 734.632   5
   5   0 -17 3076.14 834.317   3
   0   5  18 3421.69 803.214   4
  -5   0  18 3493.88 888.149   1
  -5   0 -18 3277.64 833.903   5
   5   0 -18 2747.91 816.292   3
   0   5  19-46.4036 308.336   4
  -5   0  19 128.611 302.026   1
   5   0 -19 139.754 347.130   3
  -5   1  20 623.842 297.321   1
  -5   1  19 4736.36 959.251   1
   5   1 -19 5478.13 1107.24   3
  -5   1  18 2664.97 746.965   1
   5   1 -18 2246.58 730.614   3
  -5  -1 -18 2391.55 641.583   5
   1   5  18 2138.28 632.730   4
  -5   1  17 3844.97 862.465   1
   5   1 -17 3683.18 925.111   3
  -5  -1 -17 4069.27 928.098   5
   1   5  17 3516.63 796.026   4
  -5   1  16 1056.69 488.302   1
   5   1 -16 107.000 262.548   3
  -5  -1 -16 812.620 441.192   5
   1   5  16 564.725 357.042   4
  -5   1  15 2044.34 683.607   1
   5   1 -15 2171.21 667.617   3
  -5  -1 -15 2233.32 641.490   5
   1   5  15 1276.93 472.393   4
  -5   1  14 4308.45 834.640   1
   5   1 -14 4058.56 880.277   3
  -5  -1 -14 4574.73 940.989   5
   1   5  14 3219.81 731.544   4
   5   1 -13 1503.30 529.678   3
  -5   1  13 1401.13 489.706   1
  -5  -1 -13 1208.84 531.745   5
   1   5  13 1460.50 512.170   4
   5   1 -12 670.518 437.247   3
  -5  -1 -12 805.629 461.485   5
  -5   1  12 514.855 341.384   1
   1   5  12-191.299 301.617   4
   5   1 -11 6702.03 1019.28   3
  -5   1  11 7868.83 1096.96   1
  -5  -1 -11 6331.54 1097.98   5
   1   5  11 6636.44 1033.46   4
  -1  -5  10 4358.86 750.727   1
   5   1 -10 3721.74 719.206   3
  -5  -1 -10 4524.36 947.991   5
  -5   1  10 4426.69 800.778   1
   1   5  10 4635.59 862.980   4
   1   5   9 5644.72 952.803   4
  -1  -5   9 5418.92 810.984   1
   5   1  -9 5048.34 803.772   3
  -5   1   9 5202.29 843.265   1
   5   1  -8 14698.7 1364.98   3
  -5   1   8 13964.2 1165.70   5
  -1  -5   8 17844.7 1452.49   1
  -5   1   8 16099.2 1502.33   1
   1   5   8 16327.2 1666.25   4
   5   1  -7 10020.9 1044.50   3
  -5   1   7 10175.5 1005.65   5
  -1  -5   7 10932.2 1088.07   1
  -5   1   7 11559.2 1242.58   1
   1   5   7 13361.5 1475.75   4
   1   5   6 15.7738 201.506   4
  -5   1   6 354.241 342.090   1
   5   1  -6 6.29005 124.801   3
  -5   1   6-26.9079 122.779   5
  -1  -5   6 307.574 206.997   1
   1   5   5 1170.43 478.967   4
   5   1  -5 1250.05 322.082   3
  -5   1   5 1882.87 509.239   1
  -5   1   5 986.394 325.148   5
  -1  -5   5 1421.16 367.925   1
   1   5   4 3767.35 752.849   4
  -1  -5   4 3682.06 551.334   1
   5   1  -4 3037.06 474.710   3
  -5   1   4 3897.80 675.311   5
  -5   1   4 4180.98 727.157   1
  -5  -1  -3 7619.35 1059.83   1
   5   1  -3 6924.55 705.493   3
  -5   1   3 8296.41 1013.19   5
  -1  -5   3 7224.87 798.227   1
   1   5   3 8012.52 1113.21   4
  -5   1   3 7722.00 995.049   1
   1   5   2-179.472 204.022   4
   5   1  -2 57.1000 110.554   3
  -5   1   2 247.449 209.734   1
  -1  -5   2-114.407 170.165   1
  -5   1   2 375.483 321.457   5
  -5  -1  -2-54.9815 179.486   1
  -5   1   1 8524.70 1035.52   1
  -5  -1  -1 7429.34 1032.12   1
  -5   1   1 9059.62 1104.03   5
   1   5   1 8964.95 1142.56   4
  -1  -5   1 8502.43 844.421   1
   1   5   0 940.427 421.146   4
  -5   1   0 525.632 297.426   1
  -1   5   0 961.264 339.064   4
  -5  -1   0 869.244 382.662   1
  -5   1   0 1025.50 347.372   5
  -1  -5   0 1255.44 343.624   1
  -5  -1   1 8610.90 1143.71   1
  -1  -5  -1 9045.31 837.279   1
  -5   1  -1 7865.36 1114.01   5
   1   5  -1 8084.16 1072.61   4
  -1   5   1 8451.40 1093.03   4
  -5   1  -1 7016.18 955.136   1
   1   5  -2-83.8090 186.699   4
  -1   5   2 90.3247 204.449   4
  -5   1  -2 40.6339 231.762   5
  -5  -1   2-101.145 228.780   1
  -5   1  -3 7767.08 1110.56   5
   1   5  -3 7581.54 990.674   4
  -1   5   3 7771.20 1087.09   4
  -5  -1   3 8948.18 1164.88   1
   1   5  -4 3594.93 665.106   4
  -1   5   4 4175.50 781.553   4
  -5  -1   4 3866.89 755.035   1
  -5   1  -4 4228.31 816.752   5
   5  -1  -4 3849.75 739.170   2
  -1   5   5 1550.99 511.270   4
   1   5  -5 1304.30 400.050   4
  -5  -1   5 1711.61 511.499   1
   5  -1  -5 1712.35 511.476   2
  -5   1  -5 1531.63 535.972   5
  -1   5   6-71.6067 227.521   4
   1   5  -6 336.422 221.122   4
  -5  -1   6 598.128 329.861   1
   5  -1  -6 214.063 159.060   2
  -5   1  -6 330.941 365.422   5
   5  -1  -7 12541.6 1482.92   2
  -5   1  -7 11239.3 1406.12   5
  -5  -1   7 9983.42 1269.89   1
  -1   5   7 14082.7 1583.87   4
   5  -1  -8 17306.2 1812.62   2
  -5   1  -8 16733.5 1766.65   5
  -5  -1   8 14157.5 1556.16   1
  -1   5   8 20259.1 1942.35   4
  -1   5   9 5971.96 1039.77   4
   5  -1  -9 5979.48 1064.05   2
  -5   1  -9 5271.02 949.352   5
  -5  -1   9 5380.88 921.821   1
  -1   5  10 5158.93 966.431   4
   5  -1 -10 4166.43 940.631   2
  -5   1 -10 2874.09 689.548   5
  -5  -1  10 4142.44 835.416   1
   5  -1 -11 5835.92 1090.79   2
  -5   1 -11 7721.16 1189.23   5
  -5  -1  11 7014.64 1087.78   1
  -1   5  11 7994.63 1223.23   4
  -1   5  12 977.155 507.731   4
   5  -1 -12 279.225 415.089   2
  -5   1 -12 1369.66 534.492   5
  -5  -1  12 84.4568 208.459   1
  -1   5  13 2003.28 714.283   4
  -5   1 -13 1699.19 645.984   5
  -5  -1  13 1290.11 513.151   1
  -1   5  14 4016.60 889.988   4
  -5  -1  14 2715.81 729.731   1
  -5   1 -14 4786.24 945.540   5
   5  -1 -14 3697.70 904.659   3
  -1   5  15 2733.38 768.838   4
  -5  -1  15 3712.69 851.348   1
  -5   1 -15 2160.41 631.817   5
   5  -1 -15 2149.53 752.562   3
  -1   5  16 1231.18 500.811   4
  -5  -1  16 413.001 330.299   1
  -5   1 -16 357.116 227.541   5
   5  -1 -16 1092.24 580.494   3
  -1   5  17 4942.98 1034.95   4
  -5  -1  17 5394.82 1107.83   1
  -5   1 -17 4077.50 947.044   5
   5  -1 -17 4081.70 1029.43   3
  -1   5  18 2568.80 786.143   4
  -5  -1  18 2662.91 856.879   1
   5  -1 -18 2572.78 841.842   3
  -1   5  19 4688.73 1036.98   4
  -1   5  20 1187.94 584.477   4
   5   2 -18 1015.02 417.590   3
   5   2 -17 1257.25 566.914   3
  -5  -2 -17 1694.39 610.084   5
   5   2 -16 4034.70 895.080   3
  -5   2  16 2903.99 752.295   1
  -5  -2 -16 2703.99 773.938   5
   2   5  16 2101.18 639.146   4
  -2  -5  15 364.621 210.524   1
   5   2 -15 1162.84 515.823   3
  -5   2  15 1360.01 532.959   1
  -5  -2 -15 1412.80 697.417   5
   2   5  15 1860.80 613.410   4
  -2  -5  14 113.500 341.828   1
   5   2 -14 499.535 295.346   3
  -5   2  14 698.654 388.961   1
   2   5  14 1032.63 452.482   4
   5   2 -13 8273.10 1195.13   3
  -2  -5  13 6954.52 1092.96   1
  -5   2  13 8015.12 1129.57   1
   2   5  13 6777.34 1129.13   4
  -2  -5  12 3555.14 735.019   1
   5   2 -12 2784.52 671.848   3
  -5   2  12 3673.61 758.020   1
   2   5  12 2982.18 732.327   4
  -2  -5  11 1152.34 416.837   1
   5   2 -11 1036.87 426.206   3
  -5   2  11 845.002 333.179   1
   2   5  11 1247.09 443.837   4
  -5   2  10 1093.91 423.561   1
   5   2 -10 1355.00 409.539   3
  -2  -5  10 1443.24 474.466   1
   2   5  10 1712.21 573.525   4
   5   2  -9 7020.51 956.224   3
  -2  -5   9 7419.62 1030.05   1
   2   5   9 7577.47 1136.00   4
  -5   2   9 8004.08 1022.28   1
   5   2  -8 11486.9 1201.62   3
  -2  -5   8 10997.2 1243.25   1
   2   5   8 9264.29 1268.01   4
  -5   2   8 11042.4 1199.66   1
   5   2  -7 7340.71 925.925   3
  -5   2   7 8984.74 939.488   5
  -2  -5   7 7241.13 978.232   1
   2   5   7 7493.17 1098.81   4
  -5   2   7 8297.04 1006.88   1
   5   2  -6 18817.4 1512.77   3
  -5   2   6 17484.5 1430.60   5
  -2  -5   6 19635.1 1643.95   1
   2   5   6 19796.0 1895.13   4
  -5   2   6 18877.5 1598.88   1
   5  -2   5 30094.1 1927.62   2
  -5   2   5 32802.6 2102.39   5
  -2  -5   5 32494.9 2232.85   1
   2   5   5 36809.6 2622.11   4
  -5   2   5 34359.7 2266.60   1
   5  -2   4 9843.45 964.249   2
  -5   2   4 10245.0 1103.31   1
  -5   2   4 7784.16 922.849   5
   2   5   4 11779.5 1347.34   4
  -2  -5   4 10249.5 1083.70   1
  -5   2   3 11730.4 1177.68   1
  -5  -2  -3 11972.0 1403.57   1
  -5   2   3 9198.17 1022.82   5
   2   5   3 12225.1 1340.50   4
  -2  -5   3 10630.7 1122.33   1
   5  -2   3 11384.4 1087.81   2
  -5  -2  -2 8734.70 1171.14   1
  -5   2   2 7568.07 932.894   1
  -5   2   2 7679.54 937.162   5
   2   5   2 8426.33 1098.96   4
  -2  -5   2 8805.86 1004.98   1
   5  -2   2 8249.85 956.493   2
  -5  -2  -1 3143.73 731.579   1
   2   5   1 2750.34 649.813   4
  -2  -5   1 2611.93 531.304   1
   5  -2   1 3034.71 566.041   2
  -5   2   1 2456.08 589.982   5
  -5   2   1 3349.63 635.322   1
  -5  -2   0 7269.19 1090.31   1
  -2  -5   0 8304.68 934.746   1
  -5   2   0 6754.08 944.699   5
   2   5   0 8217.50 1058.21   4
   5  -2   0 7053.52 921.881   2
   2   5  -1 2239.25 551.361   4
  -5  -2   1 3465.10 745.367   1
   5  -2  -1 3226.83 628.722   2
  -2  -5  -1 2835.01 524.447   1
  -5   2  -1 2357.22 554.291   5
  -2  -5  -2 8352.89 966.011   1
  -5   2  -2 7403.06 1060.81   5
   2   5  -2 8184.99 1022.20   4
  -5  -2   2 9650.74 1249.62   1
   5  -2  -2 8766.97 1093.91   2
  -5   2  -3 12507.1 1404.84   5
   2   5  -3 13310.3 1325.66   4
  -5  -2   3 13822.6 1517.26   1
   5  -2  -3 10006.8 1239.98   2
  -5   2  -4 10113.6 1284.47   5
   2   5  -4 10404.3 1139.32   4
  -5  -2   4 10437.3 1314.59   1
   5  -2  -4 7767.70 1073.68   2
  -5   2  -5 33629.7 2621.16   5
  -5  -2   5 32573.8 2556.23   1
   2   5  -5 36875.1 2370.58   4
  -2   5   5 33126.1 2575.36   4
   5  -2  -5 31471.4 2440.66   2
  -5   2  -6 21703.3 2021.73   5
  -5  -2   6 16294.7 1700.19   1
   2   5  -6 19749.9 1580.28   4
  -2   5   6 19249.5 1873.69   4
   5  -2  -6 18469.5 1778.96   2
  -5   2  -7 9567.22 1331.99   5
  -5  -2   7 7643.51 1123.50   1
   2   5  -7 7064.61 885.302   4
  -2   5   7 9047.55 1210.51   4
   5  -2  -7 7923.16 1121.52   2
  -5   2  -8 12628.2 1566.75   5
  -5  -2   8 9732.45 1272.55   1
  -2   5   8 11374.4 1413.72   4
   2   5  -8 11538.2 1117.24   4
   5  -2  -8 11482.1 1357.91   2
  -2   5   9 8103.27 1167.72   4
  -5   2  -9 8121.12 1305.36   5
  -5  -2   9 8503.49 1200.56   1
   5  -2  -9 7007.36 1094.39   2
  -2   5  10 1268.59 462.769   4
   5  -2 -10 1498.32 475.051   2
  -5   2 -10 1800.61 704.495   5
  -5  -2  10 1476.93 549.817   1
  -2   5  11 323.142 266.447   4
   5  -2 -11 1192.10 434.533   2
  -5   2 -11 1117.77 548.201   5
  -5  -2  11 1009.66 497.080   1
  -2   5  12 3720.65 833.218   4
   5  -2 -12 3637.04 813.805   2
  -5   2 -12 4939.09 1050.22   5
  -5  -2  12 3129.79 754.869   1
  -2   5  13 6683.27 1109.79   4
   5  -2 -13 6485.20 1084.98   2
  -5   2 -13 10054.8 1542.57   5
  -5  -2  13 6032.80 1103.88   1
  -2   5  14 142.556 206.377   4
   5  -2 -14 496.487 410.879   2
  -5   2 -14 1373.60 570.947   5
  -5  -2  14 407.779 347.649   1
  -2   5  15 1460.41 543.359   4
   5  -2 -15 940.016 465.834   2
  -5   2 -15 1770.68 753.828   5
  -5  -2  15 1797.42 673.772   1
  -2   5  16 2060.63 687.951   4
   5  -2 -16 1644.67 559.317   2
  -5  -2  16 1671.31 642.810   1
  -5   2 -16 2221.31 802.268   5
  -2   5  17 797.043 451.549   4
  -2   5  18 577.797 276.344   4
  -2   5  19 3759.62 958.631   4
  -2   5  20 3241.89 901.677   4
  -3  -5  16 2607.44 766.612   1
  -3  -5  15 874.672 563.405   1
  -3  -5  14 7.04338 191.873   1
   3   5  14 660.433 326.022   4
  -3  -5  13 105.372 258.446   1
   3   5  13-250.379 221.780   4
  -3  -5  12 846.771 522.148   1
   3   5  12 778.921 456.560   4
  -3  -5  11 597.335 355.633   1
   3   5  11 391.532 346.202   4
  -3  -5  10 950.834 364.127   1
   3   5  10 1591.36 549.905   4
  -3  -5   9 2172.73 631.472   1
   3   5   9 3727.20 864.834   4
  -3  -5   8 3754.10 777.900   1
   3   5   8 4333.45 915.630   4
  -3  -5   7 736.648 406.404   1
   3   5   7 1533.88 552.958   4
  -3  -5   6 1775.00 555.729   1
   3   5   6 2794.91 715.697   4
   5  -3   5 1377.97 386.246   2
  -3  -5   5 625.216 282.962   1
  -5   3   5 359.175 193.757   5
   3   5   5 759.246 418.843   4
   5  -3   4 1336.79 382.199   2
  -3  -5   4 922.988 382.200   1
  -5   3   4 899.116 365.288   5
   3   5   4 1517.77 511.375   4
   5  -3   3-230.854 251.497   2
  -5   3   3 209.699 190.055   5
  -3  -5   3 116.938 276.326   1
  -5  -3  -3 667.506 443.032   1
   3   5   3 741.571 319.482   4
  -5  -3  -2 9331.81 1256.90   1
  -5   3   2 7748.57 992.351   5
   3   5   2 9038.63 1157.74   4
   5  -3   2 9304.06 1165.60   2
  -3  -5   2 9446.22 1138.82   1
  -5  -3  -1 1771.26 549.696   1
   5  -3   1 1952.52 556.111   2
  -3  -5   1 1655.82 495.721   1
  -5   3   1 1788.59 495.016   5
   3   5   1 1429.79 429.529   4
   5  -3   0 4863.16 850.914   2
  -5   3   0 3185.81 679.745   5
  -5  -3   0 4177.89 869.595   1
  -3  -5   0 3353.84 672.837   1
   3   5   0 4104.60 743.511   4
   3   5  -1 2165.21 524.581   4
   5  -3  -1 2046.18 608.189   2
  -5  -3   1 2747.59 641.452   1
  -3  -5  -1 1567.26 493.066   1
  -5   3  -1 1490.50 508.980   5
  -3  -5  -2 7179.25 1008.65   1
  -5   3  -2 8080.99 1134.74   5
   3   5  -2 8394.39 1038.54   4
   5  -3  -2 8446.86 1150.75   2
  -5  -3   2 10743.6 1363.37   1
   3   5  -3 455.286 235.604   4
   5  -3  -3 227.591 301.286   2
  -5   3  -3 384.812 273.979   5
  -5  -3   3 112.169 260.821   1
   3   5  -4 754.055 350.925   4
   5  -3  -4 1080.66 440.015   2
  -5   3  -4 1484.74 582.164   5
  -5  -3   4 1169.07 412.106   1
   3   5  -5 716.504 290.214   4
   5  -3  -5 900.539 429.796   2
  -5  -3   5 513.159 373.997   1
  -5   3  -5 432.238 313.113   5
   5  -3  -6 1916.33 592.497   2
  -5  -3   6 1927.93 631.398   1
  -5   3  -6 3511.61 839.921   5
   5  -3  -7 1009.58 401.988   2
  -5  -3   7 892.952 463.527   1
  -5   3  -7 1207.37 528.224   5
  -5  -3   8 3770.80 811.433   1
   5  -3  -8 4103.29 840.920   2
  -5   3  -8 4724.65 1018.37   5
  -5  -3   9 2756.30 672.323   1
   5  -3  -9 2265.76 608.431   2
  -5   3  -9 3686.76 952.413   5
   5  -3 -10 1254.59 475.814   2
  -5   3 -10 1735.64 543.691   5
  -5  -3  10 722.951 415.239   1
   5  -3 -11 714.934 385.886   2
  -5   3 -11 704.821 571.914   5
  -5  -3  11 1139.37 463.351   1
   5  -3 -12-33.4533 269.757   2
  -5  -3  12 118.955 324.613   1
   5  -3 -13 1.46375 197.935   2
  -5  -3  13 501.750 355.705   1
   5  -3 -14 37.0077 252.444   2
  -5   3 -14-80.5948 422.824   5
  -5  -3  14 37.4347 327.879   1
  -3   5  15-222.188 397.144   4
  -3   5  16 1082.03 505.569   4
  -3   5  17 1360.10 560.032   4
  -3   5  18-64.6276 389.832   4
  -4  -5  13 812.629 419.205   1
  -4  -5  12 493.802 411.427   1
  -4   5 -11 3375.09 990.942   5
  -4  -5  11 1541.11 566.843   1
   4   5  11 1880.12 769.022   4
  -4   5 -10 9202.55 1593.66   5
   4   5  10 7950.15 1450.98   4
  -4  -5  10 6013.96 1106.03   1
  -4  -5   9-74.1993 301.104   1
  -4   5  -9 235.815 564.396   5
   4   5   9 244.819 342.120   4
  -4  -5   8 234.851 327.989   1
  -4   5  -8 491.901 442.378   5
   4   5   8 576.140 477.714   4
  -4  -5   7 689.086 387.058   1
  -4   5  -7 2044.67 799.392   5
   4   5   7 1984.73 674.384   4
  -4  -5   6 367.933 296.079   1
   4   5   6 1022.10 535.348   4
  -4   5  -5 3500.32 845.938   5
  -4  -5   5 1914.44 557.131   1
   4   5   5 3483.25 817.822   4
  -4  -5   4 260.492 236.924   1
   4   5   4 71.9135 212.537   4
   5  -4   3 2684.61 719.789   2
  -5  -4  -3 3152.30 797.320   1
  -5   4   3 3873.69 807.830   5
  -4  -5   3 3031.21 719.360   1
   4   5   3 2758.72 713.577   4
   5  -4   2 4883.34 912.923   2
  -4  -5   2 3028.52 783.225   1
  -5  -4  -2 3336.71 780.004   1
  -5   4   2 4372.25 812.844   5
   4   5   2 3385.83 746.865   4
   5  -4   1 341.673 329.839   2
  -5   4   1 317.742 239.260   5
  -5  -4  -1 665.391 477.521   1
  -4  -5   1 717.646 422.604   1
   4   5   1 919.131 409.414   4
   5  -4   0 6459.12 1045.70   2
  -4  -5   0 5159.41 934.761   1
  -5   4   0 6884.67 1046.33   5
  -5  -4   0 5539.31 1034.89   1
   4   5   0 5238.23 843.402   4
   5  -4  -1 386.007 238.318   2
  -5   4  -1 357.940 193.252   5
  -5  -4   1 479.477 416.405   1
  -4  -5  -1 498.515 397.079   1
   4   5  -1 613.529 329.496   4
   5  -4  -2 3101.99 734.484   2
  -5  -4   2 4267.89 908.885   1
  -5   4  -2 2652.58 678.410   5
  -4  -5  -2 2851.07 697.650   1
   4   5  -2 3044.85 598.836   4
   5  -4  -3 2109.16 624.744   2
  -5   4  -3 2057.62 603.480   5
  -5  -4   3 3452.94 858.205   1
   5  -4  -4 562.906 356.051   2
  -5   4  -4 371.300 293.952   5
  -5  -4   4 321.252 334.178   1
   5  -4  -5 2494.31 698.040   2
  -5   4  -5 3020.15 713.257   5
  -5  -4   5 2204.91 623.615   1
   5  -4  -6 417.232 216.554   2
  -5   4  -6 666.688 453.590   5
  -5  -4   6 973.522 411.897   1
   5  -4  -7 1827.54 609.466   2
  -5  -4   7 983.009 544.365   1
  -5   4  -7 1235.64 499.181   5
   5  -4  -8 154.213 317.027   2
  -5  -4   8 281.294 237.249   1
  -5   4  -8 6.04596 235.892   5
   5  -4  -9-182.325 307.594   2
  -5  -4   9 220.881 211.345   1
  -5   4  -9 445.089 284.458   5
  -5  -4  10 6185.79 1092.81   1
   5  -4 -10 6029.78 1117.22   2
  -5   4 -10 7173.50 1321.29   5
   5  -4 -11 1601.39 624.684   2
  -5   4 -11 1003.67 600.694   5
  -5  -4  11 2136.36 733.722   1
  -5   5   0 425.761 479.735   5
  -5  -5   0-167.565 480.360   1
  -5  -5   1 1784.39 622.364   1
  -5  -5  -1 2254.49 668.463   1
  -5   5  -1 1823.01 578.094   5
   5   5   1 2246.60 595.944   4
  -5  -5  -2 513.451 287.959   1
  -5   5  -2-482.577 584.695   5
  -5  -5   2 33.3855 244.113   1
   5   5   2 390.585 377.827   4
  -5  -5   3 529.439 337.255   1
  -5   5  -3-91.1585 371.670   5
   5   5   3 604.695 304.021   4
  -5  -5   4-47.8549 259.431   1
  -5   5  -4 97.2038 382.049   5
   5   5   4 249.846 418.939   4
  -5  -5   5 157.461 213.734   1
   5   5   5-11.7713 179.026   4
  -5   5  -6 15206.7 1924.97   5
   5   5   6 14159.3 1887.88   4
   5  -5  -6 13711.8 1864.09   2
  -5  -5   6 10999.2 1613.97   1
  -5   5  -7 8183.20 1420.86   5
   5   5   7 7749.77 1453.07   4
   0   6   0 44.9382 173.452   4
  -6   0   0 755.875 490.717   5
  -6   0   0 583.708 333.806   1
  -6   0  -1 534.279 431.734   1
   0   6   1 224.188 265.234   4
   0   6  -1 777.569 372.432   4
  -6   0   1 924.143 459.807   1
  -6   0  -1 776.859 477.698   5
  -6   0   1 809.443 591.735   5
  -6   0   2 15497.0 1668.08   1
  -6   0  -2 23064.5 2339.45   5
  -6   0   2 22601.1 2282.83   5
   0   6   2 15983.0 1812.41   4
   0   6  -2 16206.1 1693.60   4
   0   6   3 1120.28 485.886   4
   0   6  -3 2162.40 601.666   4
  -6   0   3 1362.44 469.506   1
  -6   0  -3 2550.27 810.542   5
  -6   0   3 2012.24 635.578   5
  -6   0   4 1296.94 516.046   1
   0   6   4 925.475 468.696   4
  -6   0  -4 2331.42 760.404   5
  -6   0   4 1875.27 573.637   5
   0   6   5 1677.64 686.322   4
  -6   0  -5 1076.46 546.735   5
  -6   0   5 639.811 411.664   5
  -6   0   5 752.620 393.608   1
  -6   0   6 10651.3 1460.40   5
  -6   0  -6 9295.16 1489.38   5
   0   6   6 10158.5 1453.39   4
  -6   0   6 8575.27 1206.29   1
   0   6   7 4237.82 954.281   4
  -6   0   7 2674.63 648.648   1
  -6   0  -7 3052.78 815.172   5
  -6   0   7 4143.43 907.756   5
   0   6   8 339.234 409.188   4
  -6   0   8-138.604 277.064   1
  -6   0  -8 584.820 533.460   5
   0   6   9 47.0142 272.473   4
  -6   0   9-500.111 343.837   1
  -6   0  -9 212.320 247.275   5
   6   0  -9 432.989 320.322   3
   0   6  10 224.058 243.295   4
  -6   0  10 828.881 458.882   1
  -6   0 -10 524.813 403.410   5
   6   0 -10 621.501 376.180   3
   0   6  11 2034.12 729.607   4
  -6   0  11 1808.24 588.528   1
  -6   0 -11 2280.93 698.163   5
   6   0 -11 1903.28 628.822   3
  -6   0  12 2681.46 758.778   1
   0   6  12 3968.93 926.567   4
  -6   0 -12 2652.53 700.836   5
   6   0 -12 2264.36 757.139   3
   0   6  13 4258.87 946.461   4
  -6   0 -13 2064.36 661.150   5
   6   0 -13 4536.34 1028.99   3
  -6   0  13 3755.81 891.874   1
   6   0 -14 1151.68 571.345   3
  -6   0  14 947.064 506.351   1
   6   0 -15 142.868 333.480   3
  -6   0  15 214.722 260.630   1
   6   0 -16 1005.97 561.759   3
   6   1 -17 898.359 593.213   3
   6   1 -16 3030.65 885.666   3
  -6   1  16 3243.41 834.673   1
   6   1 -15 355.929 328.019   3
  -6   1  15 366.967 438.967   1
   6   1 -14 389.724 308.180   3
  -6   1  14 534.393 443.143   1
  -6   1  13 1274.88 530.823   1
   6   1 -13 1136.29 468.218   3
   1   6  12 4684.15 976.135   4
  -6   1  12 4264.64 901.743   1
  -6  -1 -12 4200.23 966.249   5
   1   6  11 75.0805 182.693   4
  -6   1  11 162.709 298.606   1
  -6  -1 -11 611.634 298.625   5
   1   6  10 6906.06 1171.63   4
  -6  -1 -10 7634.14 1339.81   5
  -6   1  10 7783.67 1180.81   1
   1   6   9 261.561 299.301   4
  -6   1   9 759.375 377.608   1
  -6  -1  -9 744.127 521.390   5
  -6  -1  -8 10929.9 1585.65   5
   1   6   8 9238.85 1440.66   4
  -6   1   8 8441.38 1209.82   1
  -6  -1  -7 12680.5 1760.12   5
   1   6   7 10960.1 1498.24   4
  -6   1   7 9023.31 1250.77   1
   1   6   6 920.146 401.176   4
  -6   1   6 917.159 382.995   5
  -6   1   6 927.284 440.499   1
   1   6   5 2402.28 659.697   4
  -6   1   5 2355.51 633.378   1
  -6   1   5 1971.82 522.246   5
   1   6   4 1799.13 650.332   4
  -6   1   4 1382.29 532.072   1
  -6   1   4 1458.66 464.493   5
   1   6   3 2705.83 738.867   4
  -6   1   3 1818.97 495.067   5
  -6   1   3 1979.65 578.962   1
   1   6   2 1703.37 630.820   4
  -6  -1  -2 1482.70 575.578   1
  -6   1   2 1611.63 547.506   1
  -6   1   2 1922.53 586.604   5
  -6  -1  -1 8855.49 1275.89   1
  -6   1   1 9390.96 1239.15   1
  -6   1   1 9500.82 1325.63   5
   1   6   1 11460.0 1465.96   4
  -6  -1   0 9745.53 1309.07   1
  -6   1   0 11711.0 1381.89   1
  -6   1   0 10908.5 1436.18   5
   1   6   0 9940.63 1342.14   4
  -6  -1   1 8268.74 1225.13   1
  -6   1  -1 9585.81 1347.11   5
   1   6  -1 8714.08 1218.82   4
  -1   6   1 10077.0 1349.80   4
   1   6  -2 1707.57 536.003   4
  -1   6   2 2152.58 613.215   4
  -6  -1   2 789.629 448.608   1
  -6   1  -2 2128.17 707.454   5
   1   6  -3 2578.15 630.398   4
  -1   6   3 1690.21 552.842   4
  -6  -1   3 1966.08 571.279   1
  -6   1  -3 2125.78 710.216   5
  -1   6   4 1505.32 538.633   4
   1   6  -4 755.412 369.282   4
  -6   1  -4 1591.34 580.770   5
  -6  -1   4 1676.75 538.511   1
  -1   6   5 2841.36 724.400   4
   1   6  -5 2108.09 571.231   4
  -6   1  -5 2010.98 643.359   5
  -6  -1   5 1017.55 443.431   1
  -1   6   6 1232.34 590.626   4
  -6  -1   6 544.249 249.580   1
  -6   1  -6 1195.66 552.253   5
  -6   1  -7 11480.7 1591.20   5
  -6  -1   7 9235.58 1322.13   1
  -1   6   7 11259.7 1543.04   4
  -6   1  -8 9636.51 1466.80   5
  -6  -1   8 9913.14 1358.68   1
  -1   6   8 10211.9 1483.70   4
  -1   6   9 287.278 466.493   4
  -6  -1   9 51.6184 247.407   1
  -6   1  -9 701.225 416.054   5
  -1   6  10 8233.41 1377.51   4
  -6  -1  10 6348.68 1134.10   1
  -6   1 -10 7493.14 1291.17   5
   6  -1 -10 6944.95 1177.05   3
  -6  -1  11 263.345 285.696   1
  -1   6  11 481.984 383.075   4
  -6   1 -11 664.451 381.542   5
   6  -1 -11 84.3039 265.802   3
  -6   1 -12 3100.47 854.761   5
   6  -1 -12 3313.76 913.011   3
  -6  -1  12 3594.91 854.989   1
  -1   6  13 371.605 330.544   4
  -6  -1  13 728.029 384.779   1
   6  -1 -14 39.8785 314.011   3
   6  -1 -15 1090.32 591.242   3
   6  -1 -16 3180.79 999.678   3
   2   6  11 619.947 408.546   4
   2   6  10 1356.43 601.420   4
   2   6   9 22.1735 367.856   4
   2   6   8 3055.93 828.561   4
  -6   2   8 3041.53 677.712   1
   2   6   7 3618.84 835.064   4
  -6   2   7 3511.28 727.465   1
   2   6   6 1551.29 553.869   4
  -6   2   6 2240.92 589.987   1
   2   6   5 147.234 305.759   4
  -6   2   5 635.650 289.001   1
   2   6   4 5610.36 991.317   4
  -6   2   4 5564.24 856.444   1
  -6   2   4 5322.49 835.531   5
   2   6   3 3814.93 818.691   4
  -6   2   3 3644.97 730.618   1
  -6   2   3 3619.67 726.101   5
   2   6   2 812.052 423.745   4
  -6   2   2 762.043 331.507   1
  -6   2   2 398.815 218.279   5
  -6  -2  -2 957.594 370.509   1
   2   6   1 1520.93 566.996   4
  -6   2   1 2367.35 617.142   5
  -6  -2  -1 3094.80 783.557   1
   2   6   0 1606.84 544.001   4
  -6  -2   0 1086.54 569.194   1
   6  -2   0 1232.56 356.892   2
  -6   2   0 1075.31 467.220   5
   2   6  -1 1945.64 575.974   4
   6  -2  -1 1820.73 513.670   2
  -6   2  -1 1094.21 384.817   5
  -6  -2   1 1793.30 644.522   1
   2   6  -2 1193.72 460.871   4
   6  -2  -2 438.560 369.437   2
  -6  -2   2 774.683 504.561   1
  -6   2  -2 859.947 408.831   5
   2   6  -3 4355.84 823.853   4
  -6  -2   3 4422.49 939.464   1
   6  -2  -3 2782.93 680.916   2
  -6   2  -3 3140.58 812.343   5
   2   6  -4 4948.13 877.899   4
   6  -2  -4 4891.55 923.300   2
  -6   2  -4 5742.24 1082.36   5
  -6  -2   4 4970.56 1004.40   1
   2   6  -5 281.764 170.309   4
   6  -2  -5 90.4979 276.121   2
  -6   2  -5-373.976 377.796   5
  -6  -2   5 10.8676 287.059   1
   2   6  -6 1381.72 462.985   4
  -2   6   6 1208.21 538.070   4
   6  -2  -6 1950.63 642.058   2
  -6   2  -6 2296.45 654.281   5
  -6  -2   6 1175.40 503.426   1
  -2   6   7 3892.44 920.300   4
   6  -2  -7 3504.43 842.182   2
  -6  -2   7 3156.23 760.715   1
  -6   2  -7 3650.77 949.013   5
  -2   6   8 3514.19 861.478   4
   6  -2  -8 3404.09 802.307   2
  -6  -2   8 2330.83 661.107   1
  -6   2  -8 3478.89 870.109   5
  -6  -2   9 664.929 393.243   1
   6  -2  -9 211.415 416.934   2
  -6   2  -9 82.9747 284.159   5
  -2   6  10-366.559 416.195   4
   6  -2 -10 196.034 262.085   2
  -6   2 -10 313.726 293.717   5
  -6  -2  11 1775.83 624.726   1
  -2   6  11 1799.00 646.532   4
   6  -2 -11 1544.10 588.749   2
  -6   2 -11 988.038 591.147   5
  -2   6  12 182.971 202.504   4
  -3  -6  14 1725.80 626.689   1
  -3  -6  13-448.120 348.122   1
  -3  -6  12-309.086 384.744   1
  -3  -6  11-263.593 456.193   1
  -3  -6  10 252.574 201.849   1
  -3  -6   9 998.974 404.985   1
  -3  -6   8 539.956 345.428   1
   3   6   8 361.580 347.520   4
  -3  -6   7-245.428 408.745   1
   3   6   7-403.054 377.759   4
  -3  -6   6 4865.91 895.234   1
   3   6   6 5172.19 1039.64   4
  -3  -6   5 885.179 462.365   1
   3   6   5 711.676 454.684   4
   3   6   4 3753.97 873.282   4
  -3  -6   4 4072.97 807.172   1
   3   6   3 2621.49 708.806   4
  -3  -6   3 3602.05 787.521   1
   3   6   2 3937.14 817.913   4
  -6   3   2 3814.43 774.988   5
  -3  -6   2 4442.64 824.281   1
  -6  -3  -2 3607.16 825.789   1
   3   6   1 3334.78 754.208   4
  -3  -6   1 3696.90 743.727   1
   6  -3   1 2894.82 637.460   2
  -6   3   1 5186.29 912.370   5
  -6  -3  -1 5151.72 1024.20   1
   3   6   0 443.723 362.320   4
  -6  -3   0 520.984 455.621   1
   6  -3   0 472.413 332.285   2
  -6   3   0 72.5301 213.486   5
  -3  -6   0 5.25018 247.536   1
   3   6  -1 3433.99 752.539   4
   6  -3  -1 3504.17 769.588   2
  -6   3  -1 4399.96 883.066   5
  -3  -6  -1 3273.14 710.335   1
  -6  -3   1 5419.85 1060.98   1
   3   6  -2 3280.48 723.358   4
   6  -3  -2 3382.14 775.151   2
  -6  -3   2 3617.46 890.439   1
  -6   3  -2 5246.33 987.929   5
   3   6  -3 3328.48 694.391   4
  -6  -3   3 4579.42 977.441   1
   6  -3  -3 2558.70 674.532   2
  -6   3  -3 3147.11 777.299   5
  -6  -3   4 4897.60 1012.85   1
   6  -3  -4 4167.61 858.709   2
  -6   3  -4 4926.14 1035.65   5
   6  -3  -5 390.791 300.204   2
  -6   3  -5 306.039 240.207   5
   6  -3  -6 4033.90 840.152   2
  -6   3  -6 6253.85 1220.04   5
  -6  -3   6 5450.54 1089.31   1
   6  -3  -7 173.860 214.130   2
  -6   3  -7 409.288 484.242   5
  -6  -3   7-341.203 384.992   1
   6  -3  -8 267.277 180.759   2
  -6   3  -8 1077.91 586.773   5
   6  -3  -9 499.706 192.086   2
  -6   3  -9 775.786 498.584   5
  -4  -6   9 719.322 442.930   1
  -4  -6   8 1668.47 587.066   1
  -4  -6   7 552.507 336.839   1
  -4  -6   6 702.375 384.782   1
  -4  -6   5 768.382 474.774   1
   4   6   5 382.822 260.400   4
  -4  -6   4 3896.24 876.544   1
   4   6   4 3714.33 830.175   4
  -4  -6   3-107.066 274.430   1
   4   6   3 532.326 388.104   4
  -4  -6   2 565.857 360.698   1
   4   6   2 146.082 189.227   4
   4   6   1-378.305 280.447   4
  -4  -6   1 220.999 202.239   1
   4   6   0-102.475 256.935   4
  -4  -6   0-303.661 441.543   1
   6  -4   0-144.508 312.976   2
  -6   4   0 75.1024 219.382   5
   6  -4  -1-655.670 377.458   2
  -6   4  -1 34.4851 231.513   5
  -4  -6  -1 304.129 308.296   1
   6  -4  -2 316.928 248.609   2
  -6   4  -2 404.226 192.178   5
   6  -4  -3 1418.09 578.891   2
  -6   4  -3 739.361 367.870   5
   6  -4  -4 3478.93 845.780   2
  -6   4  -4 1993.02 596.746   5
   6  -4  -5-37.9250 356.632   2
  -6   4  -5 203.702 235.599   5
   6  -4  -6 1389.19 578.071   2
  -6   4  -6 608.675 348.694   5
   0   7   0-35.8993 340.167   4
  -7   0   0 147.200 324.775   1
  -7   0   0 630.211 526.170   5
   0   7   1 190.519 229.401   4
   0   7  -1 44.7599 175.116   4
  -7   0   1 267.489 319.884   1
  -7   0  -1-253.013 410.466   5
  -7   0   1 729.725 579.894   5
  -7   0   2 12857.3 1658.47   1
  -7   0  -2 17764.6 2226.54   5
  -7   0   2 17310.6 2096.57   5
   0   7   2 16047.0 1937.82   4
   0   7   3-380.088 445.252   4
  -7   0   3 225.607 302.123   1
  -7   0  -3-835.668 674.458   5
  -7   0   3 153.930 433.621   5
   0   7   4 3962.81 1014.56   4
  -7   0  -4 4948.84 1103.86   5
  -7   0   4 5122.62 1083.61   5
  -7   0   4 4046.93 921.139   1
  -7   0   5 1636.89 590.668   1
  -7   0  -5 1359.21 656.101   5
  -7   0   6 4169.88 925.482   1
  -7   0  -6 3608.96 1049.18   5
  -7   0   7 1165.77 585.907   1
  -7   0   8 703.084 324.497   1
  -7   1  11 2679.71 748.978   1
  -7   1  10-305.490 254.781   1
  -7   1   9 964.885 522.268   1
  -7   1   8 1729.00 633.714   1
  -7   1   7 1078.27 542.918   1
  -7   1   6 401.509 332.352   1
  -7   1   5 341.154 233.647   1
   1   7   4 1472.44 668.850   4
  -7   1   4 240.711 255.824   1
  -7  -1  -4 465.241 587.324   5
   1   7   3 4443.91 1029.35   4
  -7   1   3 3118.96 795.696   1
  -7   1   3 4129.86 968.607   5
  -7  -1  -3 5146.96 1249.01   5
   1   7   2 345.100 347.374   4
  -7   1   2-56.0423 239.271   1
  -7   1   2-387.605 290.586   5
  -7  -1  -1 189.594 311.633   1
   1   7   1 916.041 542.819   4
  -7   1   1 633.817 324.810   5
   1   7   0 100.383 219.023   4
  -7  -1   0-697.851 430.885   1
  -7   1   0-74.4854 354.588   5
   1   7  -1-143.833 320.111   4
  -7   1  -1 472.481 377.534   5
  -7  -1   1 305.479 324.674   1
   1   7  -2-591.305 477.412   4
  -7  -1   2 246.376 258.114   1
  -7   1  -2-138.922 284.529   5
   1   7  -3 3089.72 799.251   4
  -7   1  -3 2714.73 796.058   5
  -7  -1   3 2734.83 780.089   1
   1   7  -4 391.694 432.450   4
  -7   1  -4 71.2457 382.971   5
  -7   1  -5 381.231 591.267   5
  -7   1  -6 647.955 447.286   5
   2   7   3 207.313 459.909   4
   2   7   2-105.628 326.463   4
   2   7   1-612.536 478.110   4
  -7   2   1 129.822 307.514   5
   2   7   0 283.930 276.064   4
  -7   2   0-1066.01 750.919   5
   2   7  -1 375.468 226.161   4
  -7   2  -1 677.055 409.141   5
   2   7  -2-300.958 209.473   4
  -7   2  -2 133.575 330.078   5
   2   7  -3 339.756 252.883   4
  -7   2  -3-71.7930 485.923   5
  -7   2  -4-401.672 414.715   5
  -7   2  -5 921.450 416.405   5
   3   7   1 3358.95 791.162   4
   3   7   0 114.838 212.300   4
  -7   3  -1 5529.02 1128.76   5
  -7   3  -2 939.695 647.690   5
  -7   3  -3 3297.87 959.498   5
   7  -3  -4 623.285 373.601   2
   0   0   0    0.00    0.00   0
TITL MK-385 in P4(1)2(1)2
REM P4(1)2(1)2 (#92 in standard setting)
CELL 0.71073   5.884899   5.884899  21.426647  90.0000  90.0000  90.0000
ZERR    2.00   0.000165   0.000165   0.000918   0.0000   0.0000   0.0000
LATT -1
SYMM -x,-y, z+1/2
SYMM -y+1/2, x+1/2, z+1/4
SYMM  y+1/2,-x+1/2, z+3/4
SYMM -x+1/2, y+1/2,-z+1/4
SYMM  x+1/2,-y+1/2,-z+3/4
SYMM  y, x,-z
SYMM -y,-x,-z+1/2
SFAC C N O F
UNIT 12.00 4.00 8.00 4.00
TREF
HKLF 4
END
;
_shelx_hkl_checksum              68150
loop_
_space_group_symop_operation_xyz
'x, y, z'
'-x, -y, z+1/2'
'-y+1/2, x+1/2, z+3/4'
'y+1/2, -x+1/2, z+1/4'
'-x+1/2, y+1/2, -z+3/4'
'x+1/2, -y+1/2, -z+1/4'
'y, x, -z'
'-y, -x, -z+1/2'
loop_
_atom_site_label
_atom_site_type_symbol
_atom_site_fract_x
_atom_site_fract_y
_atom_site_fract_z
_atom_site_U_iso_or_equiv
_atom_site_adp_type
_atom_site_occupancy
_atom_site_site_symmetry_order
_atom_site_calc_flag
_atom_site_refinement_flags_posn
_atom_site_refinement_flags_adp
C1 C 0.3423(5) 0.2490(4) 0.97276(12) 0.0173(6) Uani 1 1 d . .
C2 C 0.5348(5) 0.3413(5) 0.94659(12) 0.0198(7) Uani 1 1 d . .
H2 H 0.6001 0.2770 0.9112 0.024 Uiso 1 1 calc R U
C3 C 0.6283(5) 0.5305(5) 0.97389(12) 0.0212(7) Uani 1 1 d . .
N1 N 0.2264(4) 0.0667(4) 0.93889(10) 0.0211(6) Uani 1 1 d . .
O1 O 0.3443(4) -0.0785(3) 0.91377(9) 0.0301(6) Uani 1 1 d . .
O2 O 0.0180(3) 0.0750(4) 0.93624(8) 0.0269(6) Uani 1 1 d . .
F1 F 0.8169(3) 0.6232(3) 0.94993(7) 0.0334(6) Uani 1 1 d . .
loop_
_atom_site_aniso_label
_atom_site_aniso_U_11
_atom_site_aniso_U_22
_atom_site_aniso_U_33
_atom_site_aniso_U_23
_atom_site_aniso_U_13
_atom_site_aniso_U_12
C1 0.0201(15) 0.0160(14) 0.0157(10) 0.0013(12) -0.0038(13) 0.0003(12)
C2 0.0195(15) 0.0237(16) 0.0161(12) 0.0014(13) 0.0004(11) 0.0033(13)
C3 0.0166(15) 0.0259(16) 0.0212(12) 0.0076(13) -0.0002(13) -0.0040(12)
N1 0.0286(15) 0.0187(14) 0.0160(10) 0.0036(11) -0.0026(11) -0.0018(11)
O1 0.0404(14) 0.0226(12) 0.0273(10) -0.0076(10) -0.0018(11) 0.0097(10)
O2 0.0224(12) 0.0320(14) 0.0263(10) -0.0011(10) -0.0037(10) -0.0064(9)
F1 0.0280(11) 0.0391(11) 0.0330(9) 0.0049(9) 0.0046(8) -0.0134(9)
loop_
_atom_type_symbol
_atom_type_description
_atom_type_scat_dispersion_real
_atom_type_scat_dispersion_imag
_atom_type_scat_source
C C 0.0033 0.0016 'International Tables Vol C Tables 4.2.6.8 and 6.1.1.4'
N N 0.0061 0.0033 'International Tables Vol C Tables 4.2.6.8 and 6.1.1.4'
O O 0.0106 0.0060 'International Tables Vol C Tables 4.2.6.8 and 6.1.1.4'
F F 0.0171 0.0103 'International Tables Vol C Tables 4.2.6.8 and 6.1.1.4'
H H 0.0000 0.0000 'International Tables Vol C Tables 4.2.6.8 and 6.1.1.4'
loop_
_geom_angle_atom_site_label_1
_geom_angle_atom_site_label_2
_geom_angle_atom_site_label_3
_geom_angle
_geom_angle_site_symmetry_1
_geom_angle_site_symmetry_3
C2 C1 C1 120.49(16) . 7_557
C2 C1 N1 118.1(2) . .
C1 C1 N1 121.15(15) 7_557 .
C3 C2 C1 118.4(2) . .
C3 C2 H2 120.8 . .
C1 C2 H2 120.8 . .
F1 C3 C2 119.9(2) . .
F1 C3 C3 119.03(13) . 7_557
C2 C3 C3 121.02(16) . 7_557
O1 N1 O2 124.9(3) . .
O1 N1 C1 117.7(2) . .
O2 N1 C1 117.3(3) . .
loop_
_geom_bond_atom_site_label_1
_geom_bond_atom_site_label_2
_geom_bond_distance
_geom_bond_site_symmetry_2
C1 C2 1.376(4) .
C1 C1 1.402(5) 7_557
C1 N1 1.464(3) .
C2 C3 1.373(4) .
C2 H2 0.9300 .
C3 F1 1.339(3) .
C3 C3 1.384(5) 7_557
N1 O1 1.226(3) .
N1 O2 1.229(3) .
loop_
_geom_torsion_atom_site_label_1
_geom_torsion_atom_site_label_2
_geom_torsion_atom_site_label_3
_geom_torsion_atom_site_label_4
_geom_torsion
_geom_torsion_site_symmetry_1
_geom_torsion_site_symmetry_4
C1 C1 C2 C3 -2.1(5) 7_557 .
N1 C1 C2 C3 172.0(3) . .
C1 C2 C3 F1 179.4(2) . .
C1 C2 C3 C3 -0.7(5) . 7_557
C2 C1 N1 O1 41.0(3) . .
C1 C1 N1 O1 -144.9(3) 7_557 .
C2 C1 N1 O2 -136.8(3) . .
C1 C1 N1 O2 37.2(4) 7_557 .
